MODEL        1
REMARK 921   NORMALIZED FREE ENERGY PREDICTED BY IDOCK:   -6.74 KCAL/MOL
REMARK 922        TOTAL FREE ENERGY PREDICTED BY IDOCK:   -8.62 KCAL/MOL
REMARK 923 INTER-LIGAND FREE ENERGY PREDICTED BY IDOCK:   -7.93 KCAL/MOL
REMARK 924 INTRA-LIGAND FREE ENERGY PREDICTED BY IDOCK:   -0.69 KCAL/MOL
REMARK 927      BINDING AFFINITY PREDICTED BY RF-SCORE:    0.00 PKD
ROOT
HETATM    1  C   UNL     1      -7.454  20.914  67.204  1.00  0.00    -0.332 C  
HETATM    2  C   UNL     1      -8.283  19.706  66.883  1.00  0.00    -0.323 A  
HETATM    3  C   UNL     1      -9.628  19.816  66.532  1.00  0.00    -0.509 A  
HETATM    4  C   UNL     1     -10.359  18.673  66.159  1.00  0.00    -0.481 A  
HETATM    5  C   UNL     1      -9.766  17.400  66.133  1.00  0.00    -0.217 A  
HETATM    6  C   UNL     1      -7.709  15.964  66.728  1.00  0.00    -0.245 C  
HETATM    7  C   UNL     1      -8.436  17.278  66.589  1.00  0.00    -0.292 A  
HETATM    8  C   UNL     1      -7.705  18.437  66.927  1.00  0.00    -0.240 A  
ENDROOT
BRANCH   5   9
HETATM    9  S   UNL     1     -10.659  15.943  65.571  1.00  0.00    -0.396 SA 
BRANCH   9  10
HETATM   10  C   UNL     1     -11.092  15.001  67.043  1.00  0.00    -0.334 A  
HETATM   11  C   UNL     1     -11.245  15.743  68.234  1.00  0.00    -0.356 A  
HETATM   12  C   UNL     1     -11.708  15.144  69.403  1.00  0.00    -0.355 A  
HETATM   13  C   UNL     1     -12.024  13.795  69.398  1.00  0.00    -0.397 A  
HETATM   14  C   UNL     1     -11.893  13.053  68.221  1.00  0.00    -0.381 A  
HETATM   15  C   UNL     1     -11.446  13.621  67.008  1.00  0.00    -0.343 A  
BRANCH  15  16
HETATM   16  N   UNL     1     -11.448  12.855  65.850  1.00  0.00    -0.329 NA 
HETATM   17  C   UNL     1     -12.625  12.770  64.967  1.00  0.00    -0.468 C  
HETATM   18  C   UNL     1     -12.152  12.720  63.492  1.00  0.00    -0.559 C  
HETATM   19  N   UNL     1     -11.164  11.658  63.204  1.00  0.00    -0.795 NA 
HETATM   20  C   UNL     1     -10.046  11.745  64.174  1.00  0.00    -0.310 C  
HETATM   21  H   UNL     1     -10.838  11.686  62.239  1.00  0.00     0.000 HD 
HETATM   22  C   UNL     1     -10.521  11.731  65.647  1.00  0.00    -0.265 C  
ENDBRANCH  15  16
ENDBRANCH   9  10
ENDBRANCH   5   9
TORSDOF 3
ENDMDL
MODEL        2
REMARK 921   NORMALIZED FREE ENERGY PREDICTED BY IDOCK:   -6.59 KCAL/MOL
REMARK 922        TOTAL FREE ENERGY PREDICTED BY IDOCK:   -8.44 KCAL/MOL
REMARK 923 INTER-LIGAND FREE ENERGY PREDICTED BY IDOCK:   -7.57 KCAL/MOL
REMARK 924 INTRA-LIGAND FREE ENERGY PREDICTED BY IDOCK:   -0.87 KCAL/MOL
REMARK 927      BINDING AFFINITY PREDICTED BY RF-SCORE:    0.00 PKD
ROOT
HETATM    1  C   UNL     1     -13.266  10.324  72.039  1.00  0.00    -0.516 C  
HETATM    2  C   UNL     1     -12.846  11.543  71.271  1.00  0.00    -0.463 A  
HETATM    3  C   UNL     1     -12.084  11.447  70.107  1.00  0.00    -0.439 A  
HETATM    4  C   UNL     1     -11.772  12.601  69.367  1.00  0.00    -0.387 A  
HETATM    5  C   UNL     1     -12.209  13.873  69.773  1.00  0.00    -0.332 A  
HETATM    6  C   UNL     1     -13.315  15.287  71.624  1.00  0.00    -0.553 C  
HETATM    7  C   UNL     1     -12.889  13.979  71.004  1.00  0.00    -0.410 A  
HETATM    8  C   UNL     1     -13.225  12.809  71.719  1.00  0.00    -0.471 A  
ENDROOT
BRANCH   5   9
HETATM    9  S   UNL     1     -11.899  15.347  68.789  1.00  0.00    -0.267 SA 
BRANCH   9  10
HETATM   10  C   UNL     1     -10.143  15.340  68.387  1.00  0.00    -0.220 A  
HETATM   11  C   UNL     1      -9.265  15.709  69.428  1.00  0.00    -0.279 A  
HETATM   12  C   UNL     1      -7.884  15.612  69.277  1.00  0.00    -0.230 A  
HETATM   13  C   UNL     1      -7.362  15.146  68.082  1.00  0.00    -0.117 A  
HETATM   14  C   UNL     1      -8.221  14.760  67.048  1.00  0.00    -0.211 A  
HETATM   15  C   UNL     1      -9.627  14.823  67.163  1.00  0.00    -0.227 A  
BRANCH  15  16
HETATM   16  N   UNL     1     -10.422  14.318  66.143  1.00  0.00    -0.285 NA 
HETATM   17  C   UNL     1     -10.551  12.872  65.891  1.00  0.00    -0.269 C  
HETATM   18  C   UNL     1     -12.009  12.557  65.473  1.00  0.00    -0.442 C  
HETATM   19  N   UNL     1     -12.507  13.365  64.339  1.00  0.00    -0.620 NA 
HETATM   20  C   UNL     1     -12.276  14.802  64.616  1.00  0.00    -0.393 C  
HETATM   21  H   UNL     1     -13.484  13.167  64.124  1.00  0.00     0.000 HD 
HETATM   22  C   UNL     1     -10.804  15.121  64.971  1.00  0.00    -0.440 C  
ENDBRANCH  15  16
ENDBRANCH   9  10
ENDBRANCH   5   9
TORSDOF 3
ENDMDL
MODEL        3
REMARK 921   NORMALIZED FREE ENERGY PREDICTED BY IDOCK:   -6.58 KCAL/MOL
REMARK 922        TOTAL FREE ENERGY PREDICTED BY IDOCK:   -8.43 KCAL/MOL
REMARK 923 INTER-LIGAND FREE ENERGY PREDICTED BY IDOCK:   -8.23 KCAL/MOL
REMARK 924 INTRA-LIGAND FREE ENERGY PREDICTED BY IDOCK:   -0.20 KCAL/MOL
REMARK 927      BINDING AFFINITY PREDICTED BY RF-SCORE:    0.00 PKD
ROOT
HETATM    1  C   UNL     1     -13.238  10.163  71.917  1.00  0.00    -0.557 C  
HETATM    2  C   UNL     1     -12.782  11.456  71.305  1.00  0.00    -0.498 A  
HETATM    3  C   UNL     1     -11.941  11.481  70.193  1.00  0.00    -0.452 A  
HETATM    4  C   UNL     1     -11.595  12.706  69.594  1.00  0.00    -0.321 A  
HETATM    5  C   UNL     1     -12.077  13.928  70.092  1.00  0.00    -0.349 A  
HETATM    6  C   UNL     1     -13.328  15.142  71.992  1.00  0.00    -0.494 C  
HETATM    7  C   UNL     1     -12.842  13.905  71.277  1.00  0.00    -0.435 A  
HETATM    8  C   UNL     1     -13.210  12.668  71.848  1.00  0.00    -0.504 A  
ENDROOT
BRANCH   5   9
HETATM    9  S   UNL     1     -11.720  15.494  69.283  1.00  0.00    -0.368 SA 
BRANCH   9  10
HETATM   10  C   UNL     1     -11.456  15.127  67.539  1.00  0.00    -0.298 A  
HETATM   11  C   UNL     1     -12.232  14.079  66.999  1.00  0.00    -0.387 A  
HETATM   12  C   UNL     1     -12.212  13.794  65.636  1.00  0.00    -0.484 A  
HETATM   13  C   UNL     1     -11.416  14.553  64.794  1.00  0.00    -0.408 A  
HETATM   14  C   UNL     1     -10.655  15.605  65.313  1.00  0.00    -0.448 A  
HETATM   15  C   UNL     1     -10.658  15.942  66.685  1.00  0.00    -0.305 A  
BRANCH  15  16
HETATM   16  N   UNL     1      -9.970  17.068  67.116  1.00  0.00    -0.273 NA 
HETATM   17  C   UNL     1     -10.551  18.420  67.040  1.00  0.00    -0.366 C  
HETATM   18  C   UNL     1     -10.121  19.228  68.290  1.00  0.00    -0.425 C  
HETATM   19  N   UNL     1      -8.660  19.264  68.521  1.00  0.00    -0.357 NA 
HETATM   20  C   UNL     1      -8.123  17.883  68.505  1.00  0.00    -0.301 C  
HETATM   21  H   UNL     1      -8.418  19.761  69.378  1.00  0.00     0.000 HD 
HETATM   22  C   UNL     1      -8.503  17.100  67.226  1.00  0.00    -0.196 C  
ENDBRANCH  15  16
ENDBRANCH   9  10
ENDBRANCH   5   9
TORSDOF 3
ENDMDL
MODEL        4
REMARK 921   NORMALIZED FREE ENERGY PREDICTED BY IDOCK:   -6.56 KCAL/MOL
REMARK 922        TOTAL FREE ENERGY PREDICTED BY IDOCK:   -8.40 KCAL/MOL
REMARK 923 INTER-LIGAND FREE ENERGY PREDICTED BY IDOCK:   -7.67 KCAL/MOL
REMARK 924 INTRA-LIGAND FREE ENERGY PREDICTED BY IDOCK:   -0.73 KCAL/MOL
REMARK 927      BINDING AFFINITY PREDICTED BY RF-SCORE:    0.00 PKD
ROOT
HETATM    1  C   UNL     1     -12.373  15.530  74.385  1.00  0.00    -0.798 C  
HETATM    2  C   UNL     1     -12.330  15.147  72.935  1.00  0.00    -0.495 A  
HETATM    3  C   UNL     1     -13.045  14.054  72.446  1.00  0.00    -0.536 A  
HETATM    4  C   UNL     1     -13.049  13.767  71.069  1.00  0.00    -0.276 A  
HETATM    5  C   UNL     1     -12.338  14.561  70.154  1.00  0.00    -0.342 A  
HETATM    6  C   UNL     1     -10.626  16.459  69.815  1.00  0.00    -0.288 C  
HETATM    7  C   UNL     1     -11.532  15.602  70.663  1.00  0.00    -0.400 A  
HETATM    8  C   UNL     1     -11.566  15.899  72.042  1.00  0.00    -0.525 A  
ENDROOT
BRANCH   5   9
HETATM    9  S   UNL     1     -12.407  14.264  68.381  1.00  0.00     0.200 SA 
BRANCH   9  10
HETATM   10  C   UNL     1     -10.990  13.230  67.974  1.00  0.00    -0.244 A  
HETATM   11  C   UNL     1     -10.719  12.168  68.862  1.00  0.00    -0.212 A  
HETATM   12  C   UNL     1      -9.734  11.224  68.581  1.00  0.00    -0.200 A  
HETATM   13  C   UNL     1      -9.006  11.329  67.407  1.00  0.00    -0.144 A  
HETATM   14  C   UNL     1      -9.276  12.367  66.510  1.00  0.00    -0.215 A  
HETATM   15  C   UNL     1     -10.277  13.335  66.744  1.00  0.00    -0.254 A  
BRANCH  15  16
HETATM   16  N   UNL     1     -10.571  14.270  65.761  1.00  0.00    -0.297 NA 
HETATM   17  C   UNL     1     -11.251  13.903  64.507  1.00  0.00    -0.365 C  
HETATM   18  C   UNL     1     -12.223  15.041  64.104  1.00  0.00    -0.211 C  
HETATM   19  N   UNL     1     -11.597  16.379  64.025  1.00  0.00    -1.542 NA 
HETATM   20  C   UNL     1     -10.861  16.656  65.281  1.00  0.00    -0.183 C  
HETATM   21  H   UNL     1     -12.275  17.109  63.807  1.00  0.00     0.000 HD 
HETATM   22  C   UNL     1      -9.847  15.546  65.646  1.00  0.00    -0.342 C  
ENDBRANCH  15  16
ENDBRANCH   9  10
ENDBRANCH   5   9
TORSDOF 3
ENDMDL
MODEL        5
REMARK 921   NORMALIZED FREE ENERGY PREDICTED BY IDOCK:   -6.55 KCAL/MOL
REMARK 922        TOTAL FREE ENERGY PREDICTED BY IDOCK:   -8.39 KCAL/MOL
REMARK 923 INTER-LIGAND FREE ENERGY PREDICTED BY IDOCK:   -7.66 KCAL/MOL
REMARK 924 INTRA-LIGAND FREE ENERGY PREDICTED BY IDOCK:   -0.73 KCAL/MOL
REMARK 927      BINDING AFFINITY PREDICTED BY RF-SCORE:    0.00 PKD
ROOT
HETATM    1  C   UNL     1     -14.134  15.374  72.560  1.00  0.00    -0.593 C  
HETATM    2  C   UNL     1     -13.248  14.854  71.465  1.00  0.00    -0.448 A  
HETATM    3  C   UNL     1     -12.627  15.713  70.559  1.00  0.00    -0.423 A  
HETATM    4  C   UNL     1     -11.740  15.203  69.594  1.00  0.00    -0.353 A  
HETATM    5  C   UNL     1     -11.458  13.829  69.510  1.00  0.00    -0.267 A  
HETATM    6  C   UNL     1     -12.056  11.451  70.304  1.00  0.00    -0.459 C  
HETATM    7  C   UNL     1     -12.167  12.954  70.359  1.00  0.00    -0.381 A  
HETATM    8  C   UNL     1     -13.027  13.482  71.345  1.00  0.00    -0.421 A  
ENDROOT
BRANCH   5   9
HETATM    9  S   UNL     1     -10.256  13.172  68.344  1.00  0.00    -0.229 SA 
BRANCH   9  10
HETATM   10  C   UNL     1     -10.844  13.605  66.697  1.00  0.00    -0.283 A  
HETATM   11  C   UNL     1     -11.747  12.700  66.101  1.00  0.00    -0.461 A  
HETATM   12  C   UNL     1     -12.371  12.993  64.891  1.00  0.00    -0.512 A  
HETATM   13  C   UNL     1     -12.099  14.196  64.259  1.00  0.00    -0.471 A  
HETATM   14  C   UNL     1     -11.220  15.110  64.848  1.00  0.00    -0.424 A  
HETATM   15  C   UNL     1     -10.579  14.863  66.082  1.00  0.00    -0.318 A  
BRANCH  15  16
HETATM   16  N   UNL     1      -9.808  15.860  66.666  1.00  0.00    -0.243 NA 
HETATM   17  C   UNL     1     -10.265  17.257  66.753  1.00  0.00    -0.318 C  
HETATM   18  C   UNL     1      -9.804  17.860  68.103  1.00  0.00    -0.334 C  
HETATM   19  N   UNL     1      -8.353  17.733  68.364  1.00  0.00    -0.288 NA 
HETATM   20  C   UNL     1      -7.939  16.322  68.182  1.00  0.00    -0.157 C  
HETATM   21  H   UNL     1      -8.094  18.095  69.281  1.00  0.00     0.000 HD 
HETATM   22  C   UNL     1      -8.348  15.744  66.806  1.00  0.00    -0.274 C  
ENDBRANCH  15  16
ENDBRANCH   9  10
ENDBRANCH   5   9
TORSDOF 3
ENDMDL
MODEL        6
REMARK 921   NORMALIZED FREE ENERGY PREDICTED BY IDOCK:   -6.41 KCAL/MOL
REMARK 922        TOTAL FREE ENERGY PREDICTED BY IDOCK:   -8.22 KCAL/MOL
REMARK 923 INTER-LIGAND FREE ENERGY PREDICTED BY IDOCK:   -7.45 KCAL/MOL
REMARK 924 INTRA-LIGAND FREE ENERGY PREDICTED BY IDOCK:   -0.78 KCAL/MOL
REMARK 927      BINDING AFFINITY PREDICTED BY RF-SCORE:    0.00 PKD
ROOT
HETATM    1  C   UNL     1      -6.286  20.112  68.400  1.00  0.00    -0.320 C  
HETATM    2  C   UNL     1      -7.210  19.158  67.701  1.00  0.00    -0.246 A  
HETATM    3  C   UNL     1      -6.863  17.823  67.495  1.00  0.00    -0.189 A  
HETATM    4  C   UNL     1      -7.781  16.935  66.908  1.00  0.00    -0.252 A  
HETATM    5  C   UNL     1      -9.061  17.359  66.512  1.00  0.00    -0.266 A  
HETATM    6  C   UNL     1     -10.655  19.350  66.136  1.00  0.00    -0.571 C  
HETATM    7  C   UNL     1      -9.370  18.731  66.626  1.00  0.00    -0.339 A  
HETATM    8  C   UNL     1      -8.452  19.603  67.248  1.00  0.00    -0.348 A  
ENDROOT
BRANCH   5   9
HETATM    9  S   UNL     1     -10.280  16.216  65.846  1.00  0.00    -0.372 SA 
BRANCH   9  10
HETATM   10  C   UNL     1     -10.908  15.261  67.238  1.00  0.00    -0.318 A  
HETATM   11  C   UNL     1     -11.028  15.951  68.463  1.00  0.00    -0.324 A  
HETATM   12  C   UNL     1     -11.626  15.357  69.571  1.00  0.00    -0.346 A  
HETATM   13  C   UNL     1     -12.112  14.063  69.471  1.00  0.00    -0.397 A  
HETATM   14  C   UNL     1     -12.016  13.375  68.258  1.00  0.00    -0.352 A  
HETATM   15  C   UNL     1     -11.435  13.943  67.103  1.00  0.00    -0.347 A  
BRANCH  15  16
HETATM   16  N   UNL     1     -11.474  13.248  65.902  1.00  0.00    -0.322 NA 
HETATM   17  C   UNL     1     -12.659  13.258  65.027  1.00  0.00    -0.423 C  
HETATM   18  C   UNL     1     -12.198  13.278  63.548  1.00  0.00    -0.441 C  
HETATM   19  N   UNL     1     -11.253  12.199  63.189  1.00  0.00    -0.703 NA 
HETATM   20  C   UNL     1     -10.126  12.187  64.151  1.00  0.00    -0.308 C  
HETATM   21  H   UNL     1     -10.933  12.272  62.223  1.00  0.00     0.000 HD 
HETATM   22  C   UNL     1     -10.591  12.104  65.625  1.00  0.00    -0.262 C  
ENDBRANCH  15  16
ENDBRANCH   9  10
ENDBRANCH   5   9
TORSDOF 3
ENDMDL
MODEL        7
REMARK 921   NORMALIZED FREE ENERGY PREDICTED BY IDOCK:   -6.34 KCAL/MOL
REMARK 922        TOTAL FREE ENERGY PREDICTED BY IDOCK:   -8.14 KCAL/MOL
REMARK 923 INTER-LIGAND FREE ENERGY PREDICTED BY IDOCK:   -7.56 KCAL/MOL
REMARK 924 INTRA-LIGAND FREE ENERGY PREDICTED BY IDOCK:   -0.58 KCAL/MOL
REMARK 927      BINDING AFFINITY PREDICTED BY RF-SCORE:    0.00 PKD
ROOT
HETATM    1  C   UNL     1      -6.463  20.055  68.568  1.00  0.00    -0.330 C  
HETATM    2  C   UNL     1      -7.329  19.109  67.788  1.00  0.00    -0.276 A  
HETATM    3  C   UNL     1      -6.964  17.777  67.595  1.00  0.00    -0.190 A  
HETATM    4  C   UNL     1      -7.833  16.895  66.927  1.00  0.00    -0.252 A  
HETATM    5  C   UNL     1      -9.078  17.323  66.437  1.00  0.00    -0.253 A  
HETATM    6  C   UNL     1     -10.640  19.317  65.959  1.00  0.00    -0.550 C  
HETATM    7  C   UNL     1      -9.397  18.693  66.542  1.00  0.00    -0.323 A  
HETATM    8  C   UNL     1      -8.532  19.559  67.244  1.00  0.00    -0.333 A  
ENDROOT
BRANCH   5   9
HETATM    9  S   UNL     1     -10.239  16.187  65.664  1.00  0.00    -0.333 SA 
BRANCH   9  10
HETATM   10  C   UNL     1     -10.876  15.127  66.975  1.00  0.00    -0.314 A  
HETATM   11  C   UNL     1     -11.123  15.752  68.215  1.00  0.00    -0.342 A  
HETATM   12  C   UNL     1     -11.739  15.067  69.259  1.00  0.00    -0.349 A  
HETATM   13  C   UNL     1     -12.117  13.746  69.077  1.00  0.00    -0.359 A  
HETATM   14  C   UNL     1     -11.895  13.121  67.847  1.00  0.00    -0.390 A  
HETATM   15  C   UNL     1     -11.290  13.781  66.755  1.00  0.00    -0.330 A  
BRANCH  15  16
HETATM   16  N   UNL     1     -11.203  13.139  65.527  1.00  0.00    -0.280 NA 
HETATM   17  C   UNL     1      -9.970  12.470  65.076  1.00  0.00    -0.176 C  
HETATM   18  C   UNL     1     -10.344  11.181  64.303  1.00  0.00    -0.351 C  
HETATM   19  N   UNL     1     -11.300  11.391  63.193  1.00  0.00    -0.864 NA 
HETATM   20  C   UNL     1     -12.479  12.137  63.690  1.00  0.00    -0.549 C  
HETATM   21  H   UNL     1     -11.561  10.516  62.740  1.00  0.00     0.000 HD 
HETATM   22  C   UNL     1     -12.103  13.456  64.407  1.00  0.00    -0.416 C  
ENDBRANCH  15  16
ENDBRANCH   9  10
ENDBRANCH   5   9
TORSDOF 3
ENDMDL
MODEL        8
REMARK 921   NORMALIZED FREE ENERGY PREDICTED BY IDOCK:   -6.29 KCAL/MOL
REMARK 922        TOTAL FREE ENERGY PREDICTED BY IDOCK:   -8.09 KCAL/MOL
REMARK 923 INTER-LIGAND FREE ENERGY PREDICTED BY IDOCK:   -7.48 KCAL/MOL
REMARK 924 INTRA-LIGAND FREE ENERGY PREDICTED BY IDOCK:   -0.61 KCAL/MOL
REMARK 927      BINDING AFFINITY PREDICTED BY RF-SCORE:    0.00 PKD
ROOT
HETATM    1  C   UNL     1      -5.784  17.933  69.057  1.00  0.00    -0.200 C  
HETATM    2  C   UNL     1      -7.179  17.387  68.966  1.00  0.00    -0.224 A  
HETATM    3  C   UNL     1      -7.466  16.060  69.286  1.00  0.00    -0.228 A  
HETATM    4  C   UNL     1      -8.794  15.598  69.268  1.00  0.00    -0.264 A  
HETATM    5  C   UNL     1      -9.861  16.447  68.926  1.00  0.00    -0.260 A  
HETATM    6  C   UNL     1     -10.582  18.740  67.996  1.00  0.00    -0.356 C  
HETATM    7  C   UNL     1      -9.556  17.757  68.502  1.00  0.00    -0.322 A  
HETATM    8  C   UNL     1      -8.224  18.217  68.559  1.00  0.00    -0.329 A  
ENDROOT
BRANCH   5   9
HETATM    9  S   UNL     1     -11.573  15.897  68.987  1.00  0.00    -0.365 SA 
BRANCH   9  10
HETATM   10  C   UNL     1     -11.556  14.119  68.701  1.00  0.00    -0.317 A  
HETATM   11  C   UNL     1     -11.822  13.305  69.822  1.00  0.00    -0.394 A  
HETATM   12  C   UNL     1     -11.968  11.926  69.696  1.00  0.00    -0.365 A  
HETATM   13  C   UNL     1     -11.849  11.341  68.445  1.00  0.00    -0.331 A  
HETATM   14  C   UNL     1     -11.602  12.138  67.323  1.00  0.00    -0.404 A  
HETATM   15  C   UNL     1     -11.465  13.541  67.401  1.00  0.00    -0.336 A  
BRANCH  15  16
HETATM   16  N   UNL     1     -11.336  14.283  66.235  1.00  0.00    -0.338 NA 
HETATM   17  C   UNL     1     -12.210  14.072  65.068  1.00  0.00    -0.433 C  
HETATM   18  C   UNL     1     -12.517  15.440  64.408  1.00  0.00     0.044 C  
HETATM   19  N   UNL     1     -11.318  16.236  64.067  1.00  0.00    -1.475 NA 
HETATM   20  C   UNL     1     -10.441  16.344  65.256  1.00  0.00    -0.261 C  
HETATM   21  H   UNL     1     -11.558  17.148  63.681  1.00  0.00     0.000 HD 
HETATM   22  C   UNL     1     -10.086  14.971  65.874  1.00  0.00    -0.320 C  
ENDBRANCH  15  16
ENDBRANCH   9  10
ENDBRANCH   5   9
TORSDOF 3
ENDMDL
MODEL        9
REMARK 921   NORMALIZED FREE ENERGY PREDICTED BY IDOCK:   -6.20 KCAL/MOL
REMARK 922        TOTAL FREE ENERGY PREDICTED BY IDOCK:   -7.98 KCAL/MOL
REMARK 923 INTER-LIGAND FREE ENERGY PREDICTED BY IDOCK:   -7.33 KCAL/MOL
REMARK 924 INTRA-LIGAND FREE ENERGY PREDICTED BY IDOCK:   -0.66 KCAL/MOL
REMARK 927      BINDING AFFINITY PREDICTED BY RF-SCORE:    0.00 PKD
ROOT
HETATM    1  C   UNL     1      -8.740   8.267  72.445  1.00  0.00    -0.279 C  
HETATM    2  C   UNL     1      -9.467   9.070  71.405  1.00  0.00    -0.334 A  
HETATM    3  C   UNL     1      -8.808   9.590  70.291  1.00  0.00    -0.281 A  
HETATM    4  C   UNL     1      -9.531  10.270  69.295  1.00  0.00    -0.230 A  
HETATM    5  C   UNL     1     -10.921  10.448  69.390  1.00  0.00    -0.251 A  
HETATM    6  C   UNL     1     -13.029  10.241  70.861  1.00  0.00    -0.456 C  
HETATM    7  C   UNL     1     -11.567  10.014  70.567  1.00  0.00    -0.403 A  
HETATM    8  C   UNL     1     -10.836   9.303  71.542  1.00  0.00    -0.442 A  
ENDROOT
BRANCH   5   9
HETATM    9  S   UNL     1     -11.873  11.233  68.081  1.00  0.00    -0.112 SA 
BRANCH   9  10
HETATM   10  C   UNL     1     -11.860  13.002  68.421  1.00  0.00    -0.334 A  
HETATM   11  C   UNL     1     -11.813  13.374  69.781  1.00  0.00    -0.393 A  
HETATM   12  C   UNL     1     -11.664  14.705  70.161  1.00  0.00    -0.353 A  
HETATM   13  C   UNL     1     -11.560  15.684  69.186  1.00  0.00    -0.393 A  
HETATM   14  C   UNL     1     -11.588  15.327  67.834  1.00  0.00    -0.301 A  
HETATM   15  C   UNL     1     -11.719  13.989  67.402  1.00  0.00    -0.388 A  
BRANCH  15  16
HETATM   16  N   UNL     1     -11.624  13.692  66.049  1.00  0.00    -0.326 NA 
HETATM   17  C   UNL     1     -10.411  13.981  65.265  1.00  0.00    -0.383 C  
HETATM   18  C   UNL     1     -10.184  12.840  64.241  1.00  0.00    -0.327 C  
HETATM   19  N   UNL     1     -11.350  12.556  63.376  1.00  0.00    -0.620 NA 
HETATM   20  C   UNL     1     -12.553  12.356  64.217  1.00  0.00    -0.401 C  
HETATM   21  H   UNL     1     -11.182  11.769  62.750  1.00  0.00     0.000 HD 
HETATM   22  C   UNL     1     -12.810  13.527  65.195  1.00  0.00    -0.322 C  
ENDBRANCH  15  16
ENDBRANCH   9  10
ENDBRANCH   5   9
TORSDOF 3
ENDMDL
MODEL       10
REMARK 921   NORMALIZED FREE ENERGY PREDICTED BY IDOCK:   -6.20 KCAL/MOL
REMARK 922        TOTAL FREE ENERGY PREDICTED BY IDOCK:   -7.98 KCAL/MOL
REMARK 923 INTER-LIGAND FREE ENERGY PREDICTED BY IDOCK:   -7.96 KCAL/MOL
REMARK 924 INTRA-LIGAND FREE ENERGY PREDICTED BY IDOCK:   -0.01 KCAL/MOL
REMARK 927      BINDING AFFINITY PREDICTED BY RF-SCORE:    0.00 PKD
ROOT
HETATM    1  C   UNL     1     -12.535  12.082  63.285  1.00  0.00    -0.544 C  
HETATM    2  C   UNL     1     -12.044  12.430  64.660  1.00  0.00    -0.487 A  
HETATM    3  C   UNL     1     -12.584  13.496  65.380  1.00  0.00    -0.531 A  
HETATM    4  C   UNL     1     -12.159  13.748  66.697  1.00  0.00    -0.471 A  
HETATM    5  C   UNL     1     -11.186  12.949  67.320  1.00  0.00    -0.288 A  
HETATM    6  C   UNL     1      -9.430  11.081  67.048  1.00  0.00    -0.191 C  
HETATM    7  C   UNL     1     -10.568  11.938  66.553  1.00  0.00    -0.278 A  
HETATM    8  C   UNL     1     -11.029  11.674  65.246  1.00  0.00    -0.327 A  
ENDROOT
BRANCH   5   9
HETATM    9  S   UNL     1     -10.700  13.201  69.033  1.00  0.00    -0.035 SA 
BRANCH   9  10
HETATM   10  C   UNL     1     -11.753  12.135  70.032  1.00  0.00    -0.252 A  
HETATM   11  C   UNL     1     -11.652  10.750  69.783  1.00  0.00    -0.393 A  
HETATM   12  C   UNL     1     -12.315   9.822  70.582  1.00  0.00    -0.248 A  
HETATM   13  C   UNL     1     -13.089  10.267  71.642  1.00  0.00    -0.553 A  
HETATM   14  C   UNL     1     -13.183  11.636  71.911  1.00  0.00    -0.475 A  
HETATM   15  C   UNL     1     -12.515  12.611  71.139  1.00  0.00    -0.228 A  
BRANCH  15  16
HETATM   16  N   UNL     1     -12.558  13.943  71.529  1.00  0.00    -0.347 NA 
HETATM   17  C   UNL     1     -13.099  14.362  72.834  1.00  0.00    -0.517 C  
HETATM   18  C   UNL     1     -12.254  15.540  73.380  1.00  0.00    -0.522 C  
HETATM   19  N   UNL     1     -12.116  16.678  72.444  1.00  0.00    -0.501 NA 
HETATM   20  C   UNL     1     -11.648  16.183  71.129  1.00  0.00    -0.404 C  
HETATM   21  H   UNL     1     -11.514  17.411  72.816  1.00  0.00     0.000 HD 
HETATM   22  C   UNL     1     -12.532  15.048  70.559  1.00  0.00    -0.371 C  
ENDBRANCH  15  16
ENDBRANCH   9  10
ENDBRANCH   5   9
TORSDOF 3
ENDMDL
MODEL       11
REMARK 921   NORMALIZED FREE ENERGY PREDICTED BY IDOCK:   -6.16 KCAL/MOL
REMARK 922        TOTAL FREE ENERGY PREDICTED BY IDOCK:   -7.94 KCAL/MOL
REMARK 923 INTER-LIGAND FREE ENERGY PREDICTED BY IDOCK:   -7.85 KCAL/MOL
REMARK 924 INTRA-LIGAND FREE ENERGY PREDICTED BY IDOCK:   -0.09 KCAL/MOL
REMARK 927      BINDING AFFINITY PREDICTED BY RF-SCORE:    0.00 PKD
ROOT
HETATM    1  C   UNL     1     -11.425   7.640  72.827  1.00  0.00    -0.384 C  
HETATM    2  C   UNL     1     -11.656   8.861  71.985  1.00  0.00    -0.435 A  
HETATM    3  C   UNL     1     -12.832   9.604  72.084  1.00  0.00    -0.460 A  
HETATM    4  C   UNL     1     -12.987  10.787  71.339  1.00  0.00    -0.535 A  
HETATM    5  C   UNL     1     -11.977  11.250  70.479  1.00  0.00    -0.371 A  
HETATM    6  C   UNL     1      -9.725  10.749  69.328  1.00  0.00    -0.142 C  
HETATM    7  C   UNL     1     -10.834  10.441  70.303  1.00  0.00    -0.308 A  
HETATM    8  C   UNL     1     -10.677   9.276  71.082  1.00  0.00    -0.403 A  
ENDROOT
BRANCH   5   9
HETATM    9  S   UNL     1     -12.121  12.808  69.591  1.00  0.00    -0.164 SA 
BRANCH   9  10
HETATM   10  C   UNL     1     -12.259  14.102  70.836  1.00  0.00    -0.363 A  
HETATM   11  C   UNL     1     -12.923  13.748  72.030  1.00  0.00    -0.437 A  
HETATM   12  C   UNL     1     -12.973  14.621  73.114  1.00  0.00    -0.605 A  
HETATM   13  C   UNL     1     -12.361  15.860  73.019  1.00  0.00    -0.605 A  
HETATM   14  C   UNL     1     -11.685  16.216  71.848  1.00  0.00    -0.575 A  
HETATM   15  C   UNL     1     -11.592  15.357  70.731  1.00  0.00    -0.347 A  
BRANCH  15  16
HETATM   16  N   UNL     1     -10.810  15.726  69.645  1.00  0.00    -0.272 NA 
HETATM   17  C   UNL     1     -11.395  16.078  68.340  1.00  0.00    -0.355 C  
HETATM   18  C   UNL     1     -10.580  17.238  67.713  1.00  0.00    -0.367 C  
HETATM   19  N   UNL     1      -9.126  16.980  67.620  1.00  0.00    -0.227 NA 
HETATM   20  C   UNL     1      -8.612  16.552  68.942  1.00  0.00    -0.241 C  
HETATM   21  H   UNL     1      -8.616  17.782  67.250  1.00  0.00     0.000 HD 
HETATM   22  C   UNL     1      -9.391  15.353  69.535  1.00  0.00    -0.252 C  
ENDBRANCH  15  16
ENDBRANCH   9  10
ENDBRANCH   5   9
TORSDOF 3
ENDMDL
MODEL       12
REMARK 921   NORMALIZED FREE ENERGY PREDICTED BY IDOCK:   -6.15 KCAL/MOL
REMARK 922        TOTAL FREE ENERGY PREDICTED BY IDOCK:   -7.92 KCAL/MOL
REMARK 923 INTER-LIGAND FREE ENERGY PREDICTED BY IDOCK:   -7.10 KCAL/MOL
REMARK 924 INTRA-LIGAND FREE ENERGY PREDICTED BY IDOCK:   -0.82 KCAL/MOL
REMARK 927      BINDING AFFINITY PREDICTED BY RF-SCORE:    0.00 PKD
ROOT
HETATM    1  C   UNL     1     -13.506  15.798  73.009  1.00  0.00    -0.672 C  
HETATM    2  C   UNL     1     -13.026  14.955  71.864  1.00  0.00    -0.414 A  
HETATM    3  C   UNL     1     -12.584  15.527  70.671  1.00  0.00    -0.493 A  
HETATM    4  C   UNL     1     -12.066  14.716  69.646  1.00  0.00    -0.355 A  
HETATM    5  C   UNL     1     -11.983  13.320  69.786  1.00  0.00    -0.324 A  
HETATM    6  C   UNL     1     -12.616  11.250  71.186  1.00  0.00    -0.501 C  
HETATM    7  C   UNL     1     -12.528  12.737  70.949  1.00  0.00    -0.373 A  
HETATM    8  C   UNL     1     -13.012  13.565  71.984  1.00  0.00    -0.420 A  
ENDROOT
BRANCH   5   9
HETATM    9  S   UNL     1     -11.239  12.278  68.523  1.00  0.00    -0.296 SA 
BRANCH   9  10
HETATM   10  C   UNL     1     -11.165  13.263  67.017  1.00  0.00    -0.292 A  
HETATM   11  C   UNL     1     -12.316  13.238  66.200  1.00  0.00    -0.423 A  
HETATM   12  C   UNL     1     -12.426  14.062  65.083  1.00  0.00    -0.472 A  
HETATM   13  C   UNL     1     -11.388  14.923  64.767  1.00  0.00    -0.400 A  
HETATM   14  C   UNL     1     -10.250  14.971  65.578  1.00  0.00    -0.406 A  
HETATM   15  C   UNL     1     -10.102  14.168  66.730  1.00  0.00    -0.262 A  
BRANCH  15  16
HETATM   16  N   UNL     1      -8.999  14.347  67.554  1.00  0.00    -0.182 NA 
HETATM   17  C   UNL     1      -8.723  15.626  68.230  1.00  0.00    -0.174 C  
HETATM   18  C   UNL     1      -8.148  15.342  69.641  1.00  0.00    -0.134 C  
HETATM   19  N   UNL     1      -6.974  14.444  69.652  1.00  0.00    -0.280 NA 
HETATM   20  C   UNL     1      -7.285  13.212  68.889  1.00  0.00    -0.048 C  
HETATM   21  H   UNL     1      -6.654  14.240  70.598  1.00  0.00     0.000 HD 
HETATM   22  C   UNL     1      -7.799  13.500  67.458  1.00  0.00    -0.178 C  
ENDBRANCH  15  16
ENDBRANCH   9  10
ENDBRANCH   5   9
TORSDOF 3
ENDMDL
MODEL       13
REMARK 921   NORMALIZED FREE ENERGY PREDICTED BY IDOCK:   -6.14 KCAL/MOL
REMARK 922        TOTAL FREE ENERGY PREDICTED BY IDOCK:   -7.91 KCAL/MOL
REMARK 923 INTER-LIGAND FREE ENERGY PREDICTED BY IDOCK:   -7.49 KCAL/MOL
REMARK 924 INTRA-LIGAND FREE ENERGY PREDICTED BY IDOCK:   -0.41 KCAL/MOL
REMARK 927      BINDING AFFINITY PREDICTED BY RF-SCORE:    0.00 PKD
ROOT
HETATM    1  C   UNL     1     -10.952   7.615  73.003  1.00  0.00    -0.457 C  
HETATM    2  C   UNL     1     -11.237   8.670  71.974  1.00  0.00    -0.434 A  
HETATM    3  C   UNL     1     -12.480   9.298  71.898  1.00  0.00    -0.457 A  
HETATM    4  C   UNL     1     -12.693  10.339  70.975  1.00  0.00    -0.491 A  
HETATM    5  C   UNL     1     -11.674  10.771  70.110  1.00  0.00    -0.339 A  
HETATM    6  C   UNL     1      -9.313  10.338  69.168  1.00  0.00    -0.214 C  
HETATM    7  C   UNL     1     -10.453  10.065  70.118  1.00  0.00    -0.338 A  
HETATM    8  C   UNL     1     -10.242   9.046  71.072  1.00  0.00    -0.347 A  
ENDROOT
BRANCH   5   9
HETATM    9  S   UNL     1     -11.900  12.161  68.990  1.00  0.00    -0.278 SA 
BRANCH   9  10
HETATM   10  C   UNL     1     -11.930  13.646  70.009  1.00  0.00    -0.343 A  
HETATM   11  C   UNL     1     -12.618  13.544  71.237  1.00  0.00    -0.427 A  
HETATM   12  C   UNL     1     -12.594  14.582  72.165  1.00  0.00    -0.391 A  
HETATM   13  C   UNL     1     -11.884  15.736  71.878  1.00  0.00    -0.568 A  
HETATM   14  C   UNL     1     -11.184  15.843  70.673  1.00  0.00    -0.402 A  
HETATM   15  C   UNL     1     -11.164  14.810  69.710  1.00  0.00    -0.273 A  
BRANCH  15  16
HETATM   16  N   UNL     1     -10.357  14.934  68.587  1.00  0.00    -0.231 NA 
HETATM   17  C   UNL     1      -9.009  14.345  68.520  1.00  0.00    -0.187 C  
HETATM   18  C   UNL     1      -8.758  13.812  67.087  1.00  0.00    -0.221 C  
HETATM   19  N   UNL     1      -8.983  14.808  66.017  1.00  0.00    -0.473 NA 
HETATM   20  C   UNL     1     -10.321  15.422  66.185  1.00  0.00    -0.313 C  
HETATM   21  H   UNL     1      -8.857  14.409  65.087  1.00  0.00     0.000 HD 
HETATM   22  C   UNL     1     -10.542  16.009  67.600  1.00  0.00    -0.309 C  
ENDBRANCH  15  16
ENDBRANCH   9  10
ENDBRANCH   5   9
TORSDOF 3
ENDMDL
MODEL       14
REMARK 921   NORMALIZED FREE ENERGY PREDICTED BY IDOCK:   -6.12 KCAL/MOL
REMARK 922        TOTAL FREE ENERGY PREDICTED BY IDOCK:   -7.89 KCAL/MOL
REMARK 923 INTER-LIGAND FREE ENERGY PREDICTED BY IDOCK:   -7.34 KCAL/MOL
REMARK 924 INTRA-LIGAND FREE ENERGY PREDICTED BY IDOCK:   -0.55 KCAL/MOL
REMARK 927      BINDING AFFINITY PREDICTED BY RF-SCORE:    0.00 PKD
ROOT
HETATM    1  C   UNL     1      -5.833  17.481  69.401  1.00  0.00    -0.226 C  
HETATM    2  C   UNL     1      -7.223  17.024  69.065  1.00  0.00    -0.229 A  
HETATM    3  C   UNL     1      -7.628  15.705  69.269  1.00  0.00    -0.222 A  
HETATM    4  C   UNL     1      -8.959  15.326  69.019  1.00  0.00    -0.225 A  
HETATM    5  C   UNL     1      -9.910  16.250  68.557  1.00  0.00    -0.223 A  
HETATM    6  C   UNL     1     -10.350  18.620  67.641  1.00  0.00    -0.455 C  
HETATM    7  C   UNL     1      -9.472  17.556  68.252  1.00  0.00    -0.296 A  
HETATM    8  C   UNL     1      -8.143  17.932  68.541  1.00  0.00    -0.305 A  
ENDROOT
BRANCH   5   9
HETATM    9  S   UNL     1     -11.637  15.804  68.321  1.00  0.00    -0.218 SA 
BRANCH   9  10
HETATM   10  C   UNL     1     -11.804  14.089  68.846  1.00  0.00    -0.355 A  
HETATM   11  C   UNL     1     -11.338  13.112  67.940  1.00  0.00    -0.321 A  
HETATM   12  C   UNL     1     -11.292  11.765  68.291  1.00  0.00    -0.343 A  
HETATM   13  C   UNL     1     -11.711  11.376  69.552  1.00  0.00    -0.417 A  
HETATM   14  C   UNL     1     -12.158  12.335  70.466  1.00  0.00    -0.371 A  
HETATM   15  C   UNL     1     -12.205  13.713  70.161  1.00  0.00    -0.342 A  
BRANCH  15  16
HETATM   16  N   UNL     1     -12.550  14.623  71.151  1.00  0.00    -0.311 NA 
HETATM   17  C   UNL     1     -13.783  15.428  71.084  1.00  0.00    -0.417 C  
HETATM   18  C   UNL     1     -14.374  15.571  72.509  1.00  0.00    -0.276 C  
HETATM   19  N   UNL     1     -13.424  16.094  73.514  1.00  0.00    -0.858 NA 
HETATM   20  C   UNL     1     -12.175  15.297  73.477  1.00  0.00    -0.519 C  
HETATM   21  H   UNL     1     -13.831  16.129  74.448  1.00  0.00     0.000 HD 
HETATM   22  C   UNL     1     -11.555  15.210  72.063  1.00  0.00    -0.412 C  
ENDBRANCH  15  16
ENDBRANCH   9  10
ENDBRANCH   5   9
TORSDOF 3
ENDMDL
MODEL       15
REMARK 921   NORMALIZED FREE ENERGY PREDICTED BY IDOCK:   -6.10 KCAL/MOL
REMARK 922        TOTAL FREE ENERGY PREDICTED BY IDOCK:   -7.86 KCAL/MOL
REMARK 923 INTER-LIGAND FREE ENERGY PREDICTED BY IDOCK:   -7.13 KCAL/MOL
REMARK 924 INTRA-LIGAND FREE ENERGY PREDICTED BY IDOCK:   -0.73 KCAL/MOL
REMARK 927      BINDING AFFINITY PREDICTED BY RF-SCORE:    0.00 PKD
ROOT
HETATM    1  C   UNL     1      -5.472  18.859  69.629  1.00  0.00    -0.218 C  
HETATM    2  C   UNL     1      -6.824  18.393  69.175  1.00  0.00    -0.260 A  
HETATM    3  C   UNL     1      -7.141  17.037  69.097  1.00  0.00    -0.221 A  
HETATM    4  C   UNL     1      -8.441  16.633  68.744  1.00  0.00    -0.255 A  
HETATM    5  C   UNL     1      -9.448  17.570  68.459  1.00  0.00    -0.296 A  
HETATM    6  C   UNL     1     -10.038  20.044  68.035  1.00  0.00    -0.557 C  
HETATM    7  C   UNL     1      -9.097  18.936  68.437  1.00  0.00    -0.383 A  
HETATM    8  C   UNL     1      -7.798  19.329  68.826  1.00  0.00    -0.388 A  
ENDROOT
BRANCH   5   9
HETATM    9  S   UNL     1     -11.139  17.072  68.097  1.00  0.00    -0.028 SA 
BRANCH   9  10
HETATM   10  C   UNL     1     -11.456  15.583  69.059  1.00  0.00    -0.352 A  
HETATM   11  C   UNL     1     -11.751  15.775  70.425  1.00  0.00    -0.390 A  
HETATM   12  C   UNL     1     -12.144  14.713  71.236  1.00  0.00    -0.410 A  
HETATM   13  C   UNL     1     -12.247  13.443  70.692  1.00  0.00    -0.427 A  
HETATM   14  C   UNL     1     -11.974  13.242  69.335  1.00  0.00    -0.356 A  
HETATM   15  C   UNL     1     -11.591  14.291  68.471  1.00  0.00    -0.320 A  
BRANCH  15  16
HETATM   16  N   UNL     1     -11.447  14.043  67.113  1.00  0.00    -0.333 NA 
HETATM   17  C   UNL     1     -12.526  13.451  66.304  1.00  0.00    -0.276 C  
HETATM   18  C   UNL     1     -12.527  14.106  64.899  1.00  0.00    -0.401 C  
HETATM   19  N   UNL     1     -11.222  14.060  64.204  1.00  0.00    -0.593 NA 
HETATM   20  C   UNL     1     -10.166  14.593  65.097  1.00  0.00    -0.382 C  
HETATM   21  H   UNL     1     -11.247  14.543  63.307  1.00  0.00     0.000 HD 
HETATM   22  C   UNL     1     -10.129  13.892  66.476  1.00  0.00    -0.286 C  
ENDBRANCH  15  16
ENDBRANCH   9  10
ENDBRANCH   5   9
TORSDOF 3
ENDMDL
MODEL       16
REMARK 921   NORMALIZED FREE ENERGY PREDICTED BY IDOCK:   -6.09 KCAL/MOL
REMARK 922        TOTAL FREE ENERGY PREDICTED BY IDOCK:   -7.85 KCAL/MOL
REMARK 923 INTER-LIGAND FREE ENERGY PREDICTED BY IDOCK:   -7.22 KCAL/MOL
REMARK 924 INTRA-LIGAND FREE ENERGY PREDICTED BY IDOCK:   -0.63 KCAL/MOL
REMARK 927      BINDING AFFINITY PREDICTED BY RF-SCORE:    0.00 PKD
ROOT
HETATM    1  C   UNL     1     -13.228   9.769  71.973  1.00  0.00    -0.557 C  
HETATM    2  C   UNL     1     -12.785  11.045  71.318  1.00  0.00    -0.537 A  
HETATM    3  C   UNL     1     -11.986  11.040  70.175  1.00  0.00    -0.443 A  
HETATM    4  C   UNL     1     -11.654  12.249  69.538  1.00  0.00    -0.366 A  
HETATM    5  C   UNL     1     -12.106  13.485  70.030  1.00  0.00    -0.341 A  
HETATM    6  C   UNL     1     -13.273  14.748  71.950  1.00  0.00    -0.436 C  
HETATM    7  C   UNL     1     -12.825  13.494  71.243  1.00  0.00    -0.420 A  
HETATM    8  C   UNL     1     -13.181  12.271  71.852  1.00  0.00    -0.481 A  
ENDROOT
BRANCH   5   9
HETATM    9  S   UNL     1     -11.767  15.032  69.176  1.00  0.00    -0.321 SA 
BRANCH   9  10
HETATM   10  C   UNL     1     -11.329  14.602  67.482  1.00  0.00    -0.348 A  
HETATM   11  C   UNL     1     -12.372  14.093  66.680  1.00  0.00    -0.375 A  
HETATM   12  C   UNL     1     -12.186  13.853  65.321  1.00  0.00    -0.449 A  
HETATM   13  C   UNL     1     -10.954  14.118  64.745  1.00  0.00    -0.409 A  
HETATM   14  C   UNL     1      -9.917  14.640  65.525  1.00  0.00    -0.384 A  
HETATM   15  C   UNL     1     -10.065  14.916  66.902  1.00  0.00    -0.242 A  
BRANCH  15  16
HETATM   16  N   UNL     1      -9.034  15.540  67.591  1.00  0.00    -0.182 NA 
HETATM   17  C   UNL     1      -8.664  16.945  67.349  1.00  0.00    -0.203 C  
HETATM   18  C   UNL     1      -8.271  17.606  68.694  1.00  0.00    -0.264 C  
HETATM   19  N   UNL     1      -7.227  16.879  69.449  1.00  0.00    -0.170 NA 
HETATM   20  C   UNL     1      -7.617  15.457  69.590  1.00  0.00    -0.165 C  
HETATM   21  H   UNL     1      -7.029  17.315  70.350  1.00  0.00     0.000 HD 
HETATM   22  C   UNL     1      -7.949  14.784  68.236  1.00  0.00    -0.130 C  
ENDBRANCH  15  16
ENDBRANCH   9  10
ENDBRANCH   5   9
TORSDOF 3
ENDMDL
MODEL       17
REMARK 921   NORMALIZED FREE ENERGY PREDICTED BY IDOCK:   -6.08 KCAL/MOL
REMARK 922        TOTAL FREE ENERGY PREDICTED BY IDOCK:   -7.84 KCAL/MOL
REMARK 923 INTER-LIGAND FREE ENERGY PREDICTED BY IDOCK:   -7.51 KCAL/MOL
REMARK 924 INTRA-LIGAND FREE ENERGY PREDICTED BY IDOCK:   -0.33 KCAL/MOL
REMARK 927      BINDING AFFINITY PREDICTED BY RF-SCORE:    0.00 PKD
ROOT
HETATM    1  C   UNL     1     -10.745   7.708  73.344  1.00  0.00    -0.330 C  
HETATM    2  C   UNL     1     -10.978   8.533  72.112  1.00  0.00    -0.427 A  
HETATM    3  C   UNL     1     -12.261   8.906  71.714  1.00  0.00    -0.429 A  
HETATM    4  C   UNL     1     -12.442   9.746  70.600  1.00  0.00    -0.220 A  
HETATM    5  C   UNL     1     -11.349  10.226  69.859  1.00  0.00    -0.290 A  
HETATM    6  C   UNL     1      -8.811  10.098  69.426  1.00  0.00    -0.197 C  
HETATM    7  C   UNL     1     -10.061   9.763  70.201  1.00  0.00    -0.317 A  
HETATM    8  C   UNL     1      -9.892   8.949  71.341  1.00  0.00    -0.376 A  
ENDROOT
BRANCH   5   9
HETATM    9  S   UNL     1     -11.557  11.374  68.490  1.00  0.00    -0.321 SA 
BRANCH   9  10
HETATM   10  C   UNL     1     -11.971  12.971  69.212  1.00  0.00    -0.278 A  
HETATM   11  C   UNL     1     -12.194  12.985  70.605  1.00  0.00    -0.390 A  
HETATM   12  C   UNL     1     -12.388  14.180  71.294  1.00  0.00    -0.447 A  
HETATM   13  C   UNL     1     -12.362  15.378  70.598  1.00  0.00    -0.451 A  
HETATM   14  C   UNL     1     -12.124  15.380  69.221  1.00  0.00    -0.283 A  
HETATM   15  C   UNL     1     -11.904  14.195  68.484  1.00  0.00    -0.355 A  
BRANCH  15  16
HETATM   16  N   UNL     1     -11.560  14.276  67.142  1.00  0.00    -0.361 NA 
HETATM   17  C   UNL     1     -12.425  13.742  66.076  1.00  0.00    -0.445 C  
HETATM   18  C   UNL     1     -12.362  14.686  64.849  1.00  0.00    -0.315 C  
HETATM   19  N   UNL     1     -10.993  14.965  64.364  1.00  0.00    -0.629 NA 
HETATM   20  C   UNL     1     -10.150  15.420  65.496  1.00  0.00    -0.373 C  
HETATM   21  H   UNL     1     -10.986  15.628  63.589  1.00  0.00     0.000 HD 
HETATM   22  C   UNL     1     -10.168  14.442  66.694  1.00  0.00    -0.277 C  
ENDBRANCH  15  16
ENDBRANCH   9  10
ENDBRANCH   5   9
TORSDOF 3
ENDMDL
MODEL       18
REMARK 921   NORMALIZED FREE ENERGY PREDICTED BY IDOCK:   -6.06 KCAL/MOL
REMARK 922        TOTAL FREE ENERGY PREDICTED BY IDOCK:   -7.82 KCAL/MOL
REMARK 923 INTER-LIGAND FREE ENERGY PREDICTED BY IDOCK:   -7.02 KCAL/MOL
REMARK 924 INTRA-LIGAND FREE ENERGY PREDICTED BY IDOCK:   -0.79 KCAL/MOL
REMARK 927      BINDING AFFINITY PREDICTED BY RF-SCORE:    0.00 PKD
ROOT
HETATM    1  C   UNL     1     -12.066  16.212  72.251  1.00  0.00    -0.616 C  
HETATM    2  C   UNL     1     -12.106  15.191  71.152  1.00  0.00    -0.391 A  
HETATM    3  C   UNL     1     -11.950  15.552  69.814  1.00  0.00    -0.384 A  
HETATM    4  C   UNL     1     -11.913  14.565  68.813  1.00  0.00    -0.315 A  
HETATM    5  C   UNL     1     -12.034  13.200  69.125  1.00  0.00    -0.281 A  
HETATM    6  C   UNL     1     -12.564  11.437  70.929  1.00  0.00    -0.453 C  
HETATM    7  C   UNL     1     -12.296  12.847  70.465  1.00  0.00    -0.362 A  
HETATM    8  C   UNL     1     -12.296  13.845  71.463  1.00  0.00    -0.327 A  
ENDROOT
BRANCH   5   9
HETATM    9  S   UNL     1     -11.896  11.920  67.868  1.00  0.00    -0.135 SA 
BRANCH   9  10
HETATM   10  C   UNL     1     -10.148  11.788  67.455  1.00  0.00    -0.195 A  
HETATM   11  C   UNL     1      -9.347  11.062  68.361  1.00  0.00    -0.179 A  
HETATM   12  C   UNL     1      -8.012  10.780  68.080  1.00  0.00    -0.108 A  
HETATM   13  C   UNL     1      -7.460  11.221  66.888  1.00  0.00    -0.145 A  
HETATM   14  C   UNL     1      -8.247  11.927  65.973  1.00  0.00     0.335 A  
HETATM   15  C   UNL     1      -9.609  12.220  66.207  1.00  0.00    -0.242 A  
BRANCH  15  16
HETATM   16  N   UNL     1     -10.362  12.822  65.209  1.00  0.00    -0.292 NA 
HETATM   17  C   UNL     1     -10.527  12.219  63.876  1.00  0.00    -0.429 C  
HETATM   18  C   UNL     1     -11.969  12.479  63.374  1.00  0.00    -0.514 C  
HETATM   19  N   UNL     1     -12.374  13.902  63.393  1.00  0.00    -1.139 NA 
HETATM   20  C   UNL     1     -12.109  14.474  64.734  1.00  0.00    -0.445 C  
HETATM   21  H   UNL     1     -13.343  14.031  63.104  1.00  0.00     0.000 HD 
HETATM   22  C   UNL     1     -10.650  14.266  65.203  1.00  0.00    -0.406 C  
ENDBRANCH  15  16
ENDBRANCH   9  10
ENDBRANCH   5   9
TORSDOF 3
ENDMDL
MODEL       19
REMARK 921   NORMALIZED FREE ENERGY PREDICTED BY IDOCK:   -6.04 KCAL/MOL
REMARK 922        TOTAL FREE ENERGY PREDICTED BY IDOCK:   -7.79 KCAL/MOL
REMARK 923 INTER-LIGAND FREE ENERGY PREDICTED BY IDOCK:   -7.22 KCAL/MOL
REMARK 924 INTRA-LIGAND FREE ENERGY PREDICTED BY IDOCK:   -0.57 KCAL/MOL
REMARK 927      BINDING AFFINITY PREDICTED BY RF-SCORE:    0.00 PKD
ROOT
HETATM    1  C   UNL     1     -12.748  15.621  74.286  1.00  0.00    -0.594 C  
HETATM    2  C   UNL     1     -12.598  15.251  72.839  1.00  0.00    -0.512 A  
HETATM    3  C   UNL     1     -12.383  16.217  71.857  1.00  0.00    -0.442 A  
HETATM    4  C   UNL     1     -12.167  15.833  70.521  1.00  0.00    -0.399 A  
HETATM    5  C   UNL     1     -12.165  14.482  70.138  1.00  0.00    -0.342 A  
HETATM    6  C   UNL     1     -12.637  12.042  70.825  1.00  0.00    -0.312 C  
HETATM    7  C   UNL     1     -12.486  13.515  71.113  1.00  0.00    -0.424 A  
HETATM    8  C   UNL     1     -12.666  13.911  72.456  1.00  0.00    -0.276 A  
ENDROOT
BRANCH   5   9
HETATM    9  S   UNL     1     -11.799  13.970  68.452  1.00  0.00    -0.353 SA 
BRANCH   9  10
HETATM   10  C   UNL     1     -10.163  14.612  68.061  1.00  0.00    -0.231 A  
HETATM   11  C   UNL     1      -9.300  14.826  69.156  1.00  0.00    -0.102 A  
HETATM   12  C   UNL     1      -7.969  15.191  68.967  1.00  0.00    -0.188 A  
HETATM   13  C   UNL     1      -7.483  15.348  67.679  1.00  0.00    -0.195 A  
HETATM   14  C   UNL     1      -8.323  15.122  66.584  1.00  0.00    -0.162 A  
HETATM   15  C   UNL     1      -9.673  14.733  66.727  1.00  0.00    -0.254 A  
BRANCH  15  16
HETATM   16  N   UNL     1     -10.418  14.414  65.601  1.00  0.00    -0.315 NA 
HETATM   17  C   UNL     1     -10.239  13.145  64.874  1.00  0.00    -0.287 C  
HETATM   18  C   UNL     1     -11.619  12.642  64.380  1.00  0.00    -0.357 C  
HETATM   19  N   UNL     1     -12.382  13.633  63.589  1.00  0.00    -0.864 NA 
HETATM   20  C   UNL     1     -12.458  14.910  64.336  1.00  0.00    -0.207 C  
HETATM   21  H   UNL     1     -13.304  13.286  63.324  1.00  0.00     0.000 HD 
HETATM   22  C   UNL     1     -11.071  15.440  64.772  1.00  0.00    -0.403 C  
ENDBRANCH  15  16
ENDBRANCH   9  10
ENDBRANCH   5   9
TORSDOF 3
ENDMDL
MODEL       20
REMARK 921   NORMALIZED FREE ENERGY PREDICTED BY IDOCK:   -6.03 KCAL/MOL
REMARK 922        TOTAL FREE ENERGY PREDICTED BY IDOCK:   -7.78 KCAL/MOL
REMARK 923 INTER-LIGAND FREE ENERGY PREDICTED BY IDOCK:   -6.95 KCAL/MOL
REMARK 924 INTRA-LIGAND FREE ENERGY PREDICTED BY IDOCK:   -0.83 KCAL/MOL
REMARK 927      BINDING AFFINITY PREDICTED BY RF-SCORE:    0.00 PKD
ROOT
HETATM    1  C   UNL     1     -12.243  12.651  63.784  1.00  0.00    -0.600 C  
HETATM    2  C   UNL     1     -11.773  13.498  64.931  1.00  0.00    -0.381 A  
HETATM    3  C   UNL     1     -11.046  14.670  64.723  1.00  0.00    -0.394 A  
HETATM    4  C   UNL     1     -10.688  15.484  65.813  1.00  0.00    -0.362 A  
HETATM    5  C   UNL     1     -11.043  15.145  67.129  1.00  0.00    -0.335 A  
HETATM    6  C   UNL     1     -12.022  13.358  68.709  1.00  0.00    -0.359 C  
HETATM    7  C   UNL     1     -11.686  13.907  67.345  1.00  0.00    -0.422 A  
HETATM    8  C   UNL     1     -12.069  13.118  66.240  1.00  0.00    -0.460 A  
ENDROOT
BRANCH   5   9
HETATM    9  S   UNL     1     -10.674  16.220  68.523  1.00  0.00    -0.324 SA 
BRANCH   9  10
HETATM   10  C   UNL     1      -9.964  17.728  67.839  1.00  0.00    -0.322 A  
HETATM   11  C   UNL     1     -10.859  18.799  67.633  1.00  0.00    -0.382 A  
HETATM   12  C   UNL     1     -10.403  20.054  67.236  1.00  0.00    -0.550 A  
HETATM   13  C   UNL     1      -9.047  20.255  67.039  1.00  0.00    -0.481 A  
HETATM   14  C   UNL     1      -8.148  19.206  67.257  1.00  0.00    -0.286 A  
HETATM   15  C   UNL     1      -8.561  17.923  67.677  1.00  0.00    -0.242 A  
BRANCH  15  16
HETATM   16  N   UNL     1      -7.609  16.962  67.985  1.00  0.00    -0.174 NA 
HETATM   17  C   UNL     1      -6.689  17.105  69.126  1.00  0.00    -0.238 C  
HETATM   18  C   UNL     1      -6.469  15.717  69.779  1.00  0.00    -0.169 C  
HETATM   19  N   UNL     1      -6.028  14.663  68.839  1.00  0.00    -0.084 NA 
HETATM   20  C   UNL     1      -6.944  14.623  67.675  1.00  0.00    -0.184 C  
HETATM   21  H   UNL     1      -5.941  13.754  69.293  1.00  0.00     0.000 HD 
HETATM   22  C   UNL     1      -7.111  16.000  66.989  1.00  0.00    -0.198 C  
ENDBRANCH  15  16
ENDBRANCH   9  10
ENDBRANCH   5   9
TORSDOF 3
ENDMDL
MODEL       21
REMARK 921   NORMALIZED FREE ENERGY PREDICTED BY IDOCK:   -6.03 KCAL/MOL
REMARK 922        TOTAL FREE ENERGY PREDICTED BY IDOCK:   -7.77 KCAL/MOL
REMARK 923 INTER-LIGAND FREE ENERGY PREDICTED BY IDOCK:   -7.26 KCAL/MOL
REMARK 924 INTRA-LIGAND FREE ENERGY PREDICTED BY IDOCK:   -0.52 KCAL/MOL
REMARK 927      BINDING AFFINITY PREDICTED BY RF-SCORE:    0.00 PKD
ROOT
HETATM    1  C   UNL     1      -9.020   9.169  64.728  1.00  0.00    -0.177 C  
HETATM    2  C   UNL     1      -9.555  10.535  65.044  1.00  0.00    -0.331 A  
HETATM    3  C   UNL     1      -9.126  11.245  66.165  1.00  0.00    -0.216 A  
HETATM    4  C   UNL     1      -9.586  12.555  66.392  1.00  0.00    -0.247 A  
HETATM    5  C   UNL     1     -10.483  13.180  65.510  1.00  0.00    -0.288 A  
HETATM    6  C   UNL     1     -12.048  12.919  63.479  1.00  0.00    -0.633 C  
HETATM    7  C   UNL     1     -10.994  12.422  64.436  1.00  0.00    -0.377 A  
HETATM    8  C   UNL     1     -10.498  11.122  64.201  1.00  0.00    -0.442 A  
ENDROOT
BRANCH   5   9
HETATM    9  S   UNL     1     -11.007  14.886  65.736  1.00  0.00    -0.355 SA 
BRANCH   9  10
HETATM   10  C   UNL     1     -11.352  15.094  67.491  1.00  0.00    -0.320 A  
HETATM   11  C   UNL     1     -11.932  13.987  68.147  1.00  0.00    -0.382 A  
HETATM   12  C   UNL     1     -12.120  13.982  69.527  1.00  0.00    -0.397 A  
HETATM   13  C   UNL     1     -11.730  15.083  70.271  1.00  0.00    -0.338 A  
HETATM   14  C   UNL     1     -11.138  16.179  69.636  1.00  0.00    -0.344 A  
HETATM   15  C   UNL     1     -10.911  16.222  68.243  1.00  0.00    -0.348 A  
BRANCH  15  16
HETATM   16  N   UNL     1     -10.215  17.290  67.693  1.00  0.00    -0.320 NA 
HETATM   17  C   UNL     1      -8.747  17.388  67.758  1.00  0.00    -0.232 C  
HETATM   18  C   UNL     1      -8.219  17.997  66.435  1.00  0.00    -0.255 C  
HETATM   19  N   UNL     1      -8.846  19.284  66.062  1.00  0.00    -0.448 NA 
HETATM   20  C   UNL     1     -10.320  19.144  66.094  1.00  0.00    -0.484 C  
HETATM   21  H   UNL     1      -8.511  19.629  65.163  1.00  0.00     0.000 HD 
HETATM   22  C   UNL     1     -10.847  18.595  67.441  1.00  0.00    -0.324 C  
ENDBRANCH  15  16
ENDBRANCH   9  10
ENDBRANCH   5   9
TORSDOF 3
ENDMDL
MODEL       22
REMARK 921   NORMALIZED FREE ENERGY PREDICTED BY IDOCK:   -6.02 KCAL/MOL
REMARK 922        TOTAL FREE ENERGY PREDICTED BY IDOCK:   -7.77 KCAL/MOL
REMARK 923 INTER-LIGAND FREE ENERGY PREDICTED BY IDOCK:   -7.12 KCAL/MOL
REMARK 924 INTRA-LIGAND FREE ENERGY PREDICTED BY IDOCK:   -0.65 KCAL/MOL
REMARK 927      BINDING AFFINITY PREDICTED BY RF-SCORE:    0.00 PKD
ROOT
HETATM    1  C   UNL     1     -13.523  13.843  72.627  1.00  0.00    -0.652 C  
HETATM    2  C   UNL     1     -12.728  14.396  71.481  1.00  0.00    -0.417 A  
HETATM    3  C   UNL     1     -12.209  15.690  71.509  1.00  0.00    -0.487 A  
HETATM    4  C   UNL     1     -11.402  16.152  70.454  1.00  0.00    -0.377 A  
HETATM    5  C   UNL     1     -11.100  15.338  69.350  1.00  0.00    -0.280 A  
HETATM    6  C   UNL     1     -11.576  13.134  68.099  1.00  0.00    -0.375 C  
HETATM    7  C   UNL     1     -11.712  14.069  69.275  1.00  0.00    -0.372 A  
HETATM    8  C   UNL     1     -12.491  13.605  70.356  1.00  0.00    -0.364 A  
ENDROOT
BRANCH   5   9
HETATM    9  S   UNL     1      -9.994  15.881  68.039  1.00  0.00    -0.222 SA 
BRANCH   9  10
HETATM   10  C   UNL     1      -8.416  16.261  68.818  1.00  0.00    -0.240 A  
HETATM   11  C   UNL     1      -7.699  15.164  69.340  1.00  0.00    -0.213 A  
HETATM   12  C   UNL     1      -6.410  15.317  69.844  1.00  0.00    -0.164 A  
HETATM   13  C   UNL     1      -5.819  16.570  69.833  1.00  0.00    -0.203 A  
HETATM   14  C   UNL     1      -6.511  17.663  69.302  1.00  0.00    -0.240 A  
HETATM   15  C   UNL     1      -7.812  17.552  68.764  1.00  0.00    -0.242 A  
BRANCH  15  16
HETATM   16  N   UNL     1      -8.397  18.651  68.150  1.00  0.00    -0.298 NA 
HETATM   17  C   UNL     1      -7.680  19.469  67.156  1.00  0.00    -0.255 C  
HETATM   18  C   UNL     1      -8.672  19.911  66.051  1.00  0.00    -0.245 C  
HETATM   19  N   UNL     1      -9.886  20.589  66.556  1.00  0.00    -0.618 NA 
HETATM   20  C   UNL     1     -10.516  19.756  67.608  1.00  0.00    -0.424 C  
HETATM   21  H   UNL     1     -10.538  20.821  65.807  1.00  0.00     0.000 HD 
HETATM   22  C   UNL     1      -9.536  19.370  68.741  1.00  0.00    -0.432 C  
ENDBRANCH  15  16
ENDBRANCH   9  10
ENDBRANCH   5   9
TORSDOF 3
ENDMDL
MODEL       23
REMARK 921   NORMALIZED FREE ENERGY PREDICTED BY IDOCK:   -6.01 KCAL/MOL
REMARK 922        TOTAL FREE ENERGY PREDICTED BY IDOCK:   -7.76 KCAL/MOL
REMARK 923 INTER-LIGAND FREE ENERGY PREDICTED BY IDOCK:   -8.14 KCAL/MOL
REMARK 924 INTRA-LIGAND FREE ENERGY PREDICTED BY IDOCK:    0.38 KCAL/MOL
REMARK 927      BINDING AFFINITY PREDICTED BY RF-SCORE:    0.00 PKD
ROOT
HETATM    1  C   UNL     1     -12.784  15.550  74.011  1.00  0.00    -0.689 C  
HETATM    2  C   UNL     1     -12.640  15.032  72.610  1.00  0.00    -0.459 A  
HETATM    3  C   UNL     1     -12.451  15.893  71.529  1.00  0.00    -0.483 A  
HETATM    4  C   UNL     1     -12.241  15.374  70.239  1.00  0.00    -0.414 A  
HETATM    5  C   UNL     1     -12.218  13.990  70.000  1.00  0.00    -0.352 A  
HETATM    6  C   UNL     1     -12.640  11.629  70.945  1.00  0.00    -0.409 C  
HETATM    7  C   UNL     1     -12.513  13.126  71.076  1.00  0.00    -0.406 A  
HETATM    8  C   UNL     1     -12.688  13.658  72.370  1.00  0.00    -0.202 A  
ENDROOT
BRANCH   5   9
HETATM    9  S   UNL     1     -11.858  13.310  68.374  1.00  0.00    -0.332 SA 
BRANCH   9  10
HETATM   10  C   UNL     1     -10.941  14.573  67.476  1.00  0.00    -0.293 A  
HETATM   11  C   UNL     1     -10.407  15.624  68.252  1.00  0.00    -0.244 A  
HETATM   12  C   UNL     1      -9.569  16.583  67.689  1.00  0.00    -0.235 A  
HETATM   13  C   UNL     1      -9.253  16.506  66.343  1.00  0.00    -0.327 A  
HETATM   14  C   UNL     1      -9.760  15.459  65.567  1.00  0.00    -0.318 A  
HETATM   15  C   UNL     1     -10.599  14.455  66.097  1.00  0.00    -0.298 A  
BRANCH  15  16
HETATM   16  N   UNL     1     -10.974  13.382  65.300  1.00  0.00    -0.288 NA 
HETATM   17  C   UNL     1     -12.353  13.211  64.812  1.00  0.00    -0.423 C  
HETATM   18  C   UNL     1     -12.316  12.642  63.371  1.00  0.00    -0.456 C  
HETATM   19  N   UNL     1     -11.518  11.406  63.224  1.00  0.00    -0.852 NA 
HETATM   20  C   UNL     1     -10.171  11.614  63.805  1.00  0.00    -0.389 C  
HETATM   21  H   UNL     1     -11.474  11.088  62.256  1.00  0.00     0.000 HD 
HETATM   22  C   UNL     1     -10.214  12.123  65.266  1.00  0.00    -0.274 C  
ENDBRANCH  15  16
ENDBRANCH   9  10
ENDBRANCH   5   9
TORSDOF 3
ENDMDL
MODEL       24
REMARK 921   NORMALIZED FREE ENERGY PREDICTED BY IDOCK:   -5.98 KCAL/MOL
REMARK 922        TOTAL FREE ENERGY PREDICTED BY IDOCK:   -7.73 KCAL/MOL
REMARK 923 INTER-LIGAND FREE ENERGY PREDICTED BY IDOCK:   -7.19 KCAL/MOL
REMARK 924 INTRA-LIGAND FREE ENERGY PREDICTED BY IDOCK:   -0.54 KCAL/MOL
REMARK 927      BINDING AFFINITY PREDICTED BY RF-SCORE:    0.00 PKD
ROOT
HETATM    1  C   UNL     1     -10.074   6.722  73.974  1.00  0.00    -0.389 C  
HETATM    2  C   UNL     1     -10.528   7.730  72.959  1.00  0.00    -0.432 A  
HETATM    3  C   UNL     1      -9.623   8.553  72.291  1.00  0.00    -0.377 A  
HETATM    4  C   UNL     1     -10.070   9.432  71.289  1.00  0.00    -0.309 A  
HETATM    5  C   UNL     1     -11.428   9.511  70.935  1.00  0.00    -0.334 A  
HETATM    6  C   UNL     1     -13.848   8.824  71.498  1.00  0.00    -0.391 C  
HETATM    7  C   UNL     1     -12.353   8.754  71.684  1.00  0.00    -0.394 A  
HETATM    8  C   UNL     1     -11.886   7.851  72.663  1.00  0.00    -0.352 A  
ENDROOT
BRANCH   5   9
HETATM    9  S   UNL     1     -12.003  10.561  69.593  1.00  0.00    -0.158 SA 
BRANCH   9  10
HETATM   10  C   UNL     1     -12.406  12.158  70.322  1.00  0.00    -0.191 A  
HETATM   11  C   UNL     1     -12.990  12.127  71.606  1.00  0.00    -0.427 A  
HETATM   12  C   UNL     1     -13.220  13.298  72.323  1.00  0.00    -0.567 A  
HETATM   13  C   UNL     1     -12.870  14.517  71.766  1.00  0.00    -0.415 A  
HETATM   14  C   UNL     1     -12.274  14.561  70.502  1.00  0.00    -0.399 A  
HETATM   15  C   UNL     1     -12.005  13.399  69.746  1.00  0.00    -0.330 A  
BRANCH  15  16
HETATM   16  N   UNL     1     -11.308  13.505  68.550  1.00  0.00    -0.271 NA 
HETATM   17  C   UNL     1      -9.841  13.387  68.483  1.00  0.00    -0.178 C  
HETATM   18  C   UNL     1      -9.450  12.636  67.185  1.00  0.00    -0.214 C  
HETATM   19  N   UNL     1     -10.018  13.217  65.949  1.00  0.00    -0.324 NA 
HETATM   20  C   UNL     1     -11.481  13.386  66.108  1.00  0.00    -0.327 C  
HETATM   21  H   UNL     1      -9.781  12.670  65.122  1.00  0.00     0.000 HD 
HETATM   22  C   UNL     1     -11.863  14.191  67.373  1.00  0.00    -0.413 C  
ENDBRANCH  15  16
ENDBRANCH   9  10
ENDBRANCH   5   9
TORSDOF 3
ENDMDL
MODEL       25
REMARK 921   NORMALIZED FREE ENERGY PREDICTED BY IDOCK:   -5.95 KCAL/MOL
REMARK 922        TOTAL FREE ENERGY PREDICTED BY IDOCK:   -7.68 KCAL/MOL
REMARK 923 INTER-LIGAND FREE ENERGY PREDICTED BY IDOCK:   -6.90 KCAL/MOL
REMARK 924 INTRA-LIGAND FREE ENERGY PREDICTED BY IDOCK:   -0.79 KCAL/MOL
REMARK 927      BINDING AFFINITY PREDICTED BY RF-SCORE:    0.00 PKD
ROOT
HETATM    1  C   UNL     1     -12.321   9.592  71.603  1.00  0.00    -0.480 C  
HETATM    2  C   UNL     1     -11.581  10.237  70.469  1.00  0.00    -0.424 A  
HETATM    3  C   UNL     1     -12.210  11.127  69.598  1.00  0.00    -0.360 A  
HETATM    4  C   UNL     1     -11.471  11.776  68.593  1.00  0.00    -0.346 A  
HETATM    5  C   UNL     1     -10.094  11.549  68.433  1.00  0.00    -0.204 A  
HETATM    6  C   UNL     1      -8.045  10.138  69.110  1.00  0.00    -0.134 C  
HETATM    7  C   UNL     1      -9.484  10.571  69.246  1.00  0.00    -0.191 A  
HETATM    8  C   UNL     1     -10.229   9.953  70.273  1.00  0.00    -0.322 A  
ENDROOT
BRANCH   5   9
HETATM    9  S   UNL     1      -9.117  12.441  67.214  1.00  0.00    -0.194 SA 
BRANCH   9  10
HETATM   10  C   UNL     1     -10.161  12.643  65.761  1.00  0.00    -0.272 A  
HETATM   11  C   UNL     1     -10.310  11.506  64.938  1.00  0.00    -0.340 A  
HETATM   12  C   UNL     1     -11.197  11.502  63.864  1.00  0.00    -0.439 A  
HETATM   13  C   UNL     1     -11.947  12.636  63.598  1.00  0.00    -0.615 A  
HETATM   14  C   UNL     1     -11.823  13.763  64.416  1.00  0.00    -0.458 A  
HETATM   15  C   UNL     1     -10.951  13.806  65.525  1.00  0.00    -0.299 A  
BRANCH  15  16
HETATM   16  N   UNL     1     -10.960  14.913  66.363  1.00  0.00    -0.332 NA 
HETATM   17  C   UNL     1     -11.911  15.045  67.480  1.00  0.00    -0.164 C  
HETATM   18  C   UNL     1     -11.197  15.722  68.678  1.00  0.00    -0.351 C  
HETATM   19  N   UNL     1     -10.543  17.007  68.351  1.00  0.00    -0.361 NA 
HETATM   20  C   UNL     1      -9.664  16.830  67.171  1.00  0.00    -0.251 C  
HETATM   21  H   UNL     1     -10.042  17.398  69.149  1.00  0.00     0.000 HD 
HETATM   22  C   UNL     1     -10.398  16.211  65.958  1.00  0.00    -0.358 C  
ENDBRANCH  15  16
ENDBRANCH   9  10
ENDBRANCH   5   9
TORSDOF 3
ENDMDL
MODEL       26
REMARK 921   NORMALIZED FREE ENERGY PREDICTED BY IDOCK:   -5.90 KCAL/MOL
REMARK 922        TOTAL FREE ENERGY PREDICTED BY IDOCK:   -7.63 KCAL/MOL
REMARK 923 INTER-LIGAND FREE ENERGY PREDICTED BY IDOCK:   -6.81 KCAL/MOL
REMARK 924 INTRA-LIGAND FREE ENERGY PREDICTED BY IDOCK:   -0.82 KCAL/MOL
REMARK 927      BINDING AFFINITY PREDICTED BY RF-SCORE:    0.00 PKD
ROOT
HETATM    1  C   UNL     1     -12.054  12.569  63.630  1.00  0.00    -0.642 C  
HETATM    2  C   UNL     1     -11.673  13.452  64.782  1.00  0.00    -0.393 A  
HETATM    3  C   UNL     1     -11.043  14.681  64.583  1.00  0.00    -0.345 A  
HETATM    4  C   UNL     1     -10.770  15.522  65.677  1.00  0.00    -0.378 A  
HETATM    5  C   UNL     1     -11.115  15.154  66.989  1.00  0.00    -0.328 A  
HETATM    6  C   UNL     1     -11.965  13.292  68.556  1.00  0.00    -0.340 C  
HETATM    7  C   UNL     1     -11.656  13.868  67.197  1.00  0.00    -0.391 A  
HETATM    8  C   UNL     1     -11.956  13.049  66.087  1.00  0.00    -0.488 A  
ENDROOT
BRANCH   5   9
HETATM    9  S   UNL     1     -10.858  16.257  68.386  1.00  0.00    -0.347 SA 
BRANCH   9  10
HETATM   10  C   UNL     1      -9.109  16.163  68.804  1.00  0.00    -0.229 A  
HETATM   11  C   UNL     1      -8.629  14.894  69.192  1.00  0.00    -0.148 A  
HETATM   12  C   UNL     1      -7.271  14.670  69.408  1.00  0.00    -0.146 A  
HETATM   13  C   UNL     1      -6.374  15.713  69.240  1.00  0.00    -0.136 A  
HETATM   14  C   UNL     1      -6.834  16.970  68.839  1.00  0.00    -0.211 A  
HETATM   15  C   UNL     1      -8.198  17.239  68.590  1.00  0.00    -0.262 A  
BRANCH  15  16
HETATM   16  N   UNL     1      -8.573  18.476  68.084  1.00  0.00    -0.294 NA 
HETATM   17  C   UNL     1      -8.146  18.943  66.754  1.00  0.00    -0.269 C  
HETATM   18  C   UNL     1      -9.305  19.734  66.096  1.00  0.00    -0.363 C  
HETATM   19  N   UNL     1      -9.840  20.835  66.926  1.00  0.00    -0.604 NA 
HETATM   20  C   UNL     1     -10.175  20.322  68.275  1.00  0.00    -0.232 C  
HETATM   21  H   UNL     1     -10.633  21.300  66.484  1.00  0.00     0.000 HD 
HETATM   22  C   UNL     1      -8.993  19.587  68.953  1.00  0.00    -0.267 C  
ENDBRANCH  15  16
ENDBRANCH   9  10
ENDBRANCH   5   9
TORSDOF 3
ENDMDL
MODEL       27
REMARK 921   NORMALIZED FREE ENERGY PREDICTED BY IDOCK:   -5.89 KCAL/MOL
REMARK 922        TOTAL FREE ENERGY PREDICTED BY IDOCK:   -7.61 KCAL/MOL
REMARK 923 INTER-LIGAND FREE ENERGY PREDICTED BY IDOCK:   -7.21 KCAL/MOL
REMARK 924 INTRA-LIGAND FREE ENERGY PREDICTED BY IDOCK:   -0.41 KCAL/MOL
REMARK 927      BINDING AFFINITY PREDICTED BY RF-SCORE:    0.00 PKD
ROOT
HETATM    1  C   UNL     1     -14.000  15.468  72.646  1.00  0.00    -0.617 C  
HETATM    2  C   UNL     1     -13.164  14.889  71.542  1.00  0.00    -0.448 A  
HETATM    3  C   UNL     1     -12.529  15.702  70.604  1.00  0.00    -0.463 A  
HETATM    4  C   UNL     1     -11.689  15.134  69.629  1.00  0.00    -0.353 A  
HETATM    5  C   UNL     1     -11.469  13.748  69.567  1.00  0.00    -0.267 A  
HETATM    6  C   UNL     1     -12.151  11.414  70.423  1.00  0.00    -0.473 C  
HETATM    7  C   UNL     1     -12.195  12.921  70.450  1.00  0.00    -0.381 A  
HETATM    8  C   UNL     1     -13.007  13.506  71.445  1.00  0.00    -0.421 A  
ENDROOT
BRANCH   5   9
HETATM    9  S   UNL     1     -10.326  13.016  68.386  1.00  0.00    -0.241 SA 
BRANCH   9  10
HETATM   10  C   UNL     1     -11.206  12.900  66.818  1.00  0.00    -0.298 A  
HETATM   11  C   UNL     1     -11.852  14.075  66.378  1.00  0.00    -0.437 A  
HETATM   12  C   UNL     1     -12.448  14.144  65.122  1.00  0.00    -0.453 A  
HETATM   13  C   UNL     1     -12.409  13.039  64.288  1.00  0.00    -0.436 A  
HETATM   14  C   UNL     1     -11.757  11.874  64.705  1.00  0.00    -0.306 A  
HETATM   15  C   UNL     1     -11.123  11.764  65.961  1.00  0.00    -0.312 A  
BRANCH  15  16
HETATM   16  N   UNL     1     -10.397  10.621  66.266  1.00  0.00    -0.245 NA 
HETATM   17  C   UNL     1     -10.770   9.725  67.374  1.00  0.00    -0.249 C  
HETATM   18  C   UNL     1     -10.501   8.258  66.954  1.00  0.00    -0.295 C  
HETATM   19  N   UNL     1      -9.125   8.003  66.474  1.00  0.00    -0.164 NA 
HETATM   20  C   UNL     1      -8.778   8.986  65.420  1.00  0.00    -0.189 C  
HETATM   21  H   UNL     1      -8.998   7.042  66.160  1.00  0.00     0.000 HD 
HETATM   22  C   UNL     1      -8.990  10.452  65.867  1.00  0.00    -0.162 C  
ENDBRANCH  15  16
ENDBRANCH   9  10
ENDBRANCH   5   9
TORSDOF 3
ENDMDL
MODEL       28
REMARK 921   NORMALIZED FREE ENERGY PREDICTED BY IDOCK:   -5.87 KCAL/MOL
REMARK 922        TOTAL FREE ENERGY PREDICTED BY IDOCK:   -7.60 KCAL/MOL
REMARK 923 INTER-LIGAND FREE ENERGY PREDICTED BY IDOCK:   -6.94 KCAL/MOL
REMARK 924 INTRA-LIGAND FREE ENERGY PREDICTED BY IDOCK:   -0.66 KCAL/MOL
REMARK 927      BINDING AFFINITY PREDICTED BY RF-SCORE:    0.00 PKD
ROOT
HETATM    1  C   UNL     1     -13.293  10.058  71.993  1.00  0.00    -0.513 C  
HETATM    2  C   UNL     1     -12.471  10.757  70.951  1.00  0.00    -0.500 A  
HETATM    3  C   UNL     1     -12.527  12.140  70.783  1.00  0.00    -0.362 A  
HETATM    4  C   UNL     1     -11.686  12.776  69.852  1.00  0.00    -0.321 A  
HETATM    5  C   UNL     1     -10.777  12.046  69.068  1.00  0.00    -0.136 A  
HETATM    6  C   UNL     1      -9.964   9.722  68.305  1.00  0.00    -0.175 C  
HETATM    7  C   UNL     1     -10.797  10.639  69.165  1.00  0.00    -0.279 A  
HETATM    8  C   UNL     1     -11.621  10.018  70.128  1.00  0.00    -0.320 A  
ENDROOT
BRANCH   5   9
HETATM    9  S   UNL     1      -9.630  12.853  67.940  1.00  0.00    -0.220 SA 
BRANCH   9  10
HETATM   10  C   UNL     1     -10.584  13.335  66.491  1.00  0.00    -0.286 A  
HETATM   11  C   UNL     1     -11.337  12.314  65.873  1.00  0.00    -0.406 A  
HETATM   12  C   UNL     1     -12.215  12.595  64.829  1.00  0.00    -0.528 A  
HETATM   13  C   UNL     1     -12.352  13.901  64.388  1.00  0.00    -0.400 A  
HETATM   14  C   UNL     1     -11.625  14.925  65.003  1.00  0.00    -0.357 A  
HETATM   15  C   UNL     1     -10.737  14.690  66.075  1.00  0.00    -0.312 A  
BRANCH  15  16
HETATM   16  N   UNL     1     -10.134  15.765  66.715  1.00  0.00    -0.264 NA 
HETATM   17  C   UNL     1      -8.703  16.074  66.552  1.00  0.00    -0.303 C  
HETATM   18  C   UNL     1      -8.515  17.611  66.520  1.00  0.00    -0.264 C  
HETATM   19  N   UNL     1      -9.109  18.323  67.673  1.00  0.00    -0.261 NA 
HETATM   20  C   UNL     1     -10.523  17.910  67.834  1.00  0.00    -0.396 C  
HETATM   21  H   UNL     1      -9.010  19.335  67.593  1.00  0.00     0.000 HD 
HETATM   22  C   UNL     1     -10.698  16.376  67.929  1.00  0.00    -0.332 C  
ENDBRANCH  15  16
ENDBRANCH   9  10
ENDBRANCH   5   9
TORSDOF 3
ENDMDL
MODEL       29
REMARK 921   NORMALIZED FREE ENERGY PREDICTED BY IDOCK:   -5.87 KCAL/MOL
REMARK 922        TOTAL FREE ENERGY PREDICTED BY IDOCK:   -7.59 KCAL/MOL
REMARK 923 INTER-LIGAND FREE ENERGY PREDICTED BY IDOCK:   -6.94 KCAL/MOL
REMARK 924 INTRA-LIGAND FREE ENERGY PREDICTED BY IDOCK:   -0.65 KCAL/MOL
REMARK 927      BINDING AFFINITY PREDICTED BY RF-SCORE:    0.00 PKD
ROOT
HETATM    1  C   UNL     1     -14.243  14.638  72.067  1.00  0.00    -0.625 C  
HETATM    2  C   UNL     1     -13.132  14.378  71.092  1.00  0.00    -0.419 A  
HETATM    3  C   UNL     1     -12.659  13.089  70.851  1.00  0.00    -0.364 A  
HETATM    4  C   UNL     1     -11.672  12.868  69.874  1.00  0.00    -0.324 A  
HETATM    5  C   UNL     1     -11.135  13.925  69.121  1.00  0.00    -0.245 A  
HETATM    6  C   UNL     1     -10.966  16.478  68.799  1.00  0.00    -0.330 C  
HETATM    7  C   UNL     1     -11.540  15.239  69.439  1.00  0.00    -0.347 A  
HETATM    8  C   UNL     1     -12.556  15.443  70.398  1.00  0.00    -0.433 A  
ENDROOT
BRANCH   5   9
HETATM    9  S   UNL     1      -9.941  13.648  67.804  1.00  0.00    -0.241 SA 
BRANCH   9  10
HETATM   10  C   UNL     1     -10.888  13.326  66.307  1.00  0.00    -0.284 A  
HETATM   11  C   UNL     1     -11.505  14.444  65.708  1.00  0.00    -0.335 A  
HETATM   12  C   UNL     1     -12.149  14.341  64.477  1.00  0.00    -0.499 A  
HETATM   13  C   UNL     1     -12.186  13.117  63.829  1.00  0.00    -0.528 A  
HETATM   14  C   UNL     1     -11.563  12.005  64.403  1.00  0.00    -0.411 A  
HETATM   15  C   UNL     1     -10.883  12.066  65.639  1.00  0.00    -0.282 A  
BRANCH  15  16
HETATM   16  N   UNL     1     -10.189  10.954  66.096  1.00  0.00    -0.242 NA 
HETATM   17  C   UNL     1     -10.646  10.164  67.253  1.00  0.00    -0.261 C  
HETATM   18  C   UNL     1     -10.361   8.664  66.989  1.00  0.00    -0.298 C  
HETATM   19  N   UNL     1      -8.957   8.364  66.631  1.00  0.00    -0.143 NA 
HETATM   20  C   UNL     1      -8.531   9.245  65.518  1.00  0.00    -0.140 C  
HETATM   21  H   UNL     1      -8.817   7.377  66.416  1.00  0.00     0.000 HD 
HETATM   22  C   UNL     1      -8.760  10.746  65.813  1.00  0.00    -0.186 C  
ENDBRANCH  15  16
ENDBRANCH   9  10
ENDBRANCH   5   9
TORSDOF 3
ENDMDL
MODEL       30
REMARK 921   NORMALIZED FREE ENERGY PREDICTED BY IDOCK:   -5.83 KCAL/MOL
REMARK 922        TOTAL FREE ENERGY PREDICTED BY IDOCK:   -7.55 KCAL/MOL
REMARK 923 INTER-LIGAND FREE ENERGY PREDICTED BY IDOCK:   -6.92 KCAL/MOL
REMARK 924 INTRA-LIGAND FREE ENERGY PREDICTED BY IDOCK:   -0.63 KCAL/MOL
REMARK 927      BINDING AFFINITY PREDICTED BY RF-SCORE:    0.00 PKD
ROOT
HETATM    1  C   UNL     1      -6.260  17.185  66.774  1.00  0.00    -0.244 C  
HETATM    2  C   UNL     1      -7.581  16.527  67.042  1.00  0.00    -0.240 A  
HETATM    3  C   UNL     1      -7.843  15.878  68.248  1.00  0.00    -0.138 A  
HETATM    4  C   UNL     1      -9.117  15.340  68.502  1.00  0.00    -0.192 A  
HETATM    5  C   UNL     1     -10.153  15.434  67.558  1.00  0.00    -0.233 A  
HETATM    6  C   UNL     1     -10.831  16.059  65.150  1.00  0.00    -0.411 C  
HETATM    7  C   UNL     1      -9.855  15.997  66.299  1.00  0.00    -0.331 A  
HETATM    8  C   UNL     1      -8.583  16.564  66.072  1.00  0.00    -0.241 A  
ENDROOT
BRANCH   5   9
HETATM    9  S   UNL     1     -11.814  14.833  67.903  1.00  0.00    -0.227 SA 
BRANCH   9  10
HETATM   10  C   UNL     1     -11.648  13.110  68.400  1.00  0.00    -0.337 A  
HETATM   11  C   UNL     1     -11.888  12.829  69.761  1.00  0.00    -0.380 A  
HETATM   12  C   UNL     1     -11.921  11.519  70.234  1.00  0.00    -0.455 A  
HETATM   13  C   UNL     1     -11.713  10.472  69.351  1.00  0.00    -0.295 A  
HETATM   14  C   UNL     1     -11.491  10.736  67.996  1.00  0.00    -0.333 A  
HETATM   15  C   UNL     1     -11.467  12.045  67.469  1.00  0.00    -0.333 A  
BRANCH  15  16
HETATM   16  N   UNL     1     -11.356  12.232  66.097  1.00  0.00    -0.336 NA 
HETATM   17  C   UNL     1     -10.053  12.393  65.429  1.00  0.00    -0.269 C  
HETATM   18  C   UNL     1     -10.093  11.676  64.056  1.00  0.00    -0.323 C  
HETATM   19  N   UNL     1     -11.217  12.087  63.187  1.00  0.00    -0.700 NA 
HETATM   20  C   UNL     1     -12.490  11.980  63.939  1.00  0.00    -0.436 C  
HETATM   21  H   UNL     1     -11.241  11.560  62.314  1.00  0.00     0.000 HD 
HETATM   22  C   UNL     1     -12.465  12.750  65.281  1.00  0.00    -0.465 C  
ENDBRANCH  15  16
ENDBRANCH   9  10
ENDBRANCH   5   9
TORSDOF 3
ENDMDL
MODEL       31
REMARK 921   NORMALIZED FREE ENERGY PREDICTED BY IDOCK:   -5.81 KCAL/MOL
REMARK 922        TOTAL FREE ENERGY PREDICTED BY IDOCK:   -7.52 KCAL/MOL
REMARK 923 INTER-LIGAND FREE ENERGY PREDICTED BY IDOCK:   -6.70 KCAL/MOL
REMARK 924 INTRA-LIGAND FREE ENERGY PREDICTED BY IDOCK:   -0.82 KCAL/MOL
REMARK 927      BINDING AFFINITY PREDICTED BY RF-SCORE:    0.00 PKD
ROOT
HETATM    1  C   UNL     1      -9.162  18.799  67.380  1.00  0.00    -0.302 C  
HETATM    2  C   UNL     1      -9.933  17.511  67.387  1.00  0.00    -0.315 A  
HETATM    3  C   UNL     1     -10.083  16.743  66.232  1.00  0.00    -0.338 A  
HETATM    4  C   UNL     1     -10.742  15.502  66.287  1.00  0.00    -0.307 A  
HETATM    5  C   UNL     1     -11.268  15.004  67.491  1.00  0.00    -0.330 A  
HETATM    6  C   UNL     1     -11.830  15.480  69.962  1.00  0.00    -0.379 C  
HETATM    7  C   UNL     1     -11.207  15.830  68.633  1.00  0.00    -0.351 A  
HETATM    8  C   UNL     1     -10.512  17.057  68.572  1.00  0.00    -0.373 A  
ENDROOT
BRANCH   5   9
HETATM    9  S   UNL     1     -12.031  13.379  67.597  1.00  0.00    -0.278 SA 
BRANCH   9  10
HETATM   10  C   UNL     1     -11.636  12.521  66.064  1.00  0.00    -0.406 A  
HETATM   11  C   UNL     1     -12.526  12.727  64.988  1.00  0.00    -0.572 A  
HETATM   12  C   UNL     1     -12.252  12.225  63.718  1.00  0.00    -0.642 A  
HETATM   13  C   UNL     1     -11.086  11.509  63.506  1.00  0.00    -0.434 A  
HETATM   14  C   UNL     1     -10.187  11.313  64.559  1.00  0.00    -0.370 A  
HETATM   15  C   UNL     1     -10.413  11.818  65.858  1.00  0.00    -0.255 A  
BRANCH  15  16
HETATM   16  N   UNL     1      -9.428  11.686  66.827  1.00  0.00    -0.182 NA 
HETATM   17  C   UNL     1      -8.332  12.659  66.972  1.00  0.00    -0.130 C  
HETATM   18  C   UNL     1      -8.015  12.849  68.476  1.00  0.00    -0.095 C  
HETATM   19  N   UNL     1      -7.741  11.592  69.206  1.00  0.00    -0.355 NA 
HETATM   20  C   UNL     1      -8.837  10.626  68.957  1.00  0.00    -0.148 C  
HETATM   21  H   UNL     1      -7.587  11.750  70.201  1.00  0.00     0.000 HD 
HETATM   22  C   UNL     1      -9.107  10.392  67.451  1.00  0.00    -0.135 C  
ENDBRANCH  15  16
ENDBRANCH   9  10
ENDBRANCH   5   9
TORSDOF 3
ENDMDL
MODEL       32
REMARK 921   NORMALIZED FREE ENERGY PREDICTED BY IDOCK:   -5.80 KCAL/MOL
REMARK 922        TOTAL FREE ENERGY PREDICTED BY IDOCK:   -7.51 KCAL/MOL
REMARK 923 INTER-LIGAND FREE ENERGY PREDICTED BY IDOCK:   -7.25 KCAL/MOL
REMARK 924 INTRA-LIGAND FREE ENERGY PREDICTED BY IDOCK:   -0.26 KCAL/MOL
REMARK 927      BINDING AFFINITY PREDICTED BY RF-SCORE:    0.00 PKD
ROOT
HETATM    1  C   UNL     1     -13.390   8.839  72.574  1.00  0.00    -0.403 C  
HETATM    2  C   UNL     1     -12.539   9.501  71.530  1.00  0.00    -0.462 A  
HETATM    3  C   UNL     1     -13.071  10.426  70.633  1.00  0.00    -0.293 A  
HETATM    4  C   UNL     1     -12.233  11.088  69.718  1.00  0.00    -0.388 A  
HETATM    5  C   UNL     1     -10.850  10.840  69.677  1.00  0.00    -0.241 A  
HETATM    6  C   UNL     1      -8.896   9.372  70.496  1.00  0.00    -0.287 C  
HETATM    7  C   UNL     1     -10.333   9.828  70.514  1.00  0.00    -0.348 A  
HETATM    8  C   UNL     1     -11.179   9.197  71.450  1.00  0.00    -0.419 A  
ENDROOT
BRANCH   5   9
HETATM    9  S   UNL     1      -9.752  11.745  68.578  1.00  0.00    -0.139 SA 
BRANCH   9  10
HETATM   10  C   UNL     1     -10.793  12.521  67.330  1.00  0.00    -0.245 A  
HETATM   11  C   UNL     1     -11.068  11.748  66.181  1.00  0.00    -0.358 A  
HETATM   12  C   UNL     1     -11.967  12.188  65.213  1.00  0.00    -0.313 A  
HETATM   13  C   UNL     1     -12.603  13.408  65.379  1.00  0.00    -0.528 A  
HETATM   14  C   UNL     1     -12.352  14.175  66.521  1.00  0.00    -0.405 A  
HETATM   15  C   UNL     1     -11.464  13.762  67.537  1.00  0.00    -0.330 A  
BRANCH  15  16
HETATM   16  N   UNL     1     -11.348  14.516  68.696  1.00  0.00    -0.262 NA 
HETATM   17  C   UNL     1     -10.157  15.333  68.986  1.00  0.00    -0.239 C  
HETATM   18  C   UNL     1     -10.598  16.646  69.681  1.00  0.00    -0.274 C  
HETATM   19  N   UNL     1     -11.441  16.448  70.881  1.00  0.00    -0.554 NA 
HETATM   20  C   UNL     1     -12.574  15.554  70.547  1.00  0.00    -0.416 C  
HETATM   21  H   UNL     1     -11.753  17.332  71.282  1.00  0.00     0.000 HD 
HETATM   22  C   UNL     1     -12.124  14.218  69.910  1.00  0.00    -0.347 C  
ENDBRANCH  15  16
ENDBRANCH   9  10
ENDBRANCH   5   9
TORSDOF 3
ENDMDL
MODEL       33
REMARK 921   NORMALIZED FREE ENERGY PREDICTED BY IDOCK:   -5.79 KCAL/MOL
REMARK 922        TOTAL FREE ENERGY PREDICTED BY IDOCK:   -7.49 KCAL/MOL
REMARK 923 INTER-LIGAND FREE ENERGY PREDICTED BY IDOCK:   -8.03 KCAL/MOL
REMARK 924 INTRA-LIGAND FREE ENERGY PREDICTED BY IDOCK:    0.54 KCAL/MOL
REMARK 927      BINDING AFFINITY PREDICTED BY RF-SCORE:    0.00 PKD
ROOT
HETATM    1  C   UNL     1     -11.663  12.866  63.418  1.00  0.00    -0.526 C  
HETATM    2  C   UNL     1     -11.455  12.321  64.800  1.00  0.00    -0.382 A  
HETATM    3  C   UNL     1     -11.989  12.953  65.923  1.00  0.00    -0.504 A  
HETATM    4  C   UNL     1     -11.844  12.375  67.197  1.00  0.00    -0.361 A  
HETATM    5  C   UNL     1     -11.162  11.161  67.378  1.00  0.00    -0.294 A  
HETATM    6  C   UNL     1      -9.671   9.344  66.320  1.00  0.00    -0.330 C  
HETATM    7  C   UNL     1     -10.533  10.579  66.257  1.00  0.00    -0.250 A  
HETATM    8  C   UNL     1     -10.716  11.151  64.980  1.00  0.00    -0.301 A  
ENDROOT
BRANCH   5   9
HETATM    9  S   UNL     1     -11.048  10.363  68.986  1.00  0.00    -0.246 SA 
BRANCH   9  10
HETATM   10  C   UNL     1     -11.814  11.480  70.174  1.00  0.00    -0.356 A  
HETATM   11  C   UNL     1     -11.848  12.843  69.813  1.00  0.00    -0.380 A  
HETATM   12  C   UNL     1     -12.531  13.778  70.586  1.00  0.00    -0.429 A  
HETATM   13  C   UNL     1     -13.189  13.363  71.733  1.00  0.00    -0.495 A  
HETATM   14  C   UNL     1     -13.178  12.012  72.092  1.00  0.00    -0.400 A  
HETATM   15  C   UNL     1     -12.515  11.026  71.329  1.00  0.00    -0.370 A  
BRANCH  15  16
HETATM   16  N   UNL     1     -12.639   9.688  71.679  1.00  0.00    -0.373 NA 
HETATM   17  C   UNL     1     -13.904   9.120  72.176  1.00  0.00    -0.446 C  
HETATM   18  C   UNL     1     -14.072   7.685  71.617  1.00  0.00    -0.434 C  
HETATM   19  N   UNL     1     -12.922   6.791  71.876  1.00  0.00    -0.507 NA 
HETATM   20  C   UNL     1     -11.672   7.450  71.430  1.00  0.00    -0.288 C  
HETATM   21  H   UNL     1     -13.045   5.872  71.452  1.00  0.00     0.000 HD 
HETATM   22  C   UNL     1     -11.479   8.858  72.041  1.00  0.00    -0.361 C  
ENDBRANCH  15  16
ENDBRANCH   9  10
ENDBRANCH   5   9
TORSDOF 3
ENDMDL
MODEL       34
REMARK 921   NORMALIZED FREE ENERGY PREDICTED BY IDOCK:   -5.75 KCAL/MOL
REMARK 922        TOTAL FREE ENERGY PREDICTED BY IDOCK:   -7.45 KCAL/MOL
REMARK 923 INTER-LIGAND FREE ENERGY PREDICTED BY IDOCK:   -7.24 KCAL/MOL
REMARK 924 INTRA-LIGAND FREE ENERGY PREDICTED BY IDOCK:   -0.22 KCAL/MOL
REMARK 927      BINDING AFFINITY PREDICTED BY RF-SCORE:    0.00 PKD
ROOT
HETATM    1  C   UNL     1     -13.365   9.675  72.290  1.00  0.00    -0.498 C  
HETATM    2  C   UNL     1     -12.439  10.067  71.176  1.00  0.00    -0.480 A  
HETATM    3  C   UNL     1     -12.850  10.918  70.150  1.00  0.00    -0.144 A  
HETATM    4  C   UNL     1     -11.937  11.331  69.164  1.00  0.00    -0.405 A  
HETATM    5  C   UNL     1     -10.599  10.903  69.178  1.00  0.00    -0.220 A  
HETATM    6  C   UNL     1      -8.848   9.324  70.222  1.00  0.00    -0.254 C  
HETATM    7  C   UNL     1     -10.214   9.961  70.155  1.00  0.00    -0.326 A  
HETATM    8  C   UNL     1     -11.131   9.582  71.159  1.00  0.00    -0.450 A  
ENDROOT
BRANCH   5   9
HETATM    9  S   UNL     1      -9.396  11.495  67.978  1.00  0.00    -0.180 SA 
BRANCH   9  10
HETATM   10  C   UNL     1      -9.812  13.213  67.634  1.00  0.00    -0.219 A  
HETATM   11  C   UNL     1      -9.320  14.168  68.549  1.00  0.00    -0.191 A  
HETATM   12  C   UNL     1      -9.463  15.533  68.315  1.00  0.00    -0.200 A  
HETATM   13  C   UNL     1     -10.101  15.963  67.162  1.00  0.00    -0.264 A  
HETATM   14  C   UNL     1     -10.578  15.028  66.239  1.00  0.00    -0.309 A  
HETATM   15  C   UNL     1     -10.439  13.635  66.425  1.00  0.00    -0.288 A  
BRANCH  15  16
HETATM   16  N   UNL     1     -10.832  12.766  65.417  1.00  0.00    -0.281 NA 
HETATM   17  C   UNL     1     -12.249  12.468  65.143  1.00  0.00    -0.448 C  
HETATM   18  C   UNL     1     -12.453  12.327  63.614  1.00  0.00    -0.541 C  
HETATM   19  N   UNL     1     -11.546  11.356  62.964  1.00  0.00    -0.853 NA 
HETATM   20  C   UNL     1     -10.145  11.657  63.342  1.00  0.00    -0.440 C  
HETATM   21  H   UNL     1     -11.675  11.325  61.953  1.00  0.00     0.000 HD 
HETATM   22  C   UNL     1      -9.935  11.734  64.873  1.00  0.00    -0.247 C  
ENDBRANCH  15  16
ENDBRANCH   9  10
ENDBRANCH   5   9
TORSDOF 3
ENDMDL
MODEL       35
REMARK 921   NORMALIZED FREE ENERGY PREDICTED BY IDOCK:   -5.75 KCAL/MOL
REMARK 922        TOTAL FREE ENERGY PREDICTED BY IDOCK:   -7.45 KCAL/MOL
REMARK 923 INTER-LIGAND FREE ENERGY PREDICTED BY IDOCK:   -6.56 KCAL/MOL
REMARK 924 INTRA-LIGAND FREE ENERGY PREDICTED BY IDOCK:   -0.89 KCAL/MOL
REMARK 927      BINDING AFFINITY PREDICTED BY RF-SCORE:    0.00 PKD
ROOT
HETATM    1  C   UNL     1     -12.940   8.607  72.165  1.00  0.00    -0.432 C  
HETATM    2  C   UNL     1     -12.253   9.522  71.194  1.00  0.00    -0.421 A  
HETATM    3  C   UNL     1     -12.675  10.839  71.008  1.00  0.00    -0.513 A  
HETATM    4  C   UNL     1     -11.962  11.696  70.150  1.00  0.00    -0.441 A  
HETATM    5  C   UNL     1     -10.820  11.258  69.459  1.00  0.00    -0.151 A  
HETATM    6  C   UNL     1      -9.331   9.261  68.796  1.00  0.00    -0.139 C  
HETATM    7  C   UNL     1     -10.459   9.899  69.568  1.00  0.00    -0.261 A  
HETATM    8  C   UNL     1     -11.161   9.060  70.459  1.00  0.00    -0.301 A  
ENDROOT
BRANCH   5   9
HETATM    9  S   UNL     1      -9.845  12.367  68.432  1.00  0.00    -0.162 SA 
BRANCH   9  10
HETATM   10  C   UNL     1     -10.879  12.812  67.025  1.00  0.00    -0.257 A  
HETATM   11  C   UNL     1     -11.108  11.795  66.075  1.00  0.00    -0.363 A  
HETATM   12  C   UNL     1     -11.997  11.980  65.019  1.00  0.00    -0.262 A  
HETATM   13  C   UNL     1     -12.669  13.186  64.898  1.00  0.00    -0.421 A  
HETATM   14  C   UNL     1     -12.464  14.196  65.843  1.00  0.00    -0.479 A  
HETATM   15  C   UNL     1     -11.587  14.047  66.940  1.00  0.00    -0.386 A  
BRANCH  15  16
HETATM   16  N   UNL     1     -11.517  15.044  67.903  1.00  0.00    -0.333 NA 
HETATM   17  C   UNL     1     -12.524  15.177  68.970  1.00  0.00     0.111 C  
HETATM   18  C   UNL     1     -11.822  15.611  70.281  1.00  0.00    -0.365 C  
HETATM   19  N   UNL     1     -10.985  16.825  70.152  1.00  0.00    -0.382 NA 
HETATM   20  C   UNL     1     -10.050  16.663  69.014  1.00  0.00    -0.293 C  
HETATM   21  H   UNL     1     -10.500  17.052  71.019  1.00  0.00     0.000 HD 
HETATM   22  C   UNL     1     -10.765  16.290  67.693  1.00  0.00    -0.311 C  
ENDBRANCH  15  16
ENDBRANCH   9  10
ENDBRANCH   5   9
TORSDOF 3
ENDMDL
MODEL       36
REMARK 921   NORMALIZED FREE ENERGY PREDICTED BY IDOCK:   -5.75 KCAL/MOL
REMARK 922        TOTAL FREE ENERGY PREDICTED BY IDOCK:   -7.45 KCAL/MOL
REMARK 923 INTER-LIGAND FREE ENERGY PREDICTED BY IDOCK:   -6.60 KCAL/MOL
REMARK 924 INTRA-LIGAND FREE ENERGY PREDICTED BY IDOCK:   -0.84 KCAL/MOL
REMARK 927      BINDING AFFINITY PREDICTED BY RF-SCORE:    0.00 PKD
ROOT
HETATM    1  C   UNL     1     -12.492  11.873  63.462  1.00  0.00    -0.609 C  
HETATM    2  C   UNL     1     -12.138  12.847  64.547  1.00  0.00    -0.473 A  
HETATM    3  C   UNL     1     -12.202  12.494  65.894  1.00  0.00    -0.310 A  
HETATM    4  C   UNL     1     -11.789  13.403  66.885  1.00  0.00    -0.453 A  
HETATM    5  C   UNL     1     -11.307  14.680  66.553  1.00  0.00    -0.353 A  
HETATM    6  C   UNL     1     -10.968  16.447  64.707  1.00  0.00    -0.246 C  
HETATM    7  C   UNL     1     -11.342  15.071  65.198  1.00  0.00    -0.372 A  
HETATM    8  C   UNL     1     -11.726  14.137  64.212  1.00  0.00    -0.365 A  
ENDROOT
BRANCH   5   9
HETATM    9  S   UNL     1     -10.688  15.818  67.801  1.00  0.00    -0.312 SA 
BRANCH   9  10
HETATM   10  C   UNL     1      -8.894  15.658  67.802  1.00  0.00    -0.171 A  
HETATM   11  C   UNL     1      -8.387  14.341  67.796  1.00  0.00    -0.174 A  
HETATM   12  C   UNL     1      -7.023  14.093  67.661  1.00  0.00    -0.200 A  
HETATM   13  C   UNL     1      -6.147  15.159  67.533  1.00  0.00    -0.048 A  
HETATM   14  C   UNL     1      -6.638  16.468  67.520  1.00  0.00    -0.178 A  
HETATM   15  C   UNL     1      -8.013  16.767  67.635  1.00  0.00    -0.176 A  
BRANCH  15  16
HETATM   16  N   UNL     1      -8.444  18.079  67.500  1.00  0.00    -0.235 NA 
HETATM   17  C   UNL     1      -8.257  18.844  66.255  1.00  0.00    -0.268 C  
HETATM   18  C   UNL     1      -9.498  19.742  66.018  1.00  0.00    -0.318 C  
HETATM   19  N   UNL     1      -9.844  20.616  67.159  1.00  0.00    -0.564 NA 
HETATM   20  C   UNL     1      -9.938  19.804  68.395  1.00  0.00    -0.439 C  
HETATM   21  H   UNL     1     -10.693  21.155  66.988  1.00  0.00     0.000 HD 
HETATM   22  C   UNL     1      -8.671  18.956  68.660  1.00  0.00    -0.339 C  
ENDBRANCH  15  16
ENDBRANCH   9  10
ENDBRANCH   5   9
TORSDOF 3
ENDMDL
MODEL       37
REMARK 921   NORMALIZED FREE ENERGY PREDICTED BY IDOCK:   -5.72 KCAL/MOL
REMARK 922        TOTAL FREE ENERGY PREDICTED BY IDOCK:   -7.42 KCAL/MOL
REMARK 923 INTER-LIGAND FREE ENERGY PREDICTED BY IDOCK:   -6.84 KCAL/MOL
REMARK 924 INTRA-LIGAND FREE ENERGY PREDICTED BY IDOCK:   -0.58 KCAL/MOL
REMARK 927      BINDING AFFINITY PREDICTED BY RF-SCORE:    0.00 PKD
ROOT
HETATM    1  C   UNL     1     -13.826  15.710  72.619  1.00  0.00    -0.648 C  
HETATM    2  C   UNL     1     -13.290  14.516  71.885  1.00  0.00    -0.450 A  
HETATM    3  C   UNL     1     -13.458  13.221  72.376  1.00  0.00    -0.670 A  
HETATM    4  C   UNL     1     -13.015  12.117  71.626  1.00  0.00    -0.427 A  
HETATM    5  C   UNL     1     -12.392  12.280  70.378  1.00  0.00    -0.228 A  
HETATM    6  C   UNL     1     -11.368  13.922  68.675  1.00  0.00    -0.310 C  
HETATM    7  C   UNL     1     -12.130  13.593  69.934  1.00  0.00    -0.406 A  
HETATM    8  C   UNL     1     -12.611  14.691  70.679  1.00  0.00    -0.419 A  
ENDROOT
BRANCH   5   9
HETATM    9  S   UNL     1     -11.903  10.876  69.366  1.00  0.00    -0.322 SA 
BRANCH   9  10
HETATM   10  C   UNL     1     -10.566  10.047  70.242  1.00  0.00    -0.295 A  
HETATM   11  C   UNL     1     -10.928   9.351  71.415  1.00  0.00    -0.443 A  
HETATM   12  C   UNL     1     -10.007   8.564  72.101  1.00  0.00    -0.387 A  
HETATM   13  C   UNL     1      -8.710   8.462  71.624  1.00  0.00    -0.240 A  
HETATM   14  C   UNL     1      -8.343   9.132  70.454  1.00  0.00    -0.206 A  
HETATM   15  C   UNL     1      -9.247   9.926  69.715  1.00  0.00    -0.227 A  
BRANCH  15  16
HETATM   16  N   UNL     1      -8.849  10.470  68.501  1.00  0.00    -0.136 NA 
HETATM   17  C   UNL     1      -9.010   9.750  67.227  1.00  0.00    -0.135 C  
HETATM   18  C   UNL     1      -9.394  10.759  66.116  1.00  0.00    -0.183 C  
HETATM   19  N   UNL     1      -8.471  11.909  65.992  1.00  0.00    -0.388 NA 
HETATM   20  C   UNL     1      -8.286  12.542  67.319  1.00  0.00    -0.185 C  
HETATM   21  H   UNL     1      -8.781  12.577  65.286  1.00  0.00     0.000 HD 
HETATM   22  C   UNL     1      -7.842  11.539  68.411  1.00  0.00    -0.136 C  
ENDBRANCH  15  16
ENDBRANCH   9  10
ENDBRANCH   5   9
TORSDOF 3
ENDMDL
MODEL       38
REMARK 921   NORMALIZED FREE ENERGY PREDICTED BY IDOCK:   -5.72 KCAL/MOL
REMARK 922        TOTAL FREE ENERGY PREDICTED BY IDOCK:   -7.41 KCAL/MOL
REMARK 923 INTER-LIGAND FREE ENERGY PREDICTED BY IDOCK:   -6.80 KCAL/MOL
REMARK 924 INTRA-LIGAND FREE ENERGY PREDICTED BY IDOCK:   -0.61 KCAL/MOL
REMARK 927      BINDING AFFINITY PREDICTED BY RF-SCORE:    0.00 PKD
ROOT
HETATM    1  C   UNL     1     -13.345  14.543  72.705  1.00  0.00    -0.600 C  
HETATM    2  C   UNL     1     -12.912  13.572  71.646  1.00  0.00    -0.447 A  
HETATM    3  C   UNL     1     -12.364  14.004  70.439  1.00  0.00    -0.429 A  
HETATM    4  C   UNL     1     -11.894  13.069  69.499  1.00  0.00    -0.385 A  
HETATM    5  C   UNL     1     -11.964  11.687  69.741  1.00  0.00    -0.332 A  
HETATM    6  C   UNL     1     -12.867   9.804  71.252  1.00  0.00    -0.472 C  
HETATM    7  C   UNL     1     -12.613  11.252  70.916  1.00  0.00    -0.467 A  
HETATM    8  C   UNL     1     -13.049  12.201  71.865  1.00  0.00    -0.475 A  
ENDROOT
BRANCH   5   9
HETATM    9  S   UNL     1     -11.284  10.483  68.592  1.00  0.00    -0.257 SA 
BRANCH   9  10
HETATM   10  C   UNL     1      -9.566  10.945  68.314  1.00  0.00    -0.167 A  
HETATM   11  C   UNL     1      -8.658  10.613  69.341  1.00  0.00    -0.046 A  
HETATM   12  C   UNL     1      -7.287  10.799  69.182  1.00  0.00    -0.115 A  
HETATM   13  C   UNL     1      -6.805  11.321  67.992  1.00  0.00    -0.067 A  
HETATM   14  C   UNL     1      -7.692  11.639  66.960  1.00  0.00    -0.159 A  
HETATM   15  C   UNL     1      -9.087  11.450  67.069  1.00  0.00    -0.167 A  
BRANCH  15  16
HETATM   16  N   UNL     1      -9.899  11.677  65.966  1.00  0.00    -0.222 NA 
HETATM   17  C   UNL     1     -10.812  12.831  65.887  1.00  0.00    -0.269 C  
HETATM   18  C   UNL     1     -10.836  13.362  64.432  1.00  0.00    -0.406 C  
HETATM   19  N   UNL     1     -11.148  12.336  63.413  1.00  0.00    -0.623 NA 
HETATM   20  C   UNL     1     -10.254  11.169  63.595  1.00  0.00    -0.387 C  
HETATM   21  H   UNL     1     -11.106  12.709  62.465  1.00  0.00     0.000 HD 
HETATM   22  C   UNL     1     -10.281  10.604  65.035  1.00  0.00    -0.310 C  
ENDBRANCH  15  16
ENDBRANCH   9  10
ENDBRANCH   5   9
TORSDOF 3
ENDMDL
MODEL       39
REMARK 921   NORMALIZED FREE ENERGY PREDICTED BY IDOCK:   -5.72 KCAL/MOL
REMARK 922        TOTAL FREE ENERGY PREDICTED BY IDOCK:   -7.41 KCAL/MOL
REMARK 923 INTER-LIGAND FREE ENERGY PREDICTED BY IDOCK:   -6.55 KCAL/MOL
REMARK 924 INTRA-LIGAND FREE ENERGY PREDICTED BY IDOCK:   -0.86 KCAL/MOL
REMARK 927      BINDING AFFINITY PREDICTED BY RF-SCORE:    0.00 PKD
ROOT
HETATM    1  C   UNL     1     -13.405  15.230  72.882  1.00  0.00    -0.616 C  
HETATM    2  C   UNL     1     -13.060  14.129  71.923  1.00  0.00    -0.456 A  
HETATM    3  C   UNL     1     -12.479  14.395  70.683  1.00  0.00    -0.419 A  
HETATM    4  C   UNL     1     -12.094  13.338  69.839  1.00  0.00    -0.377 A  
HETATM    5  C   UNL     1     -12.284  11.997  70.211  1.00  0.00    -0.266 A  
HETATM    6  C   UNL     1     -13.346  10.351  71.887  1.00  0.00    -0.469 C  
HETATM    7  C   UNL     1     -12.967  11.733  71.417  1.00  0.00    -0.408 A  
HETATM    8  C   UNL     1     -13.316  12.802  72.269  1.00  0.00    -0.563 A  
ENDROOT
BRANCH   5   9
HETATM    9  S   UNL     1     -11.714  10.633  69.185  1.00  0.00    -0.211 SA 
BRANCH   9  10
HETATM   10  C   UNL     1     -10.006  10.312  69.655  1.00  0.00    -0.207 A  
HETATM   11  C   UNL     1      -9.812   9.398  70.712  1.00  0.00    -0.348 A  
HETATM   12  C   UNL     1      -8.537   8.970  71.073  1.00  0.00    -0.264 A  
HETATM   13  C   UNL     1      -7.437   9.451  70.382  1.00  0.00    -0.141 A  
HETATM   14  C   UNL     1      -7.615  10.343  69.321  1.00  0.00    -0.132 A  
HETATM   15  C   UNL     1      -8.890  10.791  68.908  1.00  0.00    -0.150 A  
BRANCH  15  16
HETATM   16  N   UNL     1      -9.004  11.586  67.776  1.00  0.00    -0.155 NA 
HETATM   17  C   UNL     1      -8.947  11.027  66.414  1.00  0.00    -0.181 C  
HETATM   18  C   UNL     1      -9.947  11.789  65.509  1.00  0.00    -0.242 C  
HETATM   19  N   UNL     1      -9.777  13.259  65.514  1.00  0.00    -0.491 NA 
HETATM   20  C   UNL     1      -9.762  13.751  66.911  1.00  0.00    -0.265 C  
HETATM   21  H   UNL     1     -10.483  13.730  64.948  1.00  0.00     0.000 HD 
HETATM   22  C   UNL     1      -8.717  13.029  67.795  1.00  0.00    -0.188 C  
ENDBRANCH  15  16
ENDBRANCH   9  10
ENDBRANCH   5   9
TORSDOF 3
ENDMDL
MODEL       40
REMARK 921   NORMALIZED FREE ENERGY PREDICTED BY IDOCK:   -5.71 KCAL/MOL
REMARK 922        TOTAL FREE ENERGY PREDICTED BY IDOCK:   -7.40 KCAL/MOL
REMARK 923 INTER-LIGAND FREE ENERGY PREDICTED BY IDOCK:   -6.89 KCAL/MOL
REMARK 924 INTRA-LIGAND FREE ENERGY PREDICTED BY IDOCK:   -0.51 KCAL/MOL
REMARK 927      BINDING AFFINITY PREDICTED BY RF-SCORE:    0.00 PKD
ROOT
HETATM    1  C   UNL     1      -6.630  20.799  65.100  1.00  0.00    -0.205 C  
HETATM    2  C   UNL     1      -7.301  19.615  65.733  1.00  0.00    -0.320 A  
HETATM    3  C   UNL     1      -6.705  18.354  65.737  1.00  0.00    -0.315 A  
HETATM    4  C   UNL     1      -7.322  17.282  66.406  1.00  0.00    -0.336 A  
HETATM    5  C   UNL     1      -8.544  17.443  67.081  1.00  0.00    -0.219 A  
HETATM    6  C   UNL     1     -10.560  18.977  67.556  1.00  0.00    -0.546 C  
HETATM    7  C   UNL     1      -9.194  18.692  66.985  1.00  0.00    -0.295 A  
HETATM    8  C   UNL     1      -8.548  19.768  66.340  1.00  0.00    -0.398 A  
ENDROOT
BRANCH   5   9
HETATM    9  S   UNL     1      -9.298  16.107  68.019  1.00  0.00    -0.204 SA 
BRANCH   9  10
HETATM   10  C   UNL     1     -10.587  15.405  66.975  1.00  0.00    -0.309 A  
HETATM   11  C   UNL     1     -10.404  15.543  65.583  1.00  0.00    -0.407 A  
HETATM   12  C   UNL     1     -11.263  14.926  64.677  1.00  0.00    -0.349 A  
HETATM   13  C   UNL     1     -12.318  14.163  65.150  1.00  0.00    -0.460 A  
HETATM   14  C   UNL     1     -12.501  14.004  66.527  1.00  0.00    -0.351 A  
HETATM   15  C   UNL     1     -11.645  14.595  67.482  1.00  0.00    -0.375 A  
BRANCH  15  16
HETATM   16  N   UNL     1     -11.814  14.304  68.829  1.00  0.00    -0.334 NA 
HETATM   17  C   UNL     1     -12.116  15.346  69.826  1.00  0.00    -0.347 C  
HETATM   18  C   UNL     1     -13.105  14.775  70.874  1.00  0.00    -0.363 C  
HETATM   19  N   UNL     1     -12.662  13.513  71.506  1.00  0.00    -0.346 NA 
HETATM   20  C   UNL     1     -12.295  12.535  70.455  1.00  0.00    -0.262 C  
HETATM   21  H   UNL     1     -13.358  13.141  72.152  1.00  0.00     0.000 HD 
HETATM   22  C   UNL     1     -11.261  13.089  69.447  1.00  0.00    -0.145 C  
ENDBRANCH  15  16
ENDBRANCH   9  10
ENDBRANCH   5   9
TORSDOF 3
ENDMDL
MODEL       41
REMARK 921   NORMALIZED FREE ENERGY PREDICTED BY IDOCK:   -5.69 KCAL/MOL
REMARK 922        TOTAL FREE ENERGY PREDICTED BY IDOCK:   -7.38 KCAL/MOL
REMARK 923 INTER-LIGAND FREE ENERGY PREDICTED BY IDOCK:   -6.86 KCAL/MOL
REMARK 924 INTRA-LIGAND FREE ENERGY PREDICTED BY IDOCK:   -0.52 KCAL/MOL
REMARK 927      BINDING AFFINITY PREDICTED BY RF-SCORE:    0.00 PKD
ROOT
HETATM    1  C   UNL     1     -10.624  20.215  65.514  1.00  0.00    -0.232 C  
HETATM    2  C   UNL     1     -10.239  19.169  66.519  1.00  0.00    -0.506 A  
HETATM    3  C   UNL     1     -10.385  19.384  67.889  1.00  0.00    -0.542 A  
HETATM    4  C   UNL     1     -10.091  18.356  68.803  1.00  0.00    -0.393 A  
HETATM    5  C   UNL     1      -9.641  17.097  68.370  1.00  0.00    -0.281 A  
HETATM    6  C   UNL     1      -8.801  15.666  66.397  1.00  0.00    -0.365 C  
HETATM    7  C   UNL     1      -9.394  16.919  66.992  1.00  0.00    -0.245 A  
HETATM    8  C   UNL     1      -9.727  17.946  66.085  1.00  0.00    -0.227 A  
ENDROOT
BRANCH   5   9
HETATM    9  S   UNL     1      -9.349  15.743  69.518  1.00  0.00    -0.168 SA 
BRANCH   9  10
HETATM   10  C   UNL     1     -10.931  15.371  70.293  1.00  0.00    -0.315 A  
HETATM   11  C   UNL     1     -11.251  16.121  71.445  1.00  0.00    -0.174 A  
HETATM   12  C   UNL     1     -12.501  16.016  72.050  1.00  0.00    -0.498 A  
HETATM   13  C   UNL     1     -13.448  15.160  71.512  1.00  0.00    -0.549 A  
HETATM   14  C   UNL     1     -13.150  14.426  70.361  1.00  0.00    -0.106 A  
HETATM   15  C   UNL     1     -11.904  14.513  69.703  1.00  0.00    -0.318 A  
BRANCH  15  16
HETATM   16  N   UNL     1     -11.714  13.844  68.501  1.00  0.00    -0.334 NA 
HETATM   17  C   UNL     1     -10.838  12.665  68.388  1.00  0.00    -0.245 C  
HETATM   18  C   UNL     1     -11.471  11.655  67.398  1.00  0.00    -0.285 C  
HETATM   19  N   UNL     1     -11.807  12.226  66.075  1.00  0.00    -0.562 NA 
HETATM   20  C   UNL     1     -12.619  13.452  66.257  1.00  0.00    -0.168 C  
HETATM   21  H   UNL     1     -12.266  11.547  65.468  1.00  0.00     0.000 HD 
HETATM   22  C   UNL     1     -11.953  14.485  67.198  1.00  0.00    -0.345 C  
ENDBRANCH  15  16
ENDBRANCH   9  10
ENDBRANCH   5   9
TORSDOF 3
ENDMDL
MODEL       42
REMARK 921   NORMALIZED FREE ENERGY PREDICTED BY IDOCK:   -5.67 KCAL/MOL
REMARK 922        TOTAL FREE ENERGY PREDICTED BY IDOCK:   -7.35 KCAL/MOL
REMARK 923 INTER-LIGAND FREE ENERGY PREDICTED BY IDOCK:   -6.79 KCAL/MOL
REMARK 924 INTRA-LIGAND FREE ENERGY PREDICTED BY IDOCK:   -0.56 KCAL/MOL
REMARK 927      BINDING AFFINITY PREDICTED BY RF-SCORE:    0.00 PKD
ROOT
HETATM    1  C   UNL     1     -14.108  15.375  72.440  1.00  0.00    -0.645 C  
HETATM    2  C   UNL     1     -13.224  14.825  71.359  1.00  0.00    -0.442 A  
HETATM    3  C   UNL     1     -12.584  15.659  70.443  1.00  0.00    -0.376 A  
HETATM    4  C   UNL     1     -11.700  15.121  69.491  1.00  0.00    -0.351 A  
HETATM    5  C   UNL     1     -11.439  13.742  69.431  1.00  0.00    -0.286 A  
HETATM    6  C   UNL     1     -12.079  11.385  70.257  1.00  0.00    -0.459 C  
HETATM    7  C   UNL     1     -12.167  12.891  70.289  1.00  0.00    -0.362 A  
HETATM    8  C   UNL     1     -13.024  13.447  71.261  1.00  0.00    -0.368 A  
ENDROOT
BRANCH   5   9
HETATM    9  S   UNL     1     -10.241  13.048  68.282  1.00  0.00    -0.245 SA 
BRANCH   9  10
HETATM   10  C   UNL     1     -11.106  12.795  66.723  1.00  0.00    -0.277 A  
HETATM   11  C   UNL     1     -12.028  13.797  66.353  1.00  0.00    -0.473 A  
HETATM   12  C   UNL     1     -12.656  13.778  65.110  1.00  0.00    -0.471 A  
HETATM   13  C   UNL     1     -12.371  12.756  64.219  1.00  0.00    -0.493 A  
HETATM   14  C   UNL     1     -11.446  11.767  64.566  1.00  0.00    -0.322 A  
HETATM   15  C   UNL     1     -10.772  11.755  65.807  1.00  0.00    -0.280 A  
BRANCH  15  16
HETATM   16  N   UNL     1      -9.783  10.810  66.042  1.00  0.00    -0.208 NA 
HETATM   17  C   UNL     1      -8.672  10.584  65.100  1.00  0.00    -0.185 C  
HETATM   18  C   UNL     1      -7.379  10.291  65.901  1.00  0.00    -0.131 C  
HETATM   19  N   UNL     1      -7.505   9.193  66.884  1.00  0.00    -0.090 NA 
HETATM   20  C   UNL     1      -8.685   9.435  67.748  1.00  0.00    -0.116 C  
HETATM   21  H   UNL     1      -6.652   9.061  67.426  1.00  0.00     0.000 HD 
HETATM   22  C   UNL     1      -9.987   9.665  66.943  1.00  0.00    -0.212 C  
ENDBRANCH  15  16
ENDBRANCH   9  10
ENDBRANCH   5   9
TORSDOF 3
ENDMDL
MODEL       43
REMARK 921   NORMALIZED FREE ENERGY PREDICTED BY IDOCK:   -5.66 KCAL/MOL
REMARK 922        TOTAL FREE ENERGY PREDICTED BY IDOCK:   -7.34 KCAL/MOL
REMARK 923 INTER-LIGAND FREE ENERGY PREDICTED BY IDOCK:   -6.96 KCAL/MOL
REMARK 924 INTRA-LIGAND FREE ENERGY PREDICTED BY IDOCK:   -0.38 KCAL/MOL
REMARK 927      BINDING AFFINITY PREDICTED BY RF-SCORE:    0.00 PKD
ROOT
HETATM    1  C   UNL     1     -11.196   8.152  72.371  1.00  0.00    -0.452 C  
HETATM    2  C   UNL     1     -11.175   8.849  71.042  1.00  0.00    -0.342 A  
HETATM    3  C   UNL     1     -11.603  10.169  70.903  1.00  0.00    -0.459 A  
HETATM    4  C   UNL     1     -11.498  10.821  69.661  1.00  0.00    -0.376 A  
HETATM    5  C   UNL     1     -10.969  10.171  68.534  1.00  0.00    -0.232 A  
HETATM    6  C   UNL     1     -10.169   7.948  67.502  1.00  0.00    -0.308 C  
HETATM    7  C   UNL     1     -10.636   8.805  68.652  1.00  0.00    -0.174 A  
HETATM    8  C   UNL     1     -10.714   8.174  69.912  1.00  0.00    -0.241 A  
ENDROOT
BRANCH   5   9
HETATM    9  S   UNL     1     -10.742  11.018  66.964  1.00  0.00    -0.272 SA 
BRANCH   9  10
HETATM   10  C   UNL     1      -9.647  12.412  67.282  1.00  0.00    -0.199 A  
HETATM   11  C   UNL     1      -8.725  12.251  68.338  1.00  0.00    -0.139 A  
HETATM   12  C   UNL     1      -7.741  13.204  68.589  1.00  0.00    -0.073 A  
HETATM   13  C   UNL     1      -7.667  14.333  67.790  1.00  0.00    -0.172 A  
HETATM   14  C   UNL     1      -8.563  14.497  66.730  1.00  0.00    -0.163 A  
HETATM   15  C   UNL     1      -9.565  13.549  66.425  1.00  0.00    -0.259 A  
BRANCH  15  16
HETATM   16  N   UNL     1     -10.347  13.717  65.291  1.00  0.00    -0.337 NA 
HETATM   17  C   UNL     1     -10.221  12.842  64.113  1.00  0.00    -0.318 C  
HETATM   18  C   UNL     1     -11.627  12.598  63.508  1.00  0.00    -0.514 C  
HETATM   19  N   UNL     1     -12.382  13.833  63.204  1.00  0.00    -1.106 NA 
HETATM   20  C   UNL     1     -12.405  14.707  64.400  1.00  0.00    -0.398 C  
HETATM   21  H   UNL     1     -13.320  13.635  62.855  1.00  0.00     0.000 HD 
HETATM   22  C   UNL     1     -10.993  14.998  64.963  1.00  0.00    -0.423 C  
ENDBRANCH  15  16
ENDBRANCH   9  10
ENDBRANCH   5   9
TORSDOF 3
ENDMDL
MODEL       44
REMARK 921   NORMALIZED FREE ENERGY PREDICTED BY IDOCK:   -5.66 KCAL/MOL
REMARK 922        TOTAL FREE ENERGY PREDICTED BY IDOCK:   -7.34 KCAL/MOL
REMARK 923 INTER-LIGAND FREE ENERGY PREDICTED BY IDOCK:   -6.49 KCAL/MOL
REMARK 924 INTRA-LIGAND FREE ENERGY PREDICTED BY IDOCK:   -0.85 KCAL/MOL
REMARK 927      BINDING AFFINITY PREDICTED BY RF-SCORE:    0.00 PKD
ROOT
HETATM    1  C   UNL     1     -13.464   9.424  72.332  1.00  0.00    -0.506 C  
HETATM    2  C   UNL     1     -12.575  10.208  71.410  1.00  0.00    -0.526 A  
HETATM    3  C   UNL     1     -11.506   9.610  70.743  1.00  0.00    -0.399 A  
HETATM    4  C   UNL     1     -10.740  10.351  69.826  1.00  0.00    -0.325 A  
HETATM    5  C   UNL     1     -11.021  11.701  69.558  1.00  0.00    -0.098 A  
HETATM    6  C   UNL     1     -12.368  13.798  70.218  1.00  0.00    -0.407 C  
HETATM    7  C   UNL     1     -12.035  12.330  70.311  1.00  0.00    -0.373 A  
HETATM    8  C   UNL     1     -12.817  11.566  71.203  1.00  0.00    -0.414 A  
ENDROOT
BRANCH   5   9
HETATM    9  S   UNL     1     -10.110  12.637  68.320  1.00  0.00    -0.226 SA 
BRANCH   9  10
HETATM   10  C   UNL     1     -11.010  12.457  66.771  1.00  0.00    -0.263 A  
HETATM   11  C   UNL     1     -11.946  13.471  66.474  1.00  0.00    -0.460 A  
HETATM   12  C   UNL     1     -12.602  13.510  65.246  1.00  0.00    -0.517 A  
HETATM   13  C   UNL     1     -12.332  12.537  64.298  1.00  0.00    -0.541 A  
HETATM   14  C   UNL     1     -11.394  11.537  64.573  1.00  0.00    -0.250 A  
HETATM   15  C   UNL     1     -10.692  11.467  65.796  1.00  0.00    -0.271 A  
BRANCH  15  16
HETATM   16  N   UNL     1      -9.692  10.518  65.960  1.00  0.00    -0.195 NA 
HETATM   17  C   UNL     1      -8.320  10.729  65.466  1.00  0.00    -0.129 C  
HETATM   18  C   UNL     1      -7.316  10.122  66.479  1.00  0.00    -0.108 C  
HETATM   19  N   UNL     1      -7.573   8.705  66.818  1.00  0.00    -0.086 NA 
HETATM   20  C   UNL     1      -8.988   8.543  67.228  1.00  0.00    -0.129 C  
HETATM   21  H   UNL     1      -6.925   8.354  67.523  1.00  0.00     0.000 HD 
HETATM   22  C   UNL     1      -9.988   9.094  66.184  1.00  0.00    -0.268 C  
ENDBRANCH  15  16
ENDBRANCH   9  10
ENDBRANCH   5   9
TORSDOF 3
ENDMDL
MODEL       45
REMARK 921   NORMALIZED FREE ENERGY PREDICTED BY IDOCK:   -5.65 KCAL/MOL
REMARK 922        TOTAL FREE ENERGY PREDICTED BY IDOCK:   -7.34 KCAL/MOL
REMARK 923 INTER-LIGAND FREE ENERGY PREDICTED BY IDOCK:   -6.83 KCAL/MOL
REMARK 924 INTRA-LIGAND FREE ENERGY PREDICTED BY IDOCK:   -0.50 KCAL/MOL
REMARK 927      BINDING AFFINITY PREDICTED BY RF-SCORE:    0.00 PKD
ROOT
HETATM    1  C   UNL     1     -13.182  10.298  72.122  1.00  0.00    -0.443 C  
HETATM    2  C   UNL     1     -12.668  11.215  71.051  1.00  0.00    -0.476 A  
HETATM    3  C   UNL     1     -12.197  10.724  69.833  1.00  0.00    -0.384 A  
HETATM    4  C   UNL     1     -11.796  11.612  68.819  1.00  0.00    -0.387 A  
HETATM    5  C   UNL     1     -11.852  13.004  68.999  1.00  0.00    -0.316 A  
HETATM    6  C   UNL     1     -12.222  14.955  70.644  1.00  0.00    -0.379 C  
HETATM    7  C   UNL     1     -12.229  13.494  70.268  1.00  0.00    -0.417 A  
HETATM    8  C   UNL     1     -12.661  12.594  71.264  1.00  0.00    -0.354 A  
ENDROOT
BRANCH   5   9
HETATM    9  S   UNL     1     -11.431  14.154  67.681  1.00  0.00    -0.358 SA 
BRANCH   9  10
HETATM   10  C   UNL     1      -9.640  14.346  67.714  1.00  0.00    -0.216 A  
HETATM   11  C   UNL     1      -8.885  13.156  67.645  1.00  0.00    -0.191 A  
HETATM   12  C   UNL     1      -7.498  13.186  67.528  1.00  0.00    -0.164 A  
HETATM   13  C   UNL     1      -6.846  14.408  67.480  1.00  0.00    -0.162 A  
HETATM   14  C   UNL     1      -7.583  15.594  67.530  1.00  0.00    -0.200 A  
HETATM   15  C   UNL     1      -8.992  15.612  67.630  1.00  0.00    -0.180 A  
BRANCH  15  16
HETATM   16  N   UNL     1      -9.670  16.822  67.559  1.00  0.00    -0.248 NA 
HETATM   17  C   UNL     1     -10.237  17.475  68.751  1.00  0.00    -0.373 C  
HETATM   18  C   UNL     1     -10.061  19.009  68.623  1.00  0.00    -0.382 C  
HETATM   19  N   UNL     1     -10.596  19.582  67.368  1.00  0.00    -0.473 NA 
HETATM   20  C   UNL     1     -10.054  18.832  66.211  1.00  0.00    -0.409 C  
HETATM   21  H   UNL     1     -10.418  20.583  67.295  1.00  0.00     0.000 HD 
HETATM   22  C   UNL     1     -10.288  17.306  66.315  1.00  0.00    -0.322 C  
ENDBRANCH  15  16
ENDBRANCH   9  10
ENDBRANCH   5   9
TORSDOF 3
ENDMDL
MODEL       46
REMARK 921   NORMALIZED FREE ENERGY PREDICTED BY IDOCK:   -5.64 KCAL/MOL
REMARK 922        TOTAL FREE ENERGY PREDICTED BY IDOCK:   -7.32 KCAL/MOL
REMARK 923 INTER-LIGAND FREE ENERGY PREDICTED BY IDOCK:   -6.96 KCAL/MOL
REMARK 924 INTRA-LIGAND FREE ENERGY PREDICTED BY IDOCK:   -0.36 KCAL/MOL
REMARK 927      BINDING AFFINITY PREDICTED BY RF-SCORE:    0.00 PKD
ROOT
HETATM    1  C   UNL     1     -11.426  15.879  64.338  1.00  0.00    -0.268 C  
HETATM    2  C   UNL     1     -11.432  14.961  65.525  1.00  0.00    -0.307 A  
HETATM    3  C   UNL     1     -12.460  14.042  65.732  1.00  0.00    -0.523 A  
HETATM    4  C   UNL     1     -12.398  13.141  66.810  1.00  0.00    -0.173 A  
HETATM    5  C   UNL     1     -11.313  13.139  67.703  1.00  0.00    -0.298 A  
HETATM    6  C   UNL     1      -9.172  14.334  68.500  1.00  0.00    -0.197 C  
HETATM    7  C   UNL     1     -10.328  14.138  67.552  1.00  0.00    -0.248 A  
HETATM    8  C   UNL     1     -10.386  15.013  66.446  1.00  0.00    -0.293 A  
ENDROOT
BRANCH   5   9
HETATM    9  S   UNL     1     -11.173  11.933  69.031  1.00  0.00    -0.269 SA 
BRANCH   9  10
HETATM   10  C   UNL     1     -12.127  12.576  70.417  1.00  0.00    -0.297 A  
HETATM   11  C   UNL     1     -12.373  13.966  70.411  1.00  0.00    -0.433 A  
HETATM   12  C   UNL     1     -13.210  14.554  71.356  1.00  0.00    -0.424 A  
HETATM   13  C   UNL     1     -13.811  13.762  72.320  1.00  0.00    -0.679 A  
HETATM   14  C   UNL     1     -13.590  12.381  72.326  1.00  0.00    -0.371 A  
HETATM   15  C   UNL     1     -12.765  11.739  71.378  1.00  0.00    -0.308 A  
BRANCH  15  16
HETATM   16  N   UNL     1     -12.679  10.353  71.370  1.00  0.00    -0.407 NA 
HETATM   17  C   UNL     1     -11.386   9.646  71.371  1.00  0.00    -0.374 C  
HETATM   18  C   UNL     1     -11.503   8.374  72.248  1.00  0.00    -0.384 C  
HETATM   19  N   UNL     1     -12.624   7.481  71.883  1.00  0.00    -0.385 NA 
HETATM   20  C   UNL     1     -13.880   8.264  71.819  1.00  0.00    -0.396 C  
HETATM   21  H   UNL     1     -12.700   6.682  72.511  1.00  0.00     0.000 HD 
HETATM   22  C   UNL     1     -13.777   9.499  70.891  1.00  0.00     0.072 C  
ENDBRANCH  15  16
ENDBRANCH   9  10
ENDBRANCH   5   9
TORSDOF 3
ENDMDL
MODEL       47
REMARK 921   NORMALIZED FREE ENERGY PREDICTED BY IDOCK:   -5.62 KCAL/MOL
REMARK 922        TOTAL FREE ENERGY PREDICTED BY IDOCK:   -7.30 KCAL/MOL
REMARK 923 INTER-LIGAND FREE ENERGY PREDICTED BY IDOCK:   -6.64 KCAL/MOL
REMARK 924 INTRA-LIGAND FREE ENERGY PREDICTED BY IDOCK:   -0.66 KCAL/MOL
REMARK 927      BINDING AFFINITY PREDICTED BY RF-SCORE:    0.00 PKD
ROOT
HETATM    1  C   UNL     1      -9.253   8.977  65.679  1.00  0.00    -0.288 C  
HETATM    2  C   UNL     1      -9.634  10.428  65.643  1.00  0.00    -0.281 A  
HETATM    3  C   UNL     1     -10.683  10.888  64.848  1.00  0.00    -0.240 A  
HETATM    4  C   UNL     1     -11.068  12.240  64.896  1.00  0.00    -0.356 A  
HETATM    5  C   UNL     1     -10.414  13.159  65.733  1.00  0.00    -0.283 A  
HETATM    6  C   UNL     1      -8.419  13.610  67.301  1.00  0.00    -0.203 C  
HETATM    7  C   UNL     1      -9.288  12.713  66.456  1.00  0.00    -0.228 A  
HETATM    8  C   UNL     1      -8.935  11.348  66.425  1.00  0.00    -0.196 A  
ENDROOT
BRANCH   5   9
HETATM    9  S   UNL     1     -10.954  14.869  65.875  1.00  0.00    -0.345 SA 
BRANCH   9  10
HETATM   10  C   UNL     1     -11.306  15.158  67.617  1.00  0.00    -0.321 A  
HETATM   11  C   UNL     1     -11.932  14.099  68.309  1.00  0.00    -0.367 A  
HETATM   12  C   UNL     1     -12.131  14.155  69.687  1.00  0.00    -0.400 A  
HETATM   13  C   UNL     1     -11.708  15.270  70.391  1.00  0.00    -0.345 A  
HETATM   14  C   UNL     1     -11.070  16.318  69.721  1.00  0.00    -0.337 A  
HETATM   15  C   UNL     1     -10.830  16.298  68.329  1.00  0.00    -0.340 A  
BRANCH  15  16
HETATM   16  N   UNL     1     -10.091  17.317  67.746  1.00  0.00    -0.298 NA 
HETATM   17  C   UNL     1      -8.619  17.290  67.694  1.00  0.00    -0.217 C  
HETATM   18  C   UNL     1      -8.147  17.887  66.344  1.00  0.00    -0.261 C  
HETATM   19  N   UNL     1      -8.688  19.231  66.048  1.00  0.00    -0.450 NA 
HETATM   20  C   UNL     1     -10.163  19.215  66.195  1.00  0.00    -0.463 C  
HETATM   21  H   UNL     1      -8.397  19.570  65.131  1.00  0.00     0.000 HD 
HETATM   22  C   UNL     1     -10.627  18.677  67.570  1.00  0.00    -0.423 C  
ENDBRANCH  15  16
ENDBRANCH   9  10
ENDBRANCH   5   9
TORSDOF 3
ENDMDL
MODEL       48
REMARK 921   NORMALIZED FREE ENERGY PREDICTED BY IDOCK:   -5.62 KCAL/MOL
REMARK 922        TOTAL FREE ENERGY PREDICTED BY IDOCK:   -7.29 KCAL/MOL
REMARK 923 INTER-LIGAND FREE ENERGY PREDICTED BY IDOCK:   -6.82 KCAL/MOL
REMARK 924 INTRA-LIGAND FREE ENERGY PREDICTED BY IDOCK:   -0.47 KCAL/MOL
REMARK 927      BINDING AFFINITY PREDICTED BY RF-SCORE:    0.00 PKD
ROOT
HETATM    1  C   UNL     1      -9.784  20.810  67.306  1.00  0.00    -0.487 C  
HETATM    2  C   UNL     1      -9.658  19.316  67.239  1.00  0.00    -0.394 A  
HETATM    3  C   UNL     1     -10.490  18.549  66.424  1.00  0.00    -0.443 A  
HETATM    4  C   UNL     1     -10.296  17.159  66.322  1.00  0.00    -0.315 A  
HETATM    5  C   UNL     1      -9.275  16.507  67.033  1.00  0.00    -0.218 A  
HETATM    6  C   UNL     1      -7.455  16.688  68.850  1.00  0.00    -0.232 C  
HETATM    7  C   UNL     1      -8.504  17.270  67.936  1.00  0.00    -0.218 A  
HETATM    8  C   UNL     1      -8.686  18.667  68.002  1.00  0.00    -0.325 A  
ENDROOT
BRANCH   5   9
HETATM    9  S   UNL     1      -8.955  14.747  66.843  1.00  0.00    -0.259 SA 
BRANCH   9  10
HETATM   10  C   UNL     1     -10.393  14.047  66.015  1.00  0.00    -0.306 A  
HETATM   11  C   UNL     1     -10.338  14.000  64.606  1.00  0.00    -0.337 A  
HETATM   12  C   UNL     1     -11.329  13.360  63.865  1.00  0.00    -0.298 A  
HETATM   13  C   UNL     1     -12.390  12.759  64.524  1.00  0.00    -0.515 A  
HETATM   14  C   UNL     1     -12.448  12.784  65.921  1.00  0.00    -0.160 A  
HETATM   15  C   UNL     1     -11.457  13.404  66.713  1.00  0.00    -0.343 A  
BRANCH  15  16
HETATM   16  N   UNL     1     -11.515  13.293  68.096  1.00  0.00    -0.291 NA 
HETATM   17  C   UNL     1     -11.579  14.472  68.977  1.00  0.00    -0.298 C  
HETATM   18  C   UNL     1     -12.511  14.161  70.175  1.00  0.00    -0.331 C  
HETATM   19  N   UNL     1     -12.160  12.931  70.918  1.00  0.00    -0.457 NA 
HETATM   20  C   UNL     1     -12.031  11.800  69.970  1.00  0.00    -0.344 C  
HETATM   21  H   UNL     1     -12.823  12.731  71.667  1.00  0.00     0.000 HD 
HETATM   22  C   UNL     1     -11.050  12.092  68.809  1.00  0.00    -0.250 C  
ENDBRANCH  15  16
ENDBRANCH   9  10
ENDBRANCH   5   9
TORSDOF 3
ENDMDL
MODEL       49
REMARK 921   NORMALIZED FREE ENERGY PREDICTED BY IDOCK:   -5.61 KCAL/MOL
REMARK 922        TOTAL FREE ENERGY PREDICTED BY IDOCK:   -7.28 KCAL/MOL
REMARK 923 INTER-LIGAND FREE ENERGY PREDICTED BY IDOCK:   -7.10 KCAL/MOL
REMARK 924 INTRA-LIGAND FREE ENERGY PREDICTED BY IDOCK:   -0.19 KCAL/MOL
REMARK 927      BINDING AFFINITY PREDICTED BY RF-SCORE:    0.00 PKD
ROOT
HETATM    1  C   UNL     1      -9.836  10.559  63.337  1.00  0.00    -0.323 C  
HETATM    2  C   UNL     1     -10.361  11.111  64.630  1.00  0.00    -0.393 A  
HETATM    3  C   UNL     1      -9.910  10.640  65.863  1.00  0.00    -0.296 A  
HETATM    4  C   UNL     1     -10.362  11.232  67.056  1.00  0.00    -0.263 A  
HETATM    5  C   UNL     1     -11.275  12.300  67.045  1.00  0.00    -0.310 A  
HETATM    6  C   UNL     1     -12.880  13.754  65.645  1.00  0.00    -0.456 C  
HETATM    7  C   UNL     1     -11.808  12.704  65.802  1.00  0.00    -0.497 A  
HETATM    8  C   UNL     1     -11.320  12.125  64.612  1.00  0.00    -0.382 A  
ENDROOT
BRANCH   5   9
HETATM    9  S   UNL     1     -11.791  13.128  68.556  1.00  0.00    -0.309 SA 
BRANCH   9  10
HETATM   10  C   UNL     1     -10.913  14.699  68.611  1.00  0.00    -0.256 A  
HETATM   11  C   UNL     1     -10.105  15.000  67.494  1.00  0.00    -0.228 A  
HETATM   12  C   UNL     1      -9.486  16.241  67.363  1.00  0.00    -0.227 A  
HETATM   13  C   UNL     1      -9.666  17.198  68.349  1.00  0.00    -0.284 A  
HETATM   14  C   UNL     1     -10.478  16.919  69.452  1.00  0.00    -0.283 A  
HETATM   15  C   UNL     1     -11.139  15.683  69.618  1.00  0.00    -0.299 A  
BRANCH  15  16
HETATM   16  N   UNL     1     -12.021  15.513  70.677  1.00  0.00    -0.345 NA 
HETATM   17  C   UNL     1     -13.432  15.144  70.472  1.00  0.00    -0.078 C  
HETATM   18  C   UNL     1     -13.873  14.174  71.598  1.00  0.00    -0.362 C  
HETATM   19  N   UNL     1     -13.622  14.675  72.967  1.00  0.00    -0.568 NA 
HETATM   20  C   UNL     1     -12.209  15.106  73.086  1.00  0.00    -0.411 C  
HETATM   21  H   UNL     1     -13.878  13.992  73.680  1.00  0.00     0.000 HD 
HETATM   22  C   UNL     1     -11.793  16.122  71.996  1.00  0.00    -0.530 C  
ENDBRANCH  15  16
ENDBRANCH   9  10
ENDBRANCH   5   9
TORSDOF 3
ENDMDL
MODEL       50
REMARK 921   NORMALIZED FREE ENERGY PREDICTED BY IDOCK:   -5.60 KCAL/MOL
REMARK 922        TOTAL FREE ENERGY PREDICTED BY IDOCK:   -7.27 KCAL/MOL
REMARK 923 INTER-LIGAND FREE ENERGY PREDICTED BY IDOCK:   -6.94 KCAL/MOL
REMARK 924 INTRA-LIGAND FREE ENERGY PREDICTED BY IDOCK:   -0.33 KCAL/MOL
REMARK 927      BINDING AFFINITY PREDICTED BY RF-SCORE:    0.00 PKD
ROOT
HETATM    1  C   UNL     1     -12.563  13.800  65.412  1.00  0.00    -0.534 C  
HETATM    2  C   UNL     1     -11.847  12.964  66.433  1.00  0.00    -0.478 A  
HETATM    3  C   UNL     1     -11.707  13.387  67.755  1.00  0.00    -0.394 A  
HETATM    4  C   UNL     1     -11.102  12.548  68.707  1.00  0.00    -0.314 A  
HETATM    5  C   UNL     1     -10.621  11.274  68.361  1.00  0.00    -0.197 A  
HETATM    6  C   UNL     1     -10.089   9.609  66.466  1.00  0.00    -0.314 C  
HETATM    7  C   UNL     1     -10.670  10.892  67.003  1.00  0.00    -0.323 A  
HETATM    8  C   UNL     1     -11.311  11.730  66.066  1.00  0.00    -0.335 A  
ENDROOT
BRANCH   5   9
HETATM    9  S   UNL     1      -9.929  10.152  69.585  1.00  0.00    -0.211 SA 
BRANCH   9  10
HETATM   10  C   UNL     1     -11.263   9.742  70.724  1.00  0.00    -0.348 A  
HETATM   11  C   UNL     1     -12.129  10.800  71.073  1.00  0.00    -0.452 A  
HETATM   12  C   UNL     1     -13.272  10.575  71.838  1.00  0.00    -0.526 A  
HETATM   13  C   UNL     1     -13.563   9.289  72.264  1.00  0.00    -0.544 A  
HETATM   14  C   UNL     1     -12.722   8.229  71.910  1.00  0.00    -0.373 A  
HETATM   15  C   UNL     1     -11.564   8.407  71.122  1.00  0.00    -0.279 A  
BRANCH  15  16
HETATM   16  N   UNL     1     -10.837   7.298  70.711  1.00  0.00    -0.236 NA 
HETATM   17  C   UNL     1     -11.399   6.281  69.805  1.00  0.00    -0.436 C  
HETATM   18  C   UNL     1     -10.290   5.792  68.839  1.00  0.00    -0.227 C  
HETATM   19  N   UNL     1      -9.061   5.318  69.511  1.00  0.00    -0.109 NA 
HETATM   20  C   UNL     1      -8.591   6.348  70.468  1.00  0.00    -0.143 C  
HETATM   21  H   UNL     1      -8.336   5.051  68.846  1.00  0.00     0.000 HD 
HETATM   22  C   UNL     1      -9.684   6.787  71.470  1.00  0.00    -0.163 C  
ENDBRANCH  15  16
ENDBRANCH   9  10
ENDBRANCH   5   9
TORSDOF 3
ENDMDL
MODEL       51
REMARK 921   NORMALIZED FREE ENERGY PREDICTED BY IDOCK:   -5.58 KCAL/MOL
REMARK 922        TOTAL FREE ENERGY PREDICTED BY IDOCK:   -7.25 KCAL/MOL
REMARK 923 INTER-LIGAND FREE ENERGY PREDICTED BY IDOCK:   -6.66 KCAL/MOL
REMARK 924 INTRA-LIGAND FREE ENERGY PREDICTED BY IDOCK:   -0.59 KCAL/MOL
REMARK 927      BINDING AFFINITY PREDICTED BY RF-SCORE:    0.00 PKD
ROOT
HETATM    1  C   UNL     1     -10.410   6.611  73.930  1.00  0.00    -0.385 C  
HETATM    2  C   UNL     1     -10.648   7.728  72.957  1.00  0.00    -0.441 A  
HETATM    3  C   UNL     1      -9.594   8.349  72.286  1.00  0.00    -0.374 A  
HETATM    4  C   UNL     1      -9.854   9.340  71.322  1.00  0.00    -0.318 A  
HETATM    5  C   UNL     1     -11.166   9.733  71.010  1.00  0.00    -0.381 A  
HETATM    6  C   UNL     1     -13.666   9.590  71.623  1.00  0.00    -0.365 C  
HETATM    7  C   UNL     1     -12.222   9.179  71.764  1.00  0.00    -0.442 A  
HETATM    8  C   UNL     1     -11.949   8.162  72.704  1.00  0.00    -0.353 A  
ENDROOT
BRANCH   5   9
HETATM    9  S   UNL     1     -11.519  10.930  69.715  1.00  0.00    -0.340 SA 
BRANCH   9  10
HETATM   10  C   UNL     1     -10.661  10.362  68.237  1.00  0.00    -0.212 A  
HETATM   11  C   UNL     1     -10.615   8.965  68.042  1.00  0.00    -0.226 A  
HETATM   12  C   UNL     1     -10.098   8.416  66.872  1.00  0.00    -0.364 A  
HETATM   13  C   UNL     1      -9.618   9.255  65.880  1.00  0.00    -0.345 A  
HETATM   14  C   UNL     1      -9.673  10.642  66.053  1.00  0.00    -0.258 A  
HETATM   15  C   UNL     1     -10.205  11.244  67.214  1.00  0.00    -0.194 A  
BRANCH  15  16
HETATM   16  N   UNL     1     -10.335  12.625  67.273  1.00  0.00    -0.224 NA 
HETATM   17  C   UNL     1     -11.240  13.368  66.378  1.00  0.00    -0.304 C  
HETATM   18  C   UNL     1     -11.885  14.537  67.164  1.00  0.00    -0.387 C  
HETATM   19  N   UNL     1     -10.914  15.428  67.837  1.00  0.00    -0.300 NA 
HETATM   20  C   UNL     1      -9.982  14.617  68.655  1.00  0.00    -0.234 C  
HETATM   21  H   UNL     1     -11.374  16.155  68.384  1.00  0.00     0.000 HD 
HETATM   22  C   UNL     1      -9.294  13.489  67.850  1.00  0.00    -0.215 C  
ENDBRANCH  15  16
ENDBRANCH   9  10
ENDBRANCH   5   9
TORSDOF 3
ENDMDL
MODEL       52
REMARK 921   NORMALIZED FREE ENERGY PREDICTED BY IDOCK:   -5.54 KCAL/MOL
REMARK 922        TOTAL FREE ENERGY PREDICTED BY IDOCK:   -7.21 KCAL/MOL
REMARK 923 INTER-LIGAND FREE ENERGY PREDICTED BY IDOCK:   -7.08 KCAL/MOL
REMARK 924 INTRA-LIGAND FREE ENERGY PREDICTED BY IDOCK:   -0.13 KCAL/MOL
REMARK 927      BINDING AFFINITY PREDICTED BY RF-SCORE:    0.00 PKD
ROOT
HETATM    1  C   UNL     1      -9.405  10.415  62.686  1.00  0.00    -0.335 C  
HETATM    2  C   UNL     1     -10.036  10.771  64.000  1.00  0.00    -0.410 A  
HETATM    3  C   UNL     1      -9.728  10.078  65.170  1.00  0.00    -0.380 A  
HETATM    4  C   UNL     1     -10.276  10.485  66.400  1.00  0.00    -0.296 A  
HETATM    5  C   UNL     1     -11.142  11.587  66.487  1.00  0.00    -0.282 A  
HETATM    6  C   UNL     1     -12.545  13.337  65.215  1.00  0.00    -0.528 C  
HETATM    7  C   UNL     1     -11.534  12.220  65.289  1.00  0.00    -0.399 A  
HETATM    8  C   UNL     1     -10.950  11.823  64.067  1.00  0.00    -0.451 A  
ENDROOT
BRANCH   5   9
HETATM    9  S   UNL     1     -11.777  12.178  68.063  1.00  0.00    -0.305 SA 
BRANCH   9  10
HETATM   10  C   UNL     1     -10.680  13.502  68.600  1.00  0.00    -0.253 A  
HETATM   11  C   UNL     1      -9.567  13.761  67.772  1.00  0.00    -0.219 A  
HETATM   12  C   UNL     1      -8.725  14.845  68.011  1.00  0.00    -0.165 A  
HETATM   13  C   UNL     1      -8.985  15.684  69.083  1.00  0.00    -0.257 A  
HETATM   14  C   UNL     1     -10.095  15.449  69.900  1.00  0.00    -0.253 A  
HETATM   15  C   UNL     1     -10.985  14.374  69.685  1.00  0.00    -0.157 A  
BRANCH  15  16
HETATM   16  N   UNL     1     -12.129  14.265  70.463  1.00  0.00    -0.320 NA 
HETATM   17  C   UNL     1     -12.655  12.963  70.909  1.00  0.00    -0.270 C  
HETATM   18  C   UNL     1     -13.217  13.106  72.346  1.00  0.00    -0.414 C  
HETATM   19  N   UNL     1     -14.209  14.190  72.508  1.00  0.00    -0.612 NA 
HETATM   20  C   UNL     1     -13.655  15.454  71.968  1.00  0.00    -0.487 C  
HETATM   21  H   UNL     1     -14.519  14.287  73.474  1.00  0.00     0.000 HD 
HETATM   22  C   UNL     1     -13.153  15.321  70.511  1.00  0.00    -0.289 C  
ENDBRANCH  15  16
ENDBRANCH   9  10
ENDBRANCH   5   9
TORSDOF 3
ENDMDL
MODEL       53
REMARK 921   NORMALIZED FREE ENERGY PREDICTED BY IDOCK:   -5.54 KCAL/MOL
REMARK 922        TOTAL FREE ENERGY PREDICTED BY IDOCK:   -7.20 KCAL/MOL
REMARK 923 INTER-LIGAND FREE ENERGY PREDICTED BY IDOCK:   -6.31 KCAL/MOL
REMARK 924 INTRA-LIGAND FREE ENERGY PREDICTED BY IDOCK:   -0.89 KCAL/MOL
REMARK 927      BINDING AFFINITY PREDICTED BY RF-SCORE:    0.00 PKD
ROOT
HETATM    1  C   UNL     1      -8.074  19.530  66.081  1.00  0.00    -0.342 C  
HETATM    2  C   UNL     1      -8.858  18.360  66.600  1.00  0.00    -0.297 A  
HETATM    3  C   UNL     1     -10.169  18.504  67.055  1.00  0.00    -0.410 A  
HETATM    4  C   UNL     1     -10.906  17.377  67.461  1.00  0.00    -0.203 A  
HETATM    5  C   UNL     1     -10.351  16.087  67.426  1.00  0.00    -0.294 A  
HETATM    6  C   UNL     1      -8.231  14.657  67.096  1.00  0.00    -0.227 C  
HETATM    7  C   UNL     1      -8.993  15.959  67.066  1.00  0.00    -0.239 A  
HETATM    8  C   UNL     1      -8.277  17.093  66.628  1.00  0.00    -0.291 A  
ENDROOT
BRANCH   5   9
HETATM    9  S   UNL     1     -11.309  14.626  67.854  1.00  0.00    -0.329 SA 
BRANCH   9  10
HETATM   10  C   UNL     1     -11.636  13.752  66.313  1.00  0.00    -0.350 A  
HETATM   11  C   UNL     1     -12.112  14.537  65.242  1.00  0.00    -0.337 A  
HETATM   12  C   UNL     1     -12.272  13.999  63.967  1.00  0.00    -0.395 A  
HETATM   13  C   UNL     1     -11.959  12.668  63.747  1.00  0.00    -0.588 A  
HETATM   14  C   UNL     1     -11.469  11.883  64.795  1.00  0.00    -0.323 A  
HETATM   15  C   UNL     1     -11.273  12.391  66.099  1.00  0.00    -0.322 A  
BRANCH  15  16
HETATM   16  N   UNL     1     -10.677  11.591  67.064  1.00  0.00    -0.245 NA 
HETATM   17  C   UNL     1      -9.310  11.061  66.911  1.00  0.00    -0.173 C  
HETATM   18  C   UNL     1      -8.604  11.071  68.290  1.00  0.00    -0.143 C  
HETATM   19  N   UNL     1      -9.351  10.378  69.363  1.00  0.00    -0.321 NA 
HETATM   20  C   UNL     1     -10.739  10.895  69.413  1.00  0.00    -0.225 C  
HETATM   21  H   UNL     1      -8.882  10.447  70.265  1.00  0.00     0.000 HD 
HETATM   22  C   UNL     1     -11.461  10.825  68.046  1.00  0.00    -0.256 C  
ENDBRANCH  15  16
ENDBRANCH   9  10
ENDBRANCH   5   9
TORSDOF 3
ENDMDL
MODEL       54
REMARK 921   NORMALIZED FREE ENERGY PREDICTED BY IDOCK:   -5.50 KCAL/MOL
REMARK 922        TOTAL FREE ENERGY PREDICTED BY IDOCK:   -7.16 KCAL/MOL
REMARK 923 INTER-LIGAND FREE ENERGY PREDICTED BY IDOCK:   -6.57 KCAL/MOL
REMARK 924 INTRA-LIGAND FREE ENERGY PREDICTED BY IDOCK:   -0.59 KCAL/MOL
REMARK 927      BINDING AFFINITY PREDICTED BY RF-SCORE:    0.00 PKD
ROOT
HETATM    1  C   UNL     1      -9.746  20.646  67.318  1.00  0.00    -0.562 C  
HETATM    2  C   UNL     1      -9.617  19.151  67.355  1.00  0.00    -0.373 A  
HETATM    3  C   UNL     1      -8.648  18.483  66.607  1.00  0.00    -0.295 A  
HETATM    4  C   UNL     1      -8.500  17.089  66.723  1.00  0.00    -0.265 A  
HETATM    5  C   UNL     1      -9.317  16.334  67.581  1.00  0.00    -0.218 A  
HETATM    6  C   UNL     1     -11.388  16.302  69.115  1.00  0.00    -0.291 C  
HETATM    7  C   UNL     1     -10.363  16.998  68.255  1.00  0.00    -0.347 A  
HETATM    8  C   UNL     1     -10.478  18.401  68.157  1.00  0.00    -0.355 A  
ENDROOT
BRANCH   5   9
HETATM    9  S   UNL     1      -9.080  14.565  67.810  1.00  0.00    -0.197 SA 
BRANCH   9  10
HETATM   10  C   UNL     1     -10.235  13.741  66.701  1.00  0.00    -0.276 A  
HETATM   11  C   UNL     1     -10.276  14.222  65.376  1.00  0.00    -0.395 A  
HETATM   12  C   UNL     1     -11.030  13.579  64.397  1.00  0.00    -0.399 A  
HETATM   13  C   UNL     1     -11.754  12.445  64.731  1.00  0.00    -0.425 A  
HETATM   14  C   UNL     1     -11.708  11.948  66.036  1.00  0.00    -0.209 A  
HETATM   15  C   UNL     1     -10.944  12.556  67.057  1.00  0.00    -0.267 A  
BRANCH  15  16
HETATM   16  N   UNL     1     -10.851  11.947  68.301  1.00  0.00    -0.212 NA 
HETATM   17  C   UNL     1     -11.655  12.388  69.454  1.00  0.00    -0.307 C  
HETATM   18  C   UNL     1     -12.081  11.149  70.281  1.00  0.00    -0.377 C  
HETATM   19  N   UNL     1     -10.961  10.273  70.688  1.00  0.00    -0.393 NA 
HETATM   20  C   UNL     1     -10.143   9.930  69.500  1.00  0.00    -0.221 C  
HETATM   21  H   UNL     1     -11.282   9.444  71.187  1.00  0.00     0.000 HD 
HETATM   22  C   UNL     1      -9.669  11.174  68.713  1.00  0.00    -0.185 C  
ENDBRANCH  15  16
ENDBRANCH   9  10
ENDBRANCH   5   9
TORSDOF 3
ENDMDL
MODEL       55
REMARK 921   NORMALIZED FREE ENERGY PREDICTED BY IDOCK:   -5.49 KCAL/MOL
REMARK 922        TOTAL FREE ENERGY PREDICTED BY IDOCK:   -7.14 KCAL/MOL
REMARK 923 INTER-LIGAND FREE ENERGY PREDICTED BY IDOCK:   -6.48 KCAL/MOL
REMARK 924 INTRA-LIGAND FREE ENERGY PREDICTED BY IDOCK:   -0.66 KCAL/MOL
REMARK 927      BINDING AFFINITY PREDICTED BY RF-SCORE:    0.00 PKD
ROOT
HETATM    1  C   UNL     1     -11.090   6.324  69.380  1.00  0.00    -0.477 C  
HETATM    2  C   UNL     1     -10.479   7.439  68.584  1.00  0.00    -0.211 A  
HETATM    3  C   UNL     1     -10.656   7.534  67.204  1.00  0.00    -0.415 A  
HETATM    4  C   UNL     1     -10.138   8.634  66.497  1.00  0.00    -0.339 A  
HETATM    5  C   UNL     1      -9.431   9.658  67.149  1.00  0.00    -0.148 A  
HETATM    6  C   UNL     1      -8.321  10.462  69.333  1.00  0.00    -0.152 C  
HETATM    7  C   UNL     1      -9.164   9.506  68.526  1.00  0.00    -0.131 A  
HETATM    8  C   UNL     1      -9.719   8.416  69.229  1.00  0.00    -0.177 A  
ENDROOT
BRANCH   5   9
HETATM    9  S   UNL     1      -8.843  11.116  66.276  1.00  0.00    -0.187 SA 
BRANCH   9  10
HETATM   10  C   UNL     1     -10.282  11.867  65.496  1.00  0.00    -0.254 A  
HETATM   11  C   UNL     1     -10.575  11.436  64.185  1.00  0.00    -0.430 A  
HETATM   12  C   UNL     1     -11.736  11.845  63.533  1.00  0.00    -0.550 A  
HETATM   13  C   UNL     1     -12.619  12.692  64.183  1.00  0.00    -0.442 A  
HETATM   14  C   UNL     1     -12.349  13.113  65.488  1.00  0.00    -0.529 A  
HETATM   15  C   UNL     1     -11.195  12.709  66.195  1.00  0.00    -0.309 A  
BRANCH  15  16
HETATM   16  N   UNL     1     -11.045  13.071  67.527  1.00  0.00    -0.258 NA 
HETATM   17  C   UNL     1      -9.947  13.938  67.987  1.00  0.00    -0.241 C  
HETATM   18  C   UNL     1     -10.473  14.877  69.102  1.00  0.00    -0.244 C  
HETATM   19  N   UNL     1     -11.136  14.179  70.224  1.00  0.00    -0.465 NA 
HETATM   20  C   UNL     1     -12.173  13.262  69.694  1.00  0.00    -0.199 C  
HETATM   21  H   UNL     1     -11.513  14.829  70.914  1.00  0.00     0.000 HD 
HETATM   22  C   UNL     1     -11.628  12.285  68.626  1.00  0.00    -0.323 C  
ENDBRANCH  15  16
ENDBRANCH   9  10
ENDBRANCH   5   9
TORSDOF 3
ENDMDL
MODEL       56
REMARK 921   NORMALIZED FREE ENERGY PREDICTED BY IDOCK:   -5.45 KCAL/MOL
REMARK 922        TOTAL FREE ENERGY PREDICTED BY IDOCK:   -7.10 KCAL/MOL
REMARK 923 INTER-LIGAND FREE ENERGY PREDICTED BY IDOCK:   -6.70 KCAL/MOL
REMARK 924 INTRA-LIGAND FREE ENERGY PREDICTED BY IDOCK:   -0.40 KCAL/MOL
REMARK 927      BINDING AFFINITY PREDICTED BY RF-SCORE:    0.00 PKD
ROOT
HETATM    1  C   UNL     1     -12.486  12.103  63.569  1.00  0.00    -0.666 C  
HETATM    2  C   UNL     1     -11.479  12.768  64.461  1.00  0.00    -0.389 A  
HETATM    3  C   UNL     1     -11.367  14.156  64.528  1.00  0.00    -0.355 A  
HETATM    4  C   UNL     1     -10.469  14.752  65.432  1.00  0.00    -0.401 A  
HETATM    5  C   UNL     1      -9.664  13.977  66.283  1.00  0.00    -0.295 A  
HETATM    6  C   UNL     1      -8.814  11.622  66.898  1.00  0.00    -0.190 C  
HETATM    7  C   UNL     1      -9.704  12.574  66.139  1.00  0.00    -0.259 A  
HETATM    8  C   UNL     1     -10.634  11.990  65.253  1.00  0.00    -0.328 A  
ENDROOT
BRANCH   5   9
HETATM    9  S   UNL     1      -8.579  14.723  67.509  1.00  0.00    -0.200 SA 
BRANCH   9  10
HETATM   10  C   UNL     1      -9.049  16.458  67.628  1.00  0.00    -0.198 A  
HETATM   11  C   UNL     1      -8.404  17.340  66.735  1.00  0.00    -0.276 A  
HETATM   12  C   UNL     1      -8.781  18.677  66.643  1.00  0.00    -0.307 A  
HETATM   13  C   UNL     1      -9.808  19.152  67.442  1.00  0.00    -0.404 A  
HETATM   14  C   UNL     1     -10.467  18.284  68.318  1.00  0.00    -0.324 A  
HETATM   15  C   UNL     1     -10.132  16.917  68.433  1.00  0.00    -0.304 A  
BRANCH  15  16
HETATM   16  N   UNL     1     -10.900  16.087  69.237  1.00  0.00    -0.276 NA 
HETATM   17  C   UNL     1     -11.778  15.044  68.677  1.00  0.00    -0.337 C  
HETATM   18  C   UNL     1     -11.739  13.799  69.598  1.00  0.00    -0.318 C  
HETATM   19  N   UNL     1     -12.046  14.080  71.018  1.00  0.00    -0.424 NA 
HETATM   20  C   UNL     1     -11.191  15.190  71.499  1.00  0.00    -0.262 C  
HETATM   21  H   UNL     1     -11.963  13.249  71.602  1.00  0.00     0.000 HD 
HETATM   22  C   UNL     1     -11.281  16.453  70.610  1.00  0.00    -0.189 C  
ENDBRANCH  15  16
ENDBRANCH   9  10
ENDBRANCH   5   9
TORSDOF 3
ENDMDL
MODEL       57
REMARK 921   NORMALIZED FREE ENERGY PREDICTED BY IDOCK:   -5.45 KCAL/MOL
REMARK 922        TOTAL FREE ENERGY PREDICTED BY IDOCK:   -7.10 KCAL/MOL
REMARK 923 INTER-LIGAND FREE ENERGY PREDICTED BY IDOCK:   -6.38 KCAL/MOL
REMARK 924 INTRA-LIGAND FREE ENERGY PREDICTED BY IDOCK:   -0.72 KCAL/MOL
REMARK 927      BINDING AFFINITY PREDICTED BY RF-SCORE:    0.00 PKD
ROOT
HETATM    1  C   UNL     1      -6.847  19.960  68.860  1.00  0.00    -0.359 C  
HETATM    2  C   UNL     1      -7.885  18.926  68.535  1.00  0.00    -0.373 A  
HETATM    3  C   UNL     1      -9.248  19.207  68.624  1.00  0.00    -0.429 A  
HETATM    4  C   UNL     1     -10.197  18.243  68.238  1.00  0.00    -0.405 A  
HETATM    5  C   UNL     1      -9.806  16.981  67.759  1.00  0.00    -0.271 A  
HETATM    6  C   UNL     1      -7.874  15.313  67.397  1.00  0.00    -0.220 C  
HETATM    7  C   UNL     1      -8.431  16.664  67.770  1.00  0.00    -0.191 A  
HETATM    8  C   UNL     1      -7.490  17.652  68.127  1.00  0.00    -0.231 A  
ENDROOT
BRANCH   5   9
HETATM    9  S   UNL     1     -11.003  15.772  67.174  1.00  0.00    -0.183 SA 
BRANCH   9  10
HETATM   10  C   UNL     1     -11.469  14.774  68.599  1.00  0.00    -0.302 A  
HETATM   11  C   UNL     1     -12.161  15.446  69.629  1.00  0.00    -0.354 A  
HETATM   12  C   UNL     1     -12.688  14.753  70.716  1.00  0.00    -0.422 A  
HETATM   13  C   UNL     1     -12.531  13.378  70.788  1.00  0.00    -0.418 A  
HETATM   14  C   UNL     1     -11.864  12.698  69.765  1.00  0.00    -0.379 A  
HETATM   15  C   UNL     1     -11.328  13.356  68.636  1.00  0.00    -0.286 A  
BRANCH  15  16
HETATM   16  N   UNL     1     -10.779  12.609  67.602  1.00  0.00    -0.215 NA 
HETATM   17  C   UNL     1     -11.561  12.212  66.418  1.00  0.00    -0.364 C  
HETATM   18  C   UNL     1     -10.653  12.278  65.164  1.00  0.00    -0.285 C  
HETATM   19  N   UNL     1      -9.394  11.510  65.282  1.00  0.00    -0.354 NA 
HETATM   20  C   UNL     1      -8.694  11.894  66.531  1.00  0.00    -0.158 C  
HETATM   21  H   UNL     1      -8.800  11.616  64.460  1.00  0.00     0.000 HD 
HETATM   22  C   UNL     1      -9.587  11.766  67.788  1.00  0.00    -0.184 C  
ENDBRANCH  15  16
ENDBRANCH   9  10
ENDBRANCH   5   9
TORSDOF 3
ENDMDL
MODEL       58
REMARK 921   NORMALIZED FREE ENERGY PREDICTED BY IDOCK:   -5.45 KCAL/MOL
REMARK 922        TOTAL FREE ENERGY PREDICTED BY IDOCK:   -7.10 KCAL/MOL
REMARK 923 INTER-LIGAND FREE ENERGY PREDICTED BY IDOCK:   -6.45 KCAL/MOL
REMARK 924 INTRA-LIGAND FREE ENERGY PREDICTED BY IDOCK:   -0.65 KCAL/MOL
REMARK 927      BINDING AFFINITY PREDICTED BY RF-SCORE:    0.00 PKD
ROOT
HETATM    1  C   UNL     1     -10.466   5.988  66.907  1.00  0.00    -0.344 C  
HETATM    2  C   UNL     1     -10.023   7.419  66.813  1.00  0.00    -0.300 A  
HETATM    3  C   UNL     1      -8.870   7.783  66.117  1.00  0.00    -0.192 A  
HETATM    4  C   UNL     1      -8.524   9.139  65.979  1.00  0.00    -0.139 A  
HETATM    5  C   UNL     1      -9.316  10.158  66.534  1.00  0.00    -0.164 A  
HETATM    6  C   UNL     1     -11.292  10.757  68.078  1.00  0.00    -0.378 C  
HETATM    7  C   UNL     1     -10.422   9.782  67.325  1.00  0.00    -0.324 A  
HETATM    8  C   UNL     1     -10.777   8.420  67.426  1.00  0.00    -0.225 A  
ENDROOT
BRANCH   5   9
HETATM    9  S   UNL     1      -8.938  11.899  66.288  1.00  0.00    -0.105 SA 
BRANCH   9  10
HETATM   10  C   UNL     1     -10.205  12.553  65.186  1.00  0.00    -0.279 A  
HETATM   11  C   UNL     1     -10.765  11.638  64.270  1.00  0.00    -0.398 A  
HETATM   12  C   UNL     1     -11.842  11.992  63.462  1.00  0.00    -0.587 A  
HETATM   13  C   UNL     1     -12.375  13.268  63.559  1.00  0.00    -0.442 A  
HETATM   14  C   UNL     1     -11.841  14.178  64.475  1.00  0.00    -0.451 A  
HETATM   15  C   UNL     1     -10.761  13.858  65.327  1.00  0.00    -0.345 A  
BRANCH  15  16
HETATM   16  N   UNL     1     -10.354  14.768  66.293  1.00  0.00    -0.287 NA 
HETATM   17  C   UNL     1      -9.186  15.646  66.103  1.00  0.00    -0.343 C  
HETATM   18  C   UNL     1      -9.484  17.032  66.728  1.00  0.00    -0.258 C  
HETATM   19  N   UNL     1      -9.918  16.983  68.142  1.00  0.00    -0.274 NA 
HETATM   20  C   UNL     1     -11.040  16.025  68.283  1.00  0.00    -0.351 C  
HETATM   21  H   UNL     1     -10.153  17.906  68.505  1.00  0.00     0.000 HD 
HETATM   22  C   UNL     1     -10.714  14.624  67.712  1.00  0.00    -0.265 C  
ENDBRANCH  15  16
ENDBRANCH   9  10
ENDBRANCH   5   9
TORSDOF 3
ENDMDL
MODEL       59
REMARK 921   NORMALIZED FREE ENERGY PREDICTED BY IDOCK:   -5.43 KCAL/MOL
REMARK 922        TOTAL FREE ENERGY PREDICTED BY IDOCK:   -7.07 KCAL/MOL
REMARK 923 INTER-LIGAND FREE ENERGY PREDICTED BY IDOCK:   -6.44 KCAL/MOL
REMARK 924 INTRA-LIGAND FREE ENERGY PREDICTED BY IDOCK:   -0.63 KCAL/MOL
REMARK 927      BINDING AFFINITY PREDICTED BY RF-SCORE:    0.00 PKD
ROOT
HETATM    1  C   UNL     1     -12.523  12.029  62.983  1.00  0.00    -0.156 C  
HETATM    2  C   UNL     1     -11.993  12.142  64.382  1.00  0.00    -0.443 A  
HETATM    3  C   UNL     1     -12.431  13.142  65.251  1.00  0.00    -0.550 A  
HETATM    4  C   UNL     1     -11.975  13.174  66.581  1.00  0.00    -0.451 A  
HETATM    5  C   UNL     1     -11.073  12.215  67.070  1.00  0.00    -0.294 A  
HETATM    6  C   UNL     1      -9.491  10.257  66.513  1.00  0.00    -0.212 C  
HETATM    7  C   UNL     1     -10.552  11.270  66.161  1.00  0.00    -0.312 A  
HETATM    8  C   UNL     1     -11.044  11.228  64.840  1.00  0.00    -0.183 A  
ENDROOT
BRANCH   5   9
HETATM    9  S   UNL     1     -10.552  12.187  68.792  1.00  0.00    -0.161 SA 
BRANCH   9  10
HETATM   10  C   UNL     1     -11.435  13.521  69.620  1.00  0.00    -0.217 A  
HETATM   11  C   UNL     1     -12.370  13.132  70.603  1.00  0.00    -0.405 A  
HETATM   12  C   UNL     1     -13.013  14.075  71.402  1.00  0.00    -0.427 A  
HETATM   13  C   UNL     1     -12.730  15.420  71.228  1.00  0.00    -0.501 A  
HETATM   14  C   UNL     1     -11.793  15.818  70.270  1.00  0.00    -0.369 A  
HETATM   15  C   UNL     1     -11.103  14.897  69.451  1.00  0.00    -0.280 A  
BRANCH  15  16
HETATM   16  N   UNL     1     -10.103  15.350  68.601  1.00  0.00    -0.207 NA 
HETATM   17  C   UNL     1      -8.679  15.314  68.975  1.00  0.00    -0.226 C  
HETATM   18  C   UNL     1      -7.834  14.958  67.726  1.00  0.00    -0.152 C  
HETATM   19  N   UNL     1      -8.079  15.827  66.555  1.00  0.00    -0.290 NA 
HETATM   20  C   UNL     1      -9.534  15.888  66.279  1.00  0.00    -0.318 C  
HETATM   21  H   UNL     1      -7.544  15.533  65.738  1.00  0.00     0.000 HD 
HETATM   22  C   UNL     1     -10.367  16.305  67.514  1.00  0.00    -0.288 C  
ENDBRANCH  15  16
ENDBRANCH   9  10
ENDBRANCH   5   9
TORSDOF 3
ENDMDL
MODEL       60
REMARK 921   NORMALIZED FREE ENERGY PREDICTED BY IDOCK:   -5.43 KCAL/MOL
REMARK 922        TOTAL FREE ENERGY PREDICTED BY IDOCK:   -7.07 KCAL/MOL
REMARK 923 INTER-LIGAND FREE ENERGY PREDICTED BY IDOCK:   -6.36 KCAL/MOL
REMARK 924 INTRA-LIGAND FREE ENERGY PREDICTED BY IDOCK:   -0.71 KCAL/MOL
REMARK 927      BINDING AFFINITY PREDICTED BY RF-SCORE:    0.00 PKD
ROOT
HETATM    1  C   UNL     1     -13.760  15.049  72.074  1.00  0.00    -0.550 C  
HETATM    2  C   UNL     1     -13.102  13.922  71.333  1.00  0.00    -0.413 A  
HETATM    3  C   UNL     1     -13.196  12.603  71.776  1.00  0.00    -0.457 A  
HETATM    4  C   UNL     1     -12.637  11.559  71.018  1.00  0.00    -0.457 A  
HETATM    5  C   UNL     1     -11.970  11.808  69.806  1.00  0.00    -0.322 A  
HETATM    6  C   UNL     1     -10.992  13.576  68.205  1.00  0.00    -0.275 C  
HETATM    7  C   UNL     1     -11.786  13.151  69.415  1.00  0.00    -0.383 A  
HETATM    8  C   UNL     1     -12.382  14.185  70.167  1.00  0.00    -0.413 A  
ENDROOT
BRANCH   5   9
HETATM    9  S   UNL     1     -11.331  10.477  68.779  1.00  0.00    -0.223 SA 
BRANCH   9  10
HETATM   10  C   UNL     1      -9.697  10.070  69.417  1.00  0.00    -0.225 A  
HETATM   11  C   UNL     1      -8.636  10.893  68.983  1.00  0.00    -0.110 A  
HETATM   12  C   UNL     1      -7.355  10.760  69.512  1.00  0.00    -0.125 A  
HETATM   13  C   UNL     1      -7.116   9.800  70.482  1.00  0.00    -0.130 A  
HETATM   14  C   UNL     1      -8.161   8.990  70.934  1.00  0.00    -0.222 A  
HETATM   15  C   UNL     1      -9.480   9.102  70.441  1.00  0.00    -0.227 A  
BRANCH  15  16
HETATM   16  N   UNL     1     -10.493   8.346  71.014  1.00  0.00    -0.201 NA 
HETATM   17  C   UNL     1     -11.103   8.700  72.307  1.00  0.00    -0.325 C  
HETATM   18  C   UNL     1     -12.620   8.388  72.258  1.00  0.00    -0.349 C  
HETATM   19  N   UNL     1     -12.945   7.004  71.852  1.00  0.00    -0.520 NA 
HETATM   20  C   UNL     1     -12.240   6.679  70.589  1.00  0.00    -0.200 C  
HETATM   21  H   UNL     1     -13.950   6.849  71.782  1.00  0.00     0.000 HD 
HETATM   22  C   UNL     1     -10.715   6.934  70.665  1.00  0.00    -0.236 C  
ENDBRANCH  15  16
ENDBRANCH   9  10
ENDBRANCH   5   9
TORSDOF 3
ENDMDL
MODEL       61
REMARK 921   NORMALIZED FREE ENERGY PREDICTED BY IDOCK:   -5.40 KCAL/MOL
REMARK 922        TOTAL FREE ENERGY PREDICTED BY IDOCK:   -7.03 KCAL/MOL
REMARK 923 INTER-LIGAND FREE ENERGY PREDICTED BY IDOCK:   -6.34 KCAL/MOL
REMARK 924 INTRA-LIGAND FREE ENERGY PREDICTED BY IDOCK:   -0.69 KCAL/MOL
REMARK 927      BINDING AFFINITY PREDICTED BY RF-SCORE:    0.00 PKD
ROOT
HETATM    1  C   UNL     1     -10.085   7.886  70.148  1.00  0.00    -0.194 C  
HETATM    2  C   UNL     1     -10.286   9.350  69.885  1.00  0.00    -0.247 A  
HETATM    3  C   UNL     1      -9.477  10.049  68.989  1.00  0.00    -0.190 A  
HETATM    4  C   UNL     1      -9.740  11.401  68.704  1.00  0.00    -0.182 A  
HETATM    5  C   UNL     1     -10.809  12.083  69.308  1.00  0.00    -0.076 A  
HETATM    6  C   UNL     1     -12.658  12.041  71.105  1.00  0.00    -0.372 C  
HETATM    7  C   UNL     1     -11.560  11.404  70.291  1.00  0.00    -0.334 A  
HETATM    8  C   UNL     1     -11.307  10.038  70.541  1.00  0.00    -0.409 A  
ENDROOT
BRANCH   5   9
HETATM    9  S   UNL     1     -11.215  13.784  68.885  1.00  0.00    -0.286 SA 
BRANCH   9  10
HETATM   10  C   UNL     1     -11.322  13.859  67.089  1.00  0.00    -0.327 A  
HETATM   11  C   UNL     1     -12.154  12.899  66.474  1.00  0.00    -0.375 A  
HETATM   12  C   UNL     1     -12.420  12.942  65.108  1.00  0.00    -0.561 A  
HETATM   13  C   UNL     1     -11.856  13.946  64.336  1.00  0.00    -0.456 A  
HETATM   14  C   UNL     1     -11.044  14.914  64.936  1.00  0.00    -0.424 A  
HETATM   15  C   UNL     1     -10.762  14.920  66.319  1.00  0.00    -0.320 A  
BRANCH  15  16
HETATM   16  N   UNL     1     -10.043  15.974  66.868  1.00  0.00    -0.259 NA 
HETATM   17  C   UNL     1     -10.685  17.237  67.271  1.00  0.00    -0.215 C  
HETATM   18  C   UNL     1     -10.011  17.760  68.564  1.00  0.00    -0.370 C  
HETATM   19  N   UNL     1      -8.540  17.888  68.476  1.00  0.00    -0.298 NA 
HETATM   20  C   UNL     1      -7.960  16.614  67.989  1.00  0.00    -0.171 C  
HETATM   21  H   UNL     1      -8.126  18.186  69.359  1.00  0.00     0.000 HD 
HETATM   22  C   UNL     1      -8.594  16.128  66.664  1.00  0.00    -0.276 C  
ENDBRANCH  15  16
ENDBRANCH   9  10
ENDBRANCH   5   9
TORSDOF 3
ENDMDL
MODEL       62
REMARK 921   NORMALIZED FREE ENERGY PREDICTED BY IDOCK:   -5.39 KCAL/MOL
REMARK 922        TOTAL FREE ENERGY PREDICTED BY IDOCK:   -7.03 KCAL/MOL
REMARK 923 INTER-LIGAND FREE ENERGY PREDICTED BY IDOCK:   -6.44 KCAL/MOL
REMARK 924 INTRA-LIGAND FREE ENERGY PREDICTED BY IDOCK:   -0.59 KCAL/MOL
REMARK 927      BINDING AFFINITY PREDICTED BY RF-SCORE:    0.00 PKD
ROOT
HETATM    1  C   UNL     1      -9.733   4.512  69.538  1.00  0.00    -0.282 C  
HETATM    2  C   UNL     1      -9.842   5.815  68.802  1.00  0.00    -0.181 A  
HETATM    3  C   UNL     1     -10.900   6.077  67.931  1.00  0.00    -0.378 A  
HETATM    4  C   UNL     1     -11.017   7.337  67.317  1.00  0.00    -0.284 A  
HETATM    5  C   UNL     1     -10.082   8.358  67.555  1.00  0.00    -0.218 A  
HETATM    6  C   UNL     1      -7.817   9.011  68.598  1.00  0.00    -0.101 C  
HETATM    7  C   UNL     1      -8.958   8.056  68.352  1.00  0.00    -0.133 A  
HETATM    8  C   UNL     1      -8.871   6.800  68.989  1.00  0.00    -0.129 A  
ENDROOT
BRANCH   5   9
HETATM    9  S   UNL     1     -10.269  10.003  66.851  1.00  0.00    -0.238 SA 
BRANCH   9  10
HETATM   10  C   UNL     1     -11.116  11.002  68.087  1.00  0.00    -0.270 A  
HETATM   11  C   UNL     1     -11.251  10.424  69.367  1.00  0.00    -0.314 A  
HETATM   12  C   UNL     1     -11.767  11.152  70.437  1.00  0.00    -0.415 A  
HETATM   13  C   UNL     1     -12.156  12.467  70.241  1.00  0.00    -0.373 A  
HETATM   14  C   UNL     1     -12.011  13.057  68.981  1.00  0.00    -0.312 A  
HETATM   15  C   UNL     1     -11.477  12.364  67.873  1.00  0.00    -0.328 A  
BRANCH  15  16
HETATM   16  N   UNL     1     -11.254  13.042  66.682  1.00  0.00    -0.296 NA 
HETATM   17  C   UNL     1     -12.086  12.824  65.486  1.00  0.00    -0.465 C  
HETATM   18  C   UNL     1     -12.285  14.174  64.752  1.00  0.00    -0.440 C  
HETATM   19  N   UNL     1     -11.029  14.886  64.432  1.00  0.00    -0.629 NA 
HETATM   20  C   UNL     1     -10.201  15.003  65.655  1.00  0.00    -0.360 C  
HETATM   21  H   UNL     1     -11.200  15.791  63.995  1.00  0.00     0.000 HD 
HETATM   22  C   UNL     1      -9.952  13.643  66.350  1.00  0.00    -0.296 C  
ENDBRANCH  15  16
ENDBRANCH   9  10
ENDBRANCH   5   9
TORSDOF 3
ENDMDL
MODEL       63
REMARK 921   NORMALIZED FREE ENERGY PREDICTED BY IDOCK:   -5.36 KCAL/MOL
REMARK 922        TOTAL FREE ENERGY PREDICTED BY IDOCK:   -6.99 KCAL/MOL
REMARK 923 INTER-LIGAND FREE ENERGY PREDICTED BY IDOCK:   -6.24 KCAL/MOL
REMARK 924 INTRA-LIGAND FREE ENERGY PREDICTED BY IDOCK:   -0.75 KCAL/MOL
REMARK 927      BINDING AFFINITY PREDICTED BY RF-SCORE:    0.00 PKD
ROOT
HETATM    1  C   UNL     1     -11.895  12.767  65.398  1.00  0.00    -0.456 C  
HETATM    2  C   UNL     1     -11.644  12.018  66.674  1.00  0.00    -0.389 A  
HETATM    3  C   UNL     1     -11.117  10.727  66.672  1.00  0.00    -0.107 A  
HETATM    4  C   UNL     1     -10.818  10.082  67.885  1.00  0.00    -0.323 A  
HETATM    5  C   UNL     1     -11.043  10.708  69.123  1.00  0.00    -0.255 A  
HETATM    6  C   UNL     1     -12.083  12.708  70.373  1.00  0.00    -0.381 C  
HETATM    7  C   UNL     1     -11.673  11.970  69.124  1.00  0.00    -0.389 A  
HETATM    8  C   UNL     1     -11.935  12.620  67.899  1.00  0.00    -0.307 A  
ENDROOT
BRANCH   5   9
HETATM    9  S   UNL     1     -10.581   9.934  70.680  1.00  0.00    -0.202 SA 
BRANCH   9  10
HETATM   10  C   UNL     1     -11.957   8.875  71.159  1.00  0.00    -0.293 A  
HETATM   11  C   UNL     1     -13.162   9.531  71.490  1.00  0.00    -0.468 A  
HETATM   12  C   UNL     1     -14.328   8.814  71.745  1.00  0.00    -0.414 A  
HETATM   13  C   UNL     1     -14.306   7.430  71.674  1.00  0.00    -0.614 A  
HETATM   14  C   UNL     1     -13.123   6.768  71.330  1.00  0.00    -0.214 A  
HETATM   15  C   UNL     1     -11.922   7.454  71.045  1.00  0.00    -0.306 A  
BRANCH  15  16
HETATM   16  N   UNL     1     -10.815   6.744  70.600  1.00  0.00    -0.238 NA 
HETATM   17  C   UNL     1     -10.854   5.910  69.385  1.00  0.00    -0.352 C  
HETATM   18  C   UNL     1      -9.499   6.030  68.644  1.00  0.00    -0.124 C  
HETATM   19  N   UNL     1      -8.316   5.735  69.482  1.00  0.00    -0.111 NA 
HETATM   20  C   UNL     1      -8.376   6.542  70.724  1.00  0.00    -0.130 C  
HETATM   21  H   UNL     1      -7.441   5.872  68.976  1.00  0.00     0.000 HD 
HETATM   22  C   UNL     1      -9.707   6.371  71.493  1.00  0.00    -0.168 C  
ENDBRANCH  15  16
ENDBRANCH   9  10
ENDBRANCH   5   9
TORSDOF 3
ENDMDL
MODEL       64
REMARK 921   NORMALIZED FREE ENERGY PREDICTED BY IDOCK:   -5.35 KCAL/MOL
REMARK 922        TOTAL FREE ENERGY PREDICTED BY IDOCK:   -6.98 KCAL/MOL
REMARK 923 INTER-LIGAND FREE ENERGY PREDICTED BY IDOCK:   -6.21 KCAL/MOL
REMARK 924 INTRA-LIGAND FREE ENERGY PREDICTED BY IDOCK:   -0.78 KCAL/MOL
REMARK 927      BINDING AFFINITY PREDICTED BY RF-SCORE:    0.00 PKD
ROOT
HETATM    1  C   UNL     1     -10.007   6.010  66.598  1.00  0.00    -0.211 C  
HETATM    2  C   UNL     1      -9.735   7.484  66.659  1.00  0.00    -0.273 A  
HETATM    3  C   UNL     1      -8.604   8.044  66.065  1.00  0.00    -0.162 A  
HETATM    4  C   UNL     1      -8.417   9.438  66.071  1.00  0.00    -0.132 A  
HETATM    5  C   UNL     1      -9.350  10.300  66.670  1.00  0.00    -0.161 A  
HETATM    6  C   UNL     1     -11.452  10.516  68.147  1.00  0.00    -0.255 C  
HETATM    7  C   UNL     1     -10.438   9.725  67.360  1.00  0.00    -0.319 A  
HETATM    8  C   UNL     1     -10.632   8.328  67.316  1.00  0.00    -0.335 A  
ENDROOT
BRANCH   5   9
HETATM    9  S   UNL     1      -9.173  12.089  66.605  1.00  0.00    -0.212 SA 
BRANCH   9  10
HETATM   10  C   UNL     1     -10.343  12.680  65.370  1.00  0.00    -0.291 A  
HETATM   11  C   UNL     1     -10.777  11.731  64.419  1.00  0.00    -0.381 A  
HETATM   12  C   UNL     1     -11.779  12.035  63.501  1.00  0.00    -0.566 A  
HETATM   13  C   UNL     1     -12.361  13.292  63.520  1.00  0.00    -0.442 A  
HETATM   14  C   UNL     1     -11.953  14.236  64.467  1.00  0.00    -0.478 A  
HETATM   15  C   UNL     1     -10.954  13.967  65.429  1.00  0.00    -0.316 A  
BRANCH  15  16
HETATM   16  N   UNL     1     -10.678  14.907  66.412  1.00  0.00    -0.309 NA 
HETATM   17  C   UNL     1     -11.430  14.964  67.678  1.00  0.00    -0.352 C  
HETATM   18  C   UNL     1     -10.460  15.330  68.830  1.00  0.00    -0.237 C  
HETATM   19  N   UNL     1      -9.672  16.560  68.596  1.00  0.00    -0.237 NA 
HETATM   20  C   UNL     1      -9.005  16.477  67.275  1.00  0.00    -0.199 C  
HETATM   21  H   UNL     1      -9.010  16.742  69.350  1.00  0.00     0.000 HD 
HETATM   22  C   UNL     1      -9.988  16.173  66.119  1.00  0.00    -0.335 C  
ENDBRANCH  15  16
ENDBRANCH   9  10
ENDBRANCH   5   9
TORSDOF 3
ENDMDL
MODEL       65
REMARK 921   NORMALIZED FREE ENERGY PREDICTED BY IDOCK:   -5.34 KCAL/MOL
REMARK 922        TOTAL FREE ENERGY PREDICTED BY IDOCK:   -6.96 KCAL/MOL
REMARK 923 INTER-LIGAND FREE ENERGY PREDICTED BY IDOCK:   -6.29 KCAL/MOL
REMARK 924 INTRA-LIGAND FREE ENERGY PREDICTED BY IDOCK:   -0.68 KCAL/MOL
REMARK 927      BINDING AFFINITY PREDICTED BY RF-SCORE:    0.00 PKD
ROOT
HETATM    1  C   UNL     1      -9.866   4.640  66.537  1.00  0.00    -0.241 C  
HETATM    2  C   UNL     1      -9.739   6.135  66.517  1.00  0.00    -0.184 A  
HETATM    3  C   UNL     1     -10.704   6.958  67.097  1.00  0.00    -0.436 A  
HETATM    4  C   UNL     1     -10.517   8.352  67.131  1.00  0.00    -0.380 A  
HETATM    5  C   UNL     1      -9.370   8.952  66.587  1.00  0.00    -0.185 A  
HETATM    6  C   UNL     1      -7.234   8.642  65.176  1.00  0.00    -0.087 C  
HETATM    7  C   UNL     1      -8.448   8.127  65.909  1.00  0.00    -0.153 A  
HETATM    8  C   UNL     1      -8.630   6.728  65.912  1.00  0.00    -0.153 A  
ENDROOT
BRANCH   5   9
HETATM    9  S   UNL     1      -9.073  10.723  66.705  1.00  0.00    -0.156 SA 
BRANCH   9  10
HETATM   10  C   UNL     1     -10.231  11.518  65.579  1.00  0.00    -0.258 A  
HETATM   11  C   UNL     1     -10.095  11.191  64.213  1.00  0.00    -0.382 A  
HETATM   12  C   UNL     1     -11.016  11.638  63.268  1.00  0.00    -0.361 A  
HETATM   13  C   UNL     1     -12.085  12.419  63.675  1.00  0.00    -0.648 A  
HETATM   14  C   UNL     1     -12.241  12.736  65.028  1.00  0.00    -0.527 A  
HETATM   15  C   UNL     1     -11.344  12.291  66.023  1.00  0.00    -0.350 A  
BRANCH  15  16
HETATM   16  N   UNL     1     -11.620  12.545  67.360  1.00  0.00    -0.349 NA 
HETATM   17  C   UNL     1     -12.089  11.494  68.279  1.00  0.00    -0.002 C  
HETATM   18  C   UNL     1     -11.453  11.716  69.674  1.00  0.00    -0.288 C  
HETATM   19  N   UNL     1     -11.659  13.072  70.229  1.00  0.00    -0.529 NA 
HETATM   20  C   UNL     1     -11.246  14.085  69.230  1.00  0.00    -0.261 C  
HETATM   21  H   UNL     1     -11.185  13.198  71.123  1.00  0.00     0.000 HD 
HETATM   22  C   UNL     1     -11.932  13.895  67.856  1.00  0.00    -0.358 C  
ENDBRANCH  15  16
ENDBRANCH   9  10
ENDBRANCH   5   9
TORSDOF 3
ENDMDL
MODEL       66
REMARK 921   NORMALIZED FREE ENERGY PREDICTED BY IDOCK:   -5.32 KCAL/MOL
REMARK 922        TOTAL FREE ENERGY PREDICTED BY IDOCK:   -6.95 KCAL/MOL
REMARK 923 INTER-LIGAND FREE ENERGY PREDICTED BY IDOCK:   -6.35 KCAL/MOL
REMARK 924 INTRA-LIGAND FREE ENERGY PREDICTED BY IDOCK:   -0.59 KCAL/MOL
REMARK 927      BINDING AFFINITY PREDICTED BY RF-SCORE:    0.00 PKD
ROOT
HETATM    1  C   UNL     1      -9.954  20.537  67.088  1.00  0.00    -0.512 C  
HETATM    2  C   UNL     1      -9.540  19.097  67.008  1.00  0.00    -0.378 A  
HETATM    3  C   UNL     1      -8.465  18.604  67.748  1.00  0.00    -0.293 A  
HETATM    4  C   UNL     1      -8.151  17.233  67.713  1.00  0.00    -0.201 A  
HETATM    5  C   UNL     1      -8.898  16.329  66.939  1.00  0.00    -0.215 A  
HETATM    6  C   UNL     1     -10.722  16.018  65.144  1.00  0.00    -0.429 C  
HETATM    7  C   UNL     1      -9.917  16.848  66.113  1.00  0.00    -0.332 A  
HETATM    8  C   UNL     1     -10.244  18.219  66.184  1.00  0.00    -0.393 A  
ENDROOT
BRANCH   5   9
HETATM    9  S   UNL     1      -8.568  14.561  66.956  1.00  0.00    -0.190 SA 
BRANCH   9  10
HETATM   10  C   UNL     1      -9.899  13.795  67.897  1.00  0.00    -0.232 A  
HETATM   11  C   UNL     1     -10.339  14.499  69.039  1.00  0.00    -0.227 A  
HETATM   12  C   UNL     1     -11.447  14.074  69.767  1.00  0.00    -0.293 A  
HETATM   13  C   UNL     1     -12.132  12.939  69.363  1.00  0.00    -0.254 A  
HETATM   14  C   UNL     1     -11.717  12.242  68.224  1.00  0.00    -0.392 A  
HETATM   15  C   UNL     1     -10.611  12.646  67.445  1.00  0.00    -0.224 A  
BRANCH  15  16
HETATM   16  N   UNL     1     -10.323  11.977  66.263  1.00  0.00    -0.217 NA 
HETATM   17  C   UNL     1      -9.284  10.936  66.183  1.00  0.00    -0.184 C  
HETATM   18  C   UNL     1      -9.760   9.815  65.225  1.00  0.00    -0.300 C  
HETATM   19  N   UNL     1     -10.173  10.291  63.887  1.00  0.00    -0.463 NA 
HETATM   20  C   UNL     1     -11.156  11.391  64.034  1.00  0.00    -0.322 C  
HETATM   21  H   UNL     1     -10.527   9.535  63.301  1.00  0.00     0.000 HD 
HETATM   22  C   UNL     1     -10.650  12.537  64.942  1.00  0.00    -0.301 C  
ENDBRANCH  15  16
ENDBRANCH   9  10
ENDBRANCH   5   9
TORSDOF 3
ENDMDL
MODEL       67
REMARK 921   NORMALIZED FREE ENERGY PREDICTED BY IDOCK:   -5.32 KCAL/MOL
REMARK 922        TOTAL FREE ENERGY PREDICTED BY IDOCK:   -6.94 KCAL/MOL
REMARK 923 INTER-LIGAND FREE ENERGY PREDICTED BY IDOCK:   -6.16 KCAL/MOL
REMARK 924 INTRA-LIGAND FREE ENERGY PREDICTED BY IDOCK:   -0.78 KCAL/MOL
REMARK 927      BINDING AFFINITY PREDICTED BY RF-SCORE:    0.00 PKD
ROOT
HETATM    1  C   UNL     1     -12.729  11.843  63.132  1.00  0.00    -0.268 C  
HETATM    2  C   UNL     1     -11.918  12.691  64.066  1.00  0.00    -0.530 A  
HETATM    3  C   UNL     1     -11.030  12.126  64.981  1.00  0.00    -0.355 A  
HETATM    4  C   UNL     1     -10.225  12.950  65.789  1.00  0.00    -0.298 A  
HETATM    5  C   UNL     1     -10.292  14.351  65.704  1.00  0.00    -0.342 A  
HETATM    6  C   UNL     1     -11.531  16.399  64.746  1.00  0.00    -0.061 C  
HETATM    7  C   UNL     1     -11.264  14.918  64.853  1.00  0.00    -0.415 A  
HETATM    8  C   UNL     1     -12.040  14.081  64.024  1.00  0.00    -0.413 A  
ENDROOT
BRANCH   5   9
HETATM    9  S   UNL     1      -9.204  15.417  66.662  1.00  0.00    -0.297 SA 
BRANCH   9  10
HETATM   10  C   UNL     1     -10.078  15.809  68.187  1.00  0.00    -0.220 A  
HETATM   11  C   UNL     1     -10.420  14.713  69.008  1.00  0.00    -0.248 A  
HETATM   12  C   UNL     1     -10.976  14.902  70.271  1.00  0.00    -0.186 A  
HETATM   13  C   UNL     1     -11.197  16.190  70.731  1.00  0.00    -0.356 A  
HETATM   14  C   UNL     1     -10.846  17.285  69.935  1.00  0.00     0.476 A  
HETATM   15  C   UNL     1     -10.264  17.142  68.657  1.00  0.00    -0.336 A  
BRANCH  15  16
HETATM   16  N   UNL     1      -9.834  18.269  67.969  1.00  0.00    -0.313 NA 
HETATM   17  C   UNL     1      -8.589  18.975  68.317  1.00  0.00    -0.331 C  
HETATM   18  C   UNL     1      -7.904  19.469  67.018  1.00  0.00    -0.260 C  
HETATM   19  N   UNL     1      -8.775  20.280  66.139  1.00  0.00    -0.576 NA 
HETATM   20  C   UNL     1     -10.043  19.553  65.892  1.00  0.00    -0.362 C  
HETATM   21  H   UNL     1      -8.308  20.545  65.273  1.00  0.00     0.000 HD 
HETATM   22  C   UNL     1     -10.754  19.117  67.195  1.00  0.00    -0.471 C  
ENDBRANCH  15  16
ENDBRANCH   9  10
ENDBRANCH   5   9
TORSDOF 3
ENDMDL
MODEL       68
REMARK 921   NORMALIZED FREE ENERGY PREDICTED BY IDOCK:   -5.31 KCAL/MOL
REMARK 922        TOTAL FREE ENERGY PREDICTED BY IDOCK:   -6.93 KCAL/MOL
REMARK 923 INTER-LIGAND FREE ENERGY PREDICTED BY IDOCK:   -6.28 KCAL/MOL
REMARK 924 INTRA-LIGAND FREE ENERGY PREDICTED BY IDOCK:   -0.65 KCAL/MOL
REMARK 927      BINDING AFFINITY PREDICTED BY RF-SCORE:    0.00 PKD
ROOT
HETATM    1  C   UNL     1     -11.417  15.129  64.795  1.00  0.00    -0.383 C  
HETATM    2  C   UNL     1     -11.140  14.025  65.773  1.00  0.00    -0.305 A  
HETATM    3  C   UNL     1     -11.969  12.908  65.868  1.00  0.00    -0.504 A  
HETATM    4  C   UNL     1     -11.640  11.853  66.738  1.00  0.00    -0.341 A  
HETATM    5  C   UNL     1     -10.482  11.892  67.533  1.00  0.00    -0.209 A  
HETATM    6  C   UNL     1      -8.502  13.300  68.394  1.00  0.00    -0.128 C  
HETATM    7  C   UNL     1      -9.703  13.068  67.512  1.00  0.00    -0.206 A  
HETATM    8  C   UNL     1     -10.025  14.103  66.609  1.00  0.00    -0.280 A  
ENDROOT
BRANCH   5   9
HETATM    9  S   UNL     1      -9.999  10.512  68.580  1.00  0.00    -0.190 SA 
BRANCH   9  10
HETATM   10  C   UNL     1     -11.137  10.498  69.976  1.00  0.00    -0.308 A  
HETATM   11  C   UNL     1     -11.869  11.684  70.194  1.00  0.00    -0.428 A  
HETATM   12  C   UNL     1     -12.874  11.747  71.156  1.00  0.00    -0.365 A  
HETATM   13  C   UNL     1     -13.160  10.624  71.916  1.00  0.00    -0.563 A  
HETATM   14  C   UNL     1     -12.454   9.437  71.698  1.00  0.00    -0.460 A  
HETATM   15  C   UNL     1     -11.440   9.321  70.721  1.00  0.00    -0.292 A  
BRANCH  15  16
HETATM   16  N   UNL     1     -10.859   8.084  70.479  1.00  0.00    -0.238 NA 
HETATM   17  C   UNL     1     -11.660   6.884  70.181  1.00  0.00    -0.289 C  
HETATM   18  C   UNL     1     -10.921   6.029  69.121  1.00  0.00    -0.359 C  
HETATM   19  N   UNL     1      -9.525   5.691  69.476  1.00  0.00    -0.132 NA 
HETATM   20  C   UNL     1      -8.794   6.926  69.844  1.00  0.00    -0.142 C  
HETATM   21  H   UNL     1      -9.054   5.171  68.736  1.00  0.00     0.000 HD 
HETATM   22  C   UNL     1      -9.506   7.745  70.947  1.00  0.00    -0.160 C  
ENDBRANCH  15  16
ENDBRANCH   9  10
ENDBRANCH   5   9
TORSDOF 3
ENDMDL
MODEL       69
REMARK 921   NORMALIZED FREE ENERGY PREDICTED BY IDOCK:   -5.29 KCAL/MOL
REMARK 922        TOTAL FREE ENERGY PREDICTED BY IDOCK:   -6.91 KCAL/MOL
REMARK 923 INTER-LIGAND FREE ENERGY PREDICTED BY IDOCK:   -6.25 KCAL/MOL
REMARK 924 INTRA-LIGAND FREE ENERGY PREDICTED BY IDOCK:   -0.66 KCAL/MOL
REMARK 927      BINDING AFFINITY PREDICTED BY RF-SCORE:    0.00 PKD
ROOT
HETATM    1  C   UNL     1     -11.172  15.479  64.842  1.00  0.00    -0.396 C  
HETATM    2  C   UNL     1     -11.394  14.342  65.796  1.00  0.00    -0.330 A  
HETATM    3  C   UNL     1     -11.384  13.016  65.366  1.00  0.00    -0.327 A  
HETATM    4  C   UNL     1     -11.516  11.968  66.295  1.00  0.00    -0.408 A  
HETATM    5  C   UNL     1     -11.663  12.222  67.669  1.00  0.00    -0.334 A  
HETATM    6  C   UNL     1     -12.055  13.985  69.509  1.00  0.00    -0.397 C  
HETATM    7  C   UNL     1     -11.777  13.565  68.087  1.00  0.00    -0.396 A  
HETATM    8  C   UNL     1     -11.609  14.605  67.149  1.00  0.00    -0.394 A  
ENDROOT
BRANCH   5   9
HETATM    9  S   UNL     1     -11.739  10.894  68.880  1.00  0.00    -0.266 SA 
BRANCH   9  10
HETATM   10  C   UNL     1     -10.039  10.407  69.222  1.00  0.00    -0.230 A  
HETATM   11  C   UNL     1      -9.034  11.244  68.693  1.00  0.00    -0.148 A  
HETATM   12  C   UNL     1      -7.691  11.045  69.003  1.00  0.00    -0.132 A  
HETATM   13  C   UNL     1      -7.334  10.004  69.846  1.00  0.00    -0.163 A  
HETATM   14  C   UNL     1      -8.322   9.178  70.390  1.00  0.00    -0.206 A  
HETATM   15  C   UNL     1      -9.696   9.354  70.119  1.00  0.00    -0.235 A  
BRANCH  15  16
HETATM   16  N   UNL     1     -10.632   8.571  70.782  1.00  0.00    -0.201 NA 
HETATM   17  C   UNL     1     -11.335   9.040  71.989  1.00  0.00    -0.324 C  
HETATM   18  C   UNL     1     -12.798   8.531  71.955  1.00  0.00    -0.374 C  
HETATM   19  N   UNL     1     -12.931   7.070  71.768  1.00  0.00    -0.478 NA 
HETATM   20  C   UNL     1     -12.138   6.647  70.589  1.00  0.00    -0.281 C  
HETATM   21  H   UNL     1     -13.906   6.778  71.700  1.00  0.00     0.000 HD 
HETATM   22  C   UNL     1     -10.662   7.105  70.658  1.00  0.00    -0.235 C  
ENDBRANCH  15  16
ENDBRANCH   9  10
ENDBRANCH   5   9
TORSDOF 3
ENDMDL
MODEL       70
REMARK 921   NORMALIZED FREE ENERGY PREDICTED BY IDOCK:   -5.28 KCAL/MOL
REMARK 922        TOTAL FREE ENERGY PREDICTED BY IDOCK:   -6.90 KCAL/MOL
REMARK 923 INTER-LIGAND FREE ENERGY PREDICTED BY IDOCK:   -6.88 KCAL/MOL
REMARK 924 INTRA-LIGAND FREE ENERGY PREDICTED BY IDOCK:   -0.02 KCAL/MOL
REMARK 927      BINDING AFFINITY PREDICTED BY RF-SCORE:    0.00 PKD
ROOT
HETATM    1  C   UNL     1     -10.007   8.012  69.082  1.00  0.00    -0.188 C  
HETATM    2  C   UNL     1     -10.573   9.349  68.700  1.00  0.00    -0.230 A  
HETATM    3  C   UNL     1     -11.294  10.124  69.609  1.00  0.00    -0.289 A  
HETATM    4  C   UNL     1     -11.743  11.406  69.246  1.00  0.00    -0.404 A  
HETATM    5  C   UNL     1     -11.486  11.941  67.973  1.00  0.00    -0.323 A  
HETATM    6  C   UNL     1     -10.612  11.508  65.587  1.00  0.00    -0.326 C  
HETATM    7  C   UNL     1     -10.848  11.115  67.023  1.00  0.00    -0.338 A  
HETATM    8  C   UNL     1     -10.373   9.844  67.411  1.00  0.00    -0.301 A  
ENDROOT
BRANCH   5   9
HETATM    9  S   UNL     1     -11.972  13.614  67.526  1.00  0.00    -0.323 SA 
BRANCH   9  10
HETATM   10  C   UNL     1     -11.959  14.580  69.046  1.00  0.00    -0.299 A  
HETATM   11  C   UNL     1     -12.638  14.016  70.147  1.00  0.00    -0.310 A  
HETATM   12  C   UNL     1     -12.584  14.605  71.408  1.00  0.00    -0.404 A  
HETATM   13  C   UNL     1     -11.849  15.767  71.585  1.00  0.00    -0.539 A  
HETATM   14  C   UNL     1     -11.158  16.326  70.506  1.00  0.00    -0.293 A  
HETATM   15  C   UNL     1     -11.169  15.754  69.215  1.00  0.00    -0.324 A  
BRANCH  15  16
HETATM   16  N   UNL     1     -10.369  16.295  68.218  1.00  0.00    -0.261 NA 
HETATM   17  C   UNL     1      -9.018  15.783  67.930  1.00  0.00    -0.180 C  
HETATM   18  C   UNL     1      -8.773  15.827  66.401  1.00  0.00    -0.337 C  
HETATM   19  N   UNL     1      -9.009  17.150  65.783  1.00  0.00    -0.501 NA 
HETATM   20  C   UNL     1     -10.348  17.648  66.174  1.00  0.00    -0.334 C  
HETATM   21  H   UNL     1      -8.886  17.129  64.771  1.00  0.00     0.000 HD 
HETATM   22  C   UNL     1     -10.565  17.661  67.706  1.00  0.00    -0.378 C  
ENDBRANCH  15  16
ENDBRANCH   9  10
ENDBRANCH   5   9
TORSDOF 3
ENDMDL
MODEL       71
REMARK 921   NORMALIZED FREE ENERGY PREDICTED BY IDOCK:   -5.20 KCAL/MOL
REMARK 922        TOTAL FREE ENERGY PREDICTED BY IDOCK:   -6.80 KCAL/MOL
REMARK 923 INTER-LIGAND FREE ENERGY PREDICTED BY IDOCK:   -6.09 KCAL/MOL
REMARK 924 INTRA-LIGAND FREE ENERGY PREDICTED BY IDOCK:   -0.71 KCAL/MOL
REMARK 927      BINDING AFFINITY PREDICTED BY RF-SCORE:    0.00 PKD
ROOT
HETATM    1  C   UNL     1      -6.338  20.547  65.127  1.00  0.00    -0.312 C  
HETATM    2  C   UNL     1      -7.241  19.511  65.729  1.00  0.00    -0.314 A  
HETATM    3  C   UNL     1      -6.853  18.175  65.833  1.00  0.00    -0.333 A  
HETATM    4  C   UNL     1      -7.688  17.243  66.474  1.00  0.00    -0.325 A  
HETATM    5  C   UNL     1      -8.926  17.621  67.020  1.00  0.00    -0.250 A  
HETATM    6  C   UNL     1     -10.713  19.465  67.246  1.00  0.00    -0.603 C  
HETATM    7  C   UNL     1      -9.361  18.948  66.821  1.00  0.00    -0.343 A  
HETATM    8  C   UNL     1      -8.499  19.881  66.207  1.00  0.00    -0.373 A  
ENDROOT
BRANCH   5   9
HETATM    9  S   UNL     1      -9.963  16.461  67.923  1.00  0.00    -0.249 SA 
BRANCH   9  10
HETATM   10  C   UNL     1      -9.116  14.872  67.886  1.00  0.00    -0.182 A  
HETATM   11  C   UNL     1      -8.225  14.617  68.951  1.00  0.00    -0.145 A  
HETATM   12  C   UNL     1      -7.616  13.374  69.101  1.00  0.00     0.200 A  
HETATM   13  C   UNL     1      -7.889  12.368  68.188  1.00  0.00    -0.146 A  
HETATM   14  C   UNL     1      -8.783  12.602  67.139  1.00  0.00    -0.201 A  
HETATM   15  C   UNL     1      -9.438  13.840  66.958  1.00  0.00    -0.255 A  
BRANCH  15  16
HETATM   16  N   UNL     1     -10.399  13.969  65.965  1.00  0.00    -0.297 NA 
HETATM   17  C   UNL     1     -11.500  13.003  65.807  1.00  0.00    -0.332 C  
HETATM   18  C   UNL     1     -12.786  13.761  65.393  1.00  0.00    -0.410 C  
HETATM   19  N   UNL     1     -12.630  14.624  64.202  1.00  0.00    -0.816 NA 
HETATM   20  C   UNL     1     -11.460  15.515  64.387  1.00  0.00    -0.259 C  
HETATM   21  H   UNL     1     -13.480  15.145  63.990  1.00  0.00     0.000 HD 
HETATM   22  C   UNL     1     -10.164  14.747  64.738  1.00  0.00    -0.143 C  
ENDBRANCH  15  16
ENDBRANCH   9  10
ENDBRANCH   5   9
TORSDOF 3
ENDMDL
MODEL       72
REMARK 921   NORMALIZED FREE ENERGY PREDICTED BY IDOCK:   -5.19 KCAL/MOL
REMARK 922        TOTAL FREE ENERGY PREDICTED BY IDOCK:   -6.79 KCAL/MOL
REMARK 923 INTER-LIGAND FREE ENERGY PREDICTED BY IDOCK:   -6.07 KCAL/MOL
REMARK 924 INTRA-LIGAND FREE ENERGY PREDICTED BY IDOCK:   -0.72 KCAL/MOL
REMARK 927      BINDING AFFINITY PREDICTED BY RF-SCORE:    0.00 PKD
ROOT
HETATM    1  C   UNL     1     -13.144  15.350  72.517  1.00  0.00    -0.518 C  
HETATM    2  C   UNL     1     -12.691  14.912  71.155  1.00  0.00    -0.411 A  
HETATM    3  C   UNL     1     -12.500  15.826  70.120  1.00  0.00    -0.240 A  
HETATM    4  C   UNL     1     -11.999  15.396  68.878  1.00  0.00    -0.298 A  
HETATM    5  C   UNL     1     -11.682  14.047  68.643  1.00  0.00    -0.354 A  
HETATM    6  C   UNL     1     -11.800  11.620  69.504  1.00  0.00    -0.414 C  
HETATM    7  C   UNL     1     -11.975  13.111  69.656  1.00  0.00    -0.370 A  
HETATM    8  C   UNL     1     -12.445  13.561  70.908  1.00  0.00    -0.448 A  
ENDROOT
BRANCH   5   9
HETATM    9  S   UNL     1     -10.954  13.496  67.093  1.00  0.00    -0.296 SA 
BRANCH   9  10
HETATM   10  C   UNL     1      -9.188  13.307  67.390  1.00  0.00    -0.216 A  
HETATM   11  C   UNL     1      -8.691  11.987  67.365  1.00  0.00    -0.170 A  
HETATM   12  C   UNL     1      -7.325  11.728  67.448  1.00  0.00    -0.136 A  
HETATM   13  C   UNL     1      -6.437  12.786  67.557  1.00  0.00    -0.161 A  
HETATM   14  C   UNL     1      -6.915  14.100  67.565  1.00  0.00    -0.173 A  
HETATM   15  C   UNL     1      -8.289  14.411  67.465  1.00  0.00    -0.187 A  
BRANCH  15  16
HETATM   16  N   UNL     1      -8.686  15.737  67.363  1.00  0.00    -0.178 NA 
HETATM   17  C   UNL     1      -9.094  16.339  66.082  1.00  0.00    -0.341 C  
HETATM   18  C   UNL     1     -10.264  17.323  66.332  1.00  0.00    -0.331 C  
HETATM   19  N   UNL     1      -9.991  18.346  67.365  1.00  0.00    -0.320 NA 
HETATM   20  C   UNL     1      -9.508  17.687  68.600  1.00  0.00    -0.284 C  
HETATM   21  H   UNL     1     -10.799  18.944  67.538  1.00  0.00     0.000 HD 
HETATM   22  C   UNL     1      -8.299  16.753  68.355  1.00  0.00    -0.222 C  
ENDBRANCH  15  16
ENDBRANCH   9  10
ENDBRANCH   5   9
TORSDOF 3
ENDMDL
MODEL       73
REMARK 921   NORMALIZED FREE ENERGY PREDICTED BY IDOCK:   -5.18 KCAL/MOL
REMARK 922        TOTAL FREE ENERGY PREDICTED BY IDOCK:   -6.79 KCAL/MOL
REMARK 923 INTER-LIGAND FREE ENERGY PREDICTED BY IDOCK:   -5.86 KCAL/MOL
REMARK 924 INTRA-LIGAND FREE ENERGY PREDICTED BY IDOCK:   -0.92 KCAL/MOL
REMARK 927      BINDING AFFINITY PREDICTED BY RF-SCORE:    0.00 PKD
ROOT
HETATM    1  C   UNL     1     -10.338   4.794  66.157  1.00  0.00    -0.337 C  
HETATM    2  C   UNL     1     -10.044   5.896  67.133  1.00  0.00    -0.213 A  
HETATM    3  C   UNL     1     -10.780   7.081  67.140  1.00  0.00    -0.433 A  
HETATM    4  C   UNL     1     -10.534   8.061  68.118  1.00  0.00    -0.222 A  
HETATM    5  C   UNL     1      -9.549   7.883  69.104  1.00  0.00    -0.153 A  
HETATM    6  C   UNL     1      -7.569   6.462  69.945  1.00  0.00    -0.100 C  
HETATM    7  C   UNL     1      -8.737   6.731  69.030  1.00  0.00    -0.130 A  
HETATM    8  C   UNL     1      -9.018   5.740  68.066  1.00  0.00    -0.111 A  
ENDROOT
BRANCH   5   9
HETATM    9  S   UNL     1      -9.285   9.086  70.415  1.00  0.00    -0.229 SA 
BRANCH   9  10
HETATM   10  C   UNL     1     -10.894   9.400  71.160  1.00  0.00    -0.357 A  
HETATM   11  C   UNL     1     -11.594  10.526  70.678  1.00  0.00    -0.445 A  
HETATM   12  C   UNL     1     -12.900  10.792  71.081  1.00  0.00    -0.513 A  
HETATM   13  C   UNL     1     -13.525   9.936  71.973  1.00  0.00    -0.478 A  
HETATM   14  C   UNL     1     -12.850   8.806  72.445  1.00  0.00    -0.434 A  
HETATM   15  C   UNL     1     -11.532   8.487  72.050  1.00  0.00    -0.361 A  
BRANCH  15  16
HETATM   16  N   UNL     1     -10.962   7.291  72.466  1.00  0.00    -0.262 NA 
HETATM   17  C   UNL     1     -11.505   5.981  72.068  1.00  0.00    -0.287 C  
HETATM   18  C   UNL     1     -10.334   4.996  71.827  1.00  0.00    -0.200 C  
HETATM   19  N   UNL     1      -9.388   4.885  72.960  1.00  0.00    -0.129 NA 
HETATM   20  C   UNL     1      -8.940   6.237  73.366  1.00  0.00    -0.124 C  
HETATM   21  H   UNL     1      -8.605   4.268  72.748  1.00  0.00     0.000 HD 
HETATM   22  C   UNL     1     -10.115   7.199  73.666  1.00  0.00    -0.346 C  
ENDBRANCH  15  16
ENDBRANCH   9  10
ENDBRANCH   5   9
TORSDOF 3
ENDMDL
MODEL       74
REMARK 921   NORMALIZED FREE ENERGY PREDICTED BY IDOCK:   -5.13 KCAL/MOL
REMARK 922        TOTAL FREE ENERGY PREDICTED BY IDOCK:   -6.72 KCAL/MOL
REMARK 923 INTER-LIGAND FREE ENERGY PREDICTED BY IDOCK:   -5.87 KCAL/MOL
REMARK 924 INTRA-LIGAND FREE ENERGY PREDICTED BY IDOCK:   -0.85 KCAL/MOL
REMARK 927      BINDING AFFINITY PREDICTED BY RF-SCORE:    0.00 PKD
ROOT
HETATM    1  C   UNL     1      -7.286  17.412  67.315  1.00  0.00    -0.192 C  
HETATM    2  C   UNL     1      -8.200  16.259  67.018  1.00  0.00    -0.238 A  
HETATM    3  C   UNL     1      -8.065  15.034  67.670  1.00  0.00    -0.184 A  
HETATM    4  C   UNL     1      -8.985  13.998  67.428  1.00  0.00    -0.208 A  
HETATM    5  C   UNL     1     -10.054  14.161  66.531  1.00  0.00    -0.280 A  
HETATM    6  C   UNL     1     -11.144  15.634  64.717  1.00  0.00    -0.426 C  
HETATM    7  C   UNL     1     -10.126  15.364  65.796  1.00  0.00    -0.391 A  
HETATM    8  C   UNL     1      -9.217  16.407  66.074  1.00  0.00    -0.328 A  
ENDROOT
BRANCH   5   9
HETATM    9  S   UNL     1     -11.292  12.881  66.280  1.00  0.00    -0.341 SA 
BRANCH   9  10
HETATM   10  C   UNL     1     -10.555  11.655  65.186  1.00  0.00    -0.290 A  
HETATM   11  C   UNL     1     -10.559  11.966  63.810  1.00  0.00    -0.475 A  
HETATM   12  C   UNL     1      -9.900  11.160  62.885  1.00  0.00    -0.323 A  
HETATM   13  C   UNL     1      -9.227  10.031  63.323  1.00  0.00    -0.317 A  
HETATM   14  C   UNL     1      -9.200   9.721  64.686  1.00  0.00    -0.312 A  
HETATM   15  C   UNL     1      -9.838  10.518  65.662  1.00  0.00    -0.252 A  
BRANCH  15  16
HETATM   16  N   UNL     1      -9.676  10.217  67.007  1.00  0.00    -0.170 NA 
HETATM   17  C   UNL     1      -8.348  10.027  67.615  1.00  0.00    -0.114 C  
HETATM   18  C   UNL     1      -8.353  10.622  69.046  1.00  0.00    -0.152 C  
HETATM   19  N   UNL     1      -9.439  10.114  69.913  1.00  0.00    -0.387 NA 
HETATM   20  C   UNL     1     -10.738  10.258  69.216  1.00  0.00    -0.234 C  
HETATM   21  H   UNL     1      -9.442  10.563  70.829  1.00  0.00     0.000 HD 
HETATM   22  C   UNL     1     -10.746   9.607  67.812  1.00  0.00    -0.257 C  
ENDBRANCH  15  16
ENDBRANCH   9  10
ENDBRANCH   5   9
TORSDOF 3
ENDMDL
MODEL       75
REMARK 921   NORMALIZED FREE ENERGY PREDICTED BY IDOCK:   -5.11 KCAL/MOL
REMARK 922        TOTAL FREE ENERGY PREDICTED BY IDOCK:   -6.70 KCAL/MOL
REMARK 923 INTER-LIGAND FREE ENERGY PREDICTED BY IDOCK:   -5.90 KCAL/MOL
REMARK 924 INTRA-LIGAND FREE ENERGY PREDICTED BY IDOCK:   -0.80 KCAL/MOL
REMARK 927      BINDING AFFINITY PREDICTED BY RF-SCORE:    0.00 PKD
ROOT
HETATM    1  C   UNL     1      -5.865   9.165  70.779  1.00  0.00    -0.042 C  
HETATM    2  C   UNL     1      -7.245   9.580  70.359  1.00  0.00    -0.130 A  
HETATM    3  C   UNL     1      -7.449  10.531  69.359  1.00  0.00    -0.141 A  
HETATM    4  C   UNL     1      -8.753  10.841  68.933  1.00  0.00    -0.154 A  
HETATM    5  C   UNL     1      -9.877  10.214  69.496  1.00  0.00    -0.232 A  
HETATM    6  C   UNL     1     -10.787   8.678  71.355  1.00  0.00    -0.339 C  
HETATM    7  C   UNL     1      -9.673   9.332  70.578  1.00  0.00    -0.316 A  
HETATM    8  C   UNL     1      -8.358   9.004  70.972  1.00  0.00    -0.237 A  
ENDROOT
BRANCH   5   9
HETATM    9  S   UNL     1     -11.544  10.531  68.898  1.00  0.00    -0.135 SA 
BRANCH   9  10
HETATM   10  C   UNL     1     -12.173  11.933  69.837  1.00  0.00    -0.199 A  
HETATM   11  C   UNL     1     -12.685  11.643  71.120  1.00  0.00    -0.426 A  
HETATM   12  C   UNL     1     -13.074  12.660  71.989  1.00  0.00    -0.471 A  
HETATM   13  C   UNL     1     -12.957  13.981  71.587  1.00  0.00    -0.430 A  
HETATM   14  C   UNL     1     -12.435  14.282  70.325  1.00  0.00    -0.422 A  
HETATM   15  C   UNL     1     -12.011  13.286  69.419  1.00  0.00    -0.301 A  
BRANCH  15  16
HETATM   16  N   UNL     1     -11.396  13.657  68.231  1.00  0.00    -0.271 NA 
HETATM   17  C   UNL     1     -10.046  14.245  68.195  1.00  0.00    -0.232 C  
HETATM   18  C   UNL     1      -9.292  13.713  66.950  1.00  0.00    -0.257 C  
HETATM   19  N   UNL     1     -10.014  13.901  65.673  1.00  0.00    -0.439 NA 
HETATM   20  C   UNL     1     -11.389  13.363  65.797  1.00  0.00    -0.305 C  
HETATM   21  H   UNL     1      -9.512  13.495  64.883  1.00  0.00     0.000 HD 
HETATM   22  C   UNL     1     -12.159  13.946  67.006  1.00  0.00    -0.415 C  
ENDBRANCH  15  16
ENDBRANCH   9  10
ENDBRANCH   5   9
TORSDOF 3
ENDMDL
MODEL       76
REMARK 921   NORMALIZED FREE ENERGY PREDICTED BY IDOCK:   -5.11 KCAL/MOL
REMARK 922        TOTAL FREE ENERGY PREDICTED BY IDOCK:   -6.70 KCAL/MOL
REMARK 923 INTER-LIGAND FREE ENERGY PREDICTED BY IDOCK:   -6.27 KCAL/MOL
REMARK 924 INTRA-LIGAND FREE ENERGY PREDICTED BY IDOCK:   -0.42 KCAL/MOL
REMARK 927      BINDING AFFINITY PREDICTED BY RF-SCORE:    0.00 PKD
ROOT
HETATM    1  C   UNL     1     -13.213  15.618  72.911  1.00  0.00    -0.630 C  
HETATM    2  C   UNL     1     -12.964  14.529  71.909  1.00  0.00    -0.415 A  
HETATM    3  C   UNL     1     -12.515  14.811  70.619  1.00  0.00    -0.407 A  
HETATM    4  C   UNL     1     -12.215  13.765  69.728  1.00  0.00    -0.368 A  
HETATM    5  C   UNL     1     -12.361  12.419  70.103  1.00  0.00    -0.136 A  
HETATM    6  C   UNL     1     -13.237  10.750  71.861  1.00  0.00    -0.524 C  
HETATM    7  C   UNL     1     -12.914  12.139  71.370  1.00  0.00    -0.357 A  
HETATM    8  C   UNL     1     -13.178  13.197  72.265  1.00  0.00    -0.555 A  
ENDROOT
BRANCH   5   9
HETATM    9  S   UNL     1     -11.894  11.070  69.008  1.00  0.00    -0.288 SA 
BRANCH   9  10
HETATM   10  C   UNL     1     -10.094  11.013  68.996  1.00  0.00    -0.180 A  
HETATM   11  C   UNL     1      -9.441  12.113  68.401  1.00  0.00    -0.179 A  
HETATM   12  C   UNL     1      -8.055  12.244  68.452  1.00  0.00    -0.151 A  
HETATM   13  C   UNL     1      -7.303  11.276  69.097  1.00  0.00    -0.104 A  
HETATM   14  C   UNL     1      -7.939  10.190  69.706  1.00  0.00    -0.172 A  
HETATM   15  C   UNL     1      -9.342  10.025  69.696  1.00  0.00    -0.220 A  
BRANCH  15  16
HETATM   16  N   UNL     1      -9.916   8.986  70.417  1.00  0.00    -0.190 NA 
HETATM   17  C   UNL     1      -9.863   8.928  71.888  1.00  0.00    -0.294 C  
HETATM   18  C   UNL     1     -11.201   8.358  72.423  1.00  0.00    -0.368 C  
HETATM   19  N   UNL     1     -11.593   7.061  71.829  1.00  0.00    -0.267 NA 
HETATM   20  C   UNL     1     -11.548   7.159  70.351  1.00  0.00    -0.258 C  
HETATM   21  H   UNL     1     -12.500   6.742  72.166  1.00  0.00     0.000 HD 
HETATM   22  C   UNL     1     -10.188   7.670  69.819  1.00  0.00    -0.210 C  
ENDBRANCH  15  16
ENDBRANCH   9  10
ENDBRANCH   5   9
TORSDOF 3
ENDMDL
MODEL       77
REMARK 921   NORMALIZED FREE ENERGY PREDICTED BY IDOCK:   -5.10 KCAL/MOL
REMARK 922        TOTAL FREE ENERGY PREDICTED BY IDOCK:   -6.68 KCAL/MOL
REMARK 923 INTER-LIGAND FREE ENERGY PREDICTED BY IDOCK:   -5.93 KCAL/MOL
REMARK 924 INTRA-LIGAND FREE ENERGY PREDICTED BY IDOCK:   -0.76 KCAL/MOL
REMARK 927      BINDING AFFINITY PREDICTED BY RF-SCORE:    0.00 PKD
ROOT
HETATM    1  C   UNL     1     -11.170  14.617  65.844  1.00  0.00    -0.336 C  
HETATM    2  C   UNL     1     -10.867  13.522  66.824  1.00  0.00    -0.284 A  
HETATM    3  C   UNL     1     -11.877  12.740  67.382  1.00  0.00    -0.404 A  
HETATM    4  C   UNL     1     -11.555  11.670  68.236  1.00  0.00    -0.378 A  
HETATM    5  C   UNL     1     -10.222  11.362  68.555  1.00  0.00    -0.208 A  
HETATM    6  C   UNL     1      -7.751  12.083  68.428  1.00  0.00    -0.138 C  
HETATM    7  C   UNL     1      -9.210  12.219  68.074  1.00  0.00    -0.195 A  
HETATM    8  C   UNL     1      -9.545  13.267  67.190  1.00  0.00    -0.240 A  
ENDROOT
BRANCH   5   9
HETATM    9  S   UNL     1      -9.789   9.942  69.571  1.00  0.00    -0.234 SA 
BRANCH   9  10
HETATM   10  C   UNL     1     -10.220   8.475  68.619  1.00  0.00    -0.197 A  
HETATM   11  C   UNL     1      -9.829   8.475  67.264  1.00  0.00    -0.259 A  
HETATM   12  C   UNL     1      -9.987   7.345  66.466  1.00  0.00    -0.194 A  
HETATM   13  C   UNL     1     -10.540   6.198  67.012  1.00  0.00    -0.384 A  
HETATM   14  C   UNL     1     -10.916   6.179  68.359  1.00  0.00    -0.391 A  
HETATM   15  C   UNL     1     -10.757   7.294  69.210  1.00  0.00    -0.198 A  
BRANCH  15  16
HETATM   16  N   UNL     1     -11.044   7.171  70.563  1.00  0.00    -0.262 NA 
HETATM   17  C   UNL     1     -10.296   6.259  71.445  1.00  0.00    -0.210 C  
HETATM   18  C   UNL     1     -10.119   6.925  72.833  1.00  0.00    -0.189 C  
HETATM   19  N   UNL     1     -11.381   7.386  73.453  1.00  0.00    -0.600 NA 
HETATM   20  C   UNL     1     -12.126   8.231  72.490  1.00  0.00    -0.337 C  
HETATM   21  H   UNL     1     -11.222   7.863  74.340  1.00  0.00     0.000 HD 
HETATM   22  C   UNL     1     -12.353   7.537  71.126  1.00  0.00    -0.291 C  
ENDBRANCH  15  16
ENDBRANCH   9  10
ENDBRANCH   5   9
TORSDOF 3
ENDMDL
MODEL       78
REMARK 921   NORMALIZED FREE ENERGY PREDICTED BY IDOCK:   -5.07 KCAL/MOL
REMARK 922        TOTAL FREE ENERGY PREDICTED BY IDOCK:   -6.65 KCAL/MOL
REMARK 923 INTER-LIGAND FREE ENERGY PREDICTED BY IDOCK:   -6.02 KCAL/MOL
REMARK 924 INTRA-LIGAND FREE ENERGY PREDICTED BY IDOCK:   -0.62 KCAL/MOL
REMARK 927      BINDING AFFINITY PREDICTED BY RF-SCORE:    0.00 PKD
ROOT
HETATM    1  C   UNL     1     -13.039  14.463  73.060  1.00  0.00    -0.581 C  
HETATM    2  C   UNL     1     -12.508  14.593  71.663  1.00  0.00    -0.410 A  
HETATM    3  C   UNL     1     -12.085  15.820  71.153  1.00  0.00    -0.475 A  
HETATM    4  C   UNL     1     -11.519  15.897  69.868  1.00  0.00    -0.344 A  
HETATM    5  C   UNL     1     -11.365  14.754  69.066  1.00  0.00    -0.275 A  
HETATM    6  C   UNL     1     -11.902  12.253  68.745  1.00  0.00    -0.356 C  
HETATM    7  C   UNL     1     -11.888  13.533  69.542  1.00  0.00    -0.392 A  
HETATM    8  C   UNL     1     -12.423  13.465  70.846  1.00  0.00    -0.439 A  
ENDROOT
BRANCH   5   9
HETATM    9  S   UNL     1     -10.558  14.820  67.459  1.00  0.00    -0.263 SA 
BRANCH   9  10
HETATM   10  C   UNL     1      -8.827  14.406  67.733  1.00  0.00    -0.186 A  
HETATM   11  C   UNL     1      -8.509  13.032  67.739  1.00  0.00    -0.188 A  
HETATM   12  C   UNL     1      -7.188  12.596  67.807  1.00  0.00    -0.127 A  
HETATM   13  C   UNL     1      -6.166  13.530  67.870  1.00  0.00    -0.154 A  
HETATM   14  C   UNL     1      -6.466  14.895  67.847  1.00  0.00    -0.177 A  
HETATM   15  C   UNL     1      -7.788  15.383  67.760  1.00  0.00    -0.143 A  
BRANCH  15  16
HETATM   16  N   UNL     1      -8.010  16.747  67.626  1.00  0.00    -0.173 NA 
HETATM   17  C   UNL     1      -8.533  17.570  68.729  1.00  0.00    -0.213 C  
HETATM   18  C   UNL     1      -7.845  18.958  68.698  1.00  0.00    -0.340 C  
HETATM   19  N   UNL     1      -7.933  19.654  67.396  1.00  0.00    -0.269 NA 
HETATM   20  C   UNL     1      -7.471  18.748  66.318  1.00  0.00    -0.262 C  
HETATM   21  H   UNL     1      -7.428  20.540  67.397  1.00  0.00     0.000 HD 
HETATM   22  C   UNL     1      -8.206  17.386  66.315  1.00  0.00    -0.253 C  
ENDBRANCH  15  16
ENDBRANCH   9  10
ENDBRANCH   5   9
TORSDOF 3
ENDMDL
MODEL       79
REMARK 921   NORMALIZED FREE ENERGY PREDICTED BY IDOCK:   -5.05 KCAL/MOL
REMARK 922        TOTAL FREE ENERGY PREDICTED BY IDOCK:   -6.63 KCAL/MOL
REMARK 923 INTER-LIGAND FREE ENERGY PREDICTED BY IDOCK:   -6.13 KCAL/MOL
REMARK 924 INTRA-LIGAND FREE ENERGY PREDICTED BY IDOCK:   -0.50 KCAL/MOL
REMARK 927      BINDING AFFINITY PREDICTED BY RF-SCORE:    0.00 PKD
ROOT
HETATM    1  C   UNL     1     -13.220   8.865  72.392  1.00  0.00    -0.482 C  
HETATM    2  C   UNL     1     -12.432   9.548  71.312  1.00  0.00    -0.432 A  
HETATM    3  C   UNL     1     -13.017  10.492  70.468  1.00  0.00    -0.289 A  
HETATM    4  C   UNL     1     -12.235  11.173  69.517  1.00  0.00    -0.347 A  
HETATM    5  C   UNL     1     -10.858  10.924  69.387  1.00  0.00    -0.240 A  
HETATM    6  C   UNL     1      -8.860   9.437  70.053  1.00  0.00    -0.231 C  
HETATM    7  C   UNL     1     -10.293   9.895  70.169  1.00  0.00    -0.336 A  
HETATM    8  C   UNL     1     -11.081   9.244  71.142  1.00  0.00    -0.411 A  
ENDROOT
BRANCH   5   9
HETATM    9  S   UNL     1      -9.827  11.851  68.241  1.00  0.00    -0.198 SA 
BRANCH   9  10
HETATM   10  C   UNL     1     -10.665  11.818  66.647  1.00  0.00    -0.263 A  
HETATM   11  C   UNL     1     -11.686  12.775  66.461  1.00  0.00    -0.463 A  
HETATM   12  C   UNL     1     -12.311  12.933  65.227  1.00  0.00    -0.544 A  
HETATM   13  C   UNL     1     -11.924  12.136  64.161  1.00  0.00    -0.497 A  
HETATM   14  C   UNL     1     -10.902  11.197  64.327  1.00  0.00    -0.354 A  
HETATM   15  C   UNL     1     -10.228  11.014  65.555  1.00  0.00    -0.268 A  
BRANCH  15  16
HETATM   16  N   UNL     1      -9.146  10.146  65.621  1.00  0.00    -0.169 NA 
HETATM   17  C   UNL     1      -9.242   8.818  66.252  1.00  0.00    -0.207 C  
HETATM   18  C   UNL     1      -8.390   7.808  65.443  1.00  0.00    -0.136 C  
HETATM   19  N   UNL     1      -6.985   8.224  65.235  1.00  0.00    -0.066 NA 
HETATM   20  C   UNL     1      -6.953   9.596  64.676  1.00  0.00    -0.112 C  
HETATM   21  H   UNL     1      -6.469   7.561  64.659  1.00  0.00     0.000 HD 
HETATM   22  C   UNL     1      -7.755  10.613  65.522  1.00  0.00    -0.083 C  
ENDBRANCH  15  16
ENDBRANCH   9  10
ENDBRANCH   5   9
TORSDOF 3
ENDMDL
MODEL       80
REMARK 921   NORMALIZED FREE ENERGY PREDICTED BY IDOCK:   -4.99 KCAL/MOL
REMARK 922        TOTAL FREE ENERGY PREDICTED BY IDOCK:   -6.56 KCAL/MOL
REMARK 923 INTER-LIGAND FREE ENERGY PREDICTED BY IDOCK:   -6.09 KCAL/MOL
REMARK 924 INTRA-LIGAND FREE ENERGY PREDICTED BY IDOCK:   -0.47 KCAL/MOL
REMARK 927      BINDING AFFINITY PREDICTED BY RF-SCORE:    0.00 PKD
ROOT
HETATM    1  C   UNL     1      -7.096  20.695  66.531  1.00  0.00    -0.275 C  
HETATM    2  C   UNL     1      -7.905  19.578  67.122  1.00  0.00    -0.287 A  
HETATM    3  C   UNL     1      -9.111  19.819  67.781  1.00  0.00    -0.412 A  
HETATM    4  C   UNL     1      -9.886  18.745  68.255  1.00  0.00    -0.418 A  
HETATM    5  C   UNL     1      -9.474  17.412  68.085  1.00  0.00    -0.288 A  
HETATM    6  C   UNL     1      -7.582  15.812  67.374  1.00  0.00    -0.220 C  
HETATM    7  C   UNL     1      -8.206  17.178  67.512  1.00  0.00    -0.196 A  
HETATM    8  C   UNL     1      -7.455  18.262  67.011  1.00  0.00    -0.229 A  
ENDROOT
BRANCH   5   9
HETATM    9  S   UNL     1     -10.497  16.026  68.602  1.00  0.00    -0.266 SA 
BRANCH   9  10
HETATM   10  C   UNL     1     -10.994  15.163  67.101  1.00  0.00    -0.326 A  
HETATM   11  C   UNL     1     -11.010  15.931  65.918  1.00  0.00    -0.151 A  
HETATM   12  C   UNL     1     -11.248  15.342  64.678  1.00  0.00    -0.374 A  
HETATM   13  C   UNL     1     -11.473  13.977  64.605  1.00  0.00    -0.389 A  
HETATM   14  C   UNL     1     -11.442  13.202  65.767  1.00  0.00    -0.355 A  
HETATM   15  C   UNL     1     -11.187  13.751  67.043  1.00  0.00    -0.311 A  
BRANCH  15  16
HETATM   16  N   UNL     1     -11.057  12.910  68.139  1.00  0.00    -0.239 NA 
HETATM   17  C   UNL     1     -11.952  12.996  69.307  1.00  0.00    -0.278 C  
HETATM   18  C   UNL     1     -12.237  11.568  69.836  1.00  0.00    -0.258 C  
HETATM   19  N   UNL     1     -11.024  10.771  70.123  1.00  0.00    -0.458 NA 
HETATM   20  C   UNL     1     -10.128  10.789  68.943  1.00  0.00    -0.205 C  
HETATM   21  H   UNL     1     -11.249   9.822  70.422  1.00  0.00     0.000 HD 
HETATM   22  C   UNL     1      -9.797  12.220  68.457  1.00  0.00    -0.153 C  
ENDBRANCH  15  16
ENDBRANCH   9  10
ENDBRANCH   5   9
TORSDOF 3
ENDMDL
MODEL       81
REMARK 921   NORMALIZED FREE ENERGY PREDICTED BY IDOCK:   -4.97 KCAL/MOL
REMARK 922        TOTAL FREE ENERGY PREDICTED BY IDOCK:   -6.54 KCAL/MOL
REMARK 923 INTER-LIGAND FREE ENERGY PREDICTED BY IDOCK:   -5.78 KCAL/MOL
REMARK 924 INTRA-LIGAND FREE ENERGY PREDICTED BY IDOCK:   -0.76 KCAL/MOL
REMARK 927      BINDING AFFINITY PREDICTED BY RF-SCORE:    0.00 PKD
ROOT
HETATM    1  C   UNL     1     -12.423  12.718  63.475  1.00  0.00    -0.474 C  
HETATM    2  C   UNL     1     -11.823  12.369  64.805  1.00  0.00    -0.442 A  
HETATM    3  C   UNL     1     -11.027  11.236  64.973  1.00  0.00    -0.226 A  
HETATM    4  C   UNL     1     -10.414  10.978  66.212  1.00  0.00    -0.310 A  
HETATM    5  C   UNL     1     -10.585  11.840  67.308  1.00  0.00    -0.224 A  
HETATM    6  C   UNL     1     -11.846  13.865  68.286  1.00  0.00    -0.412 C  
HETATM    7  C   UNL     1     -11.474  12.926  67.166  1.00  0.00    -0.388 A  
HETATM    8  C   UNL     1     -12.054  13.193  65.907  1.00  0.00    -0.501 A  
ENDROOT
BRANCH   5   9
HETATM    9  S   UNL     1      -9.735  11.574  68.871  1.00  0.00     0.026 SA 
BRANCH   9  10
HETATM   10  C   UNL     1     -10.840  10.593  69.901  1.00  0.00    -0.241 A  
HETATM   11  C   UNL     1     -11.929  11.282  70.476  1.00  0.00    -0.467 A  
HETATM   12  C   UNL     1     -12.922  10.604  71.179  1.00  0.00    -0.483 A  
HETATM   13  C   UNL     1     -12.838   9.228  71.318  1.00  0.00    -0.354 A  
HETATM   14  C   UNL     1     -11.774   8.531  70.738  1.00  0.00    -0.228 A  
HETATM   15  C   UNL     1     -10.755   9.174  70.001  1.00  0.00    -0.232 A  
BRANCH  15  16
HETATM   16  N   UNL     1      -9.790   8.412  69.356  1.00  0.00    -0.181 NA 
HETATM   17  C   UNL     1     -10.050   7.740  68.071  1.00  0.00    -0.186 C  
HETATM   18  C   UNL     1      -8.774   7.807  67.194  1.00  0.00    -0.125 C  
HETATM   19  N   UNL     1      -7.554   7.293  67.853  1.00  0.00    -0.108 NA 
HETATM   20  C   UNL     1      -7.391   7.946  69.173  1.00  0.00    -0.083 C  
HETATM   21  H   UNL     1      -6.726   7.399  67.267  1.00  0.00     0.000 HD 
HETATM   22  C   UNL     1      -8.646   7.822  70.069  1.00  0.00    -0.140 C  
ENDBRANCH  15  16
ENDBRANCH   9  10
ENDBRANCH   5   9
TORSDOF 3
ENDMDL
MODEL       82
REMARK 921   NORMALIZED FREE ENERGY PREDICTED BY IDOCK:   -4.96 KCAL/MOL
REMARK 922        TOTAL FREE ENERGY PREDICTED BY IDOCK:   -6.52 KCAL/MOL
REMARK 923 INTER-LIGAND FREE ENERGY PREDICTED BY IDOCK:   -5.93 KCAL/MOL
REMARK 924 INTRA-LIGAND FREE ENERGY PREDICTED BY IDOCK:   -0.59 KCAL/MOL
REMARK 927      BINDING AFFINITY PREDICTED BY RF-SCORE:    0.00 PKD
ROOT
HETATM    1  C   UNL     1      -5.563   9.894  67.352  1.00  0.00    -0.042 C  
HETATM    2  C   UNL     1      -6.848  10.601  67.669  1.00  0.00    -0.074 A  
HETATM    3  C   UNL     1      -6.883  11.970  67.933  1.00  0.00    -0.087 A  
HETATM    4  C   UNL     1      -8.113  12.618  68.149  1.00  0.00    -0.164 A  
HETATM    5  C   UNL     1      -9.329  11.916  68.110  1.00  0.00    -0.191 A  
HETATM    6  C   UNL     1     -10.492   9.618  68.003  1.00  0.00    -0.276 C  
HETATM    7  C   UNL     1      -9.281  10.515  67.948  1.00  0.00    -0.143 A  
HETATM    8  C   UNL     1      -8.045   9.884  67.698  1.00  0.00    -0.110 A  
ENDROOT
BRANCH   5   9
HETATM    9  S   UNL     1     -10.914  12.746  68.292  1.00  0.00    -0.267 SA 
BRANCH   9  10
HETATM   10  C   UNL     1     -10.806  14.281  67.356  1.00  0.00    -0.285 A  
HETATM   11  C   UNL     1     -10.448  15.432  68.088  1.00  0.00    -0.247 A  
HETATM   12  C   UNL     1     -10.203  16.646  67.451  1.00  0.00    -0.286 A  
HETATM   13  C   UNL     1     -10.312  16.725  66.072  1.00  0.00    -0.346 A  
HETATM   14  C   UNL     1     -10.648  15.587  65.333  1.00  0.00    -0.428 A  
HETATM   15  C   UNL     1     -10.888  14.332  65.934  1.00  0.00    -0.300 A  
BRANCH  15  16
HETATM   16  N   UNL     1     -11.104  13.219  65.133  1.00  0.00    -0.291 NA 
HETATM   17  C   UNL     1     -12.437  12.611  64.976  1.00  0.00    -0.487 C  
HETATM   18  C   UNL     1     -12.606  12.128  63.514  1.00  0.00    -0.506 C  
HETATM   19  N   UNL     1     -11.529  11.233  63.039  1.00  0.00    -0.818 NA 
HETATM   20  C   UNL     1     -10.212  11.862  63.298  1.00  0.00    -0.395 C  
HETATM   21  H   UNL     1     -11.646  10.975  62.059  1.00  0.00     0.000 HD 
HETATM   22  C   UNL     1     -10.024  12.286  64.774  1.00  0.00    -0.190 C  
ENDBRANCH  15  16
ENDBRANCH   9  10
ENDBRANCH   5   9
TORSDOF 3
ENDMDL
MODEL       83
REMARK 921   NORMALIZED FREE ENERGY PREDICTED BY IDOCK:   -4.95 KCAL/MOL
REMARK 922        TOTAL FREE ENERGY PREDICTED BY IDOCK:   -6.52 KCAL/MOL
REMARK 923 INTER-LIGAND FREE ENERGY PREDICTED BY IDOCK:   -5.68 KCAL/MOL
REMARK 924 INTRA-LIGAND FREE ENERGY PREDICTED BY IDOCK:   -0.83 KCAL/MOL
REMARK 927      BINDING AFFINITY PREDICTED BY RF-SCORE:    0.00 PKD
ROOT
HETATM    1  C   UNL     1     -13.795  15.400  72.603  1.00  0.00    -0.625 C  
HETATM    2  C   UNL     1     -13.016  14.851  71.444  1.00  0.00    -0.427 A  
HETATM    3  C   UNL     1     -12.725  13.491  71.338  1.00  0.00    -0.423 A  
HETATM    4  C   UNL     1     -12.063  12.994  70.201  1.00  0.00    -0.377 A  
HETATM    5  C   UNL     1     -11.674  13.842  69.150  1.00  0.00    -0.338 A  
HETATM    6  C   UNL     1     -11.407  16.268  68.320  1.00  0.00    -0.280 C  
HETATM    7  C   UNL     1     -11.876  15.229  69.308  1.00  0.00    -0.353 A  
HETATM    8  C   UNL     1     -12.572  15.709  70.437  1.00  0.00    -0.376 A  
ENDROOT
BRANCH   5   9
HETATM    9  S   UNL     1     -10.910  13.210  67.649  1.00  0.00    -0.260 SA 
BRANCH   9  10
HETATM   10  C   UNL     1      -9.143  13.091  67.979  1.00  0.00    -0.210 A  
HETATM   11  C   UNL     1      -8.446  14.314  68.084  1.00  0.00    -0.167 A  
HETATM   12  C   UNL     1      -7.108  14.351  68.468  1.00  0.00    -0.109 A  
HETATM   13  C   UNL     1      -6.448  13.166  68.752  1.00  0.00    -0.095 A  
HETATM   14  C   UNL     1      -7.132  11.950  68.669  1.00  0.00    -0.102 A  
HETATM   15  C   UNL     1      -8.493  11.865  68.302  1.00  0.00    -0.161 A  
BRANCH  15  16
HETATM   16  N   UNL     1      -9.141  10.638  68.351  1.00  0.00    -0.149 NA 
HETATM   17  C   UNL     1      -9.391   9.931  69.619  1.00  0.00    -0.228 C  
HETATM   18  C   UNL     1     -10.775   9.237  69.550  1.00  0.00    -0.222 C  
HETATM   19  N   UNL     1     -10.957   8.354  68.377  1.00  0.00    -0.428 NA 
HETATM   20  C   UNL     1     -10.612   9.096  67.141  1.00  0.00    -0.216 C  
HETATM   21  H   UNL     1     -11.894   7.955  68.338  1.00  0.00     0.000 HD 
HETATM   22  C   UNL     1      -9.204   9.735  67.191  1.00  0.00    -0.138 C  
ENDBRANCH  15  16
ENDBRANCH   9  10
ENDBRANCH   5   9
TORSDOF 3
ENDMDL
MODEL       84
REMARK 921   NORMALIZED FREE ENERGY PREDICTED BY IDOCK:   -4.94 KCAL/MOL
REMARK 922        TOTAL FREE ENERGY PREDICTED BY IDOCK:   -6.50 KCAL/MOL
REMARK 923 INTER-LIGAND FREE ENERGY PREDICTED BY IDOCK:   -6.69 KCAL/MOL
REMARK 924 INTRA-LIGAND FREE ENERGY PREDICTED BY IDOCK:    0.18 KCAL/MOL
REMARK 927      BINDING AFFINITY PREDICTED BY RF-SCORE:    0.00 PKD
ROOT
HETATM    1  C   UNL     1      -7.715   6.531  70.817  1.00  0.00    -0.101 C  
HETATM    2  C   UNL     1      -8.809   7.557  70.881  1.00  0.00    -0.144 A  
HETATM    3  C   UNL     1      -8.560   8.906  70.629  1.00  0.00    -0.224 A  
HETATM    4  C   UNL     1      -9.619   9.831  70.619  1.00  0.00    -0.097 A  
HETATM    5  C   UNL     1     -10.944   9.433  70.862  1.00  0.00    -0.320 A  
HETATM    6  C   UNL     1     -12.525   7.543  71.620  1.00  0.00    -0.371 C  
HETATM    7  C   UNL     1     -11.177   8.088  71.219  1.00  0.00    -0.287 A  
HETATM    8  C   UNL     1     -10.111   7.164  71.192  1.00  0.00    -0.193 A  
ENDROOT
BRANCH   5   9
HETATM    9  S   UNL     1     -12.320  10.587  70.761  1.00  0.00    -0.411 SA 
BRANCH   9  10
HETATM   10  C   UNL     1     -11.905  11.775  69.473  1.00  0.00    -0.337 A  
HETATM   11  C   UNL     1     -11.643  11.241  68.193  1.00  0.00    -0.359 A  
HETATM   12  C   UNL     1     -11.444  12.069  67.092  1.00  0.00    -0.401 A  
HETATM   13  C   UNL     1     -11.502  13.444  67.254  1.00  0.00    -0.374 A  
HETATM   14  C   UNL     1     -11.777  13.986  68.513  1.00  0.00    -0.387 A  
HETATM   15  C   UNL     1     -12.004  13.186  69.654  1.00  0.00    -0.306 A  
BRANCH  15  16
HETATM   16  N   UNL     1     -12.385  13.784  70.847  1.00  0.00    -0.367 NA 
HETATM   17  C   UNL     1     -11.524  14.750  71.552  1.00  0.00    -0.139 C  
HETATM   18  C   UNL     1     -12.409  15.859  72.176  1.00  0.00    -0.477 C  
HETATM   19  N   UNL     1     -13.500  15.355  73.038  1.00  0.00    -0.506 NA 
HETATM   20  C   UNL     1     -14.279  14.331  72.304  1.00  0.00    -0.496 C  
HETATM   21  H   UNL     1     -14.091  16.108  73.391  1.00  0.00     0.000 HD 
HETATM   22  C   UNL     1     -13.397  13.193  71.737  1.00  0.00    -0.389 C  
ENDBRANCH  15  16
ENDBRANCH   9  10
ENDBRANCH   5   9
TORSDOF 3
ENDMDL
MODEL       85
REMARK 921   NORMALIZED FREE ENERGY PREDICTED BY IDOCK:   -4.94 KCAL/MOL
REMARK 922        TOTAL FREE ENERGY PREDICTED BY IDOCK:   -6.50 KCAL/MOL
REMARK 923 INTER-LIGAND FREE ENERGY PREDICTED BY IDOCK:   -5.63 KCAL/MOL
REMARK 924 INTRA-LIGAND FREE ENERGY PREDICTED BY IDOCK:   -0.87 KCAL/MOL
REMARK 927      BINDING AFFINITY PREDICTED BY RF-SCORE:    0.00 PKD
ROOT
HETATM    1  C   UNL     1      -9.988  10.902  63.846  1.00  0.00    -0.400 C  
HETATM    2  C   UNL     1      -9.880  10.603  65.313  1.00  0.00    -0.334 A  
HETATM    3  C   UNL     1     -10.243   9.361  65.833  1.00  0.00    -0.123 A  
HETATM    4  C   UNL     1     -10.057   9.084  67.199  1.00  0.00    -0.309 A  
HETATM    5  C   UNL     1      -9.510  10.038  68.073  1.00  0.00    -0.137 A  
HETATM    6  C   UNL     1      -8.766  12.484  68.407  1.00  0.00    -0.122 C  
HETATM    7  C   UNL     1      -9.243  11.327  67.565  1.00  0.00    -0.159 A  
HETATM    8  C   UNL     1      -9.402  11.580  66.186  1.00  0.00    -0.230 A  
ENDROOT
BRANCH   5   9
HETATM    9  S   UNL     1      -9.180   9.668  69.803  1.00  0.00    -0.231 SA 
BRANCH   9  10
HETATM   10  C   UNL     1     -10.772   9.668  70.645  1.00  0.00    -0.322 A  
HETATM   11  C   UNL     1     -11.449  10.905  70.696  1.00  0.00    -0.227 A  
HETATM   12  C   UNL     1     -12.743  10.999  71.201  1.00  0.00    -0.521 A  
HETATM   13  C   UNL     1     -13.378   9.858  71.664  1.00  0.00    -0.481 A  
HETATM   14  C   UNL     1     -12.725   8.624  71.603  1.00  0.00    -0.379 A  
HETATM   15  C   UNL     1     -11.421   8.477  71.082  1.00  0.00    -0.276 A  
BRANCH  15  16
HETATM   16  N   UNL     1     -10.876   7.207  70.945  1.00  0.00    -0.239 NA 
HETATM   17  C   UNL     1     -11.329   6.265  69.907  1.00  0.00    -0.434 C  
HETATM   18  C   UNL     1     -10.110   5.472  69.373  1.00  0.00    -0.236 C  
HETATM   19  N   UNL     1      -9.312   4.800  70.422  1.00  0.00    -0.139 NA 
HETATM   20  C   UNL     1      -8.956   5.779  71.476  1.00  0.00    -0.140 C  
HETATM   21  H   UNL     1      -8.492   4.330  70.041  1.00  0.00     0.000 HD 
HETATM   22  C   UNL     1     -10.185   6.524  72.050  1.00  0.00    -0.193 C  
ENDBRANCH  15  16
ENDBRANCH   9  10
ENDBRANCH   5   9
TORSDOF 3
ENDMDL
MODEL       86
REMARK 921   NORMALIZED FREE ENERGY PREDICTED BY IDOCK:   -4.93 KCAL/MOL
REMARK 922        TOTAL FREE ENERGY PREDICTED BY IDOCK:   -6.49 KCAL/MOL
REMARK 923 INTER-LIGAND FREE ENERGY PREDICTED BY IDOCK:   -5.87 KCAL/MOL
REMARK 924 INTRA-LIGAND FREE ENERGY PREDICTED BY IDOCK:   -0.62 KCAL/MOL
REMARK 927      BINDING AFFINITY PREDICTED BY RF-SCORE:    0.00 PKD
ROOT
HETATM    1  C   UNL     1     -10.703  12.451  64.611  1.00  0.00    -0.339 C  
HETATM    2  C   UNL     1     -10.246  11.770  65.868  1.00  0.00    -0.272 A  
HETATM    3  C   UNL     1      -9.604  12.473  66.888  1.00  0.00    -0.229 A  
HETATM    4  C   UNL     1      -9.259  11.823  68.087  1.00  0.00    -0.186 A  
HETATM    5  C   UNL     1      -9.542  10.463  68.292  1.00  0.00    -0.144 A  
HETATM    6  C   UNL     1     -10.345   8.245  67.252  1.00  0.00    -0.372 C  
HETATM    7  C   UNL     1     -10.096   9.732  67.219  1.00  0.00    -0.261 A  
HETATM    8  C   UNL     1     -10.469  10.403  66.036  1.00  0.00    -0.211 A  
ENDROOT
BRANCH   5   9
HETATM    9  S   UNL     1      -9.191   9.641  69.853  1.00  0.00    -0.237 SA 
BRANCH   9  10
HETATM   10  C   UNL     1     -10.723   9.654  70.800  1.00  0.00    -0.331 A  
HETATM   11  C   UNL     1     -11.732  10.527  70.340  1.00  0.00    -0.434 A  
HETATM   12  C   UNL     1     -13.003  10.525  70.909  1.00  0.00    -0.455 A  
HETATM   13  C   UNL     1     -13.283   9.651  71.947  1.00  0.00    -0.538 A  
HETATM   14  C   UNL     1     -12.298   8.769  72.401  1.00  0.00    -0.414 A  
HETATM   15  C   UNL     1     -11.002   8.722  71.842  1.00  0.00    -0.365 A  
BRANCH  15  16
HETATM   16  N   UNL     1     -10.109   7.745  72.261  1.00  0.00    -0.205 NA 
HETATM   17  C   UNL     1      -8.966   8.050  73.139  1.00  0.00    -0.267 C  
HETATM   18  C   UNL     1      -8.760   6.878  74.131  1.00  0.00    -0.167 C  
HETATM   19  N   UNL     1      -8.628   5.552  73.489  1.00  0.00    -0.115 NA 
HETATM   20  C   UNL     1      -9.762   5.337  72.559  1.00  0.00    -0.150 C  
HETATM   21  H   UNL     1      -8.544   4.800  74.173  1.00  0.00     0.000 HD 
HETATM   22  C   UNL     1      -9.924   6.482  71.530  1.00  0.00    -0.175 C  
ENDBRANCH  15  16
ENDBRANCH   9  10
ENDBRANCH   5   9
TORSDOF 3
ENDMDL
MODEL       87
REMARK 921   NORMALIZED FREE ENERGY PREDICTED BY IDOCK:   -4.88 KCAL/MOL
REMARK 922        TOTAL FREE ENERGY PREDICTED BY IDOCK:   -6.42 KCAL/MOL
REMARK 923 INTER-LIGAND FREE ENERGY PREDICTED BY IDOCK:   -5.64 KCAL/MOL
REMARK 924 INTRA-LIGAND FREE ENERGY PREDICTED BY IDOCK:   -0.78 KCAL/MOL
REMARK 927      BINDING AFFINITY PREDICTED BY RF-SCORE:    0.00 PKD
ROOT
HETATM    1  C   UNL     1      -8.226  15.607  67.085  1.00  0.00    -0.244 C  
HETATM    2  C   UNL     1      -8.725  14.200  67.233  1.00  0.00    -0.229 A  
HETATM    3  C   UNL     1      -8.052  13.266  68.020  1.00  0.00    -0.157 A  
HETATM    4  C   UNL     1      -8.586  11.977  68.203  1.00  0.00    -0.173 A  
HETATM    5  C   UNL     1      -9.797  11.594  67.604  1.00  0.00    -0.186 A  
HETATM    6  C   UNL     1     -11.657  12.191  65.921  1.00  0.00    -0.425 C  
HETATM    7  C   UNL     1     -10.420  12.505  66.725  1.00  0.00    -0.243 A  
HETATM    8  C   UNL     1      -9.891  13.805  66.578  1.00  0.00    -0.294 A  
ENDROOT
BRANCH   5   9
HETATM    9  S   UNL     1     -10.541   9.983  67.902  1.00  0.00    -0.267 SA 
BRANCH   9  10
HETATM   10  C   UNL     1     -11.285  10.053  69.541  1.00  0.00    -0.208 A  
HETATM   11  C   UNL     1     -12.092  11.179  69.810  1.00  0.00    -0.414 A  
HETATM   12  C   UNL     1     -12.826  11.276  70.990  1.00  0.00    -0.395 A  
HETATM   13  C   UNL     1     -12.762  10.249  71.917  1.00  0.00    -0.478 A  
HETATM   14  C   UNL     1     -11.980   9.120  71.655  1.00  0.00    -0.437 A  
HETATM   15  C   UNL     1     -11.235   8.970  70.466  1.00  0.00    -0.260 A  
BRANCH  15  16
HETATM   16  N   UNL     1     -10.572   7.775  70.218  1.00  0.00    -0.226 NA 
HETATM   17  C   UNL     1     -11.267   6.583  69.701  1.00  0.00    -0.384 C  
HETATM   18  C   UNL     1     -10.338   5.845  68.705  1.00  0.00    -0.219 C  
HETATM   19  N   UNL     1      -9.001   5.517  69.246  1.00  0.00    -0.111 NA 
HETATM   20  C   UNL     1      -8.388   6.736  69.823  1.00  0.00    -0.132 C  
HETATM   21  H   UNL     1      -8.401   5.077  68.550  1.00  0.00     0.000 HD 
HETATM   22  C   UNL     1      -9.295   7.435  70.864  1.00  0.00    -0.155 C  
ENDBRANCH  15  16
ENDBRANCH   9  10
ENDBRANCH   5   9
TORSDOF 3
ENDMDL
MODEL       88
REMARK 921   NORMALIZED FREE ENERGY PREDICTED BY IDOCK:   -4.87 KCAL/MOL
REMARK 922        TOTAL FREE ENERGY PREDICTED BY IDOCK:   -6.42 KCAL/MOL
REMARK 923 INTER-LIGAND FREE ENERGY PREDICTED BY IDOCK:   -5.82 KCAL/MOL
REMARK 924 INTRA-LIGAND FREE ENERGY PREDICTED BY IDOCK:   -0.60 KCAL/MOL
REMARK 927      BINDING AFFINITY PREDICTED BY RF-SCORE:    0.00 PKD
ROOT
HETATM    1  C   UNL     1     -13.417   9.488  72.222  1.00  0.00    -0.521 C  
HETATM    2  C   UNL     1     -12.390   9.879  71.200  1.00  0.00    -0.466 A  
HETATM    3  C   UNL     1     -12.699  10.734  70.143  1.00  0.00    -0.232 A  
HETATM    4  C   UNL     1     -11.696  11.145  69.247  1.00  0.00    -0.401 A  
HETATM    5  C   UNL     1     -10.368  10.709  69.383  1.00  0.00    -0.208 A  
HETATM    6  C   UNL     1      -8.730   9.118  70.580  1.00  0.00    -0.272 C  
HETATM    7  C   UNL     1     -10.080   9.762  70.389  1.00  0.00    -0.313 A  
HETATM    8  C   UNL     1     -11.089   9.386  71.302  1.00  0.00    -0.446 A  
ENDROOT
BRANCH   5   9
HETATM    9  S   UNL     1      -9.056  11.298  68.302  1.00  0.00    -0.177 SA 
BRANCH   9  10
HETATM   10  C   UNL     1      -9.760  11.412  66.649  1.00  0.00    -0.200 A  
HETATM   11  C   UNL     1     -10.097  12.708  66.204  1.00  0.00    -0.268 A  
HETATM   12  C   UNL     1     -10.523  12.936  64.898  1.00  0.00    -0.351 A  
HETATM   13  C   UNL     1     -10.618  11.870  64.018  1.00  0.00    -0.422 A  
HETATM   14  C   UNL     1     -10.271  10.583  64.440  1.00  0.00    -0.337 A  
HETATM   15  C   UNL     1      -9.817  10.308  65.749  1.00  0.00    -0.257 A  
BRANCH  15  16
HETATM   16  N   UNL     1      -9.379   9.030  66.069  1.00  0.00    -0.224 NA 
HETATM   17  C   UNL     1     -10.135   8.144  66.971  1.00  0.00    -0.280 C  
HETATM   18  C   UNL     1     -10.030   6.686  66.457  1.00  0.00    -0.084 C  
HETATM   19  N   UNL     1      -8.645   6.212  66.245  1.00  0.00    -0.131 NA 
HETATM   20  C   UNL     1      -7.913   7.184  65.399  1.00  0.00    -0.125 C  
HETATM   21  H   UNL     1      -8.615   5.268  65.860  1.00  0.00     0.000 HD 
HETATM   22  C   UNL     1      -7.969   8.628  65.950  1.00  0.00    -0.105 C  
ENDBRANCH  15  16
ENDBRANCH   9  10
ENDBRANCH   5   9
TORSDOF 3
ENDMDL
MODEL       89
REMARK 921   NORMALIZED FREE ENERGY PREDICTED BY IDOCK:   -4.87 KCAL/MOL
REMARK 922        TOTAL FREE ENERGY PREDICTED BY IDOCK:   -6.42 KCAL/MOL
REMARK 923 INTER-LIGAND FREE ENERGY PREDICTED BY IDOCK:   -6.70 KCAL/MOL
REMARK 924 INTRA-LIGAND FREE ENERGY PREDICTED BY IDOCK:    0.29 KCAL/MOL
REMARK 927      BINDING AFFINITY PREDICTED BY RF-SCORE:    0.00 PKD
ROOT
HETATM    1  C   UNL     1     -10.070   5.373  73.608  1.00  0.00    -0.213 C  
HETATM    2  C   UNL     1     -10.398   6.403  72.567  1.00  0.00    -0.212 A  
HETATM    3  C   UNL     1     -10.538   7.752  72.893  1.00  0.00    -0.428 A  
HETATM    4  C   UNL     1     -10.768   8.704  71.883  1.00  0.00    -0.414 A  
HETATM    5  C   UNL     1     -10.867   8.331  70.533  1.00  0.00    -0.232 A  
HETATM    6  C   UNL     1     -11.041   6.400  68.833  1.00  0.00    -0.420 C  
HETATM    7  C   UNL     1     -10.830   6.956  70.220  1.00  0.00    -0.294 A  
HETATM    8  C   UNL     1     -10.565   6.015  71.237  1.00  0.00    -0.302 A  
ENDROOT
BRANCH   5   9
HETATM    9  S   UNL     1     -11.068   9.546  69.221  1.00  0.00    -0.007 SA 
BRANCH   9  10
HETATM   10  C   UNL     1     -11.899  10.966  69.954  1.00  0.00    -0.349 A  
HETATM   11  C   UNL     1     -12.544  10.741  71.189  1.00  0.00    -0.532 A  
HETATM   12  C   UNL     1     -13.103  11.790  71.914  1.00  0.00    -0.482 A  
HETATM   13  C   UNL     1     -13.026  13.080  71.414  1.00  0.00    -0.373 A  
HETATM   14  C   UNL     1     -12.375  13.319  70.200  1.00  0.00    -0.306 A  
HETATM   15  C   UNL     1     -11.778  12.290  69.440  1.00  0.00    -0.330 A  
BRANCH  15  16
HETATM   16  N   UNL     1     -11.048  12.611  68.303  1.00  0.00    -0.244 NA 
HETATM   17  C   UNL     1     -11.640  12.577  66.954  1.00  0.00    -0.370 C  
HETATM   18  C   UNL     1     -11.067  13.749  66.118  1.00  0.00    -0.296 C  
HETATM   19  N   UNL     1      -9.590  13.801  66.074  1.00  0.00    -0.468 NA 
HETATM   20  C   UNL     1      -9.051  13.750  67.454  1.00  0.00    -0.221 C  
HETATM   21  H   UNL     1      -9.248  14.612  65.558  1.00  0.00     0.000 HD 
HETATM   22  C   UNL     1      -9.579  12.543  68.265  1.00  0.00    -0.209 C  
ENDBRANCH  15  16
ENDBRANCH   9  10
ENDBRANCH   5   9
TORSDOF 3
ENDMDL
MODEL       90
REMARK 921   NORMALIZED FREE ENERGY PREDICTED BY IDOCK:   -4.87 KCAL/MOL
REMARK 922        TOTAL FREE ENERGY PREDICTED BY IDOCK:   -6.41 KCAL/MOL
REMARK 923 INTER-LIGAND FREE ENERGY PREDICTED BY IDOCK:   -5.71 KCAL/MOL
REMARK 924 INTRA-LIGAND FREE ENERGY PREDICTED BY IDOCK:   -0.71 KCAL/MOL
REMARK 927      BINDING AFFINITY PREDICTED BY RF-SCORE:    0.00 PKD
ROOT
HETATM    1  C   UNL     1     -10.095   4.498  65.936  1.00  0.00    -0.279 C  
HETATM    2  C   UNL     1      -9.819   5.836  66.559  1.00  0.00    -0.193 A  
HETATM    3  C   UNL     1     -10.846   6.736  66.840  1.00  0.00    -0.402 A  
HETATM    4  C   UNL     1     -10.565   7.949  67.496  1.00  0.00    -0.312 A  
HETATM    5  C   UNL     1      -9.258   8.289  67.880  1.00  0.00    -0.132 A  
HETATM    6  C   UNL     1      -6.748   7.715  67.739  1.00  0.00    -0.067 C  
HETATM    7  C   UNL     1      -8.209   7.425  67.500  1.00  0.00    -0.113 A  
HETATM    8  C   UNL     1      -8.509   6.196  66.874  1.00  0.00    -0.105 A  
ENDROOT
BRANCH   5   9
HETATM    9  S   UNL     1      -8.895   9.791  68.801  1.00  0.00    -0.134 SA 
BRANCH   9  10
HETATM   10  C   UNL     1     -10.432  10.296  69.593  1.00  0.00    -0.253 A  
HETATM   11  C   UNL     1     -10.801   9.578  70.750  1.00  0.00    -0.386 A  
HETATM   12  C   UNL     1     -11.894   9.963  71.521  1.00  0.00    -0.445 A  
HETATM   13  C   UNL     1     -12.635  11.072  71.145  1.00  0.00    -0.522 A  
HETATM   14  C   UNL     1     -12.270  11.803  70.011  1.00  0.00    -0.317 A  
HETATM   15  C   UNL     1     -11.159  11.460  69.209  1.00  0.00    -0.254 A  
BRANCH  15  16
HETATM   16  N   UNL     1     -10.784  12.293  68.164  1.00  0.00    -0.208 NA 
HETATM   17  C   UNL     1      -9.952  13.491  68.373  1.00  0.00    -0.232 C  
HETATM   18  C   UNL     1      -8.978  13.648  67.179  1.00  0.00    -0.231 C  
HETATM   19  N   UNL     1      -9.634  13.653  65.853  1.00  0.00    -0.490 NA 
HETATM   20  C   UNL     1     -10.518  12.470  65.734  1.00  0.00    -0.271 C  
HETATM   21  H   UNL     1      -8.960  13.708  65.090  1.00  0.00     0.000 HD 
HETATM   22  C   UNL     1     -11.531  12.352  66.897  1.00  0.00    -0.360 C  
ENDBRANCH  15  16
ENDBRANCH   9  10
ENDBRANCH   5   9
TORSDOF 3
ENDMDL
MODEL       91
REMARK 921   NORMALIZED FREE ENERGY PREDICTED BY IDOCK:   -4.86 KCAL/MOL
REMARK 922        TOTAL FREE ENERGY PREDICTED BY IDOCK:   -6.41 KCAL/MOL
REMARK 923 INTER-LIGAND FREE ENERGY PREDICTED BY IDOCK:   -5.61 KCAL/MOL
REMARK 924 INTRA-LIGAND FREE ENERGY PREDICTED BY IDOCK:   -0.80 KCAL/MOL
REMARK 927      BINDING AFFINITY PREDICTED BY RF-SCORE:    0.00 PKD
ROOT
HETATM    1  C   UNL     1     -12.278  14.122  65.993  1.00  0.00    -0.464 C  
HETATM    2  C   UNL     1     -11.717  12.851  66.559  1.00  0.00    -0.453 A  
HETATM    3  C   UNL     1     -11.903  12.502  67.896  1.00  0.00    -0.383 A  
HETATM    4  C   UNL     1     -11.433  11.267  68.378  1.00  0.00    -0.377 A  
HETATM    5  C   UNL     1     -10.766  10.359  67.539  1.00  0.00    -0.287 A  
HETATM    6  C   UNL     1      -9.681   9.941  65.238  1.00  0.00    -0.383 C  
HETATM    7  C   UNL     1     -10.488  10.759  66.216  1.00  0.00    -0.287 A  
HETATM    8  C   UNL     1     -10.995  11.986  65.736  1.00  0.00    -0.351 A  
ENDROOT
BRANCH   5   9
HETATM    9  S   UNL     1     -10.241   8.737  68.116  1.00  0.00    -0.208 SA 
BRANCH   9  10
HETATM   10  C   UNL     1      -8.751   8.994  69.095  1.00  0.00    -0.135 A  
HETATM   11  C   UNL     1      -7.744   9.782  68.499  1.00  0.00    -0.081 A  
HETATM   12  C   UNL     1      -6.607  10.159  69.209  1.00  0.00    -0.053 A  
HETATM   13  C   UNL     1      -6.461   9.752  70.526  1.00  0.00    -0.108 A  
HETATM   14  C   UNL     1      -7.460   8.986  71.134  1.00  0.00    -0.119 A  
HETATM   15  C   UNL     1      -8.637   8.596  70.459  1.00  0.00    -0.156 A  
BRANCH  15  16
HETATM   16  N   UNL     1      -9.640   7.934  71.154  1.00  0.00    -0.158 NA 
HETATM   17  C   UNL     1     -10.363   8.558  72.276  1.00  0.00    -0.332 C  
HETATM   18  C   UNL     1     -11.849   8.123  72.228  1.00  0.00    -0.382 C  
HETATM   19  N   UNL     1     -12.055   6.659  72.182  1.00  0.00    -0.459 NA 
HETATM   20  C   UNL     1     -11.241   6.079  71.088  1.00  0.00    -0.261 C  
HETATM   21  H   UNL     1     -13.041   6.411  72.101  1.00  0.00     0.000 HD 
HETATM   22  C   UNL     1      -9.745   6.466  71.176  1.00  0.00    -0.175 C  
ENDBRANCH  15  16
ENDBRANCH   9  10
ENDBRANCH   5   9
TORSDOF 3
ENDMDL
MODEL       92
REMARK 921   NORMALIZED FREE ENERGY PREDICTED BY IDOCK:   -4.86 KCAL/MOL
REMARK 922        TOTAL FREE ENERGY PREDICTED BY IDOCK:   -6.40 KCAL/MOL
REMARK 923 INTER-LIGAND FREE ENERGY PREDICTED BY IDOCK:   -5.74 KCAL/MOL
REMARK 924 INTRA-LIGAND FREE ENERGY PREDICTED BY IDOCK:   -0.66 KCAL/MOL
REMARK 927      BINDING AFFINITY PREDICTED BY RF-SCORE:    0.00 PKD
ROOT
HETATM    1  C   UNL     1     -13.111   8.796  72.315  1.00  0.00    -0.458 C  
HETATM    2  C   UNL     1     -12.100   9.341  71.350  1.00  0.00    -0.424 A  
HETATM    3  C   UNL     1     -12.420  10.366  70.459  1.00  0.00    -0.403 A  
HETATM    4  C   UNL     1     -11.430  10.910  69.621  1.00  0.00    -0.377 A  
HETATM    5  C   UNL     1     -10.106  10.443  69.651  1.00  0.00    -0.190 A  
HETATM    6  C   UNL     1      -8.467   8.655  70.525  1.00  0.00    -0.160 C  
HETATM    7  C   UNL     1      -9.811   9.337  70.477  1.00  0.00    -0.310 A  
HETATM    8  C   UNL     1     -10.805   8.824  71.337  1.00  0.00    -0.359 A  
ENDROOT
BRANCH   5   9
HETATM    9  S   UNL     1      -8.808  11.190  68.654  1.00  0.00    -0.129 SA 
BRANCH   9  10
HETATM   10  C   UNL     1      -9.415  11.224  66.958  1.00  0.00    -0.171 A  
HETATM   11  C   UNL     1      -9.616   9.970  66.344  1.00  0.00    -0.248 A  
HETATM   12  C   UNL     1     -10.207   9.869  65.086  1.00  0.00    -0.027 A  
HETATM   13  C   UNL     1     -10.604  11.020  64.426  1.00  0.00    -0.395 A  
HETATM   14  C   UNL     1     -10.426  12.268  65.031  1.00  0.00    -0.322 A  
HETATM   15  C   UNL     1      -9.849  12.418  66.311  1.00  0.00    -0.247 A  
BRANCH  15  16
HETATM   16  N   UNL     1      -9.806  13.674  66.901  1.00  0.00    -0.254 NA 
HETATM   17  C   UNL     1      -8.569  14.471  66.964  1.00  0.00    -0.217 C  
HETATM   18  C   UNL     1      -8.917  15.967  66.763  1.00  0.00    -0.246 C  
HETATM   19  N   UNL     1      -9.956  16.481  67.681  1.00  0.00    -0.249 NA 
HETATM   20  C   UNL     1     -11.142  15.594  67.634  1.00  0.00    -0.305 C  
HETATM   21  H   UNL     1     -10.195  17.453  67.488  1.00  0.00     0.000 HD 
HETATM   22  C   UNL     1     -10.797  14.109  67.898  1.00  0.00    -0.245 C  
ENDBRANCH  15  16
ENDBRANCH   9  10
ENDBRANCH   5   9
TORSDOF 3
ENDMDL
MODEL       93
REMARK 921   NORMALIZED FREE ENERGY PREDICTED BY IDOCK:   -4.85 KCAL/MOL
REMARK 922        TOTAL FREE ENERGY PREDICTED BY IDOCK:   -6.40 KCAL/MOL
REMARK 923 INTER-LIGAND FREE ENERGY PREDICTED BY IDOCK:   -5.68 KCAL/MOL
REMARK 924 INTRA-LIGAND FREE ENERGY PREDICTED BY IDOCK:   -0.71 KCAL/MOL
REMARK 927      BINDING AFFINITY PREDICTED BY RF-SCORE:    0.00 PKD
ROOT
HETATM    1  C   UNL     1     -12.842  15.117  73.262  1.00  0.00    -0.640 C  
HETATM    2  C   UNL     1     -12.399  14.976  71.835  1.00  0.00    -0.413 A  
HETATM    3  C   UNL     1     -12.561  13.780  71.135  1.00  0.00    -0.452 A  
HETATM    4  C   UNL     1     -12.210  13.702  69.776  1.00  0.00    -0.350 A  
HETATM    5  C   UNL     1     -11.687  14.810  69.088  1.00  0.00    -0.313 A  
HETATM    6  C   UNL     1     -10.763  17.211  69.250  1.00  0.00    -0.146 C  
HETATM    7  C   UNL     1     -11.428  15.985  69.825  1.00  0.00    -0.318 A  
HETATM    8  C   UNL     1     -11.817  16.061  71.179  1.00  0.00    -0.465 A  
ENDROOT
BRANCH   5   9
HETATM    9  S   UNL     1     -11.320  14.753  67.328  1.00  0.00    -0.359 SA 
BRANCH   9  10
HETATM   10  C   UNL     1     -10.360  13.256  67.048  1.00  0.00    -0.246 A  
HETATM   11  C   UNL     1     -11.048  12.177  66.452  1.00  0.00    -0.358 A  
HETATM   12  C   UNL     1     -10.379  11.019  66.066  1.00  0.00    -0.311 A  
HETATM   13  C   UNL     1      -9.012  10.922  66.270  1.00  0.00    -0.188 A  
HETATM   14  C   UNL     1      -8.315  11.990  66.844  1.00  0.00    -0.159 A  
HETATM   15  C   UNL     1      -8.948  13.190  67.234  1.00  0.00    -0.216 A  
BRANCH  15  16
HETATM   16  N   UNL     1      -8.181  14.254  67.690  1.00  0.00    -0.170 NA 
HETATM   17  C   UNL     1      -7.721  15.331  66.797  1.00  0.00     0.059 C  
HETATM   18  C   UNL     1      -7.768  16.679  67.560  1.00  0.00    -0.165 C  
HETATM   19  N   UNL     1      -7.040  16.677  68.848  1.00  0.00    -0.193 NA 
HETATM   20  C   UNL     1      -7.487  15.526  69.667  1.00  0.00    -0.156 C  
HETATM   21  H   UNL     1      -7.134  17.562  69.344  1.00  0.00     0.000 HD 
HETATM   22  C   UNL     1      -7.379  14.174  68.922  1.00  0.00    -0.122 C  
ENDBRANCH  15  16
ENDBRANCH   9  10
ENDBRANCH   5   9
TORSDOF 3
ENDMDL
MODEL       94
REMARK 921   NORMALIZED FREE ENERGY PREDICTED BY IDOCK:   -4.85 KCAL/MOL
REMARK 922        TOTAL FREE ENERGY PREDICTED BY IDOCK:   -6.39 KCAL/MOL
REMARK 923 INTER-LIGAND FREE ENERGY PREDICTED BY IDOCK:   -5.61 KCAL/MOL
REMARK 924 INTRA-LIGAND FREE ENERGY PREDICTED BY IDOCK:   -0.79 KCAL/MOL
REMARK 927      BINDING AFFINITY PREDICTED BY RF-SCORE:    0.00 PKD
ROOT
HETATM    1  C   UNL     1     -13.136   9.636  72.309  1.00  0.00    -0.468 C  
HETATM    2  C   UNL     1     -12.645  10.577  71.248  1.00  0.00    -0.531 A  
HETATM    3  C   UNL     1     -12.081  10.109  70.061  1.00  0.00    -0.166 A  
HETATM    4  C   UNL     1     -11.703  11.013  69.052  1.00  0.00    -0.402 A  
HETATM    5  C   UNL     1     -11.875  12.398  69.207  1.00  0.00    -0.304 A  
HETATM    6  C   UNL     1     -12.472  14.335  70.800  1.00  0.00    -0.428 C  
HETATM    7  C   UNL     1     -12.347  12.874  70.448  1.00  0.00    -0.333 A  
HETATM    8  C   UNL     1     -12.755  11.954  71.438  1.00  0.00    -0.395 A  
ENDROOT
BRANCH   5   9
HETATM    9  S   UNL     1     -11.483  13.560  67.890  1.00  0.00    -0.339 SA 
BRANCH   9  10
HETATM   10  C   UNL     1      -9.717  13.896  68.006  1.00  0.00    -0.226 A  
HETATM   11  C   UNL     1      -9.344  14.992  68.813  1.00  0.00    -0.200 A  
HETATM   12  C   UNL     1      -8.006  15.266  69.086  1.00  0.00    -0.214 A  
HETATM   13  C   UNL     1      -7.022  14.448  68.554  1.00  0.00    -0.100 A  
HETATM   14  C   UNL     1      -7.379  13.349  67.767  1.00  0.00    -0.158 A  
HETATM   15  C   UNL     1      -8.722  13.022  67.480  1.00  0.00    -0.197 A  
BRANCH  15  16
HETATM   16  N   UNL     1      -9.011  11.853  66.789  1.00  0.00    -0.192 NA 
HETATM   17  C   UNL     1      -8.342  10.576  67.090  1.00  0.00    -0.127 C  
HETATM   18  C   UNL     1      -9.363   9.420  66.948  1.00  0.00    -0.147 C  
HETATM   19  N   UNL     1     -10.067   9.384  65.647  1.00  0.00    -0.360 NA 
HETATM   20  C   UNL     1     -10.648  10.717  65.362  1.00  0.00    -0.154 C  
HETATM   21  H   UNL     1     -10.765   8.643  65.607  1.00  0.00     0.000 HD 
HETATM   22  C   UNL     1      -9.609  11.861  65.444  1.00  0.00    -0.165 C  
ENDBRANCH  15  16
ENDBRANCH   9  10
ENDBRANCH   5   9
TORSDOF 3
ENDMDL
MODEL       95
REMARK 921   NORMALIZED FREE ENERGY PREDICTED BY IDOCK:   -4.85 KCAL/MOL
REMARK 922        TOTAL FREE ENERGY PREDICTED BY IDOCK:   -6.39 KCAL/MOL
REMARK 923 INTER-LIGAND FREE ENERGY PREDICTED BY IDOCK:   -5.81 KCAL/MOL
REMARK 924 INTRA-LIGAND FREE ENERGY PREDICTED BY IDOCK:   -0.58 KCAL/MOL
REMARK 927      BINDING AFFINITY PREDICTED BY RF-SCORE:    0.00 PKD
ROOT
HETATM    1  C   UNL     1     -12.213  13.108  65.681  1.00  0.00    -0.521 C  
HETATM    2  C   UNL     1     -11.429  12.387  66.738  1.00  0.00    -0.423 A  
HETATM    3  C   UNL     1     -11.750  12.500  68.091  1.00  0.00    -0.400 A  
HETATM    4  C   UNL     1     -11.047  11.750  69.051  1.00  0.00    -0.301 A  
HETATM    5  C   UNL     1     -10.010  10.877  68.683  1.00  0.00    -0.189 A  
HETATM    6  C   UNL     1      -8.450  10.046  66.806  1.00  0.00    -0.125 C  
HETATM    7  C   UNL     1      -9.619  10.844  67.328  1.00  0.00    -0.184 A  
HETATM    8  C   UNL     1     -10.355  11.575  66.371  1.00  0.00    -0.277 A  
ENDROOT
BRANCH   5   9
HETATM    9  S   UNL     1      -9.164   9.842  69.887  1.00  0.00    -0.220 SA 
BRANCH   9  10
HETATM   10  C   UNL     1     -10.417   8.783  70.630  1.00  0.00    -0.210 A  
HETATM   11  C   UNL     1     -11.204   9.368  71.645  1.00  0.00    -0.431 A  
HETATM   12  C   UNL     1     -12.289   8.693  72.198  1.00  0.00    -0.452 A  
HETATM   13  C   UNL     1     -12.602   7.421  71.744  1.00  0.00    -0.367 A  
HETATM   14  C   UNL     1     -11.841   6.837  70.727  1.00  0.00    -0.446 A  
HETATM   15  C   UNL     1     -10.744   7.491  70.125  1.00  0.00    -0.239 A  
BRANCH  15  16
HETATM   16  N   UNL     1     -10.103   6.902  69.043  1.00  0.00    -0.165 NA 
HETATM   17  C   UNL     1      -8.724   6.393  69.129  1.00  0.00    -0.127 C  
HETATM   18  C   UNL     1      -8.608   5.095  68.291  1.00  0.00    -0.098 C  
HETATM   19  N   UNL     1      -9.063   5.230  66.890  1.00  0.00    -0.113 NA 
HETATM   20  C   UNL     1     -10.422   5.822  66.866  1.00  0.00    -0.285 C  
HETATM   21  H   UNL     1      -9.020   4.346  66.384  1.00  0.00     0.000 HD 
HETATM   22  C   UNL     1     -10.517   7.151  67.653  1.00  0.00    -0.239 C  
ENDBRANCH  15  16
ENDBRANCH   9  10
ENDBRANCH   5   9
TORSDOF 3
ENDMDL
MODEL       96
REMARK 921   NORMALIZED FREE ENERGY PREDICTED BY IDOCK:   -4.84 KCAL/MOL
REMARK 922        TOTAL FREE ENERGY PREDICTED BY IDOCK:   -6.38 KCAL/MOL
REMARK 923 INTER-LIGAND FREE ENERGY PREDICTED BY IDOCK:   -5.81 KCAL/MOL
REMARK 924 INTRA-LIGAND FREE ENERGY PREDICTED BY IDOCK:   -0.57 KCAL/MOL
REMARK 927      BINDING AFFINITY PREDICTED BY RF-SCORE:    0.00 PKD
ROOT
HETATM    1  C   UNL     1     -12.597  11.807  62.976  1.00  0.00    -0.049 C  
HETATM    2  C   UNL     1     -11.879  12.282  64.206  1.00  0.00    -0.482 A  
HETATM    3  C   UNL     1     -11.454  11.393  65.193  1.00  0.00     0.006 A  
HETATM    4  C   UNL     1     -10.715  11.858  66.295  1.00  0.00    -0.309 A  
HETATM    5  C   UNL     1     -10.389  13.217  66.437  1.00  0.00    -0.286 A  
HETATM    6  C   UNL     1     -10.742  15.623  65.582  1.00  0.00    -0.376 C  
HETATM    7  C   UNL     1     -10.909  14.127  65.493  1.00  0.00    -0.312 A  
HETATM    8  C   UNL     1     -11.620  13.642  64.375  1.00  0.00    -0.421 A  
ENDROOT
BRANCH   5   9
HETATM    9  S   UNL     1      -9.366  13.815  67.791  1.00  0.00    -0.222 SA 
BRANCH   9  10
HETATM   10  C   UNL     1     -10.477  14.602  68.970  1.00  0.00    -0.246 A  
HETATM   11  C   UNL     1     -11.350  13.743  69.671  1.00  0.00    -0.241 A  
HETATM   12  C   UNL     1     -12.158  14.219  70.701  1.00  0.00    -0.417 A  
HETATM   13  C   UNL     1     -12.104  15.560  71.044  1.00  0.00    -0.438 A  
HETATM   14  C   UNL     1     -11.230  16.418  70.370  1.00  0.00    -0.253 A  
HETATM   15  C   UNL     1     -10.380  15.977  69.332  1.00  0.00    -0.272 A  
BRANCH  15  16
HETATM   16  N   UNL     1      -9.455  16.855  68.783  1.00  0.00    -0.262 NA 
HETATM   17  C   UNL     1      -8.006  16.705  68.997  1.00  0.00    -0.208 C  
HETATM   18  C   UNL     1      -7.257  17.091  67.697  1.00  0.00    -0.153 C  
HETATM   19  N   UNL     1      -7.604  18.427  67.166  1.00  0.00    -0.220 NA 
HETATM   20  C   UNL     1      -9.077  18.546  67.049  1.00  0.00    -0.281 C  
HETATM   21  H   UNL     1      -7.131  18.626  66.285  1.00  0.00     0.000 HD 
HETATM   22  C   UNL     1      -9.816  18.220  68.369  1.00  0.00    -0.369 C  
ENDBRANCH  15  16
ENDBRANCH   9  10
ENDBRANCH   5   9
TORSDOF 3
ENDMDL
MODEL       97
REMARK 921   NORMALIZED FREE ENERGY PREDICTED BY IDOCK:   -4.80 KCAL/MOL
REMARK 922        TOTAL FREE ENERGY PREDICTED BY IDOCK:   -6.33 KCAL/MOL
REMARK 923 INTER-LIGAND FREE ENERGY PREDICTED BY IDOCK:   -5.78 KCAL/MOL
REMARK 924 INTRA-LIGAND FREE ENERGY PREDICTED BY IDOCK:   -0.55 KCAL/MOL
REMARK 927      BINDING AFFINITY PREDICTED BY RF-SCORE:    0.00 PKD
ROOT
HETATM    1  C   UNL     1     -12.958   8.749  71.923  1.00  0.00    -0.421 C  
HETATM    2  C   UNL     1     -12.021   9.438  70.974  1.00  0.00    -0.389 A  
HETATM    3  C   UNL     1     -12.444  10.492  70.166  1.00  0.00    -0.297 A  
HETATM    4  C   UNL     1     -11.525  11.169  69.345  1.00  0.00    -0.368 A  
HETATM    5  C   UNL     1     -10.168  10.808  69.310  1.00  0.00    -0.194 A  
HETATM    6  C   UNL     1      -8.371   9.100  70.017  1.00  0.00    -0.156 C  
HETATM    7  C   UNL     1      -9.764   9.675  70.049  1.00  0.00    -0.280 A  
HETATM    8  C   UNL     1     -10.690   9.027  70.894  1.00  0.00    -0.319 A  
ENDROOT
BRANCH   5   9
HETATM    9  S   UNL     1      -8.962  11.722  68.337  1.00  0.00    -0.138 SA 
BRANCH   9  10
HETATM   10  C   UNL     1      -8.950  10.978  66.697  1.00  0.00    -0.168 A  
HETATM   11  C   UNL     1      -8.278   9.743  66.579  1.00  0.00    -0.120 A  
HETATM   12  C   UNL     1      -8.317   9.010  65.395  1.00  0.00    -0.151 A  
HETATM   13  C   UNL     1      -9.027   9.502  64.312  1.00  0.00    -0.248 A  
HETATM   14  C   UNL     1      -9.712  10.717  64.422  1.00  0.00    -0.368 A  
HETATM   15  C   UNL     1      -9.716  11.484  65.607  1.00  0.00    -0.232 A  
BRANCH  15  16
HETATM   16  N   UNL     1     -10.509  12.621  65.685  1.00  0.00    -0.270 NA 
HETATM   17  C   UNL     1      -9.938  13.967  65.868  1.00  0.00    -0.300 C  
HETATM   18  C   UNL     1     -10.759  14.986  65.039  1.00  0.00    -0.427 C  
HETATM   19  N   UNL     1     -12.213  14.959  65.307  1.00  0.00    -0.143 NA 
HETATM   20  C   UNL     1     -12.714  13.569  65.187  1.00  0.00    -0.399 C  
HETATM   21  H   UNL     1     -12.727  15.606  64.709  1.00  0.00     0.000 HD 
HETATM   22  C   UNL     1     -11.929  12.566  66.065  1.00  0.00    -0.392 C  
ENDBRANCH  15  16
ENDBRANCH   9  10
ENDBRANCH   5   9
TORSDOF 3
ENDMDL
MODEL       98
REMARK 921   NORMALIZED FREE ENERGY PREDICTED BY IDOCK:   -4.78 KCAL/MOL
REMARK 922        TOTAL FREE ENERGY PREDICTED BY IDOCK:   -6.32 KCAL/MOL
REMARK 923 INTER-LIGAND FREE ENERGY PREDICTED BY IDOCK:   -5.92 KCAL/MOL
REMARK 924 INTRA-LIGAND FREE ENERGY PREDICTED BY IDOCK:   -0.40 KCAL/MOL
REMARK 927      BINDING AFFINITY PREDICTED BY RF-SCORE:    0.00 PKD
ROOT
HETATM    1  C   UNL     1     -13.322  14.599  72.915  1.00  0.00    -0.585 C  
HETATM    2  C   UNL     1     -12.820  14.440  71.510  1.00  0.00    -0.411 A  
HETATM    3  C   UNL     1     -12.621  15.539  70.676  1.00  0.00    -0.493 A  
HETATM    4  C   UNL     1     -12.075  15.365  69.392  1.00  0.00    -0.308 A  
HETATM    5  C   UNL     1     -11.721  14.093  68.912  1.00  0.00    -0.334 A  
HETATM    6  C   UNL     1     -11.808  11.544  69.287  1.00  0.00    -0.414 C  
HETATM    7  C   UNL     1     -12.021  12.973  69.717  1.00  0.00    -0.377 A  
HETATM    8  C   UNL     1     -12.537  13.166  71.016  1.00  0.00    -0.397 A  
ENDROOT
BRANCH   5   9
HETATM    9  S   UNL     1     -10.937  13.863  67.310  1.00  0.00    -0.295 SA 
BRANCH   9  10
HETATM   10  C   UNL     1      -9.167  13.722  67.615  1.00  0.00    -0.207 A  
HETATM   11  C   UNL     1      -8.590  14.737  68.408  1.00  0.00    -0.166 A  
HETATM   12  C   UNL     1      -7.263  14.663  68.822  1.00  0.00    -0.124 A  
HETATM   13  C   UNL     1      -6.493  13.573  68.447  1.00  0.00    -0.094 A  
HETATM   14  C   UNL     1      -7.057  12.553  67.676  1.00  0.00    -0.139 A  
HETATM   15  C   UNL     1      -8.403  12.576  67.250  1.00  0.00    -0.185 A  
BRANCH  15  16
HETATM   16  N   UNL     1      -8.931  11.478  66.585  1.00  0.00    -0.180 NA 
HETATM   17  C   UNL     1      -9.553  11.589  65.254  1.00  0.00    -0.218 C  
HETATM   18  C   UNL     1      -9.196  10.334  64.419  1.00  0.00    -0.252 C  
HETATM   19  N   UNL     1      -9.521   9.050  65.077  1.00  0.00    -0.430 NA 
HETATM   20  C   UNL     1      -8.937   9.031  66.440  1.00  0.00    -0.155 C  
HETATM   21  H   UNL     1      -9.227   8.247  64.522  1.00  0.00     0.000 HD 
HETATM   22  C   UNL     1      -9.348  10.256  67.291  1.00  0.00    -0.149 C  
ENDBRANCH  15  16
ENDBRANCH   9  10
ENDBRANCH   5   9
TORSDOF 3
ENDMDL
MODEL       99
REMARK 921   NORMALIZED FREE ENERGY PREDICTED BY IDOCK:   -4.76 KCAL/MOL
REMARK 922        TOTAL FREE ENERGY PREDICTED BY IDOCK:   -6.29 KCAL/MOL
REMARK 923 INTER-LIGAND FREE ENERGY PREDICTED BY IDOCK:   -6.20 KCAL/MOL
REMARK 924 INTRA-LIGAND FREE ENERGY PREDICTED BY IDOCK:   -0.09 KCAL/MOL
REMARK 927      BINDING AFFINITY PREDICTED BY RF-SCORE:    0.00 PKD
ROOT
HETATM    1  C   UNL     1     -12.653  12.345  63.253  1.00  0.00    -0.381 C  
HETATM    2  C   UNL     1     -12.016  12.723  64.558  1.00  0.00    -0.454 A  
HETATM    3  C   UNL     1     -12.640  13.594  65.450  1.00  0.00    -0.533 A  
HETATM    4  C   UNL     1     -12.054  13.868  66.699  1.00  0.00    -0.485 A  
HETATM    5  C   UNL     1     -10.836  13.282  67.082  1.00  0.00    -0.258 A  
HETATM    6  C   UNL     1      -8.791  11.887  66.363  1.00  0.00    -0.152 C  
HETATM    7  C   UNL     1     -10.158  12.484  66.137  1.00  0.00    -0.265 A  
HETATM    8  C   UNL     1     -10.773  12.191  64.901  1.00  0.00    -0.336 A  
ENDROOT
BRANCH   5   9
HETATM    9  S   UNL     1     -10.122  13.547  68.712  1.00  0.00    -0.029 SA 
BRANCH   9  10
HETATM   10  C   UNL     1     -11.494  13.881  69.830  1.00  0.00    -0.215 A  
HETATM   11  C   UNL     1     -11.826  15.239  70.019  1.00  0.00    -0.365 A  
HETATM   12  C   UNL     1     -12.949  15.613  70.753  1.00  0.00    -0.413 A  
HETATM   13  C   UNL     1     -13.756  14.633  71.309  1.00  0.00    -0.439 A  
HETATM   14  C   UNL     1     -13.448  13.283  71.114  1.00  0.00     0.063 A  
HETATM   15  C   UNL     1     -12.331  12.857  70.363  1.00  0.00    -0.258 A  
BRANCH  15  16
HETATM   16  N   UNL     1     -12.147  11.504  70.112  1.00  0.00    -0.346 NA 
HETATM   17  C   UNL     1     -12.108  10.956  68.745  1.00  0.00    -0.054 C  
HETATM   18  C   UNL     1     -11.055   9.821  68.682  1.00  0.00    -0.093 C  
HETATM   19  N   UNL     1     -11.239   8.763  69.699  1.00  0.00    -0.436 NA 
HETATM   20  C   UNL     1     -11.353   9.380  71.042  1.00  0.00    -0.337 C  
HETATM   21  H   UNL     1     -10.501   8.060  69.661  1.00  0.00     0.000 HD 
HETATM   22  C   UNL     1     -12.448  10.470  71.115  1.00  0.00    -0.412 C  
ENDBRANCH  15  16
ENDBRANCH   9  10
ENDBRANCH   5   9
TORSDOF 3
ENDMDL
MODEL      100
REMARK 921   NORMALIZED FREE ENERGY PREDICTED BY IDOCK:   -4.74 KCAL/MOL
REMARK 922        TOTAL FREE ENERGY PREDICTED BY IDOCK:   -6.27 KCAL/MOL
REMARK 923 INTER-LIGAND FREE ENERGY PREDICTED BY IDOCK:   -5.31 KCAL/MOL
REMARK 924 INTRA-LIGAND FREE ENERGY PREDICTED BY IDOCK:   -0.96 KCAL/MOL
REMARK 927      BINDING AFFINITY PREDICTED BY RF-SCORE:    0.00 PKD
ROOT
HETATM    1  C   UNL     1     -13.877   9.065  72.378  1.00  0.00    -0.540 C  
HETATM    2  C   UNL     1     -12.679   8.243  72.000  1.00  0.00    -0.376 A  
HETATM    3  C   UNL     1     -12.783   7.158  71.130  1.00  0.00    -0.363 A  
HETATM    4  C   UNL     1     -11.631   6.456  70.732  1.00  0.00    -0.402 A  
HETATM    5  C   UNL     1     -10.355   6.818  71.195  1.00  0.00    -0.205 A  
HETATM    6  C   UNL     1      -8.982   8.265  72.828  1.00  0.00    -0.323 C  
HETATM    7  C   UNL     1     -10.266   7.848  72.156  1.00  0.00    -0.286 A  
HETATM    8  C   UNL     1     -11.425   8.566  72.519  1.00  0.00    -0.368 A  
ENDROOT
BRANCH   5   9
HETATM    9  S   UNL     1      -8.864   5.990  70.624  1.00  0.00    -0.143 SA 
BRANCH   9  10
HETATM   10  C   UNL     1      -9.096   5.658  68.870  1.00  0.00    -0.115 A  
HETATM   11  C   UNL     1      -9.230   4.301  68.506  1.00  0.00    -0.194 A  
HETATM   12  C   UNL     1      -9.547   3.931  67.201  1.00  0.00    -0.226 A  
HETATM   13  C   UNL     1      -9.734   4.913  66.241  1.00  0.00    -0.200 A  
HETATM   14  C   UNL     1      -9.621   6.262  66.593  1.00  0.00    -0.190 A  
HETATM   15  C   UNL     1      -9.320   6.684  67.906  1.00  0.00    -0.109 A  
BRANCH  15  16
HETATM   16  N   UNL     1      -9.336   8.038  68.212  1.00  0.00    -0.140 NA 
HETATM   17  C   UNL     1     -10.473   8.909  67.866  1.00  0.00    -0.223 C  
HETATM   18  C   UNL     1     -10.691   9.938  69.004  1.00  0.00    -0.222 C  
HETATM   19  N   UNL     1      -9.485  10.716  69.361  1.00  0.00    -0.395 NA 
HETATM   20  C   UNL     1      -8.357   9.790  69.619  1.00  0.00    -0.173 C  
HETATM   21  H   UNL     1      -9.652  11.346  70.145  1.00  0.00     0.000 HD 
HETATM   22  C   UNL     1      -8.104   8.806  68.452  1.00  0.00    -0.117 C  
ENDBRANCH  15  16
ENDBRANCH   9  10
ENDBRANCH   5   9
TORSDOF 3
ENDMDL
MODEL      101
REMARK 921   NORMALIZED FREE ENERGY PREDICTED BY IDOCK:   -4.71 KCAL/MOL
REMARK 922        TOTAL FREE ENERGY PREDICTED BY IDOCK:   -6.23 KCAL/MOL
REMARK 923 INTER-LIGAND FREE ENERGY PREDICTED BY IDOCK:   -6.40 KCAL/MOL
REMARK 924 INTRA-LIGAND FREE ENERGY PREDICTED BY IDOCK:    0.16 KCAL/MOL
REMARK 927      BINDING AFFINITY PREDICTED BY RF-SCORE:    0.00 PKD
ROOT
HETATM    1  C   UNL     1      -5.570  21.032  67.356  1.00  0.00    -0.323 C  
HETATM    2  C   UNL     1      -6.743  20.120  67.567  1.00  0.00    -0.268 A  
HETATM    3  C   UNL     1      -6.665  19.012  68.411  1.00  0.00    -0.277 A  
HETATM    4  C   UNL     1      -7.804  18.222  68.649  1.00  0.00    -0.313 A  
HETATM    5  C   UNL     1      -9.040  18.517  68.050  1.00  0.00    -0.301 A  
HETATM    6  C   UNL     1     -10.313  19.931  66.310  1.00  0.00    -0.608 C  
HETATM    7  C   UNL     1      -9.089  19.574  67.117  1.00  0.00    -0.375 A  
HETATM    8  C   UNL     1      -7.949  20.379  66.914  1.00  0.00    -0.326 A  
ENDROOT
BRANCH   5   9
HETATM    9  S   UNL     1     -10.526  17.572  68.417  1.00  0.00    -0.348 SA 
BRANCH   9  10
HETATM   10  C   UNL     1     -10.162  15.856  68.012  1.00  0.00    -0.238 A  
HETATM   11  C   UNL     1      -9.221  15.646  66.981  1.00  0.00    -0.239 A  
HETATM   12  C   UNL     1      -8.761  14.368  66.673  1.00  0.00    -0.131 A  
HETATM   13  C   UNL     1      -9.236  13.282  67.390  1.00  0.00    -0.216 A  
HETATM   14  C   UNL     1     -10.155  13.478  68.425  1.00  0.00    -0.240 A  
HETATM   15  C   UNL     1     -10.635  14.756  68.785  1.00  0.00    -0.251 A  
BRANCH  15  16
HETATM   16  N   UNL     1     -11.457  14.892  69.896  1.00  0.00    -0.269 NA 
HETATM   17  C   UNL     1     -12.778  14.246  69.979  1.00  0.00    -0.117 C  
HETATM   18  C   UNL     1     -13.018  13.764  71.432  1.00  0.00    -0.355 C  
HETATM   19  N   UNL     1     -12.848  14.816  72.459  1.00  0.00    -0.356 NA 
HETATM   20  C   UNL     1     -11.538  15.482  72.273  1.00  0.00    -0.458 C  
HETATM   21  H   UNL     1     -12.964  14.452  73.405  1.00  0.00     0.000 HD 
HETATM   22  C   UNL     1     -11.330  16.017  70.836  1.00  0.00    -0.385 C  
ENDBRANCH  15  16
ENDBRANCH   9  10
ENDBRANCH   5   9
TORSDOF 3
ENDMDL
MODEL      102
REMARK 921   NORMALIZED FREE ENERGY PREDICTED BY IDOCK:   -4.68 KCAL/MOL
REMARK 922        TOTAL FREE ENERGY PREDICTED BY IDOCK:   -6.19 KCAL/MOL
REMARK 923 INTER-LIGAND FREE ENERGY PREDICTED BY IDOCK:   -5.64 KCAL/MOL
REMARK 924 INTRA-LIGAND FREE ENERGY PREDICTED BY IDOCK:   -0.55 KCAL/MOL
REMARK 927      BINDING AFFINITY PREDICTED BY RF-SCORE:    0.00 PKD
ROOT
HETATM    1  C   UNL     1      -9.326  18.884  67.907  1.00  0.00    -0.338 C  
HETATM    2  C   UNL     1      -9.761  17.450  67.999  1.00  0.00    -0.281 A  
HETATM    3  C   UNL     1     -10.974  17.091  68.585  1.00  0.00    -0.217 A  
HETATM    4  C   UNL     1     -11.390  15.748  68.586  1.00  0.00    -0.369 A  
HETATM    5  C   UNL     1     -10.605  14.737  68.007  1.00  0.00    -0.244 A  
HETATM    6  C   UNL     1      -8.335  14.095  66.968  1.00  0.00    -0.142 C  
HETATM    7  C   UNL     1      -9.333  15.088  67.509  1.00  0.00    -0.195 A  
HETATM    8  C   UNL     1      -8.943  16.444  67.484  1.00  0.00    -0.197 A  
ENDROOT
BRANCH   5   9
HETATM    9  S   UNL     1     -11.165  13.029  67.917  1.00  0.00    -0.289 SA 
BRANCH   9  10
HETATM   10  C   UNL     1     -11.420  12.660  66.173  1.00  0.00    -0.365 A  
HETATM   11  C   UNL     1     -12.026  13.676  65.404  1.00  0.00    -0.400 A  
HETATM   12  C   UNL     1     -12.151  13.558  64.022  1.00  0.00    -0.494 A  
HETATM   13  C   UNL     1     -11.674  12.421  63.389  1.00  0.00    -0.554 A  
HETATM   14  C   UNL     1     -11.057  11.414  64.138  1.00  0.00    -0.382 A  
HETATM   15  C   UNL     1     -10.891  11.499  65.537  1.00  0.00    -0.254 A  
BRANCH  15  16
HETATM   16  N   UNL     1     -10.167  10.518  66.203  1.00  0.00    -0.242 NA 
HETATM   17  C   UNL     1     -10.822   9.440  66.964  1.00  0.00    -0.026 C  
HETATM   18  C   UNL     1     -10.018   8.128  66.780  1.00  0.00    -0.279 C  
HETATM   19  N   UNL     1      -8.579   8.243  67.105  1.00  0.00    -0.122 NA 
HETATM   20  C   UNL     1      -7.997   9.393  66.374  1.00  0.00    -0.108 C  
HETATM   21  H   UNL     1      -8.073   7.377  66.926  1.00  0.00     0.000 HD 
HETATM   22  C   UNL     1      -8.767  10.714  66.611  1.00  0.00    -0.140 C  
ENDBRANCH  15  16
ENDBRANCH   9  10
ENDBRANCH   5   9
TORSDOF 3
ENDMDL
MODEL      103
REMARK 921   NORMALIZED FREE ENERGY PREDICTED BY IDOCK:   -4.65 KCAL/MOL
REMARK 922        TOTAL FREE ENERGY PREDICTED BY IDOCK:   -6.16 KCAL/MOL
REMARK 923 INTER-LIGAND FREE ENERGY PREDICTED BY IDOCK:   -5.45 KCAL/MOL
REMARK 924 INTRA-LIGAND FREE ENERGY PREDICTED BY IDOCK:   -0.71 KCAL/MOL
REMARK 927      BINDING AFFINITY PREDICTED BY RF-SCORE:    0.00 PKD
ROOT
HETATM    1  C   UNL     1      -9.795  18.047  68.027  1.00  0.00    -0.324 C  
HETATM    2  C   UNL     1     -10.271  16.630  67.897  1.00  0.00    -0.284 A  
HETATM    3  C   UNL     1     -10.854  15.954  68.968  1.00  0.00    -0.266 A  
HETATM    4  C   UNL     1     -11.362  14.654  68.794  1.00  0.00    -0.302 A  
HETATM    5  C   UNL     1     -11.296  14.002  67.552  1.00  0.00    -0.321 A  
HETATM    6  C   UNL     1     -10.361  14.023  65.149  1.00  0.00    -0.422 C  
HETATM    7  C   UNL     1     -10.613  14.647  66.499  1.00  0.00    -0.300 A  
HETATM    8  C   UNL     1     -10.139  15.964  66.678  1.00  0.00    -0.287 A  
ENDROOT
BRANCH   5   9
HETATM    9  S   UNL     1     -12.023  12.377  67.289  1.00  0.00    -0.034 SA 
BRANCH   9  10
HETATM   10  C   UNL     1     -11.574  11.372  68.714  1.00  0.00    -0.313 A  
HETATM   11  C   UNL     1     -12.494  11.362  69.783  1.00  0.00    -0.161 A  
HETATM   12  C   UNL     1     -12.320  10.520  70.879  1.00  0.00    -0.490 A  
HETATM   13  C   UNL     1     -11.222   9.676  70.920  1.00  0.00    -0.422 A  
HETATM   14  C   UNL     1     -10.312   9.663  69.859  1.00  0.00    -0.282 A  
HETATM   15  C   UNL     1     -10.457  10.486  68.721  1.00  0.00    -0.196 A  
BRANCH  15  16
HETATM   16  N   UNL     1      -9.582  10.341  67.653  1.00  0.00    -0.151 NA 
HETATM   17  C   UNL     1      -9.818   9.372  66.569  1.00  0.00    -0.258 C  
HETATM   18  C   UNL     1      -9.362   9.992  65.224  1.00  0.00    -0.237 C  
HETATM   19  N   UNL     1      -7.971  10.497  65.225  1.00  0.00    -0.234 NA 
HETATM   20  C   UNL     1      -7.773  11.401  66.383  1.00  0.00    -0.051 C  
HETATM   21  H   UNL     1      -7.723  10.942  64.342  1.00  0.00     0.000 HD 
HETATM   22  C   UNL     1      -8.171  10.754  67.731  1.00  0.00    -0.112 C  
ENDBRANCH  15  16
ENDBRANCH   9  10
ENDBRANCH   5   9
TORSDOF 3
ENDMDL
MODEL      104
REMARK 921   NORMALIZED FREE ENERGY PREDICTED BY IDOCK:   -4.64 KCAL/MOL
REMARK 922        TOTAL FREE ENERGY PREDICTED BY IDOCK:   -6.15 KCAL/MOL
REMARK 923 INTER-LIGAND FREE ENERGY PREDICTED BY IDOCK:   -5.48 KCAL/MOL
REMARK 924 INTRA-LIGAND FREE ENERGY PREDICTED BY IDOCK:   -0.67 KCAL/MOL
REMARK 927      BINDING AFFINITY PREDICTED BY RF-SCORE:    0.00 PKD
ROOT
HETATM    1  C   UNL     1     -10.424  16.231  65.620  1.00  0.00    -0.386 C  
HETATM    2  C   UNL     1     -10.641  14.881  66.238  1.00  0.00    -0.309 A  
HETATM    3  C   UNL     1     -11.867  14.223  66.143  1.00  0.00    -0.413 A  
HETATM    4  C   UNL     1     -12.017  12.925  66.665  1.00  0.00    -0.436 A  
HETATM    5  C   UNL     1     -10.951  12.260  67.293  1.00  0.00    -0.256 A  
HETATM    6  C   UNL     1      -8.558  12.427  68.237  1.00  0.00    -0.172 C  
HETATM    7  C   UNL     1      -9.745  12.968  67.480  1.00  0.00    -0.206 A  
HETATM    8  C   UNL     1      -9.598  14.255  66.922  1.00  0.00    -0.268 A  
ENDROOT
BRANCH   5   9
HETATM    9  S   UNL     1     -11.099  10.566  67.881  1.00  0.00    -0.284 SA 
BRANCH   9  10
HETATM   10  C   UNL     1     -10.179   9.535  66.726  1.00  0.00    -0.243 A  
HETATM   11  C   UNL     1      -9.807  10.144  65.509  1.00  0.00    -0.365 A  
HETATM   12  C   UNL     1      -8.981   9.491  64.597  1.00  0.00    -0.266 A  
HETATM   13  C   UNL     1      -8.517   8.218  64.890  1.00  0.00    -0.115 A  
HETATM   14  C   UNL     1      -8.864   7.611  66.100  1.00  0.00    -0.192 A  
HETATM   15  C   UNL     1      -9.683   8.242  67.062  1.00  0.00    -0.211 A  
BRANCH  15  16
HETATM   16  N   UNL     1      -9.895   7.630  68.290  1.00  0.00    -0.161 NA 
HETATM   17  C   UNL     1      -9.081   7.947  69.476  1.00  0.00    -0.149 C  
HETATM   18  C   UNL     1      -9.987   7.932  70.733  1.00  0.00    -0.184 C  
HETATM   19  N   UNL     1     -10.765   6.686  70.910  1.00  0.00    -0.228 NA 
HETATM   20  C   UNL     1     -11.496   6.377  69.659  1.00  0.00    -0.378 C  
HETATM   21  H   UNL     1     -11.386   6.731  71.718  1.00  0.00     0.000 HD 
HETATM   22  C   UNL     1     -10.576   6.332  68.416  1.00  0.00    -0.260 C  
ENDBRANCH  15  16
ENDBRANCH   9  10
ENDBRANCH   5   9
TORSDOF 3
ENDMDL
MODEL      105
REMARK 921   NORMALIZED FREE ENERGY PREDICTED BY IDOCK:   -4.62 KCAL/MOL
REMARK 922        TOTAL FREE ENERGY PREDICTED BY IDOCK:   -6.13 KCAL/MOL
REMARK 923 INTER-LIGAND FREE ENERGY PREDICTED BY IDOCK:   -5.39 KCAL/MOL
REMARK 924 INTRA-LIGAND FREE ENERGY PREDICTED BY IDOCK:   -0.74 KCAL/MOL
REMARK 927      BINDING AFFINITY PREDICTED BY RF-SCORE:    0.00 PKD
ROOT
HETATM    1  C   UNL     1     -10.295  13.234  64.452  1.00  0.00    -0.372 C  
HETATM    2  C   UNL     1     -10.364  12.460  65.736  1.00  0.00    -0.289 A  
HETATM    3  C   UNL     1     -11.578  12.216  66.377  1.00  0.00    -0.429 A  
HETATM    4  C   UNL     1     -11.619  11.421  67.537  1.00  0.00    -0.298 A  
HETATM    5  C   UNL     1     -10.453  10.858  68.081  1.00  0.00    -0.182 A  
HETATM    6  C   UNL     1      -7.877  10.760  68.034  1.00  0.00    -0.106 C  
HETATM    7  C   UNL     1      -9.216  11.193  67.491  1.00  0.00    -0.155 A  
HETATM    8  C   UNL     1      -9.193  11.963  66.309  1.00  0.00    -0.218 A  
ENDROOT
BRANCH   5   9
HETATM    9  S   UNL     1     -10.500   9.763  69.508  1.00  0.00    -0.248 SA 
BRANCH   9  10
HETATM   10  C   UNL     1     -10.512   8.080  68.869  1.00  0.00    -0.191 A  
HETATM   11  C   UNL     1     -10.654   7.946  67.471  1.00  0.00    -0.312 A  
HETATM   12  C   UNL     1     -10.542   6.704  66.850  1.00  0.00    -0.376 A  
HETATM   13  C   UNL     1     -10.288   5.579  67.617  1.00  0.00    -0.256 A  
HETATM   14  C   UNL     1     -10.128   5.700  69.001  1.00  0.00    -0.259 A  
HETATM   15  C   UNL     1     -10.214   6.940  69.672  1.00  0.00    -0.193 A  
BRANCH  15  16
HETATM   16  N   UNL     1      -9.931   7.007  71.029  1.00  0.00    -0.189 NA 
HETATM   17  C   UNL     1      -8.567   7.227  71.538  1.00  0.00    -0.118 C  
HETATM   18  C   UNL     1      -8.632   8.134  72.793  1.00  0.00    -0.206 C  
HETATM   19  N   UNL     1      -9.547   7.649  73.849  1.00  0.00    -0.385 NA 
HETATM   20  C   UNL     1     -10.877   7.368  73.261  1.00  0.00    -0.368 C  
HETATM   21  H   UNL     1      -9.602   8.295  74.636  1.00  0.00     0.000 HD 
HETATM   22  C   UNL     1     -10.813   6.412  72.047  1.00  0.00    -0.239 C  
ENDBRANCH  15  16
ENDBRANCH   9  10
ENDBRANCH   5   9
TORSDOF 3
ENDMDL
MODEL      106
REMARK 921   NORMALIZED FREE ENERGY PREDICTED BY IDOCK:   -4.62 KCAL/MOL
REMARK 922        TOTAL FREE ENERGY PREDICTED BY IDOCK:   -6.12 KCAL/MOL
REMARK 923 INTER-LIGAND FREE ENERGY PREDICTED BY IDOCK:   -5.23 KCAL/MOL
REMARK 924 INTRA-LIGAND FREE ENERGY PREDICTED BY IDOCK:   -0.89 KCAL/MOL
REMARK 927      BINDING AFFINITY PREDICTED BY RF-SCORE:    0.00 PKD
ROOT
HETATM    1  C   UNL     1     -14.247   8.274  72.253  1.00  0.00    -0.393 C  
HETATM    2  C   UNL     1     -12.926   8.799  71.771  1.00  0.00    -0.404 A  
HETATM    3  C   UNL     1     -11.732   8.131  72.042  1.00  0.00    -0.389 A  
HETATM    4  C   UNL     1     -10.519   8.604  71.510  1.00  0.00    -0.344 A  
HETATM    5  C   UNL     1     -10.471   9.753  70.702  1.00  0.00    -0.289 A  
HETATM    6  C   UNL     1     -11.744  11.794  69.774  1.00  0.00    -0.408 C  
HETATM    7  C   UNL     1     -11.664  10.483  70.517  1.00  0.00    -0.443 A  
HETATM    8  C   UNL     1     -12.878   9.978  71.027  1.00  0.00    -0.455 A  
ENDROOT
BRANCH   5   9
HETATM    9  S   UNL     1      -8.944  10.317  69.938  1.00  0.00     0.188 SA 
BRANCH   9  10
HETATM   10  C   UNL     1      -9.124  10.057  68.165  1.00  0.00    -0.121 A  
HETATM   11  C   UNL     1      -9.674   8.818  67.771  1.00  0.00    -0.194 A  
HETATM   12  C   UNL     1      -9.985   8.557  66.439  1.00  0.00    -0.314 A  
HETATM   13  C   UNL     1      -9.750   9.531  65.482  1.00  0.00    -0.344 A  
HETATM   14  C   UNL     1      -9.222  10.768  65.861  1.00  0.00    -0.214 A  
HETATM   15  C   UNL     1      -8.909  11.084  67.201  1.00  0.00    -0.140 A  
BRANCH  15  16
HETATM   16  N   UNL     1      -8.496  12.370  67.525  1.00  0.00    -0.164 NA 
HETATM   17  C   UNL     1      -9.388  13.536  67.400  1.00  0.00    -0.228 C  
HETATM   18  C   UNL     1      -9.116  14.511  68.573  1.00  0.00    -0.190 C  
HETATM   19  N   UNL     1      -7.699  14.909  68.720  1.00  0.00    -0.130 NA 
HETATM   20  C   UNL     1      -6.846  13.698  68.758  1.00  0.00    -0.107 C  
HETATM   21  H   UNL     1      -7.550  15.510  69.530  1.00  0.00     0.000 HD 
HETATM   22  C   UNL     1      -7.077  12.758  67.551  1.00  0.00    -0.148 C  
ENDBRANCH  15  16
ENDBRANCH   9  10
ENDBRANCH   5   9
TORSDOF 3
ENDMDL
MODEL      107
REMARK 921   NORMALIZED FREE ENERGY PREDICTED BY IDOCK:   -4.61 KCAL/MOL
REMARK 922        TOTAL FREE ENERGY PREDICTED BY IDOCK:   -6.12 KCAL/MOL
REMARK 923 INTER-LIGAND FREE ENERGY PREDICTED BY IDOCK:   -6.55 KCAL/MOL
REMARK 924 INTRA-LIGAND FREE ENERGY PREDICTED BY IDOCK:    0.44 KCAL/MOL
REMARK 927      BINDING AFFINITY PREDICTED BY RF-SCORE:    0.00 PKD
ROOT
HETATM    1  C   UNL     1     -11.818  12.322  63.780  1.00  0.00    -0.587 C  
HETATM    2  C   UNL     1     -11.185  11.868  65.063  1.00  0.00    -0.350 A  
HETATM    3  C   UNL     1     -11.737  12.188  66.303  1.00  0.00    -0.389 A  
HETATM    4  C   UNL     1     -11.166  11.681  67.484  1.00  0.00    -0.355 A  
HETATM    5  C   UNL     1     -10.033  10.850  67.453  1.00  0.00    -0.186 A  
HETATM    6  C   UNL     1      -8.133   9.843  66.032  1.00  0.00    -0.120 C  
HETATM    7  C   UNL     1      -9.417  10.615  66.206  1.00  0.00    -0.213 A  
HETATM    8  C   UNL     1     -10.021  11.100  65.027  1.00  0.00    -0.325 A  
ENDROOT
BRANCH   5   9
HETATM    9  S   UNL     1      -9.347  10.120  68.947  1.00  0.00    -0.189 SA 
BRANCH   9  10
HETATM   10  C   UNL     1      -9.930   8.416  69.005  1.00  0.00    -0.190 A  
HETATM   11  C   UNL     1      -9.205   7.484  68.232  1.00  0.00    -0.138 A  
HETATM   12  C   UNL     1      -9.478   6.120  68.302  1.00  0.00    -0.117 A  
HETATM   13  C   UNL     1     -10.481   5.670  69.146  1.00  0.00    -0.339 A  
HETATM   14  C   UNL     1     -11.195   6.581  69.930  1.00  0.00    -0.456 A  
HETATM   15  C   UNL     1     -10.940   7.970  69.905  1.00  0.00    -0.172 A  
BRANCH  15  16
HETATM   16  N   UNL     1     -11.606   8.805  70.792  1.00  0.00    -0.275 NA 
HETATM   17  C   UNL     1     -11.423  10.267  70.782  1.00  0.00    -0.351 C  
HETATM   18  C   UNL     1     -12.779  10.951  71.088  1.00  0.00    -0.429 C  
HETATM   19  N   UNL     1     -13.434  10.482  72.328  1.00  0.00    -0.551 NA 
HETATM   20  C   UNL     1     -13.516   9.002  72.316  1.00  0.00    -0.475 C  
HETATM   21  H   UNL     1     -14.345  10.916  72.471  1.00  0.00     0.000 HD 
HETATM   22  C   UNL     1     -12.147   8.323  72.073  1.00  0.00    -0.348 C  
ENDBRANCH  15  16
ENDBRANCH   9  10
ENDBRANCH   5   9
TORSDOF 3
ENDMDL
MODEL      108
REMARK 921   NORMALIZED FREE ENERGY PREDICTED BY IDOCK:   -4.59 KCAL/MOL
REMARK 922        TOTAL FREE ENERGY PREDICTED BY IDOCK:   -6.09 KCAL/MOL
REMARK 923 INTER-LIGAND FREE ENERGY PREDICTED BY IDOCK:   -5.53 KCAL/MOL
REMARK 924 INTRA-LIGAND FREE ENERGY PREDICTED BY IDOCK:   -0.56 KCAL/MOL
REMARK 927      BINDING AFFINITY PREDICTED BY RF-SCORE:    0.00 PKD
ROOT
HETATM    1  C   UNL     1      -6.931   6.581  64.267  1.00  0.00    -0.051 C  
HETATM    2  C   UNL     1      -7.760   7.655  64.908  1.00  0.00    -0.107 A  
HETATM    3  C   UNL     1      -7.547   9.005  64.632  1.00  0.00    -0.107 A  
HETATM    4  C   UNL     1      -8.391   9.983  65.187  1.00  0.00    -0.156 A  
HETATM    5  C   UNL     1      -9.460   9.637  66.029  1.00  0.00    -0.225 A  
HETATM    6  C   UNL     1     -10.633   7.777  67.375  1.00  0.00    -0.345 C  
HETATM    7  C   UNL     1      -9.608   8.281  66.390  1.00  0.00    -0.300 A  
HETATM    8  C   UNL     1      -8.776   7.307  65.799  1.00  0.00    -0.129 A  
ENDROOT
BRANCH   5   9
HETATM    9  S   UNL     1     -10.604  10.867  66.672  1.00  0.00    -0.228 SA 
BRANCH   9  10
HETATM   10  C   UNL     1      -9.621  12.315  67.098  1.00  0.00    -0.200 A  
HETATM   11  C   UNL     1      -8.658  12.137  68.113  1.00  0.00    -0.177 A  
HETATM   12  C   UNL     1      -7.751  13.144  68.433  1.00  0.00    -0.138 A  
HETATM   13  C   UNL     1      -7.796  14.345  67.743  1.00  0.00    -0.169 A  
HETATM   14  C   UNL     1      -8.734  14.528  66.723  1.00  0.00    -0.214 A  
HETATM   15  C   UNL     1      -9.661  13.530  66.352  1.00  0.00    -0.259 A  
BRANCH  15  16
HETATM   16  N   UNL     1     -10.488  13.734  65.256  1.00  0.00    -0.343 NA 
HETATM   17  C   UNL     1     -10.343  12.965  64.008  1.00  0.00    -0.322 C  
HETATM   18  C   UNL     1     -11.749  12.677  63.422  1.00  0.00    -0.498 C  
HETATM   19  N   UNL     1     -12.592  13.878  63.240  1.00  0.00    -1.006 NA 
HETATM   20  C   UNL     1     -12.632  14.652  64.503  1.00  0.00    -0.152 C  
HETATM   21  H   UNL     1     -13.525  13.646  62.900  1.00  0.00     0.000 HD 
HETATM   22  C   UNL     1     -11.225  14.991  65.050  1.00  0.00    -0.409 C  
ENDBRANCH  15  16
ENDBRANCH   9  10
ENDBRANCH   5   9
TORSDOF 3
ENDMDL
MODEL      109
REMARK 921   NORMALIZED FREE ENERGY PREDICTED BY IDOCK:   -4.59 KCAL/MOL
REMARK 922        TOTAL FREE ENERGY PREDICTED BY IDOCK:   -6.09 KCAL/MOL
REMARK 923 INTER-LIGAND FREE ENERGY PREDICTED BY IDOCK:   -6.10 KCAL/MOL
REMARK 924 INTRA-LIGAND FREE ENERGY PREDICTED BY IDOCK:    0.02 KCAL/MOL
REMARK 927      BINDING AFFINITY PREDICTED BY RF-SCORE:    0.00 PKD
ROOT
HETATM    1  C   UNL     1      -7.712   6.619  70.912  1.00  0.00    -0.094 C  
HETATM    2  C   UNL     1      -8.609   7.684  70.352  1.00  0.00    -0.138 A  
HETATM    3  C   UNL     1      -9.298   8.569  71.182  1.00  0.00    -0.249 A  
HETATM    4  C   UNL     1     -10.068   9.606  70.627  1.00  0.00    -0.324 A  
HETATM    5  C   UNL     1     -10.170   9.780  69.236  1.00  0.00    -0.204 A  
HETATM    6  C   UNL     1      -9.680   8.813  66.898  1.00  0.00    -0.273 C  
HETATM    7  C   UNL     1      -9.558   8.822  68.401  1.00  0.00    -0.157 A  
HETATM    8  C   UNL     1      -8.760   7.808  68.971  1.00  0.00    -0.135 A  
ENDROOT
BRANCH   5   9
HETATM    9  S   UNL     1     -11.075  11.156  68.512  1.00  0.00    -0.270 SA 
BRANCH   9  10
HETATM   10  C   UNL     1     -12.030  11.905  69.843  1.00  0.00    -0.325 A  
HETATM   11  C   UNL     1     -12.634  11.012  70.754  1.00  0.00    -0.463 A  
HETATM   12  C   UNL     1     -13.283  11.475  71.896  1.00  0.00    -0.479 A  
HETATM   13  C   UNL     1     -13.338  12.837  72.142  1.00  0.00    -0.593 A  
HETATM   14  C   UNL     1     -12.729  13.732  71.257  1.00  0.00    -0.450 A  
HETATM   15  C   UNL     1     -12.044  13.308  70.097  1.00  0.00    -0.333 A  
BRANCH  15  16
HETATM   16  N   UNL     1     -11.365  14.238  69.323  1.00  0.00    -0.270 NA 
HETATM   17  C   UNL     1     -10.556  15.315  69.919  1.00  0.00    -0.276 C  
HETATM   18  C   UNL     1      -9.295  15.545  69.048  1.00  0.00    -0.235 C  
HETATM   19  N   UNL     1      -9.577  15.790  67.617  1.00  0.00    -0.220 NA 
HETATM   20  C   UNL     1     -10.459  14.719  67.097  1.00  0.00    -0.265 C  
HETATM   21  H   UNL     1      -8.724  15.887  67.067  1.00  0.00     0.000 HD 
HETATM   22  C   UNL     1     -11.748  14.536  67.934  1.00  0.00    -0.351 C  
ENDBRANCH  15  16
ENDBRANCH   9  10
ENDBRANCH   5   9
TORSDOF 3
ENDMDL
MODEL      110
REMARK 921   NORMALIZED FREE ENERGY PREDICTED BY IDOCK:   -4.58 KCAL/MOL
REMARK 922        TOTAL FREE ENERGY PREDICTED BY IDOCK:   -6.08 KCAL/MOL
REMARK 923 INTER-LIGAND FREE ENERGY PREDICTED BY IDOCK:   -5.36 KCAL/MOL
REMARK 924 INTRA-LIGAND FREE ENERGY PREDICTED BY IDOCK:   -0.72 KCAL/MOL
REMARK 927      BINDING AFFINITY PREDICTED BY RF-SCORE:    0.00 PKD
ROOT
HETATM    1  C   UNL     1      -7.169   7.570  66.648  1.00  0.00    -0.083 C  
HETATM    2  C   UNL     1      -7.830   8.862  67.030  1.00  0.00    -0.102 A  
HETATM    3  C   UNL     1      -7.620  10.033  66.302  1.00  0.00    -0.106 A  
HETATM    4  C   UNL     1      -8.315  11.209  66.636  1.00  0.00    -0.160 A  
HETATM    5  C   UNL     1      -9.228  11.243  67.703  1.00  0.00    -0.156 A  
HETATM    6  C   UNL     1     -10.209  10.013  69.745  1.00  0.00    -0.286 C  
HETATM    7  C   UNL     1      -9.358  10.088  68.501  1.00  0.00    -0.145 A  
HETATM    8  C   UNL     1      -8.682   8.905  68.134  1.00  0.00    -0.134 A  
ENDROOT
BRANCH   5   9
HETATM    9  S   UNL     1     -10.193  12.713  68.085  1.00  0.00    -0.243 SA 
BRANCH   9  10
HETATM   10  C   UNL     1     -10.913  13.276  66.533  1.00  0.00    -0.286 A  
HETATM   11  C   UNL     1     -11.811  12.387  65.905  1.00  0.00    -0.467 A  
HETATM   12  C   UNL     1     -12.530  12.766  64.774  1.00  0.00    -0.539 A  
HETATM   13  C   UNL     1     -12.361  14.040  64.256  1.00  0.00    -0.393 A  
HETATM   14  C   UNL     1     -11.488  14.937  64.879  1.00  0.00    -0.407 A  
HETATM   15  C   UNL     1     -10.752  14.603  66.037  1.00  0.00    -0.312 A  
BRANCH  15  16
HETATM   16  N   UNL     1      -9.992  15.576  66.671  1.00  0.00    -0.252 NA 
HETATM   17  C   UNL     1     -10.604  16.689  67.417  1.00  0.00    -0.295 C  
HETATM   18  C   UNL     1      -9.745  16.995  68.670  1.00  0.00    -0.282 C  
HETATM   19  N   UNL     1      -8.314  17.238  68.384  1.00  0.00    -0.252 NA 
HETATM   20  C   UNL     1      -7.777  16.127  67.565  1.00  0.00    -0.147 C  
HETATM   21  H   UNL     1      -7.772  17.387  69.235  1.00  0.00     0.000 HD 
HETATM   22  C   UNL     1      -8.603  15.867  66.282  1.00  0.00    -0.313 C  
ENDBRANCH  15  16
ENDBRANCH   9  10
ENDBRANCH   5   9
TORSDOF 3
ENDMDL
MODEL      111
REMARK 921   NORMALIZED FREE ENERGY PREDICTED BY IDOCK:   -4.56 KCAL/MOL
REMARK 922        TOTAL FREE ENERGY PREDICTED BY IDOCK:   -6.05 KCAL/MOL
REMARK 923 INTER-LIGAND FREE ENERGY PREDICTED BY IDOCK:   -5.67 KCAL/MOL
REMARK 924 INTRA-LIGAND FREE ENERGY PREDICTED BY IDOCK:   -0.38 KCAL/MOL
REMARK 927      BINDING AFFINITY PREDICTED BY RF-SCORE:    0.00 PKD
ROOT
HETATM    1  C   UNL     1     -12.794  15.912  73.291  1.00  0.00    -0.664 C  
HETATM    2  C   UNL     1     -12.641  15.143  72.011  1.00  0.00    -0.416 A  
HETATM    3  C   UNL     1     -12.424  15.786  70.793  1.00  0.00    -0.420 A  
HETATM    4  C   UNL     1     -12.205  15.036  69.624  1.00  0.00    -0.293 A  
HETATM    5  C   UNL     1     -12.203  13.631  69.645  1.00  0.00    -0.270 A  
HETATM    6  C   UNL     1     -12.677  11.491  71.002  1.00  0.00    -0.426 C  
HETATM    7  C   UNL     1     -12.526  12.985  70.857  1.00  0.00    -0.396 A  
HETATM    8  C   UNL     1     -12.709  13.749  72.028  1.00  0.00    -0.321 A  
ENDROOT
BRANCH   5   9
HETATM    9  S   UNL     1     -11.833  12.657  68.178  1.00  0.00    -0.253 SA 
BRANCH   9  10
HETATM   10  C   UNL     1     -10.074  12.861  67.852  1.00  0.00    -0.232 A  
HETATM   11  C   UNL     1      -9.627  14.184  67.648  1.00  0.00    -0.216 A  
HETATM   12  C   UNL     1      -8.272  14.477  67.521  1.00  0.00    -0.201 A  
HETATM   13  C   UNL     1      -7.344  13.452  67.596  1.00  0.00    -0.173 A  
HETATM   14  C   UNL     1      -7.771  12.139  67.815  1.00  0.00    -0.139 A  
HETATM   15  C   UNL     1      -9.132  11.796  67.968  1.00  0.00    -0.180 A  
BRANCH  15  16
HETATM   16  N   UNL     1      -9.479  10.493  68.297  1.00  0.00    -0.151 NA 
HETATM   17  C   UNL     1     -10.242   9.628  67.380  1.00  0.00    -0.227 C  
HETATM   18  C   UNL     1      -9.712   8.176  67.493  1.00  0.00    -0.161 C  
HETATM   19  N   UNL     1      -9.688   7.640  68.872  1.00  0.00    -0.154 NA 
HETATM   20  C   UNL     1      -8.981   8.592  69.761  1.00  0.00    -0.145 C  
HETATM   21  H   UNL     1      -9.288   6.704  68.914  1.00  0.00     0.000 HD 
HETATM   22  C   UNL     1      -9.555  10.027  69.691  1.00  0.00    -0.226 C  
ENDBRANCH  15  16
ENDBRANCH   9  10
ENDBRANCH   5   9
TORSDOF 3
ENDMDL
MODEL      112
REMARK 921   NORMALIZED FREE ENERGY PREDICTED BY IDOCK:   -4.53 KCAL/MOL
REMARK 922        TOTAL FREE ENERGY PREDICTED BY IDOCK:   -6.01 KCAL/MOL
REMARK 923 INTER-LIGAND FREE ENERGY PREDICTED BY IDOCK:   -6.11 KCAL/MOL
REMARK 924 INTRA-LIGAND FREE ENERGY PREDICTED BY IDOCK:    0.09 KCAL/MOL
REMARK 927      BINDING AFFINITY PREDICTED BY RF-SCORE:    0.00 PKD
ROOT
HETATM    1  C   UNL     1     -13.195  15.644  73.521  1.00  0.00    -0.561 C  
HETATM    2  C   UNL     1     -12.768  14.914  72.281  1.00  0.00    -0.411 A  
HETATM    3  C   UNL     1     -13.125  13.585  72.057  1.00  0.00    -0.481 A  
HETATM    4  C   UNL     1     -12.776  12.952  70.850  1.00  0.00    -0.291 A  
HETATM    5  C   UNL     1     -12.063  13.629  69.846  1.00  0.00    -0.341 A  
HETATM    6  C   UNL     1     -10.742  15.743  69.189  1.00  0.00    -0.246 C  
HETATM    7  C   UNL     1     -11.614  14.938  70.120  1.00  0.00    -0.333 A  
HETATM    8  C   UNL     1     -12.000  15.572  71.320  1.00  0.00    -0.443 A  
ENDROOT
BRANCH   5   9
HETATM    9  S   UNL     1     -11.691  12.865  68.261  1.00  0.00    -0.346 SA 
BRANCH   9  10
HETATM   10  C   UNL     1     -10.885  11.295  68.620  1.00  0.00    -0.204 A  
HETATM   11  C   UNL     1     -11.240  10.678  69.838  1.00  0.00    -0.378 A  
HETATM   12  C   UNL     1     -10.785   9.401  70.161  1.00  0.00    -0.282 A  
HETATM   13  C   UNL     1      -9.968   8.725  69.269  1.00  0.00    -0.194 A  
HETATM   14  C   UNL     1      -9.624   9.318  68.051  1.00  0.00    -0.161 A  
HETATM   15  C   UNL     1     -10.076  10.601  67.674  1.00  0.00    -0.177 A  
BRANCH  15  16
HETATM   16  N   UNL     1      -9.791  11.083  66.403  1.00  0.00    -0.205 NA 
HETATM   17  C   UNL     1      -9.869  10.231  65.204  1.00  0.00    -0.321 C  
HETATM   18  C   UNL     1     -10.424  11.065  64.022  1.00  0.00    -0.366 C  
HETATM   19  N   UNL     1      -9.688  12.322  63.764  1.00  0.00    -0.600 NA 
HETATM   20  C   UNL     1      -9.572  13.096  65.022  1.00  0.00     0.242 C  
HETATM   21  H   UNL     1     -10.110  12.868  63.014  1.00  0.00     0.000 HD 
HETATM   22  C   UNL     1      -8.959  12.276  66.182  1.00  0.00    -0.005 C  
ENDBRANCH  15  16
ENDBRANCH   9  10
ENDBRANCH   5   9
TORSDOF 3
ENDMDL
MODEL      113
REMARK 921   NORMALIZED FREE ENERGY PREDICTED BY IDOCK:   -4.51 KCAL/MOL
REMARK 922        TOTAL FREE ENERGY PREDICTED BY IDOCK:   -6.00 KCAL/MOL
REMARK 923 INTER-LIGAND FREE ENERGY PREDICTED BY IDOCK:   -5.13 KCAL/MOL
REMARK 924 INTRA-LIGAND FREE ENERGY PREDICTED BY IDOCK:   -0.87 KCAL/MOL
REMARK 927      BINDING AFFINITY PREDICTED BY RF-SCORE:    0.00 PKD
ROOT
HETATM    1  C   UNL     1     -11.884  13.802  65.988  1.00  0.00    -0.415 C  
HETATM    2  C   UNL     1     -11.456  12.483  66.563  1.00  0.00    -0.418 A  
HETATM    3  C   UNL     1     -11.785  12.114  67.867  1.00  0.00    -0.403 A  
HETATM    4  C   UNL     1     -11.438  10.840  68.351  1.00  0.00    -0.358 A  
HETATM    5  C   UNL     1     -10.754   9.912  67.549  1.00  0.00    -0.272 A  
HETATM    6  C   UNL     1      -9.490   9.483  65.343  1.00  0.00    -0.336 C  
HETATM    7  C   UNL     1     -10.331  10.326  66.268  1.00  0.00    -0.256 A  
HETATM    8  C   UNL     1     -10.716  11.594  65.783  1.00  0.00    -0.331 A  
ENDROOT
BRANCH   5   9
HETATM    9  S   UNL     1     -10.385   8.246  68.121  1.00  0.00    -0.178 SA 
BRANCH   9  10
HETATM   10  C   UNL     1     -10.310   8.322  69.919  1.00  0.00    -0.218 A  
HETATM   11  C   UNL     1     -11.413   7.778  70.611  1.00  0.00    -0.259 A  
HETATM   12  C   UNL     1     -11.407   7.658  71.999  1.00  0.00    -0.322 A  
HETATM   13  C   UNL     1     -10.298   8.083  72.714  1.00  0.00    -0.408 A  
HETATM   14  C   UNL     1      -9.192   8.607  72.038  1.00  0.00    -0.338 A  
HETATM   15  C   UNL     1      -9.146   8.730  70.633  1.00  0.00    -0.186 A  
BRANCH  15  16
HETATM   16  N   UNL     1      -7.974   9.152  70.019  1.00  0.00    -0.099 NA 
HETATM   17  C   UNL     1      -6.700   8.429  70.176  1.00  0.00    -0.039 C  
HETATM   18  C   UNL     1      -5.926   8.465  68.834  1.00  0.00    -0.043 C  
HETATM   19  N   UNL     1      -5.730   9.821  68.279  1.00  0.00    -0.043 NA 
HETATM   20  C   UNL     1      -7.032  10.527  68.221  1.00  0.00    -0.073 C  
HETATM   21  H   UNL     1      -5.262   9.803  67.373  1.00  0.00     0.000 HD 
HETATM   22  C   UNL     1      -7.772  10.542  69.580  1.00  0.00    -0.136 C  
ENDBRANCH  15  16
ENDBRANCH   9  10
ENDBRANCH   5   9
TORSDOF 3
ENDMDL
MODEL      114
REMARK 921   NORMALIZED FREE ENERGY PREDICTED BY IDOCK:   -4.51 KCAL/MOL
REMARK 922        TOTAL FREE ENERGY PREDICTED BY IDOCK:   -5.99 KCAL/MOL
REMARK 923 INTER-LIGAND FREE ENERGY PREDICTED BY IDOCK:   -5.20 KCAL/MOL
REMARK 924 INTRA-LIGAND FREE ENERGY PREDICTED BY IDOCK:   -0.79 KCAL/MOL
REMARK 927      BINDING AFFINITY PREDICTED BY RF-SCORE:    0.00 PKD
ROOT
HETATM    1  C   UNL     1      -9.686  17.375  66.822  1.00  0.00    -0.293 C  
HETATM    2  C   UNL     1      -9.998  15.908  66.869  1.00  0.00    -0.253 A  
HETATM    3  C   UNL     1      -9.161  15.004  67.523  1.00  0.00    -0.189 A  
HETATM    4  C   UNL     1      -9.520  13.647  67.618  1.00  0.00    -0.221 A  
HETATM    5  C   UNL     1     -10.715  13.164  67.060  1.00  0.00    -0.262 A  
HETATM    6  C   UNL     1     -12.751  13.659  65.558  1.00  0.00    -0.514 C  
HETATM    7  C   UNL     1     -11.506  14.059  66.310  1.00  0.00    -0.358 A  
HETATM    8  C   UNL     1     -11.152  15.424  66.252  1.00  0.00    -0.226 A  
ENDROOT
BRANCH   5   9
HETATM    9  S   UNL     1     -11.233  11.452  67.253  1.00  0.00    -0.280 SA 
BRANCH   9  10
HETATM   10  C   UNL     1     -10.286  10.488  66.062  1.00  0.00    -0.211 A  
HETATM   11  C   UNL     1     -10.239  10.998  64.747  1.00  0.00    -0.381 A  
HETATM   12  C   UNL     1      -9.430  10.413  63.775  1.00  0.00    -0.353 A  
HETATM   13  C   UNL     1      -8.659   9.310  64.104  1.00  0.00    -0.207 A  
HETATM   14  C   UNL     1      -8.684   8.807  65.408  1.00  0.00    -0.217 A  
HETATM   15  C   UNL     1      -9.473   9.377  66.430  1.00  0.00    -0.201 A  
BRANCH  15  16
HETATM   16  N   UNL     1      -9.364   8.900  67.729  1.00  0.00    -0.140 NA 
HETATM   17  C   UNL     1      -8.205   9.208  68.585  1.00  0.00    -0.114 C  
HETATM   18  C   UNL     1      -8.689   9.409  70.043  1.00  0.00    -0.210 C  
HETATM   19  N   UNL     1      -9.492   8.289  70.579  1.00  0.00    -0.165 NA 
HETATM   20  C   UNL     1     -10.592   7.972  69.637  1.00  0.00    -0.223 C  
HETATM   21  H   UNL     1      -9.835   8.477  71.521  1.00  0.00     0.000 HD 
HETATM   22  C   UNL     1     -10.096   7.711  68.195  1.00  0.00    -0.186 C  
ENDBRANCH  15  16
ENDBRANCH   9  10
ENDBRANCH   5   9
TORSDOF 3
ENDMDL
MODEL      115
REMARK 921   NORMALIZED FREE ENERGY PREDICTED BY IDOCK:   -4.49 KCAL/MOL
REMARK 922        TOTAL FREE ENERGY PREDICTED BY IDOCK:   -5.97 KCAL/MOL
REMARK 923 INTER-LIGAND FREE ENERGY PREDICTED BY IDOCK:   -5.18 KCAL/MOL
REMARK 924 INTRA-LIGAND FREE ENERGY PREDICTED BY IDOCK:   -0.78 KCAL/MOL
REMARK 927      BINDING AFFINITY PREDICTED BY RF-SCORE:    0.00 PKD
ROOT
HETATM    1  C   UNL     1      -9.457   9.888  62.450  1.00  0.00    -0.174 C  
HETATM    2  C   UNL     1      -9.316  10.391  63.857  1.00  0.00    -0.322 A  
HETATM    3  C   UNL     1     -10.422  10.801  64.601  1.00  0.00    -0.346 A  
HETATM    4  C   UNL     1     -10.268  11.192  65.943  1.00  0.00    -0.303 A  
HETATM    5  C   UNL     1      -9.010  11.188  66.568  1.00  0.00    -0.178 A  
HETATM    6  C   UNL     1      -6.459  10.941  66.284  1.00  0.00    -0.129 C  
HETATM    7  C   UNL     1      -7.880  10.874  65.783  1.00  0.00    -0.057 A  
HETATM    8  C   UNL     1      -8.054  10.449  64.448  1.00  0.00    -0.107 A  
ENDROOT
BRANCH   5   9
HETATM    9  S   UNL     1      -8.809  11.596  68.308  1.00  0.00    -0.164 SA 
BRANCH   9  10
HETATM   10  C   UNL     1     -10.300  11.034  69.147  1.00  0.00    -0.188 A  
HETATM   11  C   UNL     1     -10.249   9.739  69.705  1.00  0.00    -0.254 A  
HETATM   12  C   UNL     1     -11.290   9.249  70.490  1.00  0.00    -0.306 A  
HETATM   13  C   UNL     1     -12.397  10.048  70.728  1.00  0.00    -0.396 A  
HETATM   14  C   UNL     1     -12.452  11.340  70.196  1.00  0.00    -0.297 A  
HETATM   15  C   UNL     1     -11.413  11.884  69.410  1.00  0.00    -0.302 A  
BRANCH  15  16
HETATM   16  N   UNL     1     -11.480  13.212  69.009  1.00  0.00    -0.278 NA 
HETATM   17  C   UNL     1     -11.357  14.328  69.963  1.00  0.00    -0.165 C  
HETATM   18  C   UNL     1     -10.566  15.481  69.297  1.00  0.00    -0.236 C  
HETATM   19  N   UNL     1     -11.110  15.922  67.994  1.00  0.00    -0.338 NA 
HETATM   20  C   UNL     1     -11.287  14.747  67.108  1.00  0.00    -0.356 C  
HETATM   21  H   UNL     1     -10.537  16.646  67.562  1.00  0.00     0.000 HD 
HETATM   22  C   UNL     1     -12.132  13.624  67.755  1.00  0.00    -0.290 C  
ENDBRANCH  15  16
ENDBRANCH   9  10
ENDBRANCH   5   9
TORSDOF 3
ENDMDL
MODEL      116
REMARK 921   NORMALIZED FREE ENERGY PREDICTED BY IDOCK:   -4.49 KCAL/MOL
REMARK 922        TOTAL FREE ENERGY PREDICTED BY IDOCK:   -5.97 KCAL/MOL
REMARK 923 INTER-LIGAND FREE ENERGY PREDICTED BY IDOCK:   -5.23 KCAL/MOL
REMARK 924 INTRA-LIGAND FREE ENERGY PREDICTED BY IDOCK:   -0.74 KCAL/MOL
REMARK 927      BINDING AFFINITY PREDICTED BY RF-SCORE:    0.00 PKD
ROOT
HETATM    1  C   UNL     1      -6.603   6.612  64.037  1.00  0.00    -0.044 C  
HETATM    2  C   UNL     1      -7.093   7.874  64.685  1.00  0.00    -0.076 A  
HETATM    3  C   UNL     1      -6.485   8.392  65.829  1.00  0.00    -0.053 A  
HETATM    4  C   UNL     1      -6.916   9.618  66.367  1.00  0.00    -0.088 A  
HETATM    5  C   UNL     1      -7.961  10.349  65.780  1.00  0.00    -0.152 A  
HETATM    6  C   UNL     1      -9.854  10.385  64.029  1.00  0.00    -0.355 C  
HETATM    7  C   UNL     1      -8.642   9.773  64.686  1.00  0.00    -0.199 A  
HETATM    8  C   UNL     1      -8.177   8.560  64.136  1.00  0.00    -0.141 A  
ENDROOT
BRANCH   5   9
HETATM    9  S   UNL     1      -8.462  11.962  66.400  1.00  0.00     0.039 SA 
BRANCH   9  10
HETATM   10  C   UNL     1      -9.823  11.676  67.544  1.00  0.00    -0.188 A  
HETATM   11  C   UNL     1      -9.570  10.774  68.599  1.00  0.00    -0.187 A  
HETATM   12  C   UNL     1     -10.498  10.576  69.619  1.00  0.00    -0.257 A  
HETATM   13  C   UNL     1     -11.692  11.278  69.598  1.00  0.00    -0.420 A  
HETATM   14  C   UNL     1     -11.948  12.188  68.568  1.00  0.00    -0.273 A  
HETATM   15  C   UNL     1     -11.030  12.434  67.524  1.00  0.00    -0.252 A  
BRANCH  15  16
HETATM   16  N   UNL     1     -11.296  13.433  66.597  1.00  0.00    -0.313 NA 
HETATM   17  C   UNL     1     -10.859  14.826  66.795  1.00  0.00    -0.316 C  
HETATM   18  C   UNL     1     -10.429  15.423  65.432  1.00  0.00    -0.402 C  
HETATM   19  N   UNL     1     -11.448  15.307  64.366  1.00  0.00    -0.672 NA 
HETATM   20  C   UNL     1     -11.906  13.901  64.269  1.00  0.00    -0.412 C  
HETATM   21  H   UNL     1     -11.112  15.665  63.472  1.00  0.00     0.000 HD 
HETATM   22  C   UNL     1     -12.394  13.330  65.622  1.00  0.00    -0.465 C  
ENDBRANCH  15  16
ENDBRANCH   9  10
ENDBRANCH   5   9
TORSDOF 3
ENDMDL
MODEL      117
REMARK 921   NORMALIZED FREE ENERGY PREDICTED BY IDOCK:   -4.45 KCAL/MOL
REMARK 922        TOTAL FREE ENERGY PREDICTED BY IDOCK:   -5.93 KCAL/MOL
REMARK 923 INTER-LIGAND FREE ENERGY PREDICTED BY IDOCK:   -5.31 KCAL/MOL
REMARK 924 INTRA-LIGAND FREE ENERGY PREDICTED BY IDOCK:   -0.62 KCAL/MOL
REMARK 927      BINDING AFFINITY PREDICTED BY RF-SCORE:    0.00 PKD
ROOT
HETATM    1  C   UNL     1     -12.746   9.579  72.103  1.00  0.00    -0.442 C  
HETATM    2  C   UNL     1     -11.818   9.919  70.974  1.00  0.00    -0.463 A  
HETATM    3  C   UNL     1     -12.145  10.888  70.026  1.00  0.00    -0.433 A  
HETATM    4  C   UNL     1     -11.222  11.241  69.026  1.00  0.00    -0.321 A  
HETATM    5  C   UNL     1      -9.957  10.635  68.949  1.00  0.00    -0.204 A  
HETATM    6  C   UNL     1      -8.405   8.763  69.805  1.00  0.00    -0.127 C  
HETATM    7  C   UNL     1      -9.670   9.583  69.844  1.00  0.00    -0.252 A  
HETATM    8  C   UNL     1     -10.592   9.263  70.863  1.00  0.00    -0.366 A  
ENDROOT
BRANCH   5   9
HETATM    9  S   UNL     1      -8.730  11.141  67.735  1.00  0.00    -0.135 SA 
BRANCH   9  10
HETATM   10  C   UNL     1      -7.853  12.547  68.440  1.00  0.00    -0.141 A  
HETATM   11  C   UNL     1      -6.590  12.272  69.007  1.00  0.00    -0.100 A  
HETATM   12  C   UNL     1      -5.764  13.297  69.461  1.00  0.00    -0.094 A  
HETATM   13  C   UNL     1      -6.189  14.611  69.355  1.00  0.00    -0.115 A  
HETATM   14  C   UNL     1      -7.430  14.899  68.779  1.00  0.00    -0.132 A  
HETATM   15  C   UNL     1      -8.293  13.894  68.288  1.00  0.00    -0.163 A  
BRANCH  15  16
HETATM   16  N   UNL     1      -9.458  14.254  67.625  1.00  0.00    -0.207 NA 
HETATM   17  C   UNL     1      -9.463  14.656  66.208  1.00  0.00    -0.293 C  
HETATM   18  C   UNL     1     -10.744  14.108  65.529  1.00  0.00    -0.324 C  
HETATM   19  N   UNL     1     -12.002  14.475  66.215  1.00  0.00    -0.361 NA 
HETATM   20  C   UNL     1     -11.905  14.122  67.651  1.00  0.00    -0.392 C  
HETATM   21  H   UNL     1     -12.819  14.057  65.770  1.00  0.00     0.000 HD 
HETATM   22  C   UNL     1     -10.657  14.723  68.338  1.00  0.00    -0.242 C  
ENDBRANCH  15  16
ENDBRANCH   9  10
ENDBRANCH   5   9
TORSDOF 3
ENDMDL
MODEL      118
REMARK 921   NORMALIZED FREE ENERGY PREDICTED BY IDOCK:   -4.42 KCAL/MOL
REMARK 922        TOTAL FREE ENERGY PREDICTED BY IDOCK:   -5.89 KCAL/MOL
REMARK 923 INTER-LIGAND FREE ENERGY PREDICTED BY IDOCK:   -5.07 KCAL/MOL
REMARK 924 INTRA-LIGAND FREE ENERGY PREDICTED BY IDOCK:   -0.82 KCAL/MOL
REMARK 927      BINDING AFFINITY PREDICTED BY RF-SCORE:    0.00 PKD
ROOT
HETATM    1  C   UNL     1     -14.197   8.424  72.095  1.00  0.00    -0.486 C  
HETATM    2  C   UNL     1     -12.858   7.854  71.728  1.00  0.00    -0.351 A  
HETATM    3  C   UNL     1     -12.719   6.915  70.707  1.00  0.00    -0.112 A  
HETATM    4  C   UNL     1     -11.442   6.459  70.332  1.00  0.00    -0.458 A  
HETATM    5  C   UNL     1     -10.281   6.925  70.970  1.00  0.00    -0.197 A  
HETATM    6  C   UNL     1      -9.288   8.284  72.924  1.00  0.00    -0.324 C  
HETATM    7  C   UNL     1     -10.432   7.795  72.071  1.00  0.00    -0.277 A  
HETATM    8  C   UNL     1     -11.716   8.271  72.413  1.00  0.00    -0.463 A  
ENDROOT
BRANCH   5   9
HETATM    9  S   UNL     1      -8.636   6.423  70.442  1.00  0.00    -0.143 SA 
BRANCH   9  10
HETATM   10  C   UNL     1      -8.806   4.787  69.708  1.00  0.00    -0.093 A  
HETATM   11  C   UNL     1      -8.835   3.701  70.609  1.00  0.00    -0.138 A  
HETATM   12  C   UNL     1      -9.097   2.405  70.170  1.00  0.00    -0.178 A  
HETATM   13  C   UNL     1      -9.332   2.177  68.824  1.00  0.00    -0.221 A  
HETATM   14  C   UNL     1      -9.323   3.247  67.923  1.00  0.00    -0.246 A  
HETATM   15  C   UNL     1      -9.081   4.579  68.325  1.00  0.00    -0.124 A  
BRANCH  15  16
HETATM   16  N   UNL     1      -9.200   5.607  67.400  1.00  0.00    -0.110 NA 
HETATM   17  C   UNL     1     -10.509   6.084  66.920  1.00  0.00    -0.280 C  
HETATM   18  C   UNL     1     -10.453   7.622  66.735  1.00  0.00    -0.249 C  
HETATM   19  N   UNL     1      -9.342   8.093  65.880  1.00  0.00    -0.398 NA 
HETATM   20  C   UNL     1      -8.065   7.516  66.363  1.00  0.00    -0.114 C  
HETATM   21  H   UNL     1      -9.306   9.111  65.821  1.00  0.00     0.000 HD 
HETATM   22  C   UNL     1      -8.107   5.974  66.486  1.00  0.00    -0.109 C  
ENDBRANCH  15  16
ENDBRANCH   9  10
ENDBRANCH   5   9
TORSDOF 3
ENDMDL
MODEL      119
REMARK 921   NORMALIZED FREE ENERGY PREDICTED BY IDOCK:   -4.40 KCAL/MOL
REMARK 922        TOTAL FREE ENERGY PREDICTED BY IDOCK:   -5.87 KCAL/MOL
REMARK 923 INTER-LIGAND FREE ENERGY PREDICTED BY IDOCK:   -5.35 KCAL/MOL
REMARK 924 INTRA-LIGAND FREE ENERGY PREDICTED BY IDOCK:   -0.51 KCAL/MOL
REMARK 927      BINDING AFFINITY PREDICTED BY RF-SCORE:    0.00 PKD
ROOT
HETATM    1  C   UNL     1      -9.245   9.927  62.675  1.00  0.00    -0.297 C  
HETATM    2  C   UNL     1      -9.897  10.695  63.787  1.00  0.00    -0.394 A  
HETATM    3  C   UNL     1      -9.279  10.851  65.028  1.00  0.00    -0.233 A  
HETATM    4  C   UNL     1      -9.879  11.643  66.024  1.00  0.00    -0.258 A  
HETATM    5  C   UNL     1     -11.107  12.290  65.805  1.00  0.00    -0.323 A  
HETATM    6  C   UNL     1     -13.152  12.575  64.263  1.00  0.00    -0.093 C  
HETATM    7  C   UNL     1     -11.779  12.045  64.589  1.00  0.00    -0.358 A  
HETATM    8  C   UNL     1     -11.149  11.278  63.586  1.00  0.00    -0.300 A  
ENDROOT
BRANCH   5   9
HETATM    9  S   UNL     1     -11.841  13.380  67.034  1.00  0.00    -0.388 SA 
BRANCH   9  10
HETATM   10  C   UNL     1     -10.651  14.697  67.335  1.00  0.00    -0.265 A  
HETATM   11  C   UNL     1      -9.952  15.174  66.206  1.00  0.00    -0.307 A  
HETATM   12  C   UNL     1      -9.107  16.278  66.292  1.00  0.00    -0.366 A  
HETATM   13  C   UNL     1      -8.949  16.920  67.510  1.00  0.00    -0.208 A  
HETATM   14  C   UNL     1      -9.649  16.468  68.633  1.00  0.00    -0.241 A  
HETATM   15  C   UNL     1     -10.529  15.365  68.588  1.00  0.00    -0.237 A  
BRANCH  15  16
HETATM   16  N   UNL     1     -11.279  15.040  69.710  1.00  0.00    -0.264 NA 
HETATM   17  C   UNL     1     -11.924  16.066  70.549  1.00  0.00    -0.243 C  
HETATM   18  C   UNL     1     -13.298  15.537  71.033  1.00  0.00    -0.428 C  
HETATM   19  N   UNL     1     -13.242  14.222  71.708  1.00  0.00    -0.345 NA 
HETATM   20  C   UNL     1     -12.513  13.257  70.853  1.00  0.00    -0.342 C  
HETATM   21  H   UNL     1     -14.168  13.884  71.968  1.00  0.00     0.000 HD 
HETATM   22  C   UNL     1     -11.115  13.764  70.424  1.00  0.00     0.538 C  
ENDBRANCH  15  16
ENDBRANCH   9  10
ENDBRANCH   5   9
TORSDOF 3
ENDMDL
MODEL      120
REMARK 921   NORMALIZED FREE ENERGY PREDICTED BY IDOCK:   -4.40 KCAL/MOL
REMARK 922        TOTAL FREE ENERGY PREDICTED BY IDOCK:   -5.87 KCAL/MOL
REMARK 923 INTER-LIGAND FREE ENERGY PREDICTED BY IDOCK:   -5.21 KCAL/MOL
REMARK 924 INTRA-LIGAND FREE ENERGY PREDICTED BY IDOCK:   -0.65 KCAL/MOL
REMARK 927      BINDING AFFINITY PREDICTED BY RF-SCORE:    0.00 PKD
ROOT
HETATM    1  C   UNL     1     -10.055   4.535  65.928  1.00  0.00    -0.279 C  
HETATM    2  C   UNL     1     -10.149   5.847  66.651  1.00  0.00    -0.229 A  
HETATM    3  C   UNL     1      -9.650   7.024  66.095  1.00  0.00    -0.006 A  
HETATM    4  C   UNL     1      -9.823   8.251  66.760  1.00  0.00    -0.333 A  
HETATM    5  C   UNL     1     -10.493   8.328  67.993  1.00  0.00    -0.181 A  
HETATM    6  C   UNL     1     -11.528   7.041  69.972  1.00  0.00    -0.262 C  
HETATM    7  C   UNL     1     -10.904   7.124  68.601  1.00  0.00    -0.149 A  
HETATM    8  C   UNL     1     -10.755   5.905  67.906  1.00  0.00    -0.336 A  
ENDROOT
BRANCH   5   9
HETATM    9  S   UNL     1     -10.805   9.900  68.811  1.00  0.00    -0.181 SA 
BRANCH   9  10
HETATM   10  C   UNL     1      -9.428  10.983  68.392  1.00  0.00    -0.182 A  
HETATM   11  C   UNL     1      -8.182  10.656  68.966  1.00  0.00    -0.151 A  
HETATM   12  C   UNL     1      -7.021  11.338  68.611  1.00  0.00    -0.084 A  
HETATM   13  C   UNL     1      -7.091  12.359  67.676  1.00  0.00    -0.133 A  
HETATM   14  C   UNL     1      -8.317  12.681  67.086  1.00  0.00    -0.172 A  
HETATM   15  C   UNL     1      -9.515  12.005  67.402  1.00  0.00    -0.177 A  
BRANCH  15  16
HETATM   16  N   UNL     1     -10.675  12.298  66.696  1.00  0.00    -0.239 NA 
HETATM   17  C   UNL     1     -11.759  13.112  67.271  1.00  0.00    -0.374 C  
HETATM   18  C   UNL     1     -12.363  14.010  66.162  1.00  0.00    -0.458 C  
HETATM   19  N   UNL     1     -12.800  13.277  64.954  1.00  0.00    -0.732 NA 
HETATM   20  C   UNL     1     -11.695  12.416  64.471  1.00  0.00    -0.362 C  
HETATM   21  H   UNL     1     -13.145  13.904  64.227  1.00  0.00     0.000 HD 
HETATM   22  C   UNL     1     -11.137  11.476  65.567  1.00  0.00    -0.191 C  
ENDBRANCH  15  16
ENDBRANCH   9  10
ENDBRANCH   5   9
TORSDOF 3
ENDMDL
MODEL      121
REMARK 921   NORMALIZED FREE ENERGY PREDICTED BY IDOCK:   -4.40 KCAL/MOL
REMARK 922        TOTAL FREE ENERGY PREDICTED BY IDOCK:   -5.86 KCAL/MOL
REMARK 923 INTER-LIGAND FREE ENERGY PREDICTED BY IDOCK:   -5.11 KCAL/MOL
REMARK 924 INTRA-LIGAND FREE ENERGY PREDICTED BY IDOCK:   -0.75 KCAL/MOL
REMARK 927      BINDING AFFINITY PREDICTED BY RF-SCORE:    0.00 PKD
ROOT
HETATM    1  C   UNL     1     -13.376  12.418  71.730  1.00  0.00    -0.368 C  
HETATM    2  C   UNL     1     -12.944  10.992  71.547  1.00  0.00    -0.553 A  
HETATM    3  C   UNL     1     -13.611   9.941  72.174  1.00  0.00    -0.392 A  
HETATM    4  C   UNL     1     -13.233   8.610  71.921  1.00  0.00    -0.411 A  
HETATM    5  C   UNL     1     -12.182   8.301  71.042  1.00  0.00    -0.174 A  
HETATM    6  C   UNL     1     -10.219   9.191  69.627  1.00  0.00    -0.211 C  
HETATM    7  C   UNL     1     -11.442   9.369  70.491  1.00  0.00    -0.317 A  
HETATM    8  C   UNL     1     -11.855  10.698  70.727  1.00  0.00    -0.459 A  
ENDROOT
BRANCH   5   9
HETATM    9  S   UNL     1     -11.747   6.604  70.636  1.00  0.00    -0.366 SA 
BRANCH   9  10
HETATM   10  C   UNL     1     -10.535   6.073  71.858  1.00  0.00    -0.218 A  
HETATM   11  C   UNL     1     -10.932   6.168  73.209  1.00  0.00    -0.230 A  
HETATM   12  C   UNL     1     -10.134   5.664  74.233  1.00  0.00    -0.276 A  
HETATM   13  C   UNL     1      -8.927   5.059  73.921  1.00  0.00    -0.113 A  
HETATM   14  C   UNL     1      -8.530   4.943  72.585  1.00  0.00    -0.119 A  
HETATM   15  C   UNL     1      -9.315   5.423  71.513  1.00  0.00    -0.147 A  
BRANCH  15  16
HETATM   16  N   UNL     1      -8.917   5.174  70.207  1.00  0.00    -0.122 NA 
HETATM   17  C   UNL     1      -9.177   3.887  69.538  1.00  0.00    -0.156 C  
HETATM   18  C   UNL     1      -9.518   4.148  68.049  1.00  0.00    -0.160 C  
HETATM   19  N   UNL     1      -8.512   4.956  67.326  1.00  0.00    -0.106 NA 
HETATM   20  C   UNL     1      -8.232   6.196  68.087  1.00  0.00    -0.114 C  
HETATM   21  H   UNL     1      -8.792   5.149  66.365  1.00  0.00     0.000 HD 
HETATM   22  C   UNL     1      -7.832   5.927  69.557  1.00  0.00    -0.098 C  
ENDBRANCH  15  16
ENDBRANCH   9  10
ENDBRANCH   5   9
TORSDOF 3
ENDMDL
MODEL      122
REMARK 921   NORMALIZED FREE ENERGY PREDICTED BY IDOCK:   -4.39 KCAL/MOL
REMARK 922        TOTAL FREE ENERGY PREDICTED BY IDOCK:   -5.85 KCAL/MOL
REMARK 923 INTER-LIGAND FREE ENERGY PREDICTED BY IDOCK:   -4.93 KCAL/MOL
REMARK 924 INTRA-LIGAND FREE ENERGY PREDICTED BY IDOCK:   -0.92 KCAL/MOL
REMARK 927      BINDING AFFINITY PREDICTED BY RF-SCORE:    0.00 PKD
ROOT
HETATM    1  C   UNL     1     -13.388   9.923  72.176  1.00  0.00    -0.498 C  
HETATM    2  C   UNL     1     -12.084   9.767  71.450  1.00  0.00    -0.486 A  
HETATM    3  C   UNL     1     -11.829  10.438  70.254  1.00  0.00    -0.399 A  
HETATM    4  C   UNL     1     -10.569  10.335  69.638  1.00  0.00    -0.288 A  
HETATM    5  C   UNL     1      -9.541   9.558  70.198  1.00  0.00    -0.248 A  
HETATM    6  C   UNL     1      -8.871   7.833  71.993  1.00  0.00    -0.169 C  
HETATM    7  C   UNL     1      -9.835   8.799  71.350  1.00  0.00    -0.353 A  
HETATM    8  C   UNL     1     -11.092   8.939  71.976  1.00  0.00    -0.421 A  
ENDROOT
BRANCH   5   9
HETATM    9  S   UNL     1      -7.896   9.490  69.473  1.00  0.00    -0.117 SA 
BRANCH   9  10
HETATM   10  C   UNL     1      -8.116   9.539  67.686  1.00  0.00    -0.110 A  
HETATM   11  C   UNL     1      -7.506  10.619  67.013  1.00  0.00    -0.106 A  
HETATM   12  C   UNL     1      -7.494  10.690  65.623  1.00  0.00    -0.093 A  
HETATM   13  C   UNL     1      -8.093   9.681  64.885  1.00  0.00    -0.133 A  
HETATM   14  C   UNL     1      -8.685   8.597  65.538  1.00  0.00    -0.219 A  
HETATM   15  C   UNL     1      -8.705   8.473  66.945  1.00  0.00    -0.128 A  
BRANCH  15  16
HETATM   16  N   UNL     1      -9.208   7.317  67.525  1.00  0.00    -0.129 NA 
HETATM   17  C   UNL     1      -8.414   6.080  67.628  1.00  0.00    -0.107 C  
HETATM   18  C   UNL     1      -8.728   5.384  68.976  1.00  0.00    -0.101 C  
HETATM   19  N   UNL     1     -10.167   5.142  69.217  1.00  0.00    -0.222 NA 
HETATM   20  C   UNL     1     -10.922   6.402  69.020  1.00  0.00    -0.348 C  
HETATM   21  H   UNL     1     -10.340   4.729  70.133  1.00  0.00     0.000 HD 
HETATM   22  C   UNL     1     -10.652   7.060  67.645  1.00  0.00    -0.257 C  
ENDBRANCH  15  16
ENDBRANCH   9  10
ENDBRANCH   5   9
TORSDOF 3
ENDMDL
MODEL      123
REMARK 921   NORMALIZED FREE ENERGY PREDICTED BY IDOCK:   -4.34 KCAL/MOL
REMARK 922        TOTAL FREE ENERGY PREDICTED BY IDOCK:   -5.79 KCAL/MOL
REMARK 923 INTER-LIGAND FREE ENERGY PREDICTED BY IDOCK:   -5.26 KCAL/MOL
REMARK 924 INTRA-LIGAND FREE ENERGY PREDICTED BY IDOCK:   -0.53 KCAL/MOL
REMARK 927      BINDING AFFINITY PREDICTED BY RF-SCORE:    0.00 PKD
ROOT
HETATM    1  C   UNL     1      -8.210  20.940  67.099  1.00  0.00    -0.134 C  
HETATM    2  C   UNL     1      -8.357  19.496  67.482  1.00  0.00    -0.333 A  
HETATM    3  C   UNL     1      -9.465  18.745  67.089  1.00  0.00    -0.328 A  
HETATM    4  C   UNL     1      -9.537  17.375  67.396  1.00  0.00    -0.257 A  
HETATM    5  C   UNL     1      -8.510  16.727  68.103  1.00  0.00    -0.213 A  
HETATM    6  C   UNL     1      -6.332  16.978  69.459  1.00  0.00    -0.235 C  
HETATM    7  C   UNL     1      -7.442  17.511  68.589  1.00  0.00    -0.265 A  
HETATM    8  C   UNL     1      -7.366  18.877  68.244  1.00  0.00    -0.306 A  
ENDROOT
BRANCH   5   9
HETATM    9  S   UNL     1      -8.543  14.957  68.422  1.00  0.00    -0.165 SA 
BRANCH   9  10
HETATM   10  C   UNL     1     -10.146  14.594  69.158  1.00  0.00    -0.172 A  
HETATM   11  C   UNL     1     -10.330  15.021  70.490  1.00  0.00     0.140 A  
HETATM   12  C   UNL     1     -11.570  14.916  71.117  1.00  0.00    -0.347 A  
HETATM   13  C   UNL     1     -12.641  14.381  70.421  1.00  0.00    -0.405 A  
HETATM   14  C   UNL     1     -12.476  13.970  69.095  1.00  0.00     0.011 A  
HETATM   15  C   UNL     1     -11.244  14.074  68.413  1.00  0.00    -0.266 A  
BRANCH  15  16
HETATM   16  N   UNL     1     -11.178  13.754  67.064  1.00  0.00    -0.302 NA 
HETATM   17  C   UNL     1     -10.608  12.483  66.585  1.00  0.00    -0.237 C  
HETATM   18  C   UNL     1     -11.429  11.984  65.369  1.00  0.00    -0.305 C  
HETATM   19  N   UNL     1     -11.570  12.974  64.280  1.00  0.00    -0.362 NA 
HETATM   20  C   UNL     1     -12.068  14.254  64.836  1.00  0.00    -0.435 C  
HETATM   21  H   UNL     1     -12.157  12.630  63.520  1.00  0.00     0.000 HD 
HETATM   22  C   UNL     1     -11.208  14.780  66.009  1.00  0.00    -0.341 C  
ENDBRANCH  15  16
ENDBRANCH   9  10
ENDBRANCH   5   9
TORSDOF 3
ENDMDL
MODEL      124
REMARK 921   NORMALIZED FREE ENERGY PREDICTED BY IDOCK:   -4.32 KCAL/MOL
REMARK 922        TOTAL FREE ENERGY PREDICTED BY IDOCK:   -5.77 KCAL/MOL
REMARK 923 INTER-LIGAND FREE ENERGY PREDICTED BY IDOCK:   -4.87 KCAL/MOL
REMARK 924 INTRA-LIGAND FREE ENERGY PREDICTED BY IDOCK:   -0.90 KCAL/MOL
REMARK 927      BINDING AFFINITY PREDICTED BY RF-SCORE:    0.00 PKD
ROOT
HETATM    1  C   UNL     1     -11.762  11.939  67.810  1.00  0.00    -0.362 C  
HETATM    2  C   UNL     1     -10.882  11.131  68.718  1.00  0.00    -0.256 A  
HETATM    3  C   UNL     1     -11.392  10.483  69.843  1.00  0.00    -0.380 A  
HETATM    4  C   UNL     1     -10.558   9.669  70.630  1.00  0.00    -0.386 A  
HETATM    5  C   UNL     1      -9.201   9.487  70.314  1.00  0.00    -0.258 A  
HETATM    6  C   UNL     1      -7.206  10.222  68.856  1.00  0.00    -0.086 C  
HETATM    7  C   UNL     1      -8.665  10.225  69.238  1.00  0.00    -0.182 A  
HETATM    8  C   UNL     1      -9.521  11.011  68.437  1.00  0.00    -0.182 A  
ENDROOT
BRANCH   5   9
HETATM    9  S   UNL     1      -8.145   8.376  71.256  1.00  0.00    -0.140 SA 
BRANCH   9  10
HETATM   10  C   UNL     1      -9.225   7.142  72.000  1.00  0.00    -0.134 A  
HETATM   11  C   UNL     1      -9.447   7.264  73.388  1.00  0.00    -0.252 A  
HETATM   12  C   UNL     1     -10.366   6.452  74.047  1.00  0.00    -0.340 A  
HETATM   13  C   UNL     1     -11.076   5.505  73.328  1.00  0.00    -0.322 A  
HETATM   14  C   UNL     1     -10.879   5.385  71.949  1.00  0.00    -0.253 A  
HETATM   15  C   UNL     1      -9.971   6.198  71.235  1.00  0.00    -0.182 A  
BRANCH  15  16
HETATM   16  N   UNL     1      -9.908   6.105  69.852  1.00  0.00    -0.165 NA 
HETATM   17  C   UNL     1     -11.097   6.268  68.998  1.00  0.00    -0.378 C  
HETATM   18  C   UNL     1     -10.695   7.021  67.704  1.00  0.00    -0.261 C  
HETATM   19  N   UNL     1      -9.564   6.412  66.971  1.00  0.00    -0.136 NA 
HETATM   20  C   UNL     1      -8.429   6.198  67.899  1.00  0.00    -0.116 C  
HETATM   21  H   UNL     1      -9.295   6.960  66.154  1.00  0.00     0.000 HD 
HETATM   22  C   UNL     1      -8.822   5.392  69.160  1.00  0.00    -0.101 C  
ENDBRANCH  15  16
ENDBRANCH   9  10
ENDBRANCH   5   9
TORSDOF 3
ENDMDL
MODEL      125
REMARK 921   NORMALIZED FREE ENERGY PREDICTED BY IDOCK:   -4.30 KCAL/MOL
REMARK 922        TOTAL FREE ENERGY PREDICTED BY IDOCK:   -5.74 KCAL/MOL
REMARK 923 INTER-LIGAND FREE ENERGY PREDICTED BY IDOCK:   -5.00 KCAL/MOL
REMARK 924 INTRA-LIGAND FREE ENERGY PREDICTED BY IDOCK:   -0.74 KCAL/MOL
REMARK 927      BINDING AFFINITY PREDICTED BY RF-SCORE:    0.00 PKD
ROOT
HETATM    1  C   UNL     1     -11.457   4.921  73.101  1.00  0.00    -0.362 C  
HETATM    2  C   UNL     1     -10.760   5.843  72.144  1.00  0.00    -0.278 A  
HETATM    3  C   UNL     1     -11.063   5.848  70.782  1.00  0.00    -0.324 A  
HETATM    4  C   UNL     1     -10.450   6.778  69.923  1.00  0.00    -0.242 A  
HETATM    5  C   UNL     1      -9.522   7.717  70.402  1.00  0.00    -0.164 A  
HETATM    6  C   UNL     1      -8.073   8.504  72.384  1.00  0.00    -0.134 C  
HETATM    7  C   UNL     1      -9.141   7.641  71.758  1.00  0.00    -0.161 A  
HETATM    8  C   UNL     1      -9.789   6.727  72.615  1.00  0.00    -0.183 A  
ENDROOT
BRANCH   5   9
HETATM    9  S   UNL     1      -8.800   8.972  69.335  1.00  0.00    -0.148 SA 
BRANCH   9  10
HETATM   10  C   UNL     1     -10.041  10.263  69.141  1.00  0.00    -0.218 A  
HETATM   11  C   UNL     1     -11.088  10.267  70.086  1.00  0.00    -0.385 A  
HETATM   12  C   UNL     1     -12.029  11.293  70.118  1.00  0.00    -0.452 A  
HETATM   13  C   UNL     1     -11.936  12.330  69.204  1.00  0.00    -0.303 A  
HETATM   14  C   UNL     1     -10.894  12.348  68.273  1.00  0.00    -0.264 A  
HETATM   15  C   UNL     1      -9.907  11.339  68.215  1.00  0.00    -0.197 A  
BRANCH  15  16
HETATM   16  N   UNL     1      -8.836  11.476  67.343  1.00  0.00    -0.153 NA 
HETATM   17  C   UNL     1      -7.826  12.537  67.500  1.00  0.00    -0.168 C  
HETATM   18  C   UNL     1      -6.433  11.974  67.121  1.00  0.00    -0.142 C  
HETATM   19  N   UNL     1      -6.373  11.343  65.785  1.00  0.00    -0.384 NA 
HETATM   20  C   UNL     1      -7.461  10.346  65.658  1.00  0.00    -0.149 C  
HETATM   21  H   UNL     1      -5.457  10.940  65.590  1.00  0.00     0.000 HD 
HETATM   22  C   UNL     1      -8.858  10.930  65.977  1.00  0.00    -0.188 C  
ENDBRANCH  15  16
ENDBRANCH   9  10
ENDBRANCH   5   9
TORSDOF 3
ENDMDL
MODEL      126
REMARK 921   NORMALIZED FREE ENERGY PREDICTED BY IDOCK:   -4.29 KCAL/MOL
REMARK 922        TOTAL FREE ENERGY PREDICTED BY IDOCK:   -5.74 KCAL/MOL
REMARK 923 INTER-LIGAND FREE ENERGY PREDICTED BY IDOCK:   -5.16 KCAL/MOL
REMARK 924 INTRA-LIGAND FREE ENERGY PREDICTED BY IDOCK:   -0.58 KCAL/MOL
REMARK 927      BINDING AFFINITY PREDICTED BY RF-SCORE:    0.00 PKD
ROOT
HETATM    1  C   UNL     1      -7.153   7.748  62.676  1.00  0.00    -0.083 C  
HETATM    2  C   UNL     1      -7.972   8.474  63.702  1.00  0.00    -0.161 A  
HETATM    3  C   UNL     1      -8.015   8.055  65.032  1.00  0.00    -0.126 A  
HETATM    4  C   UNL     1      -8.728   8.802  65.987  1.00  0.00    -0.193 A  
HETATM    5  C   UNL     1      -9.414   9.977  65.636  1.00  0.00    -0.220 A  
HETATM    6  C   UNL     1     -10.245  11.505  63.734  1.00  0.00    -0.429 C  
HETATM    7  C   UNL     1      -9.454  10.339  64.274  1.00  0.00    -0.365 A  
HETATM    8  C   UNL     1      -8.706   9.601  63.332  1.00  0.00    -0.237 A  
ENDROOT
BRANCH   5   9
HETATM    9  S   UNL     1     -10.252  10.992  66.862  1.00  0.00    -0.230 SA 
BRANCH   9  10
HETATM   10  C   UNL     1      -9.119  12.324  67.292  1.00  0.00    -0.184 A  
HETATM   11  C   UNL     1      -7.870  11.933  67.819  1.00  0.00    -0.138 A  
HETATM   12  C   UNL     1      -6.864  12.866  68.062  1.00  0.00    -0.108 A  
HETATM   13  C   UNL     1      -7.094  14.203  67.782  1.00  0.00    -0.185 A  
HETATM   14  C   UNL     1      -8.321  14.602  67.244  1.00  0.00    -0.234 A  
HETATM   15  C   UNL     1      -9.363  13.690  66.964  1.00  0.00    -0.248 A  
BRANCH  15  16
HETATM   16  N   UNL     1     -10.511  14.136  66.324  1.00  0.00    -0.281 NA 
HETATM   17  C   UNL     1     -10.495  15.261  65.374  1.00  0.00    -0.398 C  
HETATM   18  C   UNL     1     -11.485  14.966  64.219  1.00  0.00    -0.128 C  
HETATM   19  N   UNL     1     -12.857  14.633  64.662  1.00  0.00    -0.466 NA 
HETATM   20  C   UNL     1     -12.802  13.553  65.675  1.00  0.00    -0.321 C  
HETATM   21  H   UNL     1     -13.467  14.397  63.880  1.00  0.00     0.000 HD 
HETATM   22  C   UNL     1     -11.859  13.880  66.857  1.00  0.00    -0.423 C  
ENDBRANCH  15  16
ENDBRANCH   9  10
ENDBRANCH   5   9
TORSDOF 3
ENDMDL
MODEL      127
REMARK 921   NORMALIZED FREE ENERGY PREDICTED BY IDOCK:   -4.27 KCAL/MOL
REMARK 922        TOTAL FREE ENERGY PREDICTED BY IDOCK:   -5.71 KCAL/MOL
REMARK 923 INTER-LIGAND FREE ENERGY PREDICTED BY IDOCK:   -5.14 KCAL/MOL
REMARK 924 INTRA-LIGAND FREE ENERGY PREDICTED BY IDOCK:   -0.57 KCAL/MOL
REMARK 927      BINDING AFFINITY PREDICTED BY RF-SCORE:    0.00 PKD
ROOT
HETATM    1  C   UNL     1     -13.114  12.493  71.614  1.00  0.00    -0.414 C  
HETATM    2  C   UNL     1     -12.654  11.077  71.425  1.00  0.00    -0.498 A  
HETATM    3  C   UNL     1     -13.159  10.036  72.204  1.00  0.00    -0.482 A  
HETATM    4  C   UNL     1     -12.768   8.709  71.951  1.00  0.00    -0.413 A  
HETATM    5  C   UNL     1     -11.865   8.394  70.922  1.00  0.00    -0.217 A  
HETATM    6  C   UNL     1     -10.208   9.282  69.157  1.00  0.00    -0.214 C  
HETATM    7  C   UNL     1     -11.277   9.459  70.206  1.00  0.00    -0.286 A  
HETATM    8  C   UNL     1     -11.705  10.781  70.447  1.00  0.00    -0.445 A  
ENDROOT
BRANCH   5   9
HETATM    9  S   UNL     1     -11.426   6.695  70.525  1.00  0.00    -0.394 SA 
BRANCH   9  10
HETATM   10  C   UNL     1     -10.701   5.987  72.014  1.00  0.00    -0.235 A  
HETATM   11  C   UNL     1     -11.526   5.112  72.753  1.00  0.00    -0.284 A  
HETATM   12  C   UNL     1     -11.032   4.403  73.844  1.00  0.00    -0.315 A  
HETATM   13  C   UNL     1      -9.705   4.559  74.213  1.00  0.00    -0.159 A  
HETATM   14  C   UNL     1      -8.873   5.409  73.480  1.00  0.00    -0.119 A  
HETATM   15  C   UNL     1      -9.325   6.134  72.356  1.00  0.00    -0.145 A  
BRANCH  15  16
HETATM   16  N   UNL     1      -8.419   6.870  71.604  1.00  0.00    -0.117 NA 
HETATM   17  C   UNL     1      -8.142   8.291  71.878  1.00  0.00    -0.141 C  
HETATM   18  C   UNL     1      -6.636   8.570  71.645  1.00  0.00    -0.073 C  
HETATM   19  N   UNL     1      -6.137   8.154  70.317  1.00  0.00    -0.032 NA 
HETATM   20  C   UNL     1      -6.516   6.744  70.065  1.00  0.00    -0.040 C  
HETATM   21  H   UNL     1      -5.134   8.307  70.217  1.00  0.00     0.000 HD 
HETATM   22  C   UNL     1      -8.031   6.484  70.238  1.00  0.00    -0.115 C  
ENDBRANCH  15  16
ENDBRANCH   9  10
ENDBRANCH   5   9
TORSDOF 3
ENDMDL
MODEL      128
REMARK 921   NORMALIZED FREE ENERGY PREDICTED BY IDOCK:   -4.25 KCAL/MOL
REMARK 922        TOTAL FREE ENERGY PREDICTED BY IDOCK:   -5.69 KCAL/MOL
REMARK 923 INTER-LIGAND FREE ENERGY PREDICTED BY IDOCK:   -4.71 KCAL/MOL
REMARK 924 INTRA-LIGAND FREE ENERGY PREDICTED BY IDOCK:   -0.98 KCAL/MOL
REMARK 927      BINDING AFFINITY PREDICTED BY RF-SCORE:    0.00 PKD
ROOT
HETATM    1  C   UNL     1     -13.890   8.851  72.155  1.00  0.00    -0.531 C  
HETATM    2  C   UNL     1     -12.440   8.959  71.785  1.00  0.00    -0.425 A  
HETATM    3  C   UNL     1     -11.456   8.246  72.471  1.00  0.00    -0.454 A  
HETATM    4  C   UNL     1     -10.115   8.307  72.051  1.00  0.00    -0.331 A  
HETATM    5  C   UNL     1      -9.728   9.080  70.944  1.00  0.00    -0.264 A  
HETATM    6  C   UNL     1     -10.416  10.848  69.199  1.00  0.00    -0.248 C  
HETATM    7  C   UNL     1     -10.707   9.881  70.319  1.00  0.00    -0.367 A  
HETATM    8  C   UNL     1     -12.053   9.784  70.729  1.00  0.00    -0.364 A  
ENDROOT
BRANCH   5   9
HETATM    9  S   UNL     1      -8.034   9.096  70.338  1.00  0.00    -0.162 SA 
BRANCH   9  10
HETATM   10  C   UNL     1      -7.351   7.462  70.670  1.00  0.00    -0.070 A  
HETATM   11  C   UNL     1      -6.464   7.369  71.763  1.00  0.00    -0.043 A  
HETATM   12  C   UNL     1      -5.979   6.137  72.196  1.00  0.00    -0.037 A  
HETATM   13  C   UNL     1      -6.375   4.982  71.542  1.00  0.00    -0.030 A  
HETATM   14  C   UNL     1      -7.267   5.059  70.469  1.00  0.00    -0.054 A  
HETATM   15  C   UNL     1      -7.799   6.282  70.006  1.00  0.00    -0.106 A  
BRANCH  15  16
HETATM   16  N   UNL     1      -8.767   6.278  69.012  1.00  0.00    -0.125 NA 
HETATM   17  C   UNL     1     -10.135   5.786  69.250  1.00  0.00    -0.205 C  
HETATM   18  C   UNL     1     -11.137   6.671  68.467  1.00  0.00    -0.206 C  
HETATM   19  N   UNL     1     -10.838   6.803  67.024  1.00  0.00    -0.414 NA 
HETATM   20  C   UNL     1      -9.427   7.220  66.848  1.00  0.00    -0.164 C  
HETATM   21  H   UNL     1     -11.487   7.431  66.552  1.00  0.00     0.000 HD 
HETATM   22  C   UNL     1      -8.426   6.296  67.581  1.00  0.00    -0.116 C  
ENDBRANCH  15  16
ENDBRANCH   9  10
ENDBRANCH   5   9
TORSDOF 3
ENDMDL
MODEL      129
REMARK 921   NORMALIZED FREE ENERGY PREDICTED BY IDOCK:   -4.24 KCAL/MOL
REMARK 922        TOTAL FREE ENERGY PREDICTED BY IDOCK:   -5.67 KCAL/MOL
REMARK 923 INTER-LIGAND FREE ENERGY PREDICTED BY IDOCK:   -4.80 KCAL/MOL
REMARK 924 INTRA-LIGAND FREE ENERGY PREDICTED BY IDOCK:   -0.87 KCAL/MOL
REMARK 927      BINDING AFFINITY PREDICTED BY RF-SCORE:    0.00 PKD
ROOT
HETATM    1  C   UNL     1      -9.888  17.018  66.315  1.00  0.00    -0.310 C  
HETATM    2  C   UNL     1     -10.116  15.546  66.503  1.00  0.00    -0.290 A  
HETATM    3  C   UNL     1     -11.387  14.984  66.387  1.00  0.00    -0.275 A  
HETATM    4  C   UNL     1     -11.557  13.591  66.490  1.00  0.00    -0.391 A  
HETATM    5  C   UNL     1     -10.467  12.734  66.714  1.00  0.00    -0.241 A  
HETATM    6  C   UNL     1      -7.965  12.531  67.301  1.00  0.00    -0.173 C  
HETATM    7  C   UNL     1      -9.200  13.315  66.935  1.00  0.00    -0.242 A  
HETATM    8  C   UNL     1      -9.038  14.710  66.794  1.00  0.00    -0.287 A  
ENDROOT
BRANCH   5   9
HETATM    9  S   UNL     1     -10.654  10.945  66.756  1.00  0.00    -0.247 SA 
BRANCH   9  10
HETATM   10  C   UNL     1     -10.031  10.323  65.184  1.00  0.00    -0.325 A  
HETATM   11  C   UNL     1     -10.319  11.107  64.047  1.00  0.00    -0.437 A  
HETATM   12  C   UNL     1      -9.778  10.798  62.801  1.00  0.00    -0.297 A  
HETATM   13  C   UNL     1      -8.941   9.701  62.676  1.00  0.00    -0.274 A  
HETATM   14  C   UNL     1      -8.633   8.927  63.799  1.00  0.00    -0.105 A  
HETATM   15  C   UNL     1      -9.144   9.212  65.084  1.00  0.00    -0.176 A  
BRANCH  15  16
HETATM   16  N   UNL     1      -8.708   8.473  66.175  1.00  0.00    -0.142 NA 
HETATM   17  C   UNL     1      -7.470   8.802  66.903  1.00  0.00    -0.090 C  
HETATM   18  C   UNL     1      -7.687   8.547  68.416  1.00  0.00    -0.101 C  
HETATM   19  N   UNL     1      -8.179   7.190  68.742  1.00  0.00    -0.121 NA 
HETATM   20  C   UNL     1      -9.374   6.886  67.921  1.00  0.00    -0.118 C  
HETATM   21  H   UNL     1      -8.357   7.074  69.739  1.00  0.00     0.000 HD 
HETATM   22  C   UNL     1      -9.133   7.083  66.405  1.00  0.00    -0.160 C  
ENDBRANCH  15  16
ENDBRANCH   9  10
ENDBRANCH   5   9
TORSDOF 3
ENDMDL
MODEL      130
REMARK 921   NORMALIZED FREE ENERGY PREDICTED BY IDOCK:   -4.23 KCAL/MOL
REMARK 922        TOTAL FREE ENERGY PREDICTED BY IDOCK:   -5.67 KCAL/MOL
REMARK 923 INTER-LIGAND FREE ENERGY PREDICTED BY IDOCK:   -4.91 KCAL/MOL
REMARK 924 INTRA-LIGAND FREE ENERGY PREDICTED BY IDOCK:   -0.76 KCAL/MOL
REMARK 927      BINDING AFFINITY PREDICTED BY RF-SCORE:    0.00 PKD
ROOT
HETATM    1  C   UNL     1      -6.513  12.926  67.405  1.00  0.00    -0.126 C  
HETATM    2  C   UNL     1      -7.194  11.713  67.970  1.00  0.00    -0.083 A  
HETATM    3  C   UNL     1      -6.872  11.217  69.233  1.00  0.00    -0.116 A  
HETATM    4  C   UNL     1      -7.582  10.127  69.768  1.00  0.00    -0.175 A  
HETATM    5  C   UNL     1      -8.622   9.509  69.054  1.00  0.00    -0.133 A  
HETATM    6  C   UNL     1      -9.876   9.301  66.811  1.00  0.00    -0.289 C  
HETATM    7  C   UNL     1      -8.874   9.945  67.737  1.00  0.00    -0.129 A  
HETATM    8  C   UNL     1      -8.178  11.062  67.226  1.00  0.00    -0.125 A  
ENDROOT
BRANCH   5   9
HETATM    9  S   UNL     1      -9.601   8.175  69.761  1.00  0.00    -0.172 SA 
BRANCH   9  10
HETATM   10  C   UNL     1     -10.944   8.948  70.677  1.00  0.00    -0.241 A  
HETATM   11  C   UNL     1     -11.581  10.038  70.046  1.00  0.00    -0.279 A  
HETATM   12  C   UNL     1     -12.716  10.629  70.596  1.00  0.00    -0.445 A  
HETATM   13  C   UNL     1     -13.230  10.138  71.786  1.00  0.00    -0.542 A  
HETATM   14  C   UNL     1     -12.619   9.047  72.412  1.00  0.00    -0.403 A  
HETATM   15  C   UNL     1     -11.479   8.406  71.882  1.00  0.00    -0.318 A  
BRANCH  15  16
HETATM   16  N   UNL     1     -10.991   7.258  72.493  1.00  0.00    -0.262 NA 
HETATM   17  C   UNL     1     -11.618   5.939  72.302  1.00  0.00    -0.282 C  
HETATM   18  C   UNL     1     -10.513   4.855  72.240  1.00  0.00    -0.204 C  
HETATM   19  N   UNL     1      -9.583   4.866  73.390  1.00  0.00    -0.132 NA 
HETATM   20  C   UNL     1      -9.048   6.234  73.582  1.00  0.00    -0.128 C  
HETATM   21  H   UNL     1      -8.841   4.173  73.291  1.00  0.00     0.000 HD 
HETATM   22  C   UNL     1     -10.158   7.305  73.705  1.00  0.00    -0.329 C  
ENDBRANCH  15  16
ENDBRANCH   9  10
ENDBRANCH   5   9
TORSDOF 3
ENDMDL
MODEL      131
REMARK 921   NORMALIZED FREE ENERGY PREDICTED BY IDOCK:   -4.20 KCAL/MOL
REMARK 922        TOTAL FREE ENERGY PREDICTED BY IDOCK:   -5.63 KCAL/MOL
REMARK 923 INTER-LIGAND FREE ENERGY PREDICTED BY IDOCK:   -5.32 KCAL/MOL
REMARK 924 INTRA-LIGAND FREE ENERGY PREDICTED BY IDOCK:   -0.31 KCAL/MOL
REMARK 927      BINDING AFFINITY PREDICTED BY RF-SCORE:    0.00 PKD
ROOT
HETATM    1  C   UNL     1      -5.129  14.939  71.685  1.00  0.00    -0.150 C  
HETATM    2  C   UNL     1      -5.825  14.412  70.464  1.00  0.00    -0.170 A  
HETATM    3  C   UNL     1      -5.740  13.069  70.098  1.00  0.00    -0.145 A  
HETATM    4  C   UNL     1      -6.467  12.589  68.993  1.00  0.00    -0.097 A  
HETATM    5  C   UNL     1      -7.288  13.437  68.231  1.00  0.00    -0.113 A  
HETATM    6  C   UNL     1      -8.027  15.857  67.741  1.00  0.00    -0.154 C  
HETATM    7  C   UNL     1      -7.289  14.813  68.541  1.00  0.00    -0.118 A  
HETATM    8  C   UNL     1      -6.583  15.275  69.672  1.00  0.00    -0.174 A  
ENDROOT
BRANCH   5   9
HETATM    9  S   UNL     1      -8.295  12.820  66.874  1.00  0.00     0.016 SA 
BRANCH   9  10
HETATM   10  C   UNL     1      -9.671  11.926  67.616  1.00  0.00    -0.185 A  
HETATM   11  C   UNL     1      -9.351  11.078  68.698  1.00  0.00    -0.196 A  
HETATM   12  C   UNL     1     -10.347  10.441  69.435  1.00  0.00    -0.259 A  
HETATM   13  C   UNL     1     -11.676  10.642  69.100  1.00  0.00    -0.324 A  
HETATM   14  C   UNL     1     -12.007  11.493  68.041  1.00  0.00    -0.174 A  
HETATM   15  C   UNL     1     -11.033  12.174  67.278  1.00  0.00    -0.260 A  
BRANCH  15  16
HETATM   16  N   UNL     1     -11.434  13.092  66.317  1.00  0.00    -0.321 NA 
HETATM   17  C   UNL     1     -11.225  14.541  66.478  1.00  0.00    -0.344 C  
HETATM   18  C   UNL     1     -10.865  15.159  65.104  1.00  0.00    -0.422 C  
HETATM   19  N   UNL     1     -11.831  14.855  64.026  1.00  0.00    -0.817 NA 
HETATM   20  C   UNL     1     -12.061  13.392  63.966  1.00  0.00    -0.449 C  
HETATM   21  H   UNL     1     -11.537  15.235  63.127  1.00  0.00     0.000 HD 
HETATM   22  C   UNL     1     -12.481  12.789  65.328  1.00  0.00    -0.465 C  
ENDBRANCH  15  16
ENDBRANCH   9  10
ENDBRANCH   5   9
TORSDOF 3
ENDMDL
MODEL      132
REMARK 921   NORMALIZED FREE ENERGY PREDICTED BY IDOCK:   -4.16 KCAL/MOL
REMARK 922        TOTAL FREE ENERGY PREDICTED BY IDOCK:   -5.59 KCAL/MOL
REMARK 923 INTER-LIGAND FREE ENERGY PREDICTED BY IDOCK:   -4.75 KCAL/MOL
REMARK 924 INTRA-LIGAND FREE ENERGY PREDICTED BY IDOCK:   -0.83 KCAL/MOL
REMARK 927      BINDING AFFINITY PREDICTED BY RF-SCORE:    0.00 PKD
ROOT
HETATM    1  C   UNL     1     -12.323  13.294  63.080  1.00  0.00    -0.163 C  
HETATM    2  C   UNL     1     -11.746  13.135  64.456  1.00  0.00    -0.417 A  
HETATM    3  C   UNL     1     -12.000  12.002  65.229  1.00  0.00    -0.207 A  
HETATM    4  C   UNL     1     -11.381  11.845  66.482  1.00  0.00    -0.403 A  
HETATM    5  C   UNL     1     -10.501  12.815  66.991  1.00  0.00    -0.237 A  
HETATM    6  C   UNL     1      -9.509  15.180  66.730  1.00  0.00    -0.260 C  
HETATM    7  C   UNL     1     -10.328  14.006  66.255  1.00  0.00    -0.294 A  
HETATM    8  C   UNL     1     -10.928  14.134  64.984  1.00  0.00    -0.391 A  
ENDROOT
BRANCH   5   9
HETATM    9  S   UNL     1      -9.630  12.587  68.548  1.00  0.00    -0.043 SA 
BRANCH   9  10
HETATM   10  C   UNL     1     -10.719  11.627  69.615  1.00  0.00     0.158 A  
HETATM   11  C   UNL     1     -11.716  12.353  70.301  1.00  0.00    -0.207 A  
HETATM   12  C   UNL     1     -12.697  11.705  71.047  1.00  0.00    -0.395 A  
HETATM   13  C   UNL     1     -12.695  10.321  71.117  1.00  0.00    -0.502 A  
HETATM   14  C   UNL     1     -11.724   9.589  70.428  1.00  0.00    -0.227 A  
HETATM   15  C   UNL     1     -10.721  10.202  69.645  1.00  0.00    -0.264 A  
BRANCH  15  16
HETATM   16  N   UNL     1      -9.859   9.414  68.895  1.00  0.00    -0.166 NA 
HETATM   17  C   UNL     1     -10.319   8.628  67.738  1.00  0.00    -0.242 C  
HETATM   18  C   UNL     1      -9.228   8.654  66.638  1.00  0.00    -0.181 C  
HETATM   19  N   UNL     1      -7.887   8.231  67.099  1.00  0.00    -0.096 NA 
HETATM   20  C   UNL     1      -7.515   8.999  68.311  1.00  0.00    -0.083 C  
HETATM   21  H   UNL     1      -7.185   8.309  66.364  1.00  0.00     0.000 HD 
HETATM   22  C   UNL     1      -8.581   8.918  69.429  1.00  0.00    -0.133 C  
ENDBRANCH  15  16
ENDBRANCH   9  10
ENDBRANCH   5   9
TORSDOF 3
ENDMDL
MODEL      133
REMARK 921   NORMALIZED FREE ENERGY PREDICTED BY IDOCK:   -4.16 KCAL/MOL
REMARK 922        TOTAL FREE ENERGY PREDICTED BY IDOCK:   -5.58 KCAL/MOL
REMARK 923 INTER-LIGAND FREE ENERGY PREDICTED BY IDOCK:   -5.23 KCAL/MOL
REMARK 924 INTRA-LIGAND FREE ENERGY PREDICTED BY IDOCK:   -0.35 KCAL/MOL
REMARK 927      BINDING AFFINITY PREDICTED BY RF-SCORE:    0.00 PKD
ROOT
HETATM    1  C   UNL     1      -9.965  17.140  68.229  1.00  0.00    -0.300 C  
HETATM    2  C   UNL     1     -10.388  15.701  68.263  1.00  0.00    -0.244 A  
HETATM    3  C   UNL     1     -11.260  15.218  69.240  1.00  0.00    -0.291 A  
HETATM    4  C   UNL     1     -11.701  13.883  69.199  1.00  0.00    -0.382 A  
HETATM    5  C   UNL     1     -11.280  13.003  68.189  1.00  0.00    -0.272 A  
HETATM    6  C   UNL     1      -9.688  12.600  66.201  1.00  0.00    -0.253 C  
HETATM    7  C   UNL     1     -10.318  13.464  67.265  1.00  0.00    -0.244 A  
HETATM    8  C   UNL     1      -9.911  14.815  67.297  1.00  0.00    -0.231 A  
ENDROOT
BRANCH   5   9
HETATM    9  S   UNL     1     -11.906  11.321  68.069  1.00  0.00    -0.066 SA 
BRANCH   9  10
HETATM   10  C   UNL     1     -11.969  10.672  69.748  1.00  0.00    -0.291 A  
HETATM   11  C   UNL     1     -12.890  11.290  70.620  1.00  0.00    -0.226 A  
HETATM   12  C   UNL     1     -13.124  10.789  71.898  1.00  0.00    -0.557 A  
HETATM   13  C   UNL     1     -12.439   9.662  72.322  1.00  0.00    -0.249 A  
HETATM   14  C   UNL     1     -11.536   9.029  71.462  1.00  0.00    -0.413 A  
HETATM   15  C   UNL     1     -11.282   9.490  70.152  1.00  0.00    -0.234 A  
BRANCH  15  16
HETATM   16  N   UNL     1     -10.462   8.750  69.311  1.00  0.00    -0.221 NA 
HETATM   17  C   UNL     1     -10.771   7.359  68.937  1.00  0.00    -0.130 C  
HETATM   18  C   UNL     1     -10.366   7.128  67.459  1.00  0.00    -0.236 C  
HETATM   19  N   UNL     1      -8.966   7.489  67.146  1.00  0.00    -0.124 NA 
HETATM   20  C   UNL     1      -8.693   8.867  67.618  1.00  0.00    -0.124 C  
HETATM   21  H   UNL     1      -8.751   7.372  66.157  1.00  0.00     0.000 HD 
HETATM   22  C   UNL     1      -9.040   9.075  69.112  1.00  0.00    -0.140 C  
ENDBRANCH  15  16
ENDBRANCH   9  10
ENDBRANCH   5   9
TORSDOF 3
ENDMDL
MODEL      134
REMARK 921   NORMALIZED FREE ENERGY PREDICTED BY IDOCK:   -4.16 KCAL/MOL
REMARK 922        TOTAL FREE ENERGY PREDICTED BY IDOCK:   -5.58 KCAL/MOL
REMARK 923 INTER-LIGAND FREE ENERGY PREDICTED BY IDOCK:   -4.93 KCAL/MOL
REMARK 924 INTRA-LIGAND FREE ENERGY PREDICTED BY IDOCK:   -0.65 KCAL/MOL
REMARK 927      BINDING AFFINITY PREDICTED BY RF-SCORE:    0.00 PKD
ROOT
HETATM    1  C   UNL     1     -12.652  13.653  63.628  1.00  0.00    -0.065 C  
HETATM    2  C   UNL     1     -11.916  12.811  64.629  1.00  0.00    -0.453 A  
HETATM    3  C   UNL     1     -10.961  11.875  64.234  1.00  0.00    -0.411 A  
HETATM    4  C   UNL     1     -10.231  11.157  65.198  1.00  0.00    -0.347 A  
HETATM    5  C   UNL     1     -10.440  11.355  66.573  1.00  0.00    -0.249 A  
HETATM    6  C   UNL     1     -11.896  12.447  68.400  1.00  0.00    -0.361 C  
HETATM    7  C   UNL     1     -11.479  12.225  66.967  1.00  0.00    -0.419 A  
HETATM    8  C   UNL     1     -12.179  12.964  65.990  1.00  0.00    -0.431 A  
ENDROOT
BRANCH   5   9
HETATM    9  S   UNL     1      -9.452  10.514  67.819  1.00  0.00    -0.150 SA 
BRANCH   9  10
HETATM   10  C   UNL     1      -9.564   8.752  67.465  1.00  0.00    -0.152 A  
HETATM   11  C   UNL     1     -10.649   8.067  68.053  1.00  0.00    -0.190 A  
HETATM   12  C   UNL     1     -10.915   6.736  67.744  1.00  0.00    -0.321 A  
HETATM   13  C   UNL     1     -10.099   6.069  66.844  1.00  0.00    -0.229 A  
HETATM   14  C   UNL     1      -9.032   6.741  66.241  1.00  0.00    -0.170 A  
HETATM   15  C   UNL     1      -8.735   8.095  66.509  1.00  0.00    -0.143 A  
BRANCH  15  16
HETATM   16  N   UNL     1      -7.732   8.734  65.791  1.00  0.00    -0.092 NA 
HETATM   17  C   UNL     1      -7.507   8.477  64.358  1.00  0.00    -0.110 C  
HETATM   18  C   UNL     1      -7.109   9.802  63.661  1.00  0.00    -0.116 C  
HETATM   19  N   UNL     1      -5.966  10.501  64.286  1.00  0.00    -0.327 NA 
HETATM   20  C   UNL     1      -6.215  10.657  65.738  1.00  0.00    -0.126 C  
HETATM   21  H   UNL     1      -5.764  11.392  63.832  1.00  0.00     0.000 HD 
HETATM   22  C   UNL     1      -6.550   9.320  66.442  1.00  0.00    -0.067 C  
ENDBRANCH  15  16
ENDBRANCH   9  10
ENDBRANCH   5   9
TORSDOF 3
ENDMDL
MODEL      135
REMARK 921   NORMALIZED FREE ENERGY PREDICTED BY IDOCK:   -4.15 KCAL/MOL
REMARK 922        TOTAL FREE ENERGY PREDICTED BY IDOCK:   -5.56 KCAL/MOL
REMARK 923 INTER-LIGAND FREE ENERGY PREDICTED BY IDOCK:   -5.21 KCAL/MOL
REMARK 924 INTRA-LIGAND FREE ENERGY PREDICTED BY IDOCK:   -0.35 KCAL/MOL
REMARK 927      BINDING AFFINITY PREDICTED BY RF-SCORE:    0.00 PKD
ROOT
HETATM    1  C   UNL     1     -11.645  11.995  66.251  1.00  0.00    -0.378 C  
HETATM    2  C   UNL     1     -11.378  13.361  66.813  1.00  0.00    -0.353 A  
HETATM    3  C   UNL     1     -11.315  13.585  68.188  1.00  0.00    -0.319 A  
HETATM    4  C   UNL     1     -10.984  14.859  68.683  1.00  0.00    -0.263 A  
HETATM    5  C   UNL     1     -10.715  15.935  67.820  1.00  0.00    -0.320 A  
HETATM    6  C   UNL     1     -10.744  16.818  65.398  1.00  0.00    -0.201 C  
HETATM    7  C   UNL     1     -10.883  15.730  66.434  1.00  0.00    -0.226 A  
HETATM    8  C   UNL     1     -11.181  14.439  65.950  1.00  0.00    -0.324 A  
ENDROOT
BRANCH   5   9
HETATM    9  S   UNL     1     -10.201  17.545  68.435  1.00  0.00    -0.390 SA 
BRANCH   9  10
HETATM   10  C   UNL     1      -8.861  18.103  67.368  1.00  0.00    -0.256 A  
HETATM   11  C   UNL     1      -9.038  19.360  66.753  1.00  0.00    -0.382 A  
HETATM   12  C   UNL     1      -8.016  19.953  66.016  1.00  0.00    -0.328 A  
HETATM   13  C   UNL     1      -6.803  19.297  65.884  1.00  0.00    -0.289 A  
HETATM   14  C   UNL     1      -6.609  18.059  66.503  1.00  0.00    -0.243 A  
HETATM   15  C   UNL     1      -7.609  17.428  67.275  1.00  0.00    -0.192 A  
BRANCH  15  16
HETATM   16  N   UNL     1      -7.312  16.256  67.956  1.00  0.00    -0.129 NA 
HETATM   17  C   UNL     1      -6.786  16.258  69.332  1.00  0.00    -0.213 C  
HETATM   18  C   UNL     1      -7.399  15.069  70.113  1.00  0.00     0.168 C  
HETATM   19  N   UNL     1      -7.229  13.755  69.456  1.00  0.00    -0.325 NA 
HETATM   20  C   UNL     1      -7.700  13.837  68.054  1.00  0.00    -0.152 C  
HETATM   21  H   UNL     1      -7.687  13.004  69.972  1.00  0.00     0.000 HD 
HETATM   22  C   UNL     1      -7.037  14.989  67.260  1.00  0.00    -0.099 C  
ENDBRANCH  15  16
ENDBRANCH   9  10
ENDBRANCH   5   9
TORSDOF 3
ENDMDL
MODEL      136
REMARK 921   NORMALIZED FREE ENERGY PREDICTED BY IDOCK:   -4.12 KCAL/MOL
REMARK 922        TOTAL FREE ENERGY PREDICTED BY IDOCK:   -5.53 KCAL/MOL
REMARK 923 INTER-LIGAND FREE ENERGY PREDICTED BY IDOCK:   -4.87 KCAL/MOL
REMARK 924 INTRA-LIGAND FREE ENERGY PREDICTED BY IDOCK:   -0.66 KCAL/MOL
REMARK 927      BINDING AFFINITY PREDICTED BY RF-SCORE:    0.00 PKD
ROOT
HETATM    1  C   UNL     1      -8.506   9.111  62.824  1.00  0.00    -0.211 C  
HETATM    2  C   UNL     1      -8.960   9.395  64.227  1.00  0.00    -0.204 A  
HETATM    3  C   UNL     1      -8.518   8.630  65.306  1.00  0.00    -0.196 A  
HETATM    4  C   UNL     1      -8.898   8.968  66.617  1.00  0.00    -0.152 A  
HETATM    5  C   UNL     1      -9.727  10.072  66.878  1.00  0.00    -0.189 A  
HETATM    6  C   UNL     1     -11.250  11.907  65.899  1.00  0.00    -0.373 C  
HETATM    7  C   UNL     1     -10.256  10.779  65.778  1.00  0.00    -0.319 A  
HETATM    8  C   UNL     1      -9.839  10.449  64.471  1.00  0.00    -0.405 A  
ENDROOT
BRANCH   5   9
HETATM    9  S   UNL     1     -10.147  10.573  68.554  1.00  0.00    -0.182 SA 
BRANCH   9  10
HETATM   10  C   UNL     1      -8.832   9.960  69.622  1.00  0.00    -0.208 A  
HETATM   11  C   UNL     1      -7.581  10.601  69.499  1.00  0.00    -0.128 A  
HETATM   12  C   UNL     1      -6.530  10.305  70.363  1.00  0.00    -0.131 A  
HETATM   13  C   UNL     1      -6.715   9.362  71.362  1.00  0.00     0.041 A  
HETATM   14  C   UNL     1      -7.955   8.732  71.505  1.00  0.00    -0.160 A  
HETATM   15  C   UNL     1      -9.054   9.014  70.665  1.00  0.00    -0.235 A  
BRANCH  15  16
HETATM   16  N   UNL     1     -10.288   8.438  70.933  1.00  0.00    -0.191 NA 
HETATM   17  C   UNL     1     -11.212   8.992  71.938  1.00  0.00    -0.368 C  
HETATM   18  C   UNL     1     -12.667   8.844  71.428  1.00  0.00    -0.301 C  
HETATM   19  N   UNL     1     -13.038   7.468  71.033  1.00  0.00    -0.583 NA 
HETATM   20  C   UNL     1     -12.030   6.936  70.085  1.00  0.00    -0.145 C  
HETATM   21  H   UNL     1     -13.984   7.417  70.656  1.00  0.00     0.000 HD 
HETATM   22  C   UNL     1     -10.583   7.030  70.626  1.00  0.00    -0.225 C  
ENDBRANCH  15  16
ENDBRANCH   9  10
ENDBRANCH   5   9
TORSDOF 3
ENDMDL
MODEL      137
REMARK 921   NORMALIZED FREE ENERGY PREDICTED BY IDOCK:   -4.11 KCAL/MOL
REMARK 922        TOTAL FREE ENERGY PREDICTED BY IDOCK:   -5.52 KCAL/MOL
REMARK 923 INTER-LIGAND FREE ENERGY PREDICTED BY IDOCK:   -5.10 KCAL/MOL
REMARK 924 INTRA-LIGAND FREE ENERGY PREDICTED BY IDOCK:   -0.43 KCAL/MOL
REMARK 927      BINDING AFFINITY PREDICTED BY RF-SCORE:    0.00 PKD
ROOT
HETATM    1  C   UNL     1     -12.430  12.751  65.042  1.00  0.00    -0.572 C  
HETATM    2  C   UNL     1     -11.504  11.913  65.875  1.00  0.00    -0.340 A  
HETATM    3  C   UNL     1     -11.367  12.119  67.247  1.00  0.00    -0.398 A  
HETATM    4  C   UNL     1     -10.553  11.266  68.014  1.00  0.00    -0.230 A  
HETATM    5  C   UNL     1      -9.856  10.196  67.429  1.00  0.00    -0.187 A  
HETATM    6  C   UNL     1      -9.128   9.029  65.248  1.00  0.00    -0.226 C  
HETATM    7  C   UNL     1      -9.913  10.055  66.026  1.00  0.00    -0.334 A  
HETATM    8  C   UNL     1     -10.762  10.895  65.274  1.00  0.00    -0.194 A  
ENDROOT
BRANCH   5   9
HETATM    9  S   UNL     1      -8.885   9.042  68.409  1.00  0.00    -0.133 SA 
BRANCH   9  10
HETATM   10  C   UNL     1     -10.041   8.176  69.484  1.00  0.00    -0.193 A  
HETATM   11  C   UNL     1     -10.853   8.986  70.306  1.00  0.00    -0.269 A  
HETATM   12  C   UNL     1     -11.874   8.437  71.078  1.00  0.00    -0.278 A  
HETATM   13  C   UNL     1     -12.097   7.070  71.040  1.00  0.00    -0.413 A  
HETATM   14  C   UNL     1     -11.311   6.258  70.216  1.00  0.00    -0.457 A  
HETATM   15  C   UNL     1     -10.278   6.772  69.403  1.00  0.00    -0.187 A  
BRANCH  15  16
HETATM   16  N   UNL     1      -9.612   5.928  68.524  1.00  0.00    -0.120 NA 
HETATM   17  C   UNL     1     -10.322   5.148  67.495  1.00  0.00    -0.128 C  
HETATM   18  C   UNL     1      -9.460   5.099  66.209  1.00  0.00    -0.156 C  
HETATM   19  N   UNL     1      -8.078   4.615  66.418  1.00  0.00    -0.103 NA 
HETATM   20  C   UNL     1      -7.446   5.383  67.516  1.00  0.00    -0.084 C  
HETATM   21  H   UNL     1      -7.526   4.644  65.561  1.00  0.00     0.000 HD 
HETATM   22  C   UNL     1      -8.281   5.375  68.819  1.00  0.00    -0.094 C  
ENDBRANCH  15  16
ENDBRANCH   9  10
ENDBRANCH   5   9
TORSDOF 3
ENDMDL
MODEL      138
REMARK 921   NORMALIZED FREE ENERGY PREDICTED BY IDOCK:   -4.08 KCAL/MOL
REMARK 922        TOTAL FREE ENERGY PREDICTED BY IDOCK:   -5.49 KCAL/MOL
REMARK 923 INTER-LIGAND FREE ENERGY PREDICTED BY IDOCK:   -4.92 KCAL/MOL
REMARK 924 INTRA-LIGAND FREE ENERGY PREDICTED BY IDOCK:   -0.57 KCAL/MOL
REMARK 927      BINDING AFFINITY PREDICTED BY RF-SCORE:    0.00 PKD
ROOT
HETATM    1  C   UNL     1      -5.725  10.055  69.413  1.00  0.00    -0.037 C  
HETATM    2  C   UNL     1      -6.506  11.137  68.725  1.00  0.00    -0.052 A  
HETATM    3  C   UNL     1      -7.388  10.851  67.683  1.00  0.00    -0.094 A  
HETATM    4  C   UNL     1      -8.164  11.875  67.111  1.00  0.00    -0.171 A  
HETATM    5  C   UNL     1      -8.074  13.202  67.562  1.00  0.00    -0.181 A  
HETATM    6  C   UNL     1      -6.815  14.900  69.038  1.00  0.00    -0.115 C  
HETATM    7  C   UNL     1      -7.106  13.505  68.542  1.00  0.00    -0.108 A  
HETATM    8  C   UNL     1      -6.359  12.463  69.132  1.00  0.00    -0.095 A  
ENDROOT
BRANCH   5   9
HETATM    9  S   UNL     1      -9.125  14.505  66.904  1.00  0.00    -0.258 SA 
BRANCH   9  10
HETATM   10  C   UNL     1     -10.358  14.861  68.168  1.00  0.00    -0.237 A  
HETATM   11  C   UNL     1     -10.916  13.745  68.825  1.00  0.00    -0.289 A  
HETATM   12  C   UNL     1     -11.777  13.900  69.909  1.00  0.00    -0.358 A  
HETATM   13  C   UNL     1     -12.093  15.175  70.350  1.00  0.00    -0.373 A  
HETATM   14  C   UNL     1     -11.534  16.290  69.718  1.00  0.00    -0.205 A  
HETATM   15  C   UNL     1     -10.642  16.180  68.628  1.00  0.00    -0.283 A  
BRANCH  15  16
HETATM   16  N   UNL     1     -10.034  17.321  68.121  1.00  0.00    -0.287 NA 
HETATM   17  C   UNL     1     -10.470  17.950  66.863  1.00  0.00    -0.329 C  
HETATM   18  C   UNL     1     -10.371  19.490  67.003  1.00  0.00    -0.453 C  
HETATM   19  N   UNL     1      -9.045  19.979  67.438  1.00  0.00    -0.343 NA 
HETATM   20  C   UNL     1      -8.626  19.253  68.660  1.00  0.00    -0.366 C  
HETATM   21  H   UNL     1      -9.031  20.991  67.568  1.00  0.00     0.000 HD 
HETATM   22  C   UNL     1      -8.667  17.715  68.494  1.00  0.00    -0.285 C  
ENDBRANCH  15  16
ENDBRANCH   9  10
ENDBRANCH   5   9
TORSDOF 3
ENDMDL
MODEL      139
REMARK 921   NORMALIZED FREE ENERGY PREDICTED BY IDOCK:   -4.07 KCAL/MOL
REMARK 922        TOTAL FREE ENERGY PREDICTED BY IDOCK:   -5.48 KCAL/MOL
REMARK 923 INTER-LIGAND FREE ENERGY PREDICTED BY IDOCK:   -4.63 KCAL/MOL
REMARK 924 INTRA-LIGAND FREE ENERGY PREDICTED BY IDOCK:   -0.85 KCAL/MOL
REMARK 927      BINDING AFFINITY PREDICTED BY RF-SCORE:    0.00 PKD
ROOT
HETATM    1  C   UNL     1     -11.510  15.209  64.759  1.00  0.00    -0.383 C  
HETATM    2  C   UNL     1     -11.406  14.057  65.715  1.00  0.00    -0.312 A  
HETATM    3  C   UNL     1     -11.089  12.771  65.277  1.00  0.00    -0.320 A  
HETATM    4  C   UNL     1     -10.921  11.729  66.206  1.00  0.00    -0.346 A  
HETATM    5  C   UNL     1     -11.069  11.945  67.586  1.00  0.00    -0.257 A  
HETATM    6  C   UNL     1     -11.804  13.566  69.451  1.00  0.00    -0.389 C  
HETATM    7  C   UNL     1     -11.492  13.220  68.016  1.00  0.00    -0.344 A  
HETATM    8  C   UNL     1     -11.623  14.265  67.077  1.00  0.00    -0.406 A  
ENDROOT
BRANCH   5   9
HETATM    9  S   UNL     1     -10.766  10.645  68.792  1.00  0.00    -0.234 SA 
BRANCH   9  10
HETATM   10  C   UNL     1      -9.921   9.316  67.919  1.00  0.00    -0.187 A  
HETATM   11  C   UNL     1     -10.738   8.271  67.435  1.00  0.00    -0.236 A  
HETATM   12  C   UNL     1     -10.217   7.261  66.631  1.00  0.00    -0.232 A  
HETATM   13  C   UNL     1      -8.871   7.279  66.301  1.00  0.00    -0.179 A  
HETATM   14  C   UNL     1      -8.055   8.317  66.759  1.00  0.00    -0.103 A  
HETATM   15  C   UNL     1      -8.543   9.372  67.561  1.00  0.00    -0.122 A  
BRANCH  15  16
HETATM   16  N   UNL     1      -7.705  10.431  67.886  1.00  0.00    -0.089 NA 
HETATM   17  C   UNL     1      -7.430  11.532  66.948  1.00  0.00    -0.145 C  
HETATM   18  C   UNL     1      -7.333  12.862  67.738  1.00  0.00    -0.134 C  
HETATM   19  N   UNL     1      -6.370  12.835  68.860  1.00  0.00    -0.080 NA 
HETATM   20  C   UNL     1      -6.647  11.662  69.722  1.00  0.00    -0.071 C  
HETATM   21  H   UNL     1      -6.369  13.708  69.387  1.00  0.00     0.000 HD 
HETATM   22  C   UNL     1      -6.680  10.329  68.937  1.00  0.00    -0.057 C  
ENDBRANCH  15  16
ENDBRANCH   9  10
ENDBRANCH   5   9
TORSDOF 3
ENDMDL
MODEL      140
REMARK 921   NORMALIZED FREE ENERGY PREDICTED BY IDOCK:   -4.06 KCAL/MOL
REMARK 922        TOTAL FREE ENERGY PREDICTED BY IDOCK:   -5.46 KCAL/MOL
REMARK 923 INTER-LIGAND FREE ENERGY PREDICTED BY IDOCK:   -5.16 KCAL/MOL
REMARK 924 INTRA-LIGAND FREE ENERGY PREDICTED BY IDOCK:   -0.30 KCAL/MOL
REMARK 927      BINDING AFFINITY PREDICTED BY RF-SCORE:    0.00 PKD
ROOT
HETATM    1  C   UNL     1     -14.134  15.050  72.493  1.00  0.00    -0.503 C  
HETATM    2  C   UNL     1     -13.297  14.485  71.382  1.00  0.00    -0.427 A  
HETATM    3  C   UNL     1     -12.967  13.131  71.332  1.00  0.00    -0.386 A  
HETATM    4  C   UNL     1     -12.249  12.616  70.238  1.00  0.00    -0.347 A  
HETATM    5  C   UNL     1     -11.843  13.440  69.175  1.00  0.00    -0.336 A  
HETATM    6  C   UNL     1     -11.609  15.845  68.275  1.00  0.00    -0.274 C  
HETATM    7  C   UNL     1     -12.088  14.826  69.279  1.00  0.00    -0.296 A  
HETATM    8  C   UNL     1     -12.839  15.323  70.365  1.00  0.00    -0.360 A  
ENDROOT
BRANCH   5   9
HETATM    9  S   UNL     1     -11.007  12.782  67.725  1.00  0.00    -0.248 SA 
BRANCH   9  10
HETATM   10  C   UNL     1      -9.412  12.161  68.285  1.00  0.00    -0.204 A  
HETATM   11  C   UNL     1      -9.287  10.758  68.376  1.00  0.00    -0.167 A  
HETATM   12  C   UNL     1      -8.064  10.159  68.668  1.00  0.00    -0.109 A  
HETATM   13  C   UNL     1      -6.949  10.955  68.874  1.00  0.00    -0.084 A  
HETATM   14  C   UNL     1      -7.055  12.345  68.770  1.00  0.00    -0.098 A  
HETATM   15  C   UNL     1      -8.269  12.995  68.458  1.00  0.00    -0.067 A  
BRANCH  15  16
HETATM   16  N   UNL     1      -8.280  14.369  68.257  1.00  0.00    -0.141 NA 
HETATM   17  C   UNL     1      -8.420  15.324  69.369  1.00  0.00    -0.231 C  
HETATM   18  C   UNL     1      -7.529  16.561  69.092  1.00  0.00    -0.218 C  
HETATM   19  N   UNL     1      -7.763  17.200  67.778  1.00  0.00    -0.175 NA 
HETATM   20  C   UNL     1      -7.690  16.176  66.709  1.00  0.00    -0.253 C  
HETATM   21  H   UNL     1      -7.126  17.978  67.609  1.00  0.00     0.000 HD 
HETATM   22  C   UNL     1      -8.628  14.971  66.960  1.00  0.00    -0.239 C  
ENDBRANCH  15  16
ENDBRANCH   9  10
ENDBRANCH   5   9
TORSDOF 3
ENDMDL
MODEL      141
REMARK 921   NORMALIZED FREE ENERGY PREDICTED BY IDOCK:   -4.05 KCAL/MOL
REMARK 922        TOTAL FREE ENERGY PREDICTED BY IDOCK:   -5.45 KCAL/MOL
REMARK 923 INTER-LIGAND FREE ENERGY PREDICTED BY IDOCK:   -5.07 KCAL/MOL
REMARK 924 INTRA-LIGAND FREE ENERGY PREDICTED BY IDOCK:   -0.39 KCAL/MOL
REMARK 927      BINDING AFFINITY PREDICTED BY RF-SCORE:    0.00 PKD
ROOT
HETATM    1  C   UNL     1      -5.905  10.201  68.840  1.00  0.00    -0.037 C  
HETATM    2  C   UNL     1      -6.915  11.300  68.689  1.00  0.00    -0.084 A  
HETATM    3  C   UNL     1      -8.184  11.059  68.163  1.00  0.00    -0.124 A  
HETATM    4  C   UNL     1      -9.136  12.092  68.107  1.00  0.00    -0.196 A  
HETATM    5  C   UNL     1      -8.842  13.386  68.570  1.00  0.00    -0.068 A  
HETATM    6  C   UNL     1      -7.033  15.016  69.417  1.00  0.00    -0.172 C  
HETATM    7  C   UNL     1      -7.526  13.652  69.004  1.00  0.00     0.021 A  
HETATM    8  C   UNL     1      -6.592  12.598  69.087  1.00  0.00    -0.099 A  
ENDROOT
BRANCH   5   9
HETATM    9  S   UNL     1     -10.077  14.694  68.591  1.00  0.00    -0.240 SA 
BRANCH   9  10
HETATM   10  C   UNL     1     -10.816  14.734  66.950  1.00  0.00    -0.316 A  
HETATM   11  C   UNL     1     -11.786  13.745  66.680  1.00  0.00    -0.421 A  
HETATM   12  C   UNL     1     -12.521  13.758  65.496  1.00  0.00    -0.548 A  
HETATM   13  C   UNL     1     -12.295  14.760  64.566  1.00  0.00    -0.384 A  
HETATM   14  C   UNL     1     -11.349  15.755  64.829  1.00  0.00    -0.319 A  
HETATM   15  C   UNL     1     -10.594  15.793  66.022  1.00  0.00    -0.326 A  
BRANCH  15  16
HETATM   16  N   UNL     1      -9.756  16.872  66.270  1.00  0.00    -0.280 NA 
HETATM   17  C   UNL     1     -10.210  18.267  66.136  1.00  0.00    -0.381 C  
HETATM   18  C   UNL     1      -9.559  19.123  67.252  1.00  0.00    -0.314 C  
HETATM   19  N   UNL     1      -8.084  19.022  67.315  1.00  0.00    -0.260 NA 
HETATM   20  C   UNL     1      -7.687  17.596  67.366  1.00  0.00    -0.200 C  
HETATM   21  H   UNL     1      -7.695  19.558  68.091  1.00  0.00     0.000 HD 
HETATM   22  C   UNL     1      -8.290  16.758  66.213  1.00  0.00    -0.318 C  
ENDBRANCH  15  16
ENDBRANCH   9  10
ENDBRANCH   5   9
TORSDOF 3
ENDMDL
MODEL      142
REMARK 921   NORMALIZED FREE ENERGY PREDICTED BY IDOCK:   -4.04 KCAL/MOL
REMARK 922        TOTAL FREE ENERGY PREDICTED BY IDOCK:   -5.45 KCAL/MOL
REMARK 923 INTER-LIGAND FREE ENERGY PREDICTED BY IDOCK:   -4.90 KCAL/MOL
REMARK 924 INTRA-LIGAND FREE ENERGY PREDICTED BY IDOCK:   -0.54 KCAL/MOL
REMARK 927      BINDING AFFINITY PREDICTED BY RF-SCORE:    0.00 PKD
ROOT
HETATM    1  C   UNL     1     -13.000  12.588  71.187  1.00  0.00    -0.237 C  
HETATM    2  C   UNL     1     -12.555  11.163  71.339  1.00  0.00    -0.479 A  
HETATM    3  C   UNL     1     -13.203  10.283  72.205  1.00  0.00    -0.443 A  
HETATM    4  C   UNL     1     -12.813   8.933  72.267  1.00  0.00    -0.475 A  
HETATM    5  C   UNL     1     -11.767   8.435  71.471  1.00  0.00    -0.290 A  
HETATM    6  C   UNL     1      -9.829   8.984  69.862  1.00  0.00    -0.194 C  
HETATM    7  C   UNL     1     -11.046   9.350  70.676  1.00  0.00    -0.351 A  
HETATM    8  C   UNL     1     -11.470  10.693  70.597  1.00  0.00    -0.374 A  
ENDROOT
BRANCH   5   9
HETATM    9  S   UNL     1     -11.317   6.693  71.470  1.00  0.00    -0.297 SA 
BRANCH   9  10
HETATM   10  C   UNL     1      -9.864   6.534  72.523  1.00  0.00    -0.165 A  
HETATM   11  C   UNL     1      -9.593   7.623  73.378  1.00  0.00    -0.346 A  
HETATM   12  C   UNL     1      -8.578   7.558  74.330  1.00  0.00    -0.270 A  
HETATM   13  C   UNL     1      -7.820   6.404  74.439  1.00  0.00    -0.105 A  
HETATM   14  C   UNL     1      -8.090   5.311  73.610  1.00  0.00    -0.110 A  
HETATM   15  C   UNL     1      -9.120   5.324  72.644  1.00  0.00    -0.135 A  
BRANCH  15  16
HETATM   16  N   UNL     1      -9.409   4.167  71.933  1.00  0.00    -0.126 NA 
HETATM   17  C   UNL     1      -9.170   4.055  70.484  1.00  0.00    -0.128 C  
HETATM   18  C   UNL     1      -8.676   2.623  70.159  1.00  0.00    -0.069 C  
HETATM   19  N   UNL     1      -9.556   1.545  70.662  1.00  0.00    -0.105 NA 
HETATM   20  C   UNL     1      -9.825   1.758  72.104  1.00  0.00    -0.127 C  
HETATM   21  H   UNL     1      -9.176   0.618  70.474  1.00  0.00     0.000 HD 
HETATM   22  C   UNL     1     -10.378   3.170  72.414  1.00  0.00    -0.075 C  
ENDBRANCH  15  16
ENDBRANCH   9  10
ENDBRANCH   5   9
TORSDOF 3
ENDMDL
MODEL      143
REMARK 921   NORMALIZED FREE ENERGY PREDICTED BY IDOCK:   -4.04 KCAL/MOL
REMARK 922        TOTAL FREE ENERGY PREDICTED BY IDOCK:   -5.44 KCAL/MOL
REMARK 923 INTER-LIGAND FREE ENERGY PREDICTED BY IDOCK:   -4.91 KCAL/MOL
REMARK 924 INTRA-LIGAND FREE ENERGY PREDICTED BY IDOCK:   -0.54 KCAL/MOL
REMARK 927      BINDING AFFINITY PREDICTED BY RF-SCORE:    0.00 PKD
ROOT
HETATM    1  C   UNL     1     -13.233  14.472  70.983  1.00  0.00    -0.414 C  
HETATM    2  C   UNL     1     -12.377  13.581  70.130  1.00  0.00    -0.345 A  
HETATM    3  C   UNL     1     -12.255  12.217  70.392  1.00  0.00    -0.378 A  
HETATM    4  C   UNL     1     -11.510  11.394  69.528  1.00  0.00    -0.381 A  
HETATM    5  C   UNL     1     -10.869  11.914  68.391  1.00  0.00    -0.228 A  
HETATM    6  C   UNL     1     -10.172  14.022  67.081  1.00  0.00    -0.258 C  
HETATM    7  C   UNL     1     -10.908  13.309  68.188  1.00  0.00    -0.270 A  
HETATM    8  C   UNL     1     -11.688  14.118  69.042  1.00  0.00    -0.361 A  
ENDROOT
BRANCH   5   9
HETATM    9  S   UNL     1      -9.991  10.861  67.227  1.00  0.00    -0.191 SA 
BRANCH   9  10
HETATM   10  C   UNL     1      -8.642  10.092  68.141  1.00  0.00    -0.118 A  
HETATM   11  C   UNL     1      -7.910  10.939  69.000  1.00  0.00    -0.138 A  
HETATM   12  C   UNL     1      -6.935  10.433  69.855  1.00  0.00    -0.149 A  
HETATM   13  C   UNL     1      -6.677   9.071  69.863  1.00  0.00    -0.046 A  
HETATM   14  C   UNL     1      -7.407   8.219  69.029  1.00  0.00    -0.089 A  
HETATM   15  C   UNL     1      -8.417   8.685  68.160  1.00  0.00    -0.131 A  
BRANCH  15  16
HETATM   16  N   UNL     1      -9.182   7.773  67.445  1.00  0.00    -0.135 NA 
HETATM   17  C   UNL     1      -8.846   7.376  66.066  1.00  0.00    -0.146 C  
HETATM   18  C   UNL     1      -9.158   5.869  65.880  1.00  0.00    -0.122 C  
HETATM   19  N   UNL     1     -10.537   5.482  66.249  1.00  0.00    -0.505 NA 
HETATM   20  C   UNL     1     -10.844   5.979  67.611  1.00  0.00    -0.295 C  
HETATM   21  H   UNL     1     -10.692   4.478  66.162  1.00  0.00     0.000 HD 
HETATM   22  C   UNL     1     -10.589   7.497  67.773  1.00  0.00    -0.206 C  
ENDBRANCH  15  16
ENDBRANCH   9  10
ENDBRANCH   5   9
TORSDOF 3
ENDMDL
MODEL      144
REMARK 921   NORMALIZED FREE ENERGY PREDICTED BY IDOCK:   -4.04 KCAL/MOL
REMARK 922        TOTAL FREE ENERGY PREDICTED BY IDOCK:   -5.44 KCAL/MOL
REMARK 923 INTER-LIGAND FREE ENERGY PREDICTED BY IDOCK:   -4.81 KCAL/MOL
REMARK 924 INTRA-LIGAND FREE ENERGY PREDICTED BY IDOCK:   -0.63 KCAL/MOL
REMARK 927      BINDING AFFINITY PREDICTED BY RF-SCORE:    0.00 PKD
ROOT
HETATM    1  C   UNL     1     -13.476  15.092  71.225  1.00  0.00    -0.520 C  
HETATM    2  C   UNL     1     -12.408  15.089  70.171  1.00  0.00    -0.380 A  
HETATM    3  C   UNL     1     -11.418  16.070  70.131  1.00  0.00    -0.350 A  
HETATM    4  C   UNL     1     -10.385  15.996  69.179  1.00  0.00    -0.247 A  
HETATM    5  C   UNL     1     -10.320  14.946  68.248  1.00  0.00    -0.232 A  
HETATM    6  C   UNL     1     -11.505  12.907  67.208  1.00  0.00    -0.388 C  
HETATM    7  C   UNL     1     -11.379  14.015  68.223  1.00  0.00    -0.317 A  
HETATM    8  C   UNL     1     -12.390  14.081  69.206  1.00  0.00    -0.210 A  
ENDROOT
BRANCH   5   9
HETATM    9  S   UNL     1      -8.956  14.786  67.086  1.00  0.00    -0.236 SA 
BRANCH   9  10
HETATM   10  C   UNL     1      -8.141  16.391  67.020  1.00  0.00    -0.201 A  
HETATM   11  C   UNL     1      -8.881  17.441  66.434  1.00  0.00    -0.273 A  
HETATM   12  C   UNL     1      -8.410  18.752  66.448  1.00  0.00    -0.294 A  
HETATM   13  C   UNL     1      -7.193  19.031  67.047  1.00  0.00    -0.219 A  
HETATM   14  C   UNL     1      -6.458  18.003  67.647  1.00  0.00    -0.187 A  
HETATM   15  C   UNL     1      -6.904  16.664  67.673  1.00  0.00    -0.141 A  
BRANCH  15  16
HETATM   16  N   UNL     1      -6.182  15.714  68.383  1.00  0.00    -0.098 NA 
HETATM   17  C   UNL     1      -5.823  15.898  69.800  1.00  0.00    -0.154 C  
HETATM   18  C   UNL     1      -5.918  14.535  70.530  1.00  0.00    -0.178 C  
HETATM   19  N   UNL     1      -5.139  13.449  69.897  1.00  0.00    -0.082 NA 
HETATM   20  C   UNL     1      -5.484  13.366  68.458  1.00  0.00    -0.083 C  
HETATM   21  H   UNL     1      -5.264  12.556  70.374  1.00  0.00     0.000 HD 
HETATM   22  C   UNL     1      -5.327  14.717  67.720  1.00  0.00    -0.018 C  
ENDBRANCH  15  16
ENDBRANCH   9  10
ENDBRANCH   5   9
TORSDOF 3
ENDMDL
MODEL      145
REMARK 921   NORMALIZED FREE ENERGY PREDICTED BY IDOCK:   -4.02 KCAL/MOL
REMARK 922        TOTAL FREE ENERGY PREDICTED BY IDOCK:   -5.42 KCAL/MOL
REMARK 923 INTER-LIGAND FREE ENERGY PREDICTED BY IDOCK:   -5.78 KCAL/MOL
REMARK 924 INTRA-LIGAND FREE ENERGY PREDICTED BY IDOCK:    0.36 KCAL/MOL
REMARK 927      BINDING AFFINITY PREDICTED BY RF-SCORE:    0.00 PKD
ROOT
HETATM    1  C   UNL     1      -7.506  19.716  68.701  1.00  0.00    -0.368 C  
HETATM    2  C   UNL     1      -8.275  18.456  68.432  1.00  0.00    -0.331 A  
HETATM    3  C   UNL     1      -8.257  17.384  69.325  1.00  0.00     0.183 A  
HETATM    4  C   UNL     1      -9.050  16.248  69.083  1.00  0.00    -0.230 A  
HETATM    5  C   UNL     1      -9.872  16.155  67.948  1.00  0.00    -0.235 A  
HETATM    6  C   UNL     1     -10.540  17.177  65.677  1.00  0.00    -0.187 C  
HETATM    7  C   UNL     1      -9.807  17.194  66.995  1.00  0.00    -0.276 A  
HETATM    8  C   UNL     1      -9.034  18.343  67.267  1.00  0.00    -0.265 A  
ENDROOT
BRANCH   5   9
HETATM    9  S   UNL     1     -10.961  14.750  67.672  1.00  0.00    -0.301 SA 
BRANCH   9  10
HETATM   10  C   UNL     1      -9.902  13.312  67.439  1.00  0.00    -0.227 A  
HETATM   11  C   UNL     1      -9.209  12.858  68.581  1.00  0.00     0.036 A  
HETATM   12  C   UNL     1      -8.468  11.679  68.555  1.00  0.00    -0.135 A  
HETATM   13  C   UNL     1      -8.408  10.938  67.386  1.00  0.00    -0.117 A  
HETATM   14  C   UNL     1      -9.105  11.368  66.252  1.00  0.00    -0.211 A  
HETATM   15  C   UNL     1      -9.883  12.546  66.237  1.00  0.00    -0.252 A  
BRANCH  15  16
HETATM   16  N   UNL     1     -10.640  12.854  65.115  1.00  0.00    -0.294 NA 
HETATM   17  C   UNL     1     -10.963  11.851  64.086  1.00  0.00    -0.369 C  
HETATM   18  C   UNL     1     -12.404  12.097  63.570  1.00  0.00    -0.574 C  
HETATM   19  N   UNL     1     -12.655  13.477  63.099  1.00  0.00    -0.897 NA 
HETATM   20  C   UNL     1     -12.236  14.441  64.144  1.00  0.00    -0.363 C  
HETATM   21  H   UNL     1     -13.625  13.616  62.815  1.00  0.00     0.000 HD 
HETATM   22  C   UNL     1     -10.776  14.229  64.610  1.00  0.00    -0.365 C  
ENDBRANCH  15  16
ENDBRANCH   9  10
ENDBRANCH   5   9
TORSDOF 3
ENDMDL
MODEL      146
REMARK 921   NORMALIZED FREE ENERGY PREDICTED BY IDOCK:   -3.99 KCAL/MOL
REMARK 922        TOTAL FREE ENERGY PREDICTED BY IDOCK:   -5.38 KCAL/MOL
REMARK 923 INTER-LIGAND FREE ENERGY PREDICTED BY IDOCK:   -5.39 KCAL/MOL
REMARK 924 INTRA-LIGAND FREE ENERGY PREDICTED BY IDOCK:    0.00 KCAL/MOL
REMARK 927      BINDING AFFINITY PREDICTED BY RF-SCORE:    0.00 PKD
ROOT
HETATM    1  C   UNL     1      -7.547   8.625  64.719  1.00  0.00    -0.102 C  
HETATM    2  C   UNL     1      -8.658   9.496  65.229  1.00  0.00    -0.175 A  
HETATM    3  C   UNL     1      -8.916   9.627  66.593  1.00  0.00    -0.166 A  
HETATM    4  C   UNL     1      -9.913  10.511  67.044  1.00  0.00    -0.244 A  
HETATM    5  C   UNL     1     -10.673  11.279  66.146  1.00  0.00    -0.250 A  
HETATM    6  C   UNL     1     -11.302  11.728  63.687  1.00  0.00    -0.525 C  
HETATM    7  C   UNL     1     -10.481  11.066  64.764  1.00  0.00    -0.384 A  
HETATM    8  C   UNL     1      -9.455  10.202  64.327  1.00  0.00    -0.366 A  
ENDROOT
BRANCH   5   9
HETATM    9  S   UNL     1     -11.885  12.482  66.710  1.00  0.00    -0.270 SA 
BRANCH   9  10
HETATM   10  C   UNL     1     -11.510  14.029  65.867  1.00  0.00    -0.330 A  
HETATM   11  C   UNL     1     -12.395  14.406  64.835  1.00  0.00    -0.414 A  
HETATM   12  C   UNL     1     -12.284  15.643  64.205  1.00  0.00    -0.012 A  
HETATM   13  C   UNL     1     -11.285  16.520  64.598  1.00  0.00    -0.123 A  
HETATM   14  C   UNL     1     -10.412  16.165  65.631  1.00  0.00    -0.402 A  
HETATM   15  C   UNL     1     -10.499  14.931  66.311  1.00  0.00    -0.302 A  
BRANCH  15  16
HETATM   16  N   UNL     1      -9.675  14.689  67.402  1.00  0.00    -0.217 NA 
HETATM   17  C   UNL     1      -8.462  13.860  67.303  1.00  0.00    -0.200 C  
HETATM   18  C   UNL     1      -7.356  14.468  68.202  1.00  0.00    -0.128 C  
HETATM   19  N   UNL     1      -7.764  14.688  69.606  1.00  0.00    -0.388 NA 
HETATM   20  C   UNL     1      -9.031  15.456  69.639  1.00  0.00    -0.156 C  
HETATM   21  H   UNL     1      -7.030  15.134  70.155  1.00  0.00     0.000 HD 
HETATM   22  C   UNL     1     -10.152  14.810  68.789  1.00  0.00    -0.237 C  
ENDBRANCH  15  16
ENDBRANCH   9  10
ENDBRANCH   5   9
TORSDOF 3
ENDMDL
MODEL      147
REMARK 921   NORMALIZED FREE ENERGY PREDICTED BY IDOCK:   -3.96 KCAL/MOL
REMARK 922        TOTAL FREE ENERGY PREDICTED BY IDOCK:   -5.35 KCAL/MOL
REMARK 923 INTER-LIGAND FREE ENERGY PREDICTED BY IDOCK:   -4.88 KCAL/MOL
REMARK 924 INTRA-LIGAND FREE ENERGY PREDICTED BY IDOCK:   -0.47 KCAL/MOL
REMARK 927      BINDING AFFINITY PREDICTED BY RF-SCORE:    0.00 PKD
ROOT
HETATM    1  C   UNL     1     -12.181  12.760  63.356  1.00  0.00    -0.594 C  
HETATM    2  C   UNL     1     -11.612  13.092  64.704  1.00  0.00    -0.384 A  
HETATM    3  C   UNL     1     -12.023  12.421  65.856  1.00  0.00    -0.434 A  
HETATM    4  C   UNL     1     -11.414  12.700  67.093  1.00  0.00    -0.406 A  
HETATM    5  C   UNL     1     -10.389  13.653  67.207  1.00  0.00    -0.249 A  
HETATM    6  C   UNL     1      -9.054  15.537  66.059  1.00  0.00    -0.316 C  
HETATM    7  C   UNL     1     -10.049  14.403  66.062  1.00  0.00    -0.338 A  
HETATM    8  C   UNL     1     -10.643  14.089  64.821  1.00  0.00    -0.441 A  
ENDROOT
BRANCH   5   9
HETATM    9  S   UNL     1      -9.537  13.954  68.763  1.00  0.00     0.008 SA 
BRANCH   9  10
HETATM   10  C   UNL     1      -7.851  13.357  68.553  1.00  0.00    -0.115 A  
HETATM   11  C   UNL     1      -6.826  14.312  68.723  1.00  0.00    -0.099 A  
HETATM   12  C   UNL     1      -5.484  13.941  68.718  1.00  0.00    -0.082 A  
HETATM   13  C   UNL     1      -5.147  12.608  68.542  1.00  0.00    -0.059 A  
HETATM   14  C   UNL     1      -6.153  11.649  68.391  1.00  0.00    -0.049 A  
HETATM   15  C   UNL     1      -7.527  11.976  68.408  1.00  0.00    -0.110 A  
BRANCH  15  16
HETATM   16  N   UNL     1      -8.474  10.962  68.368  1.00  0.00    -0.134 NA 
HETATM   17  C   UNL     1      -9.204  10.521  69.569  1.00  0.00    -0.048 C  
HETATM   18  C   UNL     1     -10.665  10.180  69.180  1.00  0.00    -0.226 C  
HETATM   19  N   UNL     1     -10.790   9.213  68.067  1.00  0.00    -0.473 NA 
HETATM   20  C   UNL     1      -9.971   9.670  66.920  1.00  0.00    -0.212 C  
HETATM   21  H   UNL     1     -11.762   9.051  67.806  1.00  0.00     0.000 HD 
HETATM   22  C   UNL     1      -8.498   9.949  67.301  1.00  0.00    -0.121 C  
ENDBRANCH  15  16
ENDBRANCH   9  10
ENDBRANCH   5   9
TORSDOF 3
ENDMDL
MODEL      148
REMARK 921   NORMALIZED FREE ENERGY PREDICTED BY IDOCK:   -3.94 KCAL/MOL
REMARK 922        TOTAL FREE ENERGY PREDICTED BY IDOCK:   -5.33 KCAL/MOL
REMARK 923 INTER-LIGAND FREE ENERGY PREDICTED BY IDOCK:   -4.47 KCAL/MOL
REMARK 924 INTRA-LIGAND FREE ENERGY PREDICTED BY IDOCK:   -0.86 KCAL/MOL
REMARK 927      BINDING AFFINITY PREDICTED BY RF-SCORE:    0.00 PKD
ROOT
HETATM    1  C   UNL     1     -13.950   9.116  72.255  1.00  0.00    -0.489 C  
HETATM    2  C   UNL     1     -12.466   8.952  72.109  1.00  0.00    -0.459 A  
HETATM    3  C   UNL     1     -11.739   9.686  71.172  1.00  0.00    -0.450 A  
HETATM    4  C   UNL     1     -10.338   9.569  71.112  1.00  0.00    -0.330 A  
HETATM    5  C   UNL     1      -9.637   8.716  71.980  1.00  0.00    -0.314 A  
HETATM    6  C   UNL     1      -9.777   6.853  73.757  1.00  0.00    -0.286 C  
HETATM    7  C   UNL     1     -10.383   7.898  72.854  1.00  0.00    -0.413 A  
HETATM    8  C   UNL     1     -11.784   8.051  72.927  1.00  0.00    -0.222 A  
ENDROOT
BRANCH   5   9
HETATM    9  S   UNL     1      -7.840   8.624  71.979  1.00  0.00     0.012 SA 
BRANCH   9  10
HETATM   10  C   UNL     1      -7.300   9.062  70.318  1.00  0.00    -0.076 A  
HETATM   11  C   UNL     1      -6.360  10.111  70.226  1.00  0.00    -0.117 A  
HETATM   12  C   UNL     1      -5.771  10.447  69.009  1.00  0.00    -0.041 A  
HETATM   13  C   UNL     1      -6.114   9.741  67.868  1.00  0.00    -0.051 A  
HETATM   14  C   UNL     1      -7.031   8.688  67.949  1.00  0.00    -0.078 A  
HETATM   15  C   UNL     1      -7.640   8.300  69.162  1.00  0.00    -0.088 A  
BRANCH  15  16
HETATM   16  N   UNL     1      -8.453   7.175  69.193  1.00  0.00    -0.132 NA 
HETATM   17  C   UNL     1      -7.946   5.850  69.591  1.00  0.00    -0.101 C  
HETATM   18  C   UNL     1      -9.039   5.110  70.404  1.00  0.00    -0.134 C  
HETATM   19  N   UNL     1     -10.349   5.022  69.724  1.00  0.00    -0.267 NA 
HETATM   20  C   UNL     1     -10.767   6.372  69.276  1.00  0.00    -0.292 C  
HETATM   21  H   UNL     1     -11.056   4.575  70.306  1.00  0.00     0.000 HD 
HETATM   22  C   UNL     1      -9.696   7.081  68.412  1.00  0.00    -0.139 C  
ENDBRANCH  15  16
ENDBRANCH   9  10
ENDBRANCH   5   9
TORSDOF 3
ENDMDL
MODEL      149
REMARK 921   NORMALIZED FREE ENERGY PREDICTED BY IDOCK:   -3.93 KCAL/MOL
REMARK 922        TOTAL FREE ENERGY PREDICTED BY IDOCK:   -5.31 KCAL/MOL
REMARK 923 INTER-LIGAND FREE ENERGY PREDICTED BY IDOCK:   -5.09 KCAL/MOL
REMARK 924 INTRA-LIGAND FREE ENERGY PREDICTED BY IDOCK:   -0.22 KCAL/MOL
REMARK 927      BINDING AFFINITY PREDICTED BY RF-SCORE:    0.00 PKD
ROOT
HETATM    1  C   UNL     1      -5.603  11.308  66.580  1.00  0.00    -0.129 C  
HETATM    2  C   UNL     1      -6.694  12.200  67.096  1.00  0.00    -0.123 A  
HETATM    3  C   UNL     1      -8.016  11.764  67.179  1.00  0.00    -0.166 A  
HETATM    4  C   UNL     1      -9.003  12.595  67.740  1.00  0.00    -0.189 A  
HETATM    5  C   UNL     1      -8.693  13.876  68.224  1.00  0.00    -0.183 A  
HETATM    6  C   UNL     1      -6.929  15.748  68.405  1.00  0.00    -0.116 C  
HETATM    7  C   UNL     1      -7.378  14.354  68.043  1.00  0.00    -0.148 A  
HETATM    8  C   UNL     1      -6.391  13.497  67.511  1.00  0.00    -0.096 A  
ENDROOT
BRANCH   5   9
HETATM    9  S   UNL     1      -9.923  14.914  69.028  1.00  0.00    -0.219 SA 
BRANCH   9  10
HETATM   10  C   UNL     1     -10.185  16.334  67.952  1.00  0.00    -0.261 A  
HETATM   11  C   UNL     1      -9.652  17.562  68.400  1.00  0.00    -0.303 A  
HETATM   12  C   UNL     1      -9.674  18.697  67.593  1.00  0.00    -0.330 A  
HETATM   13  C   UNL     1     -10.231  18.620  66.327  1.00  0.00    -0.462 A  
HETATM   14  C   UNL     1     -10.747  17.406  65.864  1.00  0.00    -0.123 A  
HETATM   15  C   UNL     1     -10.729  16.226  66.639  1.00  0.00    -0.197 A  
BRANCH  15  16
HETATM   16  N   UNL     1     -11.153  15.029  66.077  1.00  0.00    -0.336 NA 
HETATM   17  C   UNL     1     -10.771  14.623  64.714  1.00  0.00    -0.377 C  
HETATM   18  C   UNL     1     -10.532  13.092  64.688  1.00  0.00    -0.392 C  
HETATM   19  N   UNL     1     -11.659  12.290  65.211  1.00  0.00    -0.354 NA 
HETATM   20  C   UNL     1     -12.051  12.798  66.547  1.00  0.00    -0.268 C  
HETATM   21  H   UNL     1     -11.448  11.292  65.225  1.00  0.00     0.000 HD 
HETATM   22  C   UNL     1     -12.349  14.316  66.553  1.00  0.00    -0.314 C  
ENDBRANCH  15  16
ENDBRANCH   9  10
ENDBRANCH   5   9
TORSDOF 3
ENDMDL
MODEL      150
REMARK 921   NORMALIZED FREE ENERGY PREDICTED BY IDOCK:   -3.92 KCAL/MOL
REMARK 922        TOTAL FREE ENERGY PREDICTED BY IDOCK:   -5.30 KCAL/MOL
REMARK 923 INTER-LIGAND FREE ENERGY PREDICTED BY IDOCK:   -4.57 KCAL/MOL
REMARK 924 INTRA-LIGAND FREE ENERGY PREDICTED BY IDOCK:   -0.73 KCAL/MOL
REMARK 927      BINDING AFFINITY PREDICTED BY RF-SCORE:    0.00 PKD
ROOT
HETATM    1  C   UNL     1      -9.771   4.113  66.075  1.00  0.00    -0.212 C  
HETATM    2  C   UNL     1      -9.721   5.412  66.826  1.00  0.00    -0.170 A  
HETATM    3  C   UNL     1     -10.812   5.873  67.562  1.00  0.00    -0.335 A  
HETATM    4  C   UNL     1     -10.708   7.053  68.319  1.00  0.00    -0.231 A  
HETATM    5  C   UNL     1      -9.519   7.799  68.355  1.00  0.00    -0.147 A  
HETATM    6  C   UNL     1      -7.161   8.151  67.373  1.00  0.00    -0.083 C  
HETATM    7  C   UNL     1      -8.452   7.387  67.528  1.00  0.00    -0.116 A  
HETATM    8  C   UNL     1      -8.558   6.182  66.801  1.00  0.00    -0.111 A  
ENDROOT
BRANCH   5   9
HETATM    9  S   UNL     1      -9.340   9.259  69.390  1.00  0.00    -0.171 SA 
BRANCH   9  10
HETATM   10  C   UNL     1      -8.840   8.680  71.020  1.00  0.00    -0.191 A  
HETATM   11  C   UNL     1      -7.457   8.714  71.296  1.00  0.00    -0.117 A  
HETATM   12  C   UNL     1      -6.965   8.418  72.565  1.00  0.00    -0.104 A  
HETATM   13  C   UNL     1      -7.851   8.083  73.576  1.00  0.00    -0.231 A  
HETATM   14  C   UNL     1      -9.225   8.062  73.321  1.00  0.00    -0.347 A  
HETATM   15  C   UNL     1      -9.770   8.372  72.056  1.00  0.00    -0.283 A  
BRANCH  15  16
HETATM   16  N   UNL     1     -11.148   8.445  71.901  1.00  0.00    -0.285 NA 
HETATM   17  C   UNL     1     -11.862   9.730  71.812  1.00  0.00    -0.262 C  
HETATM   18  C   UNL     1     -13.021   9.599  70.792  1.00  0.00    -0.087 C  
HETATM   19  N   UNL     1     -13.940   8.469  71.055  1.00  0.00    -0.588 NA 
HETATM   20  C   UNL     1     -13.158   7.221  71.214  1.00  0.00    -0.307 C  
HETATM   21  H   UNL     1     -14.659   8.384  70.337  1.00  0.00     0.000 HD 
HETATM   22  C   UNL     1     -12.042   7.339  72.280  1.00  0.00    -0.191 C  
ENDBRANCH  15  16
ENDBRANCH   9  10
ENDBRANCH   5   9
TORSDOF 3
ENDMDL
MODEL      151
REMARK 921   NORMALIZED FREE ENERGY PREDICTED BY IDOCK:   -3.92 KCAL/MOL
REMARK 922        TOTAL FREE ENERGY PREDICTED BY IDOCK:   -5.30 KCAL/MOL
REMARK 923 INTER-LIGAND FREE ENERGY PREDICTED BY IDOCK:   -4.88 KCAL/MOL
REMARK 924 INTRA-LIGAND FREE ENERGY PREDICTED BY IDOCK:   -0.42 KCAL/MOL
REMARK 927      BINDING AFFINITY PREDICTED BY RF-SCORE:    0.00 PKD
ROOT
HETATM    1  C   UNL     1      -8.328  16.102  67.336  1.00  0.00    -0.191 C  
HETATM    2  C   UNL     1      -9.092  14.838  67.603  1.00  0.00    -0.185 A  
HETATM    3  C   UNL     1      -8.684  13.930  68.580  1.00  0.00    -0.134 A  
HETATM    4  C   UNL     1      -9.463  12.794  68.861  1.00  0.00     0.253 A  
HETATM    5  C   UNL     1     -10.661  12.538  68.174  1.00  0.00    -0.227 A  
HETATM    6  C   UNL     1     -12.208  13.188  66.216  1.00  0.00    -0.423 C  
HETATM    7  C   UNL     1     -11.016  13.402  67.116  1.00  0.00    -0.292 A  
HETATM    8  C   UNL     1     -10.243  14.556  66.867  1.00  0.00    -0.264 A  
ENDROOT
BRANCH   5   9
HETATM    9  S   UNL     1     -11.717  11.141  68.585  1.00  0.00    -0.290 SA 
BRANCH   9  10
HETATM   10  C   UNL     1     -10.658   9.685  68.617  1.00  0.00    -0.217 A  
HETATM   11  C   UNL     1      -9.636   9.637  67.645  1.00  0.00    -0.167 A  
HETATM   12  C   UNL     1      -8.675   8.629  67.656  1.00  0.00    -0.136 A  
HETATM   13  C   UNL     1      -8.723   7.654  68.639  1.00  0.00    -0.128 A  
HETATM   14  C   UNL     1      -9.720   7.699  69.618  1.00  0.00    -0.171 A  
HETATM   15  C   UNL     1     -10.703   8.712  69.658  1.00  0.00    -0.200 A  
BRANCH  15  16
HETATM   16  N   UNL     1     -11.593   8.763  70.722  1.00  0.00    -0.275 NA 
HETATM   17  C   UNL     1     -11.504   9.792  71.773  1.00  0.00    -0.067 C  
HETATM   18  C   UNL     1     -12.934  10.212  72.196  1.00  0.00    -0.340 C  
HETATM   19  N   UNL     1     -13.807   9.087  72.594  1.00  0.00    -0.801 NA 
HETATM   20  C   UNL     1     -13.792   8.050  71.536  1.00  0.00    -0.329 C  
HETATM   21  H   UNL     1     -14.753   9.394  72.819  1.00  0.00     0.000 HD 
HETATM   22  C   UNL     1     -12.364   7.588  71.161  1.00  0.00    -0.291 C  
ENDBRANCH  15  16
ENDBRANCH   9  10
ENDBRANCH   5   9
TORSDOF 3
ENDMDL
MODEL      152
REMARK 921   NORMALIZED FREE ENERGY PREDICTED BY IDOCK:   -3.92 KCAL/MOL
REMARK 922        TOTAL FREE ENERGY PREDICTED BY IDOCK:   -5.30 KCAL/MOL
REMARK 923 INTER-LIGAND FREE ENERGY PREDICTED BY IDOCK:   -4.57 KCAL/MOL
REMARK 924 INTRA-LIGAND FREE ENERGY PREDICTED BY IDOCK:   -0.73 KCAL/MOL
REMARK 927      BINDING AFFINITY PREDICTED BY RF-SCORE:    0.00 PKD
ROOT
HETATM    1  C   UNL     1     -12.148  12.919  65.896  1.00  0.00    -0.503 C  
HETATM    2  C   UNL     1     -11.411  12.190  66.981  1.00  0.00    -0.398 A  
HETATM    3  C   UNL     1     -12.025  11.866  68.190  1.00  0.00    -0.222 A  
HETATM    4  C   UNL     1     -11.334  11.113  69.156  1.00  0.00    -0.340 A  
HETATM    5  C   UNL     1     -10.017  10.673  68.939  1.00  0.00    -0.204 A  
HETATM    6  C   UNL     1      -7.919  10.797  67.447  1.00  0.00    -0.112 C  
HETATM    7  C   UNL     1      -9.364  11.092  67.761  1.00  0.00    -0.162 A  
HETATM    8  C   UNL     1     -10.081  11.817  66.785  1.00  0.00    -0.235 A  
ENDROOT
BRANCH   5   9
HETATM    9  S   UNL     1      -9.153   9.632  70.124  1.00  0.00    -0.208 SA 
BRANCH   9  10
HETATM   10  C   UNL     1      -9.835   7.974  69.951  1.00  0.00    -0.186 A  
HETATM   11  C   UNL     1     -10.538   7.712  68.756  1.00  0.00    -0.169 A  
HETATM   12  C   UNL     1     -10.994   6.432  68.452  1.00  0.00    -0.390 A  
HETATM   13  C   UNL     1     -10.754   5.395  69.340  1.00  0.00    -0.226 A  
HETATM   14  C   UNL     1     -10.043   5.638  70.519  1.00  0.00    -0.280 A  
HETATM   15  C   UNL     1      -9.547   6.915  70.860  1.00  0.00    -0.164 A  
BRANCH  15  16
HETATM   16  N   UNL     1      -8.752   7.063  71.989  1.00  0.00    -0.123 NA 
HETATM   17  C   UNL     1      -7.333   6.667  72.008  1.00  0.00    -0.090 C  
HETATM   18  C   UNL     1      -6.532   7.687  72.857  1.00  0.00    -0.063 C  
HETATM   19  N   UNL     1      -7.068   7.901  74.219  1.00  0.00    -0.130 NA 
HETATM   20  C   UNL     1      -8.514   8.215  74.139  1.00  0.00    -0.186 C  
HETATM   21  H   UNL     1      -6.547   8.613  74.730  1.00  0.00     0.000 HD 
HETATM   22  C   UNL     1      -9.319   7.160  73.343  1.00  0.00    -0.180 C  
ENDBRANCH  15  16
ENDBRANCH   9  10
ENDBRANCH   5   9
TORSDOF 3
ENDMDL
MODEL      153
REMARK 921   NORMALIZED FREE ENERGY PREDICTED BY IDOCK:   -3.91 KCAL/MOL
REMARK 922        TOTAL FREE ENERGY PREDICTED BY IDOCK:   -5.29 KCAL/MOL
REMARK 923 INTER-LIGAND FREE ENERGY PREDICTED BY IDOCK:   -4.98 KCAL/MOL
REMARK 924 INTRA-LIGAND FREE ENERGY PREDICTED BY IDOCK:   -0.31 KCAL/MOL
REMARK 927      BINDING AFFINITY PREDICTED BY RF-SCORE:    0.00 PKD
ROOT
HETATM    1  C   UNL     1     -13.179  15.473  71.471  1.00  0.00    -0.589 C  
HETATM    2  C   UNL     1     -12.207  15.410  70.329  1.00  0.00    -0.414 A  
HETATM    3  C   UNL     1     -10.925  15.948  70.431  1.00  0.00    -0.361 A  
HETATM    4  C   UNL     1     -10.009  15.804  69.373  1.00  0.00    -0.274 A  
HETATM    5  C   UNL     1     -10.354  15.124  68.193  1.00  0.00    -0.239 A  
HETATM    6  C   UNL     1     -12.229  14.034  66.799  1.00  0.00    -0.439 C  
HETATM    7  C   UNL     1     -11.684  14.673  68.051  1.00  0.00    -0.371 A  
HETATM    8  C   UNL     1     -12.581  14.795  69.134  1.00  0.00     0.141 A  
ENDROOT
BRANCH   5   9
HETATM    9  S   UNL     1      -9.167  14.850  66.869  1.00  0.00    -0.260 SA 
BRANCH   9  10
HETATM   10  C   UNL     1      -7.857  13.821  67.554  1.00  0.00    -0.179 A  
HETATM   11  C   UNL     1      -6.625  14.463  67.798  1.00  0.00    -0.189 A  
HETATM   12  C   UNL     1      -5.584  13.805  68.448  1.00  0.00    -0.102 A  
HETATM   13  C   UNL     1      -5.761  12.495  68.863  1.00  0.00    -0.068 A  
HETATM   14  C   UNL     1      -6.983  11.853  68.643  1.00  0.00    -0.095 A  
HETATM   15  C   UNL     1      -8.072  12.486  68.005  1.00  0.00    -0.164 A  
BRANCH  15  16
HETATM   16  N   UNL     1      -9.293  11.831  67.921  1.00  0.00    -0.178 NA 
HETATM   17  C   UNL     1      -9.937  11.530  66.631  1.00  0.00    -0.207 C  
HETATM   18  C   UNL     1     -10.630  10.148  66.718  1.00  0.00    -0.169 C  
HETATM   19  N   UNL     1     -11.569  10.007  67.852  1.00  0.00    -0.569 NA 
HETATM   20  C   UNL     1     -10.890  10.401  69.109  1.00  0.00    -0.236 C  
HETATM   21  H   UNL     1     -11.969   9.071  67.908  1.00  0.00     0.000 HD 
HETATM   22  C   UNL     1     -10.253  11.809  69.037  1.00  0.00    -0.021 C  
ENDBRANCH  15  16
ENDBRANCH   9  10
ENDBRANCH   5   9
TORSDOF 3
ENDMDL
MODEL      154
REMARK 921   NORMALIZED FREE ENERGY PREDICTED BY IDOCK:   -3.90 KCAL/MOL
REMARK 922        TOTAL FREE ENERGY PREDICTED BY IDOCK:   -5.28 KCAL/MOL
REMARK 923 INTER-LIGAND FREE ENERGY PREDICTED BY IDOCK:   -4.74 KCAL/MOL
REMARK 924 INTRA-LIGAND FREE ENERGY PREDICTED BY IDOCK:   -0.54 KCAL/MOL
REMARK 927      BINDING AFFINITY PREDICTED BY RF-SCORE:    0.00 PKD
ROOT
HETATM    1  C   UNL     1      -6.987  20.369  65.179  1.00  0.00    -0.217 C  
HETATM    2  C   UNL     1      -7.211  19.133  66.000  1.00  0.00    -0.298 A  
HETATM    3  C   UNL     1      -6.257  18.119  66.068  1.00  0.00    -0.264 A  
HETATM    4  C   UNL     1      -6.461  17.009  66.908  1.00  0.00    -0.248 A  
HETATM    5  C   UNL     1      -7.621  16.886  67.691  1.00  0.00    -0.164 A  
HETATM    6  C   UNL     1      -9.973  17.798  68.224  1.00  0.00    -0.355 C  
HETATM    7  C   UNL     1      -8.630  17.860  67.540  1.00  0.00    -0.239 A  
HETATM    8  C   UNL     1      -8.397  18.985  66.721  1.00  0.00    -0.298 A  
ENDROOT
BRANCH   5   9
HETATM    9  S   UNL     1      -7.856  15.521  68.838  1.00  0.00    -0.201 SA 
BRANCH   9  10
HETATM   10  C   UNL     1      -7.302  14.031  67.991  1.00  0.00    -0.141 A  
HETATM   11  C   UNL     1      -5.950  13.674  68.180  1.00  0.00    -0.118 A  
HETATM   12  C   UNL     1      -5.444  12.474  67.686  1.00  0.00    -0.123 A  
HETATM   13  C   UNL     1      -6.282  11.615  66.994  1.00  0.00    -0.144 A  
HETATM   14  C   UNL     1      -7.628  11.949  66.814  1.00  0.00    -0.034 A  
HETATM   15  C   UNL     1      -8.189  13.145  67.313  1.00  0.00    -0.168 A  
BRANCH  15  16
HETATM   16  N   UNL     1      -9.556  13.362  67.200  1.00  0.00    -0.233 NA 
HETATM   17  C   UNL     1     -10.132  14.209  66.141  1.00  0.00    -0.313 C  
HETATM   18  C   UNL     1     -11.468  13.586  65.662  1.00  0.00    -0.315 C  
HETATM   19  N   UNL     1     -12.438  13.315  66.746  1.00  0.00    -0.256 NA 
HETATM   20  C   UNL     1     -11.778  12.531  67.816  1.00  0.00    -0.359 C  
HETATM   21  H   UNL     1     -13.283  12.861  66.401  1.00  0.00     0.000 HD 
HETATM   22  C   UNL     1     -10.477  13.190  68.334  1.00  0.00    -0.253 C  
ENDBRANCH  15  16
ENDBRANCH   9  10
ENDBRANCH   5   9
TORSDOF 3
ENDMDL
MODEL      155
REMARK 921   NORMALIZED FREE ENERGY PREDICTED BY IDOCK:   -3.89 KCAL/MOL
REMARK 922        TOTAL FREE ENERGY PREDICTED BY IDOCK:   -5.26 KCAL/MOL
REMARK 923 INTER-LIGAND FREE ENERGY PREDICTED BY IDOCK:   -5.27 KCAL/MOL
REMARK 924 INTRA-LIGAND FREE ENERGY PREDICTED BY IDOCK:    0.01 KCAL/MOL
REMARK 927      BINDING AFFINITY PREDICTED BY RF-SCORE:    0.00 PKD
ROOT
HETATM    1  C   UNL     1     -12.085  13.984  66.482  1.00  0.00    -0.488 C  
HETATM    2  C   UNL     1     -11.627  12.636  66.958  1.00  0.00    -0.431 A  
HETATM    3  C   UNL     1     -11.881  12.195  68.256  1.00  0.00    -0.361 A  
HETATM    4  C   UNL     1     -11.510  10.896  68.648  1.00  0.00    -0.380 A  
HETATM    5  C   UNL     1     -10.876  10.014  67.757  1.00  0.00    -0.282 A  
HETATM    6  C   UNL     1      -9.743   9.709  65.462  1.00  0.00    -0.372 C  
HETATM    7  C   UNL     1     -10.527  10.500  66.479  1.00  0.00    -0.276 A  
HETATM    8  C   UNL     1     -10.936  11.792  66.088  1.00  0.00    -0.355 A  
ENDROOT
BRANCH   5   9
HETATM    9  S   UNL     1     -10.478   8.320  68.214  1.00  0.00    -0.115 SA 
BRANCH   9  10
HETATM   10  C   UNL     1     -10.426   8.268  70.013  1.00  0.00    -0.231 A  
HETATM   11  C   UNL     1     -11.525   8.844  70.685  1.00  0.00    -0.280 A  
HETATM   12  C   UNL     1     -11.660   8.744  72.068  1.00  0.00    -0.436 A  
HETATM   13  C   UNL     1     -10.696   8.069  72.798  1.00  0.00    -0.431 A  
HETATM   14  C   UNL     1      -9.610   7.479  72.143  1.00  0.00    -0.190 A  
HETATM   15  C   UNL     1      -9.442   7.538  70.743  1.00  0.00    -0.163 A  
BRANCH  15  16
HETATM   16  N   UNL     1      -8.405   6.835  70.146  1.00  0.00    -0.133 NA 
HETATM   17  C   UNL     1      -8.270   5.373  70.276  1.00  0.00    -0.101 C  
HETATM   18  C   UNL     1      -7.755   4.789  68.936  1.00  0.00    -0.072 C  
HETATM   19  N   UNL     1      -6.514   5.419  68.433  1.00  0.00    -0.038 NA 
HETATM   20  C   UNL     1      -6.684   6.891  68.402  1.00  0.00    -0.068 C  
HETATM   21  H   UNL     1      -6.233   5.045  67.527  1.00  0.00     0.000 HD 
HETATM   22  C   UNL     1      -7.138   7.476  69.760  1.00  0.00    -0.068 C  
ENDBRANCH  15  16
ENDBRANCH   9  10
ENDBRANCH   5   9
TORSDOF 3
ENDMDL
MODEL      156
REMARK 921   NORMALIZED FREE ENERGY PREDICTED BY IDOCK:   -3.89 KCAL/MOL
REMARK 922        TOTAL FREE ENERGY PREDICTED BY IDOCK:   -5.26 KCAL/MOL
REMARK 923 INTER-LIGAND FREE ENERGY PREDICTED BY IDOCK:   -5.48 KCAL/MOL
REMARK 924 INTRA-LIGAND FREE ENERGY PREDICTED BY IDOCK:    0.22 KCAL/MOL
REMARK 927      BINDING AFFINITY PREDICTED BY RF-SCORE:    0.00 PKD
ROOT
HETATM    1  C   UNL     1     -12.779  15.362  71.557  1.00  0.00    -0.480 C  
HETATM    2  C   UNL     1     -11.864  15.248  70.374  1.00  0.00    -0.361 A  
HETATM    3  C   UNL     1     -10.492  15.471  70.487  1.00  0.00    -0.147 A  
HETATM    4  C   UNL     1      -9.649  15.280  69.378  1.00  0.00    -0.245 A  
HETATM    5  C   UNL     1     -10.156  14.867  68.134  1.00  0.00    -0.222 A  
HETATM    6  C   UNL     1     -12.249  14.424  66.696  1.00  0.00    -0.340 C  
HETATM    7  C   UNL     1     -11.554  14.744  67.996  1.00  0.00    -0.367 A  
HETATM    8  C   UNL     1     -12.384  14.905  69.125  1.00  0.00    -0.098 A  
ENDROOT
BRANCH   5   9
HETATM    9  S   UNL     1      -9.081  14.528  66.732  1.00  0.00    -0.247 SA 
BRANCH   9  10
HETATM   10  C   UNL     1      -9.745  13.069  65.912  1.00  0.00    -0.178 A  
HETATM   11  C   UNL     1     -10.168  13.244  64.577  1.00  0.00    -0.332 A  
HETATM   12  C   UNL     1     -10.573  12.162  63.800  1.00  0.00    -0.482 A  
HETATM   13  C   UNL     1     -10.562  10.889  64.347  1.00  0.00    -0.343 A  
HETATM   14  C   UNL     1     -10.129  10.699  65.663  1.00  0.00    -0.335 A  
HETATM   15  C   UNL     1      -9.692  11.764  66.482  1.00  0.00    -0.206 A  
BRANCH  15  16
HETATM   16  N   UNL     1      -9.168  11.492  67.738  1.00  0.00    -0.161 NA 
HETATM   17  C   UNL     1     -10.022  11.323  68.926  1.00  0.00    -0.155 C  
HETATM   18  C   UNL     1      -9.427  10.212  69.827  1.00  0.00    -0.167 C  
HETATM   19  N   UNL     1      -8.007  10.414  70.188  1.00  0.00    -0.398 NA 
HETATM   20  C   UNL     1      -7.214  10.659  68.960  1.00  0.00    -0.095 C  
HETATM   21  H   UNL     1      -7.635   9.640  70.738  1.00  0.00     0.000 HD 
HETATM   22  C   UNL     1      -7.777  11.812  68.096  1.00  0.00    -0.124 C  
ENDBRANCH  15  16
ENDBRANCH   9  10
ENDBRANCH   5   9
TORSDOF 3
ENDMDL
MODEL      157
REMARK 921   NORMALIZED FREE ENERGY PREDICTED BY IDOCK:   -3.87 KCAL/MOL
REMARK 922        TOTAL FREE ENERGY PREDICTED BY IDOCK:   -5.24 KCAL/MOL
REMARK 923 INTER-LIGAND FREE ENERGY PREDICTED BY IDOCK:   -4.77 KCAL/MOL
REMARK 924 INTRA-LIGAND FREE ENERGY PREDICTED BY IDOCK:   -0.47 KCAL/MOL
REMARK 927      BINDING AFFINITY PREDICTED BY RF-SCORE:    0.00 PKD
ROOT
HETATM    1  C   UNL     1      -5.195  10.403  69.322  1.00  0.00    -0.038 C  
HETATM    2  C   UNL     1      -6.103  11.551  68.992  1.00  0.00    -0.055 A  
HETATM    3  C   UNL     1      -7.301  11.360  68.303  1.00  0.00    -0.089 A  
HETATM    4  C   UNL     1      -8.169  12.444  68.078  1.00  0.00    -0.168 A  
HETATM    5  C   UNL     1      -7.860  13.737  68.531  1.00  0.00    -0.132 A  
HETATM    6  C   UNL     1      -6.085  15.296  69.563  1.00  0.00    -0.125 C  
HETATM    7  C   UNL     1      -6.602  13.946  69.134  1.00  0.00    -0.111 A  
HETATM    8  C   UNL     1      -5.756  12.844  69.384  1.00  0.00    -0.090 A  
ENDROOT
BRANCH   5   9
HETATM    9  S   UNL     1      -9.001  15.114  68.334  1.00  0.00    -0.190 SA 
BRANCH   9  10
HETATM   10  C   UNL     1     -10.299  14.554  67.218  1.00  0.00    -0.260 A  
HETATM   11  C   UNL     1     -10.012  14.635  65.839  1.00  0.00    -0.352 A  
HETATM   12  C   UNL     1     -10.883  14.108  64.888  1.00  0.00    -0.423 A  
HETATM   13  C   UNL     1     -12.053  13.494  65.303  1.00  0.00    -0.439 A  
HETATM   14  C   UNL     1     -12.341  13.391  66.667  1.00  0.00    -0.324 A  
HETATM   15  C   UNL     1     -11.480  13.893  67.667  1.00  0.00    -0.324 A  
BRANCH  15  16
HETATM   16  N   UNL     1     -11.769  13.657  69.005  1.00  0.00    -0.310 NA 
HETATM   17  C   UNL     1     -11.821  14.741  70.001  1.00  0.00    -0.311 C  
HETATM   18  C   UNL     1     -12.963  14.452  71.008  1.00  0.00    -0.349 C  
HETATM   19  N   UNL     1     -12.893  13.117  71.642  1.00  0.00    -0.325 NA 
HETATM   20  C   UNL     1     -12.760  12.077  70.595  1.00  0.00    -0.078 C  
HETATM   21  H   UNL     1     -13.686  12.943  72.260  1.00  0.00     0.000 HD 
HETATM   22  C   UNL     1     -11.580  12.338  69.630  1.00  0.00    -0.278 C  
ENDBRANCH  15  16
ENDBRANCH   9  10
ENDBRANCH   5   9
TORSDOF 3
ENDMDL
MODEL      158
REMARK 921   NORMALIZED FREE ENERGY PREDICTED BY IDOCK:   -3.87 KCAL/MOL
REMARK 922        TOTAL FREE ENERGY PREDICTED BY IDOCK:   -5.24 KCAL/MOL
REMARK 923 INTER-LIGAND FREE ENERGY PREDICTED BY IDOCK:   -4.80 KCAL/MOL
REMARK 924 INTRA-LIGAND FREE ENERGY PREDICTED BY IDOCK:   -0.45 KCAL/MOL
REMARK 927      BINDING AFFINITY PREDICTED BY RF-SCORE:    0.00 PKD
ROOT
HETATM    1  C   UNL     1     -11.768  13.704  65.255  1.00  0.00    -0.349 C  
HETATM    2  C   UNL     1     -10.973  12.714  66.053  1.00  0.00    -0.313 A  
HETATM    3  C   UNL     1     -11.247  12.473  67.400  1.00  0.00    -0.344 A  
HETATM    4  C   UNL     1     -10.537  11.482  68.101  1.00  0.00    -0.226 A  
HETATM    5  C   UNL     1      -9.538  10.715  67.477  1.00  0.00    -0.161 A  
HETATM    6  C   UNL     1      -8.065  10.377  65.388  1.00  0.00    -0.152 C  
HETATM    7  C   UNL     1      -9.192  11.033  66.146  1.00  0.00    -0.209 A  
HETATM    8  C   UNL     1      -9.936  12.005  65.445  1.00  0.00    -0.279 A  
ENDROOT
BRANCH   5   9
HETATM    9  S   UNL     1      -8.686   9.382  68.333  1.00  0.00    -0.124 SA 
BRANCH   9  10
HETATM   10  C   UNL     1      -9.478   7.848  67.820  1.00  0.00    -0.144 A  
HETATM   11  C   UNL     1      -9.118   7.357  66.547  1.00  0.00    -0.195 A  
HETATM   12  C   UNL     1      -9.561   6.114  66.100  1.00  0.00    -0.071 A  
HETATM   13  C   UNL     1     -10.372   5.346  66.920  1.00  0.00    -0.310 A  
HETATM   14  C   UNL     1     -10.723   5.814  68.190  1.00  0.00    -0.288 A  
HETATM   15  C   UNL     1     -10.282   7.058  68.692  1.00  0.00    -0.176 A  
BRANCH  15  16
HETATM   16  N   UNL     1     -10.572   7.410  70.003  1.00  0.00    -0.227 NA 
HETATM   17  C   UNL     1      -9.544   7.422  71.059  1.00  0.00    -0.161 C  
HETATM   18  C   UNL     1      -9.808   8.616  72.011  1.00  0.00    -0.325 C  
HETATM   19  N   UNL     1     -11.177   8.661  72.569  1.00  0.00    -0.271 NA 
HETATM   20  C   UNL     1     -12.164   8.563  71.467  1.00  0.00    -0.311 C  
HETATM   21  H   UNL     1     -11.329   9.485  73.150  1.00  0.00     0.000 HD 
HETATM   22  C   UNL     1     -11.933   7.334  70.556  1.00  0.00    -0.160 C  
ENDBRANCH  15  16
ENDBRANCH   9  10
ENDBRANCH   5   9
TORSDOF 3
ENDMDL
MODEL      159
REMARK 921   NORMALIZED FREE ENERGY PREDICTED BY IDOCK:   -3.85 KCAL/MOL
REMARK 922        TOTAL FREE ENERGY PREDICTED BY IDOCK:   -5.22 KCAL/MOL
REMARK 923 INTER-LIGAND FREE ENERGY PREDICTED BY IDOCK:   -4.58 KCAL/MOL
REMARK 924 INTRA-LIGAND FREE ENERGY PREDICTED BY IDOCK:   -0.64 KCAL/MOL
REMARK 927      BINDING AFFINITY PREDICTED BY RF-SCORE:    0.00 PKD
ROOT
HETATM    1  C   UNL     1     -12.476  12.782  63.913  1.00  0.00    -0.454 C  
HETATM    2  C   UNL     1     -11.310  11.954  64.366  1.00  0.00    -0.395 A  
HETATM    3  C   UNL     1     -10.979  11.834  65.716  1.00  0.00    -0.353 A  
HETATM    4  C   UNL     1      -9.929  10.987  66.115  1.00  0.00    -0.277 A  
HETATM    5  C   UNL     1      -9.187  10.248  65.180  1.00  0.00    -0.206 A  
HETATM    6  C   UNL     1      -8.665   9.820  62.692  1.00  0.00    -0.230 C  
HETATM    7  C   UNL     1      -9.455  10.452  63.810  1.00  0.00    -0.353 A  
HETATM    8  C   UNL     1     -10.533  11.277  63.425  1.00  0.00    -0.424 A  
ENDROOT
BRANCH   5   9
HETATM    9  S   UNL     1      -7.904   9.092  65.681  1.00  0.00    -0.105 SA 
BRANCH   9  10
HETATM   10  C   UNL     1      -7.754   9.229  67.471  1.00  0.00    -0.092 A  
HETATM   11  C   UNL     1      -7.178  10.421  67.957  1.00  0.00    -0.084 A  
HETATM   12  C   UNL     1      -7.133  10.697  69.322  1.00  0.00    -0.107 A  
HETATM   13  C   UNL     1      -7.663   9.784  70.219  1.00  0.00    -0.187 A  
HETATM   14  C   UNL     1      -8.253   8.607  69.749  1.00  0.00    -0.121 A  
HETATM   15  C   UNL     1      -8.338   8.293  68.375  1.00  0.00    -0.132 A  
BRANCH  15  16
HETATM   16  N   UNL     1      -9.037   7.164  67.970  1.00  0.00    -0.133 NA 
HETATM   17  C   UNL     1     -10.509   7.101  67.994  1.00  0.00    -0.201 C  
HETATM   18  C   UNL     1     -11.003   6.304  66.761  1.00  0.00    -0.255 C  
HETATM   19  N   UNL     1     -10.392   4.965  66.615  1.00  0.00    -0.253 NA 
HETATM   20  C   UNL     1      -8.917   5.084  66.681  1.00  0.00    -0.114 C  
HETATM   21  H   UNL     1     -10.703   4.490  65.768  1.00  0.00     0.000 HD 
HETATM   22  C   UNL     1      -8.425   5.826  67.946  1.00  0.00    -0.103 C  
ENDBRANCH  15  16
ENDBRANCH   9  10
ENDBRANCH   5   9
TORSDOF 3
ENDMDL
MODEL      160
REMARK 921   NORMALIZED FREE ENERGY PREDICTED BY IDOCK:   -3.84 KCAL/MOL
REMARK 922        TOTAL FREE ENERGY PREDICTED BY IDOCK:   -5.20 KCAL/MOL
REMARK 923 INTER-LIGAND FREE ENERGY PREDICTED BY IDOCK:   -5.41 KCAL/MOL
REMARK 924 INTRA-LIGAND FREE ENERGY PREDICTED BY IDOCK:    0.20 KCAL/MOL
REMARK 927      BINDING AFFINITY PREDICTED BY RF-SCORE:    0.00 PKD
ROOT
HETATM    1  C   UNL     1     -10.910   5.613  71.686  1.00  0.00    -0.301 C  
HETATM    2  C   UNL     1     -10.426   6.441  70.532  1.00  0.00    -0.270 A  
HETATM    3  C   UNL     1      -9.584   7.537  70.722  1.00  0.00    -0.166 A  
HETATM    4  C   UNL     1      -9.083   8.245  69.615  1.00  0.00    -0.154 A  
HETATM    5  C   UNL     1      -9.413   7.879  68.300  1.00  0.00    -0.144 A  
HETATM    6  C   UNL     1     -10.883   6.413  66.771  1.00  0.00    -0.361 C  
HETATM    7  C   UNL     1     -10.347   6.837  68.115  1.00  0.00    -0.219 A  
HETATM    8  C   UNL     1     -10.814   6.113  69.233  1.00  0.00    -0.418 A  
ENDROOT
BRANCH   5   9
HETATM    9  S   UNL     1      -8.708   8.716  66.872  1.00  0.00    -0.126 SA 
BRANCH   9  10
HETATM   10  C   UNL     1      -8.431  10.427  67.360  1.00  0.00    -0.121 A  
HETATM   11  C   UNL     1      -7.409  10.646  68.309  1.00  0.00    -0.089 A  
HETATM   12  C   UNL     1      -7.015  11.934  68.661  1.00  0.00    -0.095 A  
HETATM   13  C   UNL     1      -7.637  13.022  68.070  1.00  0.00    -0.139 A  
HETATM   14  C   UNL     1      -8.639  12.819  67.117  1.00  0.00    -0.197 A  
HETATM   15  C   UNL     1      -9.059  11.532  66.715  1.00  0.00    -0.181 A  
BRANCH  15  16
HETATM   16  N   UNL     1      -9.976  11.401  65.681  1.00  0.00    -0.229 NA 
HETATM   17  C   UNL     1     -11.401  11.737  65.848  1.00  0.00    -0.263 C  
HETATM   18  C   UNL     1     -11.926  12.387  64.543  1.00  0.00    -0.402 C  
HETATM   19  N   UNL     1     -11.683  11.588  63.322  1.00  0.00    -0.867 NA 
HETATM   20  C   UNL     1     -10.251  11.212  63.253  1.00  0.00    -0.350 C  
HETATM   21  H   UNL     1     -11.996  12.067  62.479  1.00  0.00     0.000 HD 
HETATM   22  C   UNL     1      -9.748  10.507  64.535  1.00  0.00    -0.314 C  
ENDBRANCH  15  16
ENDBRANCH   9  10
ENDBRANCH   5   9
TORSDOF 3
ENDMDL
MODEL      161
REMARK 921   NORMALIZED FREE ENERGY PREDICTED BY IDOCK:   -3.82 KCAL/MOL
REMARK 922        TOTAL FREE ENERGY PREDICTED BY IDOCK:   -5.18 KCAL/MOL
REMARK 923 INTER-LIGAND FREE ENERGY PREDICTED BY IDOCK:   -4.84 KCAL/MOL
REMARK 924 INTRA-LIGAND FREE ENERGY PREDICTED BY IDOCK:   -0.34 KCAL/MOL
REMARK 927      BINDING AFFINITY PREDICTED BY RF-SCORE:    0.00 PKD
ROOT
HETATM    1  C   UNL     1      -5.998   9.962  67.753  1.00  0.00    -0.047 C  
HETATM    2  C   UNL     1      -7.274  10.696  68.047  1.00  0.00    -0.087 A  
HETATM    3  C   UNL     1      -7.273  12.032  68.446  1.00  0.00    -0.092 A  
HETATM    4  C   UNL     1      -8.487  12.715  68.637  1.00  0.00     0.043 A  
HETATM    5  C   UNL     1      -9.725  12.081  68.439  1.00  0.00    -0.199 A  
HETATM    6  C   UNL     1     -10.970   9.864  68.013  1.00  0.00    -0.269 C  
HETATM    7  C   UNL     1      -9.723  10.703  68.138  1.00  0.00    -0.167 A  
HETATM    8  C   UNL     1      -8.498  10.039  67.915  1.00  0.00    -0.118 A  
ENDROOT
BRANCH   5   9
HETATM    9  S   UNL     1     -11.284  12.965  68.590  1.00  0.00    -0.300 SA 
BRANCH   9  10
HETATM   10  C   UNL     1     -10.926  14.702  68.273  1.00  0.00    -0.252 A  
HETATM   11  C   UNL     1     -10.354  15.001  67.018  1.00  0.00    -0.269 A  
HETATM   12  C   UNL     1     -10.159  16.317  66.609  1.00  0.00    -0.283 A  
HETATM   13  C   UNL     1     -10.531  17.354  67.449  1.00  0.00    -0.336 A  
HETATM   14  C   UNL     1     -11.115  17.072  68.688  1.00  0.00    -0.128 A  
HETATM   15  C   UNL     1     -11.349  15.754  69.137  1.00  0.00    -0.349 A  
BRANCH  15  16
HETATM   16  N   UNL     1     -12.036  15.546  70.325  1.00  0.00    -0.348 NA 
HETATM   17  C   UNL     1     -13.408  15.012  70.357  1.00  0.00    -0.020 C  
HETATM   18  C   UNL     1     -13.558  14.063  71.573  1.00  0.00    -0.306 C  
HETATM   19  N   UNL     1     -13.166  14.664  72.867  1.00  0.00    -0.494 NA 
HETATM   20  C   UNL     1     -11.812  15.254  72.749  1.00  0.00    -0.415 C  
HETATM   21  H   UNL     1     -13.229  13.997  73.635  1.00  0.00     0.000 HD 
HETATM   22  C   UNL     1     -11.686  16.249  71.570  1.00  0.00    -0.403 C  
ENDBRANCH  15  16
ENDBRANCH   9  10
ENDBRANCH   5   9
TORSDOF 3
ENDMDL
MODEL      162
REMARK 921   NORMALIZED FREE ENERGY PREDICTED BY IDOCK:   -3.81 KCAL/MOL
REMARK 922        TOTAL FREE ENERGY PREDICTED BY IDOCK:   -5.17 KCAL/MOL
REMARK 923 INTER-LIGAND FREE ENERGY PREDICTED BY IDOCK:   -5.63 KCAL/MOL
REMARK 924 INTRA-LIGAND FREE ENERGY PREDICTED BY IDOCK:    0.46 KCAL/MOL
REMARK 927      BINDING AFFINITY PREDICTED BY RF-SCORE:    0.00 PKD
ROOT
HETATM    1  C   UNL     1     -14.142   8.946  72.301  1.00  0.00    -0.512 C  
HETATM    2  C   UNL     1     -13.028   9.616  71.551  1.00  0.00    -0.486 A  
HETATM    3  C   UNL     1     -11.832   8.954  71.274  1.00  0.00    -0.371 A  
HETATM    4  C   UNL     1     -10.838   9.580  70.501  1.00  0.00    -0.352 A  
HETATM    5  C   UNL     1     -11.013  10.878  69.993  1.00  0.00    -0.151 A  
HETATM    6  C   UNL     1     -12.448  13.020  69.990  1.00  0.00    -0.112 C  
HETATM    7  C   UNL     1     -12.178  11.583  70.362  1.00  0.00    -0.442 A  
HETATM    8  C   UNL     1     -13.182  10.930  71.108  1.00  0.00    -0.219 A  
ENDROOT
BRANCH   5   9
HETATM    9  S   UNL     1      -9.792  11.657  68.926  1.00  0.00     0.042 SA 
BRANCH   9  10
HETATM   10  C   UNL     1      -9.623  10.601  67.477  1.00  0.00    -0.161 A  
HETATM   11  C   UNL     1      -9.130   9.300  67.709  1.00  0.00    -0.135 A  
HETATM   12  C   UNL     1      -9.083   8.352  66.689  1.00  0.00    -0.202 A  
HETATM   13  C   UNL     1      -9.527   8.694  65.422  1.00  0.00     0.077 A  
HETATM   14  C   UNL     1     -10.034   9.975  65.182  1.00  0.00    -0.350 A  
HETATM   15  C   UNL     1     -10.118  10.961  66.189  1.00  0.00    -0.239 A  
BRANCH  15  16
HETATM   16  N   UNL     1     -10.737  12.173  65.913  1.00  0.00    -0.257 NA 
HETATM   17  C   UNL     1     -10.569  13.356  66.775  1.00  0.00    -0.277 C  
HETATM   18  C   UNL     1     -10.506  14.626  65.890  1.00  0.00    -0.314 C  
HETATM   19  N   UNL     1     -11.644  14.776  64.957  1.00  0.00    -0.373 NA 
HETATM   20  C   UNL     1     -11.814  13.527  64.177  1.00  0.00    -0.437 C  
HETATM   21  H   UNL     1     -11.545  15.594  64.357  1.00  0.00     0.000 HD 
HETATM   22  C   UNL     1     -11.938  12.269  65.069  1.00  0.00    -0.354 C  
ENDBRANCH  15  16
ENDBRANCH   9  10
ENDBRANCH   5   9
TORSDOF 3
ENDMDL
MODEL      163
REMARK 921   NORMALIZED FREE ENERGY PREDICTED BY IDOCK:   -3.80 KCAL/MOL
REMARK 922        TOTAL FREE ENERGY PREDICTED BY IDOCK:   -5.16 KCAL/MOL
REMARK 923 INTER-LIGAND FREE ENERGY PREDICTED BY IDOCK:   -4.90 KCAL/MOL
REMARK 924 INTRA-LIGAND FREE ENERGY PREDICTED BY IDOCK:   -0.26 KCAL/MOL
REMARK 927      BINDING AFFINITY PREDICTED BY RF-SCORE:    0.00 PKD
ROOT
HETATM    1  C   UNL     1      -9.513   3.410  64.337  1.00  0.00    -0.146 C  
HETATM    2  C   UNL     1      -9.535   4.417  65.449  1.00  0.00    -0.175 A  
HETATM    3  C   UNL     1     -10.734   4.886  65.986  1.00  0.00    -0.247 A  
HETATM    4  C   UNL     1     -10.722   5.769  67.081  1.00  0.00    -0.358 A  
HETATM    5  C   UNL     1      -9.518   6.204  67.659  1.00  0.00    -0.111 A  
HETATM    6  C   UNL     1      -6.947   6.291  67.485  1.00  0.00    -0.068 C  
HETATM    7  C   UNL     1      -8.309   5.810  67.049  1.00  0.00    -0.108 A  
HETATM    8  C   UNL     1      -8.335   4.897  65.973  1.00  0.00    -0.113 A  
ENDROOT
BRANCH   5   9
HETATM    9  S   UNL     1      -9.487   7.258  69.116  1.00  0.00    -0.148 SA 
BRANCH   9  10
HETATM   10  C   UNL     1     -10.043   6.247  70.499  1.00  0.00    -0.189 A  
HETATM   11  C   UNL     1      -9.511   4.942  70.568  1.00  0.00    -0.232 A  
HETATM   12  C   UNL     1      -9.762   4.116  71.661  1.00  0.00    -0.246 A  
HETATM   13  C   UNL     1     -10.549   4.585  72.701  1.00  0.00    -0.247 A  
HETATM   14  C   UNL     1     -11.068   5.882  72.653  1.00  0.00    -0.322 A  
HETATM   15  C   UNL     1     -10.825   6.760  71.574  1.00  0.00    -0.234 A  
BRANCH  15  16
HETATM   16  N   UNL     1     -11.274   8.072  71.643  1.00  0.00    -0.247 NA 
HETATM   17  C   UNL     1     -10.376   9.222  71.435  1.00  0.00    -0.321 C  
HETATM   18  C   UNL     1     -11.139  10.331  70.668  1.00  0.00    -0.280 C  
HETATM   19  N   UNL     1     -12.420  10.732  71.290  1.00  0.00    -0.389 NA 
HETATM   20  C   UNL     1     -13.243   9.528  71.548  1.00  0.00    -0.390 C  
HETATM   21  H   UNL     1     -12.917  11.426  70.733  1.00  0.00     0.000 HD 
HETATM   22  C   UNL     1     -12.497   8.449  72.368  1.00  0.00    -0.331 C  
ENDBRANCH  15  16
ENDBRANCH   9  10
ENDBRANCH   5   9
TORSDOF 3
ENDMDL
MODEL      164
REMARK 921   NORMALIZED FREE ENERGY PREDICTED BY IDOCK:   -3.78 KCAL/MOL
REMARK 922        TOTAL FREE ENERGY PREDICTED BY IDOCK:   -5.14 KCAL/MOL
REMARK 923 INTER-LIGAND FREE ENERGY PREDICTED BY IDOCK:   -4.52 KCAL/MOL
REMARK 924 INTRA-LIGAND FREE ENERGY PREDICTED BY IDOCK:   -0.62 KCAL/MOL
REMARK 927      BINDING AFFINITY PREDICTED BY RF-SCORE:    0.00 PKD
ROOT
HETATM    1  C   UNL     1     -13.502  15.080  71.236  1.00  0.00    -0.520 C  
HETATM    2  C   UNL     1     -12.323  14.985  70.313  1.00  0.00    -0.392 A  
HETATM    3  C   UNL     1     -11.253  15.875  70.400  1.00  0.00    -0.392 A  
HETATM    4  C   UNL     1     -10.126  15.712  69.573  1.00  0.00    -0.277 A  
HETATM    5  C   UNL     1     -10.046  14.663  68.642  1.00  0.00    -0.238 A  
HETATM    6  C   UNL     1     -11.276  12.739  67.447  1.00  0.00    -0.337 C  
HETATM    7  C   UNL     1     -11.172  13.829  68.484  1.00  0.00    -0.304 A  
HETATM    8  C   UNL     1     -12.281  13.982  69.343  1.00  0.00    -0.336 A  
ENDROOT
BRANCH   5   9
HETATM    9  S   UNL     1      -8.575  14.386  67.644  1.00  0.00    -0.199 SA 
BRANCH   9  10
HETATM   10  C   UNL     1      -7.225  14.061  68.791  1.00  0.00    -0.113 A  
HETATM   11  C   UNL     1      -6.750  15.170  69.523  1.00  0.00    -0.171 A  
HETATM   12  C   UNL     1      -5.804  15.017  70.534  1.00  0.00    -0.126 A  
HETATM   13  C   UNL     1      -5.318  13.753  70.825  1.00  0.00    -0.146 A  
HETATM   14  C   UNL     1      -5.793  12.643  70.119  1.00  0.00    -0.158 A  
HETATM   15  C   UNL     1      -6.765  12.748  69.100  1.00  0.00    -0.080 A  
BRANCH  15  16
HETATM   16  N   UNL     1      -7.277  11.596  68.519  1.00  0.00    -0.087 NA 
HETATM   17  C   UNL     1      -7.883  10.516  69.316  1.00  0.00    -0.144 C  
HETATM   18  C   UNL     1      -9.089   9.927  68.541  1.00  0.00    -0.125 C  
HETATM   19  N   UNL     1      -8.775   9.491  67.163  1.00  0.00    -0.131 NA 
HETATM   20  C   UNL     1      -8.095  10.590  66.439  1.00  0.00    -0.135 C  
HETATM   21  H   UNL     1      -9.601   9.156  66.668  1.00  0.00     0.000 HD 
HETATM   22  C   UNL     1      -6.854  11.132  67.188  1.00  0.00    -0.107 C  
ENDBRANCH  15  16
ENDBRANCH   9  10
ENDBRANCH   5   9
TORSDOF 3
ENDMDL
MODEL      165
REMARK 921   NORMALIZED FREE ENERGY PREDICTED BY IDOCK:   -3.77 KCAL/MOL
REMARK 922        TOTAL FREE ENERGY PREDICTED BY IDOCK:   -5.13 KCAL/MOL
REMARK 923 INTER-LIGAND FREE ENERGY PREDICTED BY IDOCK:   -4.24 KCAL/MOL
REMARK 924 INTRA-LIGAND FREE ENERGY PREDICTED BY IDOCK:   -0.89 KCAL/MOL
REMARK 927      BINDING AFFINITY PREDICTED BY RF-SCORE:    0.00 PKD
ROOT
HETATM    1  C   UNL     1     -13.414   8.741  72.228  1.00  0.00    -0.463 C  
HETATM    2  C   UNL     1     -12.221   7.952  71.774  1.00  0.00    -0.344 A  
HETATM    3  C   UNL     1     -12.349   6.875  70.896  1.00  0.00    -0.365 A  
HETATM    4  C   UNL     1     -11.205   6.205  70.426  1.00  0.00    -0.423 A  
HETATM    5  C   UNL     1      -9.914   6.590  70.825  1.00  0.00    -0.184 A  
HETATM    6  C   UNL     1      -8.486   8.048  72.400  1.00  0.00    -0.211 C  
HETATM    7  C   UNL     1      -9.795   7.610  71.792  1.00  0.00    -0.200 A  
HETATM    8  C   UNL     1     -10.948   8.297  72.228  1.00  0.00    -0.418 A  
ENDROOT
BRANCH   5   9
HETATM    9  S   UNL     1      -8.438   5.804  70.162  1.00  0.00    -0.122 SA 
BRANCH   9  10
HETATM   10  C   UNL     1      -8.951   4.205  69.511  1.00  0.00    -0.103 A  
HETATM   11  C   UNL     1      -8.967   4.081  68.106  1.00  0.00    -0.156 A  
HETATM   12  C   UNL     1      -9.216   2.856  67.492  1.00  0.00    -0.233 A  
HETATM   13  C   UNL     1      -9.454   1.738  68.275  1.00  0.00    -0.234 A  
HETATM   14  C   UNL     1      -9.425   1.844  69.668  1.00  0.00    -0.115 A  
HETATM   15  C   UNL     1      -9.158   3.060  70.335  1.00  0.00    -0.122 A  
BRANCH  15  16
HETATM   16  N   UNL     1      -9.031   3.072  71.717  1.00  0.00    -0.086 NA 
HETATM   17  C   UNL     1      -7.895   2.435  72.406  1.00  0.00    -0.053 C  
HETATM   18  C   UNL     1      -7.488   3.303  73.624  1.00  0.00    -0.056 C  
HETATM   19  N   UNL     1      -8.599   3.612  74.551  1.00  0.00    -0.087 NA 
HETATM   20  C   UNL     1      -9.739   4.172  73.789  1.00  0.00    -0.110 C  
HETATM   21  H   UNL     1      -8.306   4.224  75.312  1.00  0.00     0.000 HD 
HETATM   22  C   UNL     1     -10.181   3.270  72.612  1.00  0.00    -0.156 C  
ENDBRANCH  15  16
ENDBRANCH   9  10
ENDBRANCH   5   9
TORSDOF 3
ENDMDL
MODEL      166
REMARK 921   NORMALIZED FREE ENERGY PREDICTED BY IDOCK:   -3.77 KCAL/MOL
REMARK 922        TOTAL FREE ENERGY PREDICTED BY IDOCK:   -5.12 KCAL/MOL
REMARK 923 INTER-LIGAND FREE ENERGY PREDICTED BY IDOCK:   -4.15 KCAL/MOL
REMARK 924 INTRA-LIGAND FREE ENERGY PREDICTED BY IDOCK:   -0.97 KCAL/MOL
REMARK 927      BINDING AFFINITY PREDICTED BY RF-SCORE:    0.00 PKD
ROOT
HETATM    1  C   UNL     1     -11.051   4.846  73.305  1.00  0.00    -0.410 C  
HETATM    2  C   UNL     1     -10.990   5.379  71.904  1.00  0.00    -0.219 A  
HETATM    3  C   UNL     1     -11.620   6.571  71.547  1.00  0.00    -0.366 A  
HETATM    4  C   UNL     1     -11.480   7.085  70.246  1.00  0.00    -0.333 A  
HETATM    5  C   UNL     1     -10.712   6.421  69.274  1.00  0.00    -0.292 A  
HETATM    6  C   UNL     1      -9.418   4.285  68.635  1.00  0.00    -0.221 C  
HETATM    7  C   UNL     1     -10.163   5.165  69.607  1.00  0.00    -0.337 A  
HETATM    8  C   UNL     1     -10.283   4.678  70.926  1.00  0.00    -0.213 A  
ENDROOT
BRANCH   5   9
HETATM    9  S   UNL     1     -10.446   7.112  67.635  1.00  0.00    -0.255 SA 
BRANCH   9  10
HETATM   10  C   UNL     1      -9.972   8.833  67.869  1.00  0.00    -0.187 A  
HETATM   11  C   UNL     1     -10.989   9.791  67.674  1.00  0.00    -0.226 A  
HETATM   12  C   UNL     1     -10.777  11.138  67.957  1.00  0.00    -0.254 A  
HETATM   13  C   UNL     1      -9.543  11.546  68.438  1.00  0.00    -0.195 A  
HETATM   14  C   UNL     1      -8.532  10.605  68.652  1.00  0.00    -0.142 A  
HETATM   15  C   UNL     1      -8.708   9.227  68.398  1.00  0.00    -0.129 A  
BRANCH  15  16
HETATM   16  N   UNL     1      -7.703   8.333  68.740  1.00  0.00    -0.111 NA 
HETATM   17  C   UNL     1      -7.275   8.128  70.135  1.00  0.00    -0.056 C  
HETATM   18  C   UNL     1      -6.947   6.629  70.352  1.00  0.00    -0.063 C  
HETATM   19  N   UNL     1      -5.975   6.072  69.385  1.00  0.00    -0.026 NA 
HETATM   20  C   UNL     1      -6.417   6.380  68.005  1.00  0.00    -0.049 C  
HETATM   21  H   UNL     1      -5.821   5.074  69.527  1.00  0.00     0.000 HD 
HETATM   22  C   UNL     1      -6.684   7.887  67.777  1.00  0.00    -0.068 C  
ENDBRANCH  15  16
ENDBRANCH   9  10
ENDBRANCH   5   9
TORSDOF 3
ENDMDL
MODEL      167
REMARK 921   NORMALIZED FREE ENERGY PREDICTED BY IDOCK:   -3.76 KCAL/MOL
REMARK 922        TOTAL FREE ENERGY PREDICTED BY IDOCK:   -5.11 KCAL/MOL
REMARK 923 INTER-LIGAND FREE ENERGY PREDICTED BY IDOCK:   -4.40 KCAL/MOL
REMARK 924 INTRA-LIGAND FREE ENERGY PREDICTED BY IDOCK:   -0.71 KCAL/MOL
REMARK 927      BINDING AFFINITY PREDICTED BY RF-SCORE:    0.00 PKD
ROOT
HETATM    1  C   UNL     1     -11.819  13.125  63.658  1.00  0.00    -0.549 C  
HETATM    2  C   UNL     1     -11.397  12.193  64.755  1.00  0.00    -0.378 A  
HETATM    3  C   UNL     1     -10.643  11.050  64.492  1.00  0.00    -0.383 A  
HETATM    4  C   UNL     1     -10.195  10.238  65.550  1.00  0.00    -0.308 A  
HETATM    5  C   UNL     1     -10.493  10.546  66.888  1.00  0.00    -0.246 A  
HETATM    6  C   UNL     1     -11.842  12.024  68.514  1.00  0.00    -0.369 C  
HETATM    7  C   UNL     1     -11.342  11.643  67.142  1.00  0.00    -0.373 A  
HETATM    8  C   UNL     1     -11.755  12.469  66.075  1.00  0.00    -0.472 A  
ENDROOT
BRANCH   5   9
HETATM    9  S   UNL     1      -9.850   9.571  68.256  1.00  0.00    -0.160 SA 
BRANCH   9  10
HETATM   10  C   UNL     1      -8.091   9.340  67.946  1.00  0.00    -0.104 A  
HETATM   11  C   UNL     1      -7.308  10.512  67.898  1.00  0.00    -0.089 A  
HETATM   12  C   UNL     1      -5.920  10.450  67.798  1.00  0.00    -0.044 A  
HETATM   13  C   UNL     1      -5.296   9.214  67.744  1.00  0.00    -0.034 A  
HETATM   14  C   UNL     1      -6.059   8.045  67.808  1.00  0.00    -0.047 A  
HETATM   15  C   UNL     1      -7.466   8.059  67.928  1.00  0.00    -0.094 A  
BRANCH  15  16
HETATM   16  N   UNL     1      -8.152   6.864  68.102  1.00  0.00    -0.118 NA 
HETATM   17  C   UNL     1      -8.019   6.052  69.324  1.00  0.00    -0.103 C  
HETATM   18  C   UNL     1      -9.395   5.433  69.675  1.00  0.00    -0.135 C  
HETATM   19  N   UNL     1     -10.022   4.674  68.571  1.00  0.00    -0.105 NA 
HETATM   20  C   UNL     1     -10.054   5.513  67.349  1.00  0.00    -0.179 C  
HETATM   21  H   UNL     1     -10.947   4.324  68.821  1.00  0.00     0.000 HD 
HETATM   22  C   UNL     1      -8.665   6.079  66.968  1.00  0.00    -0.110 C  
ENDBRANCH  15  16
ENDBRANCH   9  10
ENDBRANCH   5   9
TORSDOF 3
ENDMDL
MODEL      168
REMARK 921   NORMALIZED FREE ENERGY PREDICTED BY IDOCK:   -3.76 KCAL/MOL
REMARK 922        TOTAL FREE ENERGY PREDICTED BY IDOCK:   -5.11 KCAL/MOL
REMARK 923 INTER-LIGAND FREE ENERGY PREDICTED BY IDOCK:   -4.49 KCAL/MOL
REMARK 924 INTRA-LIGAND FREE ENERGY PREDICTED BY IDOCK:   -0.62 KCAL/MOL
REMARK 927      BINDING AFFINITY PREDICTED BY RF-SCORE:    0.00 PKD
ROOT
HETATM    1  C   UNL     1     -12.020  10.970  68.884  1.00  0.00    -0.332 C  
HETATM    2  C   UNL     1     -11.118  10.237  69.833  1.00  0.00    -0.362 A  
HETATM    3  C   UNL     1     -11.614   9.610  70.975  1.00  0.00    -0.436 A  
HETATM    4  C   UNL     1     -10.756   8.864  71.803  1.00  0.00    -0.432 A  
HETATM    5  C   UNL     1      -9.388   8.731  71.512  1.00  0.00    -0.267 A  
HETATM    6  C   UNL     1      -7.408   9.501  70.052  1.00  0.00    -0.115 C  
HETATM    7  C   UNL     1      -8.871   9.453  70.415  1.00  0.00    -0.290 A  
HETATM    8  C   UNL     1      -9.749  10.168  69.574  1.00  0.00    -0.251 A  
ENDROOT
BRANCH   5   9
HETATM    9  S   UNL     1      -8.297   7.706  72.508  1.00  0.00    -0.129 SA 
BRANCH   9  10
HETATM   10  C   UNL     1      -9.176   6.166  72.820  1.00  0.00    -0.138 A  
HETATM   11  C   UNL     1      -9.913   6.102  74.022  1.00  0.00    -0.255 A  
HETATM   12  C   UNL     1     -10.739   5.018  74.307  1.00  0.00    -0.224 A  
HETATM   13  C   UNL     1     -10.838   3.980  73.394  1.00  0.00    -0.326 A  
HETATM   14  C   UNL     1     -10.127   4.038  72.192  1.00  0.00    -0.233 A  
HETATM   15  C   UNL     1      -9.293   5.126  71.852  1.00  0.00    -0.142 A  
BRANCH  15  16
HETATM   16  N   UNL     1      -8.706   5.174  70.595  1.00  0.00    -0.125 NA 
HETATM   17  C   UNL     1      -7.264   4.952  70.392  1.00  0.00    -0.054 C  
HETATM   18  C   UNL     1      -7.052   4.167  69.072  1.00  0.00    -0.051 C  
HETATM   19  N   UNL     1      -7.691   4.781  67.888  1.00  0.00    -0.082 NA 
HETATM   20  C   UNL     1      -9.117   5.055  68.182  1.00  0.00    -0.115 C  
HETATM   21  H   UNL     1      -7.573   4.213  67.049  1.00  0.00     0.000 HD 
HETATM   22  C   UNL     1      -9.320   5.892  69.467  1.00  0.00    -0.134 C  
ENDBRANCH  15  16
ENDBRANCH   9  10
ENDBRANCH   5   9
TORSDOF 3
ENDMDL
MODEL      169
REMARK 921   NORMALIZED FREE ENERGY PREDICTED BY IDOCK:   -3.75 KCAL/MOL
REMARK 922        TOTAL FREE ENERGY PREDICTED BY IDOCK:   -5.10 KCAL/MOL
REMARK 923 INTER-LIGAND FREE ENERGY PREDICTED BY IDOCK:   -4.36 KCAL/MOL
REMARK 924 INTRA-LIGAND FREE ENERGY PREDICTED BY IDOCK:   -0.74 KCAL/MOL
REMARK 927      BINDING AFFINITY PREDICTED BY RF-SCORE:    0.00 PKD
ROOT
HETATM    1  C   UNL     1     -10.190   4.096  65.404  1.00  0.00    -0.190 C  
HETATM    2  C   UNL     1      -9.809   5.257  66.276  1.00  0.00    -0.202 A  
HETATM    3  C   UNL     1     -10.698   6.300  66.533  1.00  0.00    -0.177 A  
HETATM    4  C   UNL     1     -10.341   7.334  67.417  1.00  0.00    -0.330 A  
HETATM    5  C   UNL     1      -9.091   7.351  68.058  1.00  0.00    -0.130 A  
HETATM    6  C   UNL     1      -6.739   6.309  68.231  1.00  0.00    -0.068 C  
HETATM    7  C   UNL     1      -8.155   6.352  67.715  1.00  0.00    -0.115 A  
HETATM    8  C   UNL     1      -8.540   5.303  66.854  1.00  0.00    -0.105 A  
ENDROOT
BRANCH   5   9
HETATM    9  S   UNL     1      -8.654   8.615  69.262  1.00  0.00    -0.132 SA 
BRANCH   9  10
HETATM   10  C   UNL     1      -9.923   9.889  69.157  1.00  0.00    -0.198 A  
HETATM   11  C   UNL     1      -9.708  10.904  68.201  1.00  0.00    -0.174 A  
HETATM   12  C   UNL     1     -10.681  11.865  67.937  1.00  0.00    -0.239 A  
HETATM   13  C   UNL     1     -11.883  11.824  68.626  1.00  0.00    -0.369 A  
HETATM   14  C   UNL     1     -12.115  10.813  69.563  1.00  0.00    -0.344 A  
HETATM   15  C   UNL     1     -11.166   9.808  69.851  1.00  0.00    -0.229 A  
BRANCH  15  16
HETATM   16  N   UNL     1     -11.505   8.769  70.707  1.00  0.00    -0.277 NA 
HETATM   17  C   UNL     1     -12.249   7.583  70.247  1.00  0.00     0.301 C  
HETATM   18  C   UNL     1     -11.706   6.328  70.977  1.00  0.00    -0.217 C  
HETATM   19  N   UNL     1     -11.693   6.439  72.452  1.00  0.00    -0.431 NA 
HETATM   20  C   UNL     1     -11.004   7.689  72.849  1.00  0.00    -0.400 C  
HETATM   21  H   UNL     1     -11.285   5.617  72.896  1.00  0.00     0.000 HD 
HETATM   22  C   UNL     1     -11.591   8.947  72.165  1.00  0.00    -0.330 C  
ENDBRANCH  15  16
ENDBRANCH   9  10
ENDBRANCH   5   9
TORSDOF 3
ENDMDL
MODEL      170
REMARK 921   NORMALIZED FREE ENERGY PREDICTED BY IDOCK:   -3.75 KCAL/MOL
REMARK 922        TOTAL FREE ENERGY PREDICTED BY IDOCK:   -5.10 KCAL/MOL
REMARK 923 INTER-LIGAND FREE ENERGY PREDICTED BY IDOCK:   -4.81 KCAL/MOL
REMARK 924 INTRA-LIGAND FREE ENERGY PREDICTED BY IDOCK:   -0.28 KCAL/MOL
REMARK 927      BINDING AFFINITY PREDICTED BY RF-SCORE:    0.00 PKD
ROOT
HETATM    1  C   UNL     1     -10.896   5.179  66.342  1.00  0.00    -0.174 C  
HETATM    2  C   UNL     1     -10.669   6.422  67.151  1.00  0.00    -0.433 A  
HETATM    3  C   UNL     1     -10.105   7.567  66.589  1.00  0.00    -0.263 A  
HETATM    4  C   UNL     1      -9.977   8.742  67.352  1.00  0.00    -0.267 A  
HETATM    5  C   UNL     1     -10.405   8.798  68.689  1.00  0.00    -0.205 A  
HETATM    6  C   UNL     1     -11.259   7.489  70.738  1.00  0.00    -0.287 C  
HETATM    7  C   UNL     1     -10.877   7.610  69.284  1.00  0.00    -0.111 A  
HETATM    8  C   UNL     1     -11.032   6.448  68.498  1.00  0.00    -0.396 A  
ENDROOT
BRANCH   5   9
HETATM    9  S   UNL     1     -10.334  10.318  69.649  1.00  0.00    -0.236 SA 
BRANCH   9  10
HETATM   10  C   UNL     1     -10.376  11.678  68.469  1.00  0.00    -0.212 A  
HETATM   11  C   UNL     1     -11.653  12.066  68.012  1.00  0.00    -0.407 A  
HETATM   12  C   UNL     1     -11.820  13.189  67.204  1.00  0.00    -0.424 A  
HETATM   13  C   UNL     1     -10.713  13.937  66.841  1.00  0.00    -0.284 A  
HETATM   14  C   UNL     1      -9.444  13.573  67.301  1.00  0.00    -0.230 A  
HETATM   15  C   UNL     1      -9.228  12.455  68.136  1.00  0.00    -0.205 A  
BRANCH  15  16
HETATM   16  N   UNL     1      -7.961  12.216  68.650  1.00  0.00    -0.105 NA 
HETATM   17  C   UNL     1      -6.954  13.284  68.787  1.00  0.00    -0.103 C  
HETATM   18  C   UNL     1      -6.148  13.059  70.091  1.00  0.00    -0.097 C  
HETATM   19  N   UNL     1      -5.549  11.712  70.213  1.00  0.00    -0.123 NA 
HETATM   20  C   UNL     1      -6.592  10.684  69.986  1.00  0.00    -0.149 C  
HETATM   21  H   UNL     1      -5.070  11.583  71.104  1.00  0.00     0.000 HD 
HETATM   22  C   UNL     1      -7.351  10.877  68.652  1.00  0.00    -0.101 C  
ENDBRANCH  15  16
ENDBRANCH   9  10
ENDBRANCH   5   9
TORSDOF 3
ENDMDL
MODEL      171
REMARK 921   NORMALIZED FREE ENERGY PREDICTED BY IDOCK:   -3.73 KCAL/MOL
REMARK 922        TOTAL FREE ENERGY PREDICTED BY IDOCK:   -5.08 KCAL/MOL
REMARK 923 INTER-LIGAND FREE ENERGY PREDICTED BY IDOCK:   -4.99 KCAL/MOL
REMARK 924 INTRA-LIGAND FREE ENERGY PREDICTED BY IDOCK:   -0.09 KCAL/MOL
REMARK 927      BINDING AFFINITY PREDICTED BY RF-SCORE:    0.00 PKD
ROOT
HETATM    1  C   UNL     1      -6.632  20.218  69.997  1.00  0.00    -0.183 C  
HETATM    2  C   UNL     1      -7.177  19.291  68.951  1.00  0.00    -0.393 A  
HETATM    3  C   UNL     1      -6.359  18.378  68.285  1.00  0.00    -0.194 A  
HETATM    4  C   UNL     1      -6.914  17.468  67.368  1.00  0.00    -0.185 A  
HETATM    5  C   UNL     1      -8.291  17.452  67.093  1.00  0.00    -0.214 A  
HETATM    6  C   UNL     1     -10.568  18.622  67.398  1.00  0.00    -0.490 C  
HETATM    7  C   UNL     1      -9.099  18.443  67.689  1.00  0.00    -0.282 A  
HETATM    8  C   UNL     1      -8.535  19.327  68.633  1.00  0.00    -0.403 A  
ENDROOT
BRANCH   5   9
HETATM    9  S   UNL     1      -9.029  16.234  65.993  1.00  0.00    -0.207 SA 
BRANCH   9  10
HETATM   10  C   UNL     1     -10.038  15.153  67.020  1.00  0.00    -0.244 A  
HETATM   11  C   UNL     1     -11.386  15.005  66.632  1.00  0.00    -0.289 A  
HETATM   12  C   UNL     1     -12.226  14.094  67.268  1.00  0.00    -0.314 A  
HETATM   13  C   UNL     1     -11.729  13.318  68.302  1.00  0.00    -0.388 A  
HETATM   14  C   UNL     1     -10.390  13.442  68.685  1.00  0.00    -0.213 A  
HETATM   15  C   UNL     1      -9.498  14.338  68.058  1.00  0.00    -0.204 A  
BRANCH  15  16
HETATM   16  N   UNL     1      -8.155  14.329  68.410  1.00  0.00    -0.136 NA 
HETATM   17  C   UNL     1      -7.636  15.106  69.549  1.00  0.00    -0.207 C  
HETATM   18  C   UNL     1      -6.528  14.288  70.260  1.00  0.00    -0.102 C  
HETATM   19  N   UNL     1      -5.446  13.822  69.367  1.00  0.00    -0.083 NA 
HETATM   20  C   UNL     1      -6.033  13.120  68.201  1.00  0.00    -0.104 C  
HETATM   21  H   UNL     1      -4.762  13.247  69.858  1.00  0.00     0.000 HD 
HETATM   22  C   UNL     1      -7.094  13.966  67.457  1.00  0.00    -0.158 C  
ENDBRANCH  15  16
ENDBRANCH   9  10
ENDBRANCH   5   9
TORSDOF 3
ENDMDL
MODEL      172
REMARK 921   NORMALIZED FREE ENERGY PREDICTED BY IDOCK:   -3.73 KCAL/MOL
REMARK 922        TOTAL FREE ENERGY PREDICTED BY IDOCK:   -5.07 KCAL/MOL
REMARK 923 INTER-LIGAND FREE ENERGY PREDICTED BY IDOCK:   -4.54 KCAL/MOL
REMARK 924 INTRA-LIGAND FREE ENERGY PREDICTED BY IDOCK:   -0.53 KCAL/MOL
REMARK 927      BINDING AFFINITY PREDICTED BY RF-SCORE:    0.00 PKD
ROOT
HETATM    1  C   UNL     1      -8.238   2.697  73.656  1.00  0.00    -0.067 C  
HETATM    2  C   UNL     1      -8.678   4.037  73.143  1.00  0.00    -0.095 A  
HETATM    3  C   UNL     1      -7.757   5.001  72.734  1.00  0.00    -0.097 A  
HETATM    4  C   UNL     1      -8.202   6.217  72.184  1.00  0.00    -0.109 A  
HETATM    5  C   UNL     1      -9.570   6.497  72.035  1.00  0.00    -0.149 A  
HETATM    6  C   UNL     1     -11.990   5.782  72.561  1.00  0.00    -0.157 C  
HETATM    7  C   UNL     1     -10.498   5.565  72.545  1.00  0.00    -0.260 A  
HETATM    8  C   UNL     1     -10.039   4.335  73.062  1.00  0.00    -0.207 A  
ENDROOT
BRANCH   5   9
HETATM    9  S   UNL     1     -10.153   8.007  71.249  1.00  0.00    -0.188 SA 
BRANCH   9  10
HETATM   10  C   UNL     1     -10.296   7.651  69.489  1.00  0.00    -0.217 A  
HETATM   11  C   UNL     1     -10.704   6.344  69.149  1.00  0.00    -0.339 A  
HETATM   12  C   UNL     1     -10.978   5.993  67.829  1.00  0.00    -0.333 A  
HETATM   13  C   UNL     1     -10.847   6.945  66.831  1.00  0.00    -0.380 A  
HETATM   14  C   UNL     1     -10.461   8.248  67.156  1.00  0.00    -0.386 A  
HETATM   15  C   UNL     1     -10.191   8.654  68.481  1.00  0.00    -0.195 A  
BRANCH  15  16
HETATM   16  N   UNL     1      -9.924   9.990  68.749  1.00  0.00    -0.165 NA 
HETATM   17  C   UNL     1      -8.550  10.508  68.871  1.00  0.00    -0.153 C  
HETATM   18  C   UNL     1      -8.484  11.926  68.249  1.00  0.00    -0.161 C  
HETATM   19  N   UNL     1      -9.485  12.874  68.785  1.00  0.00    -0.413 NA 
HETATM   20  C   UNL     1     -10.834  12.266  68.710  1.00  0.00    -0.229 C  
HETATM   21  H   UNL     1      -9.445  13.780  68.319  1.00  0.00     0.000 HD 
HETATM   22  C   UNL     1     -10.909  10.877  69.388  1.00  0.00    -0.240 C  
ENDBRANCH  15  16
ENDBRANCH   9  10
ENDBRANCH   5   9
TORSDOF 3
ENDMDL
MODEL      173
REMARK 921   NORMALIZED FREE ENERGY PREDICTED BY IDOCK:   -3.71 KCAL/MOL
REMARK 922        TOTAL FREE ENERGY PREDICTED BY IDOCK:   -5.05 KCAL/MOL
REMARK 923 INTER-LIGAND FREE ENERGY PREDICTED BY IDOCK:   -5.02 KCAL/MOL
REMARK 924 INTRA-LIGAND FREE ENERGY PREDICTED BY IDOCK:   -0.03 KCAL/MOL
REMARK 927      BINDING AFFINITY PREDICTED BY RF-SCORE:    0.00 PKD
ROOT
HETATM    1  C   UNL     1      -8.504   8.967  62.794  1.00  0.00    -0.206 C  
HETATM    2  C   UNL     1      -9.078   9.857  63.858  1.00  0.00    -0.298 A  
HETATM    3  C   UNL     1      -8.777   9.670  65.206  1.00  0.00    -0.186 A  
HETATM    4  C   UNL     1      -9.266  10.567  66.172  1.00  0.00    -0.197 A  
HETATM    5  C   UNL     1     -10.067  11.665  65.815  1.00  0.00    -0.240 A  
HETATM    6  C   UNL     1     -11.403  12.846  63.953  1.00  0.00    -0.489 C  
HETATM    7  C   UNL     1     -10.455  11.790  64.464  1.00  0.00    -0.352 A  
HETATM    8  C   UNL     1      -9.929  10.903  63.501  1.00  0.00    -0.419 A  
ENDROOT
BRANCH   5   9
HETATM    9  S   UNL     1     -10.623  12.873  67.025  1.00  0.00    -0.254 SA 
BRANCH   9  10
HETATM   10  C   UNL     1      -9.162  13.408  67.932  1.00  0.00    -0.216 A  
HETATM   11  C   UNL     1      -8.302  12.385  68.386  1.00  0.00    -0.137 A  
HETATM   12  C   UNL     1      -7.078  12.681  68.979  1.00  0.00    -0.028 A  
HETATM   13  C   UNL     1      -6.696  14.004  69.128  1.00  0.00    -0.112 A  
HETATM   14  C   UNL     1      -7.530  15.027  68.667  1.00  0.00    -0.122 A  
HETATM   15  C   UNL     1      -8.771  14.774  68.043  1.00  0.00    -0.168 A  
BRANCH  15  16
HETATM   16  N   UNL     1      -9.497  15.829  67.506  1.00  0.00    -0.217 NA 
HETATM   17  C   UNL     1     -10.788  16.261  68.069  1.00  0.00    -0.339 C  
HETATM   18  C   UNL     1     -10.887  17.806  67.986  1.00  0.00    -0.207 C  
HETATM   19  N   UNL     1     -10.657  18.360  66.635  1.00  0.00    -0.367 NA 
HETATM   20  C   UNL     1      -9.386  17.826  66.090  1.00  0.00    -0.132 C  
HETATM   21  H   UNL     1     -10.680  19.379  66.627  1.00  0.00     0.000 HD 
HETATM   22  C   UNL     1      -9.318  16.281  66.117  1.00  0.00    -0.339 C  
ENDBRANCH  15  16
ENDBRANCH   9  10
ENDBRANCH   5   9
TORSDOF 3
ENDMDL
MODEL      174
REMARK 921   NORMALIZED FREE ENERGY PREDICTED BY IDOCK:   -3.71 KCAL/MOL
REMARK 922        TOTAL FREE ENERGY PREDICTED BY IDOCK:   -5.05 KCAL/MOL
REMARK 923 INTER-LIGAND FREE ENERGY PREDICTED BY IDOCK:   -4.31 KCAL/MOL
REMARK 924 INTRA-LIGAND FREE ENERGY PREDICTED BY IDOCK:   -0.74 KCAL/MOL
REMARK 927      BINDING AFFINITY PREDICTED BY RF-SCORE:    0.00 PKD
ROOT
HETATM    1  C   UNL     1      -9.887   3.554  65.635  1.00  0.00     0.002 C  
HETATM    2  C   UNL     1      -9.638   4.676  66.600  1.00  0.00    -0.192 A  
HETATM    3  C   UNL     1     -10.545   5.725  66.750  1.00  0.00    -0.373 A  
HETATM    4  C   UNL     1     -10.322   6.720  67.719  1.00  0.00    -0.245 A  
HETATM    5  C   UNL     1      -9.192   6.692  68.553  1.00  0.00    -0.127 A  
HETATM    6  C   UNL     1      -6.913   5.602  69.063  1.00  0.00    -0.063 C  
HETATM    7  C   UNL     1      -8.226   5.689  68.328  1.00  0.00    -0.103 A  
HETATM    8  C   UNL     1      -8.479   4.678  67.377  1.00  0.00    -0.104 A  
ENDROOT
BRANCH   5   9
HETATM    9  S   UNL     1      -8.941   7.904  69.858  1.00  0.00    -0.145 SA 
BRANCH   9  10
HETATM   10  C   UNL     1     -10.478   8.832  70.006  1.00  0.00    -0.212 A  
HETATM   11  C   UNL     1     -11.296   8.508  71.108  1.00  0.00    -0.319 A  
HETATM   12  C   UNL     1     -12.440   9.248  71.401  1.00  0.00    -0.418 A  
HETATM   13  C   UNL     1     -12.781  10.321  70.594  1.00  0.00    -0.382 A  
HETATM   14  C   UNL     1     -11.969  10.663  69.508  1.00  0.00    -0.319 A  
HETATM   15  C   UNL     1     -10.791   9.954  69.185  1.00  0.00    -0.221 A  
BRANCH  15  16
HETATM   16  N   UNL     1      -9.971  10.416  68.165  1.00  0.00    -0.147 NA 
HETATM   17  C   UNL     1      -9.164  11.641  68.299  1.00  0.00    -0.187 C  
HETATM   18  C   UNL     1      -7.802  11.434  67.590  1.00  0.00    -0.122 C  
HETATM   19  N   UNL     1      -7.908  10.991  66.183  1.00  0.00    -0.262 NA 
HETATM   20  C   UNL     1      -8.796   9.806  66.102  1.00  0.00    -0.141 C  
HETATM   21  H   UNL     1      -6.995  10.816  65.764  1.00  0.00     0.000 HD 
HETATM   22  C   UNL     1     -10.178  10.040  66.757  1.00  0.00    -0.232 C  
ENDBRANCH  15  16
ENDBRANCH   9  10
ENDBRANCH   5   9
TORSDOF 3
ENDMDL
MODEL      175
REMARK 921   NORMALIZED FREE ENERGY PREDICTED BY IDOCK:   -3.71 KCAL/MOL
REMARK 922        TOTAL FREE ENERGY PREDICTED BY IDOCK:   -5.05 KCAL/MOL
REMARK 923 INTER-LIGAND FREE ENERGY PREDICTED BY IDOCK:   -4.81 KCAL/MOL
REMARK 924 INTRA-LIGAND FREE ENERGY PREDICTED BY IDOCK:   -0.24 KCAL/MOL
REMARK 927      BINDING AFFINITY PREDICTED BY RF-SCORE:    0.00 PKD
ROOT
HETATM    1  C   UNL     1      -8.186   8.831  62.332  1.00  0.00    -0.176 C  
HETATM    2  C   UNL     1      -8.983   9.489  63.420  1.00  0.00    -0.205 A  
HETATM    3  C   UNL     1      -9.008   8.978  64.718  1.00  0.00    -0.146 A  
HETATM    4  C   UNL     1      -9.699   9.661  65.735  1.00  0.00    -0.350 A  
HETATM    5  C   UNL     1     -10.382  10.862  65.479  1.00  0.00    -0.252 A  
HETATM    6  C   UNL     1     -11.233  12.524  63.701  1.00  0.00    -0.545 C  
HETATM    7  C   UNL     1     -10.442  11.319  64.145  1.00  0.00    -0.431 A  
HETATM    8  C   UNL     1      -9.715  10.644  63.142  1.00  0.00    -0.375 A  
ENDROOT
BRANCH   5   9
HETATM    9  S   UNL     1     -11.192  11.795  66.786  1.00  0.00    -0.316 SA 
BRANCH   9  10
HETATM   10  C   UNL     1     -10.270  13.330  66.974  1.00  0.00    -0.244 A  
HETATM   11  C   UNL     1     -11.007  14.522  66.814  1.00  0.00    -0.316 A  
HETATM   12  C   UNL     1     -10.433  15.766  67.068  1.00  0.00    -0.309 A  
HETATM   13  C   UNL     1      -9.113  15.834  67.484  1.00  0.00    -0.201 A  
HETATM   14  C   UNL     1      -8.377  14.659  67.664  1.00  0.00    -0.186 A  
HETATM   15  C   UNL     1      -8.922  13.376  67.436  1.00  0.00    -0.215 A  
BRANCH  15  16
HETATM   16  N   UNL     1      -8.173  12.248  67.743  1.00  0.00    -0.149 NA 
HETATM   17  C   UNL     1      -7.256  11.626  66.773  1.00  0.00    -0.082 C  
HETATM   18  C   UNL     1      -5.996  11.118  67.517  1.00  0.00    -0.048 C  
HETATM   19  N   UNL     1      -6.282  10.226  68.662  1.00  0.00    -0.047 NA 
HETATM   20  C   UNL     1      -7.270  10.871  69.558  1.00  0.00    -0.113 C  
HETATM   21  H   UNL     1      -5.434   9.952  69.158  1.00  0.00     0.000 HD 
HETATM   22  C   UNL     1      -8.554  11.321  68.820  1.00  0.00    -0.108 C  
ENDBRANCH  15  16
ENDBRANCH   9  10
ENDBRANCH   5   9
TORSDOF 3
ENDMDL
MODEL      176
REMARK 921   NORMALIZED FREE ENERGY PREDICTED BY IDOCK:   -3.70 KCAL/MOL
REMARK 922        TOTAL FREE ENERGY PREDICTED BY IDOCK:   -5.04 KCAL/MOL
REMARK 923 INTER-LIGAND FREE ENERGY PREDICTED BY IDOCK:   -4.36 KCAL/MOL
REMARK 924 INTRA-LIGAND FREE ENERGY PREDICTED BY IDOCK:   -0.68 KCAL/MOL
REMARK 927      BINDING AFFINITY PREDICTED BY RF-SCORE:    0.00 PKD
ROOT
HETATM    1  C   UNL     1     -10.514   4.530  65.987  1.00  0.00    -0.236 C  
HETATM    2  C   UNL     1     -10.456   5.640  66.995  1.00  0.00    -0.344 A  
HETATM    3  C   UNL     1     -10.398   6.978  66.607  1.00  0.00    -0.215 A  
HETATM    4  C   UNL     1     -10.424   7.999  67.574  1.00  0.00    -0.331 A  
HETATM    5  C   UNL     1     -10.504   7.706  68.946  1.00  0.00    -0.199 A  
HETATM    6  C   UNL     1     -10.417   5.892  70.776  1.00  0.00    -0.311 C  
HETATM    7  C   UNL     1     -10.457   6.352  69.340  1.00  0.00    -0.277 A  
HETATM    8  C   UNL     1     -10.466   5.339  68.358  1.00  0.00    -0.143 A  
ENDROOT
BRANCH   5   9
HETATM    9  S   UNL     1     -10.633   9.000  70.190  1.00  0.00    -0.233 SA 
BRANCH   9  10
HETATM   10  C   UNL     1     -10.428  10.568  69.328  1.00  0.00    -0.235 A  
HETATM   11  C   UNL     1     -11.537  11.441  69.354  1.00  0.00    -0.391 A  
HETATM   12  C   UNL     1     -11.451  12.732  68.839  1.00  0.00    -0.352 A  
HETATM   13  C   UNL     1     -10.256  13.168  68.291  1.00  0.00    -0.250 A  
HETATM   14  C   UNL     1      -9.145  12.319  68.274  1.00  0.00    -0.187 A  
HETATM   15  C   UNL     1      -9.180  11.010  68.801  1.00  0.00    -0.162 A  
BRANCH  15  16
HETATM   16  N   UNL     1      -8.012  10.261  68.857  1.00  0.00    -0.104 NA 
HETATM   17  C   UNL     1      -7.113  10.294  70.024  1.00  0.00    -0.158 C  
HETATM   18  C   UNL     1      -6.540   8.874  70.264  1.00  0.00    -0.042 C  
HETATM   19  N   UNL     1      -5.891   8.270  69.080  1.00  0.00    -0.038 NA 
HETATM   20  C   UNL     1      -6.811   8.341  67.921  1.00  0.00    -0.066 C  
HETATM   21  H   UNL     1      -5.570   7.319  69.260  1.00  0.00     0.000 HD 
HETATM   22  C   UNL     1      -7.332   9.772  67.647  1.00  0.00    -0.090 C  
ENDBRANCH  15  16
ENDBRANCH   9  10
ENDBRANCH   5   9
TORSDOF 3
ENDMDL
MODEL      177
REMARK 921   NORMALIZED FREE ENERGY PREDICTED BY IDOCK:   -3.69 KCAL/MOL
REMARK 922        TOTAL FREE ENERGY PREDICTED BY IDOCK:   -5.03 KCAL/MOL
REMARK 923 INTER-LIGAND FREE ENERGY PREDICTED BY IDOCK:   -4.38 KCAL/MOL
REMARK 924 INTRA-LIGAND FREE ENERGY PREDICTED BY IDOCK:   -0.65 KCAL/MOL
REMARK 927      BINDING AFFINITY PREDICTED BY RF-SCORE:    0.00 PKD
ROOT
HETATM    1  C   UNL     1      -8.357  16.090  67.202  1.00  0.00    -0.228 C  
HETATM    2  C   UNL     1      -8.913  14.696  67.230  1.00  0.00    -0.216 A  
HETATM    3  C   UNL     1      -8.456  13.746  68.143  1.00  0.00    -0.173 A  
HETATM    4  C   UNL     1      -9.051  12.473  68.197  1.00  0.00    -0.204 A  
HETATM    5  C   UNL     1     -10.109  12.121  67.342  1.00  0.00    -0.199 A  
HETATM    6  C   UNL     1     -11.534  12.765  65.293  1.00  0.00    -0.360 C  
HETATM    7  C   UNL     1     -10.498  13.047  66.351  1.00  0.00    -0.285 A  
HETATM    8  C   UNL     1      -9.916  14.332  66.331  1.00  0.00    -0.302 A  
ENDROOT
BRANCH   5   9
HETATM    9  S   UNL     1     -10.942  10.531  67.462  1.00  0.00    -0.279 SA 
BRANCH   9  10
HETATM   10  C   UNL     1      -9.678   9.267  67.245  1.00  0.00    -0.167 A  
HETATM   11  C   UNL     1      -8.920   9.341  66.057  1.00  0.00    -0.215 A  
HETATM   12  C   UNL     1      -7.829   8.503  65.842  1.00  0.00    -0.099 A  
HETATM   13  C   UNL     1      -7.481   7.577  66.812  1.00  0.00    -0.093 A  
HETATM   14  C   UNL     1      -8.213   7.504  68.001  1.00  0.00    -0.124 A  
HETATM   15  C   UNL     1      -9.314   8.346  68.271  1.00  0.00    -0.134 A  
BRANCH  15  16
HETATM   16  N   UNL     1      -9.924   8.300  69.517  1.00  0.00    -0.183 NA 
HETATM   17  C   UNL     1     -11.196   7.591  69.743  1.00  0.00    -0.056 C  
HETATM   18  C   UNL     1     -11.160   6.914  71.136  1.00  0.00    -0.260 C  
HETATM   19  N   UNL     1     -10.827   7.828  72.251  1.00  0.00    -0.260 NA 
HETATM   20  C   UNL     1      -9.586   8.570  71.929  1.00  0.00    -0.283 C  
HETATM   21  H   UNL     1     -10.764   7.340  73.143  1.00  0.00     0.000 HD 
HETATM   22  C   UNL     1      -9.651   9.296  70.564  1.00  0.00    -0.262 C  
ENDBRANCH  15  16
ENDBRANCH   9  10
ENDBRANCH   5   9
TORSDOF 3
ENDMDL
MODEL      178
REMARK 921   NORMALIZED FREE ENERGY PREDICTED BY IDOCK:   -3.69 KCAL/MOL
REMARK 922        TOTAL FREE ENERGY PREDICTED BY IDOCK:   -5.03 KCAL/MOL
REMARK 923 INTER-LIGAND FREE ENERGY PREDICTED BY IDOCK:   -4.73 KCAL/MOL
REMARK 924 INTRA-LIGAND FREE ENERGY PREDICTED BY IDOCK:   -0.30 KCAL/MOL
REMARK 927      BINDING AFFINITY PREDICTED BY RF-SCORE:    0.00 PKD
ROOT
HETATM    1  C   UNL     1     -12.168  12.772  63.086  1.00  0.00    -0.327 C  
HETATM    2  C   UNL     1     -11.606  12.736  64.477  1.00  0.00    -0.397 A  
HETATM    3  C   UNL     1     -10.524  11.920  64.807  1.00  0.00    -0.333 A  
HETATM    4  C   UNL     1      -9.970  11.966  66.099  1.00  0.00    -0.254 A  
HETATM    5  C   UNL     1     -10.484  12.822  67.087  1.00  0.00    -0.233 A  
HETATM    6  C   UNL     1     -12.372  14.438  67.774  1.00  0.00    -0.022 C  
HETATM    7  C   UNL     1     -11.642  13.568  66.781  1.00  0.00    -0.397 A  
HETATM    8  C   UNL     1     -12.166  13.538  65.471  1.00  0.00    -0.490 A  
ENDROOT
BRANCH   5   9
HETATM    9  S   UNL     1      -9.729  12.962  68.713  1.00  0.00     0.171 SA 
BRANCH   9  10
HETATM   10  C   UNL     1      -8.105  13.702  68.469  1.00  0.00    -0.118 A  
HETATM   11  C   UNL     1      -7.007  12.816  68.496  1.00  0.00    -0.095 A  
HETATM   12  C   UNL     1      -5.720  13.251  68.187  1.00  0.00    -0.101 A  
HETATM   13  C   UNL     1      -5.514  14.578  67.846  1.00  0.00    -0.093 A  
HETATM   14  C   UNL     1      -6.596  15.462  67.797  1.00  0.00    -0.178 A  
HETATM   15  C   UNL     1      -7.919  15.062  68.085  1.00  0.00    -0.131 A  
BRANCH  15  16
HETATM   16  N   UNL     1      -8.962  15.961  67.907  1.00  0.00    -0.181 NA 
HETATM   17  C   UNL     1      -9.951  16.238  68.963  1.00  0.00    -0.256 C  
HETATM   18  C   UNL     1     -10.322  17.742  68.932  1.00  0.00    -0.300 C  
HETATM   19  N   UNL     1     -10.770  18.232  67.610  1.00  0.00    -0.403 NA 
HETATM   20  C   UNL     1      -9.776  17.853  66.578  1.00  0.00    -0.329 C  
HETATM   21  H   UNL     1     -10.958  19.234  67.614  1.00  0.00     0.000 HD 
HETATM   22  C   UNL     1      -9.456  16.339  66.573  1.00  0.00    -0.264 C  
ENDBRANCH  15  16
ENDBRANCH   9  10
ENDBRANCH   5   9
TORSDOF 3
ENDMDL
MODEL      179
REMARK 921   NORMALIZED FREE ENERGY PREDICTED BY IDOCK:   -3.68 KCAL/MOL
REMARK 922        TOTAL FREE ENERGY PREDICTED BY IDOCK:   -5.02 KCAL/MOL
REMARK 923 INTER-LIGAND FREE ENERGY PREDICTED BY IDOCK:   -5.09 KCAL/MOL
REMARK 924 INTRA-LIGAND FREE ENERGY PREDICTED BY IDOCK:    0.07 KCAL/MOL
REMARK 927      BINDING AFFINITY PREDICTED BY RF-SCORE:    0.00 PKD
ROOT
HETATM    1  C   UNL     1      -7.674   7.949  66.842  1.00  0.00    -0.099 C  
HETATM    2  C   UNL     1      -8.648   8.946  67.397  1.00  0.00    -0.119 A  
HETATM    3  C   UNL     1     -10.018   8.685  67.438  1.00  0.00    -0.270 A  
HETATM    4  C   UNL     1     -10.897   9.606  68.035  1.00  0.00    -0.250 A  
HETATM    5  C   UNL     1     -10.431  10.805  68.599  1.00  0.00    -0.192 A  
HETATM    6  C   UNL     1      -8.440  12.412  68.913  1.00  0.00     0.263 C  
HETATM    7  C   UNL     1      -9.061  11.114  68.463  1.00  0.00    -0.175 A  
HETATM    8  C   UNL     1      -8.186  10.166  67.892  1.00  0.00    -0.109 A  
ENDROOT
BRANCH   5   9
HETATM    9  S   UNL     1     -11.529  11.949  69.449  1.00  0.00    -0.298 SA 
BRANCH   9  10
HETATM   10  C   UNL     1     -11.393  13.528  68.595  1.00  0.00    -0.288 A  
HETATM   11  C   UNL     1     -11.091  13.467  67.217  1.00  0.00    -0.300 A  
HETATM   12  C   UNL     1     -11.092  14.613  66.426  1.00  0.00    -0.334 A  
HETATM   13  C   UNL     1     -11.395  15.837  67.001  1.00  0.00     0.016 A  
HETATM   14  C   UNL     1     -11.713  15.909  68.360  1.00  0.00    -0.246 A  
HETATM   15  C   UNL     1     -11.742  14.772  69.197  1.00  0.00    -0.313 A  
BRANCH  15  16
HETATM   16  N   UNL     1     -12.177  14.897  70.510  1.00  0.00    -0.305 NA 
HETATM   17  C   UNL     1     -11.244  15.113  71.629  1.00  0.00    -0.245 C  
HETATM   18  C   UNL     1     -11.892  16.080  72.652  1.00  0.00    -0.506 C  
HETATM   19  N   UNL     1     -13.233  15.664  73.119  1.00  0.00    -0.533 NA 
HETATM   20  C   UNL     1     -14.100  15.384  71.950  1.00  0.00    -0.537 C  
HETATM   21  H   UNL     1     -13.650  16.348  73.751  1.00  0.00     0.000 HD 
HETATM   22  C   UNL     1     -13.474  14.370  70.963  1.00  0.00    -0.252 C  
ENDBRANCH  15  16
ENDBRANCH   9  10
ENDBRANCH   5   9
TORSDOF 3
ENDMDL
MODEL      180
REMARK 921   NORMALIZED FREE ENERGY PREDICTED BY IDOCK:   -3.68 KCAL/MOL
REMARK 922        TOTAL FREE ENERGY PREDICTED BY IDOCK:   -5.02 KCAL/MOL
REMARK 923 INTER-LIGAND FREE ENERGY PREDICTED BY IDOCK:   -4.36 KCAL/MOL
REMARK 924 INTRA-LIGAND FREE ENERGY PREDICTED BY IDOCK:   -0.65 KCAL/MOL
REMARK 927      BINDING AFFINITY PREDICTED BY RF-SCORE:    0.00 PKD
ROOT
HETATM    1  C   UNL     1     -13.464   9.186  71.860  1.00  0.00    -0.492 C  
HETATM    2  C   UNL     1     -12.272   8.309  71.610  1.00  0.00    -0.350 A  
HETATM    3  C   UNL     1     -12.368   7.148  70.843  1.00  0.00    -0.335 A  
HETATM    4  C   UNL     1     -11.218   6.389  70.560  1.00  0.00    -0.414 A  
HETATM    5  C   UNL     1      -9.952   6.769  71.038  1.00  0.00    -0.182 A  
HETATM    6  C   UNL     1      -8.610   8.339  72.581  1.00  0.00    -0.264 C  
HETATM    7  C   UNL     1      -9.876   7.884  71.899  1.00  0.00    -0.233 A  
HETATM    8  C   UNL     1     -11.032   8.656  72.146  1.00  0.00    -0.434 A  
ENDROOT
BRANCH   5   9
HETATM    9  S   UNL     1      -8.460   5.862  70.609  1.00  0.00    -0.130 SA 
BRANCH   9  10
HETATM   10  C   UNL     1      -8.847   4.113  70.792  1.00  0.00    -0.086 A  
HETATM   11  C   UNL     1      -9.209   3.688  72.088  1.00  0.00    -0.167 A  
HETATM   12  C   UNL     1      -9.658   2.391  72.323  1.00  0.00    -0.182 A  
HETATM   13  C   UNL     1      -9.750   1.500  71.266  1.00  0.00    -0.205 A  
HETATM   14  C   UNL     1      -9.410   1.913  69.974  1.00  0.00    -0.167 A  
HETATM   15  C   UNL     1      -8.968   3.222  69.685  1.00  0.00    -0.111 A  
BRANCH  15  16
HETATM   16  N   UNL     1      -8.757   3.600  68.366  1.00  0.00    -0.097 NA 
HETATM   17  C   UNL     1      -7.407   3.717  67.788  1.00  0.00    -0.063 C  
HETATM   18  C   UNL     1      -7.438   3.225  66.320  1.00  0.00    -0.076 C  
HETATM   19  N   UNL     1      -8.461   3.881  65.477  1.00  0.00    -0.109 NA 
HETATM   20  C   UNL     1      -9.780   3.802  66.148  1.00  0.00    -0.122 C  
HETATM   21  H   UNL     1      -8.486   3.498  64.533  1.00  0.00     0.000 HD 
HETATM   22  C   UNL     1      -9.758   4.353  67.593  1.00  0.00    -0.146 C  
ENDBRANCH  15  16
ENDBRANCH   9  10
ENDBRANCH   5   9
TORSDOF 3
ENDMDL
MODEL      181
REMARK 921   NORMALIZED FREE ENERGY PREDICTED BY IDOCK:   -3.67 KCAL/MOL
REMARK 922        TOTAL FREE ENERGY PREDICTED BY IDOCK:   -5.01 KCAL/MOL
REMARK 923 INTER-LIGAND FREE ENERGY PREDICTED BY IDOCK:   -4.31 KCAL/MOL
REMARK 924 INTRA-LIGAND FREE ENERGY PREDICTED BY IDOCK:   -0.71 KCAL/MOL
REMARK 927      BINDING AFFINITY PREDICTED BY RF-SCORE:    0.00 PKD
ROOT
HETATM    1  C   UNL     1      -7.440   6.810  64.523  1.00  0.00    -0.099 C  
HETATM    2  C   UNL     1      -7.902   8.078  65.179  1.00  0.00    -0.116 A  
HETATM    3  C   UNL     1      -7.272   8.583  66.316  1.00  0.00    -0.078 A  
HETATM    4  C   UNL     1      -7.677   9.815  66.862  1.00  0.00    -0.098 A  
HETATM    5  C   UNL     1      -8.718  10.564  66.290  1.00  0.00    -0.151 A  
HETATM    6  C   UNL     1     -10.632  10.632  64.564  1.00  0.00    -0.145 C  
HETATM    7  C   UNL     1      -9.421  10.000  65.204  1.00  0.00    -0.331 A  
HETATM    8  C   UNL     1      -8.982   8.781  64.645  1.00  0.00     0.032 A  
ENDROOT
BRANCH   5   9
HETATM    9  S   UNL     1      -9.185  12.182  66.920  1.00  0.00    -0.207 SA 
BRANCH   9  10
HETATM   10  C   UNL     1     -10.526  11.914  68.092  1.00  0.00    -0.207 A  
HETATM   11  C   UNL     1     -10.817  10.570  68.408  1.00  0.00    -0.284 A  
HETATM   12  C   UNL     1     -11.739  10.244  69.399  1.00  0.00    -0.166 A  
HETATM   13  C   UNL     1     -12.384  11.258  70.088  1.00  0.00    -0.354 A  
HETATM   14  C   UNL     1     -12.093  12.594  69.797  1.00  0.00    -0.301 A  
HETATM   15  C   UNL     1     -11.152  12.971  68.814  1.00  0.00    -0.270 A  
BRANCH  15  16
HETATM   16  N   UNL     1     -10.826  14.312  68.655  1.00  0.00    -0.246 NA 
HETATM   17  C   UNL     1     -10.308  15.131  69.765  1.00  0.00    -0.210 C  
HETATM   18  C   UNL     1      -9.237  16.108  69.219  1.00  0.00    -0.223 C  
HETATM   19  N   UNL     1      -9.690  16.937  68.081  1.00  0.00    -0.247 NA 
HETATM   20  C   UNL     1     -10.274  16.065  67.034  1.00  0.00    -0.282 C  
HETATM   21  H   UNL     1      -8.946  17.530  67.716  1.00  0.00     0.000 HD 
HETATM   22  C   UNL     1     -11.387  15.135  67.573  1.00  0.00    -0.320 C  
ENDBRANCH  15  16
ENDBRANCH   9  10
ENDBRANCH   5   9
TORSDOF 3
ENDMDL
MODEL      182
REMARK 921   NORMALIZED FREE ENERGY PREDICTED BY IDOCK:   -3.66 KCAL/MOL
REMARK 922        TOTAL FREE ENERGY PREDICTED BY IDOCK:   -4.99 KCAL/MOL
REMARK 923 INTER-LIGAND FREE ENERGY PREDICTED BY IDOCK:   -3.98 KCAL/MOL
REMARK 924 INTRA-LIGAND FREE ENERGY PREDICTED BY IDOCK:   -1.01 KCAL/MOL
REMARK 927      BINDING AFFINITY PREDICTED BY RF-SCORE:    0.00 PKD
ROOT
HETATM    1  C   UNL     1      -5.782  12.174  67.718  1.00  0.00    -0.085 C  
HETATM    2  C   UNL     1      -6.233  10.911  68.389  1.00  0.00    -0.046 A  
HETATM    3  C   UNL     1      -6.850  10.928  69.640  1.00  0.00    -0.137 A  
HETATM    4  C   UNL     1      -7.333   9.736  70.208  1.00  0.00    -0.165 A  
HETATM    5  C   UNL     1      -7.208   8.504  69.545  1.00  0.00    -0.060 A  
HETATM    6  C   UNL     1      -6.176   7.213  67.567  1.00  0.00    -0.046 C  
HETATM    7  C   UNL     1      -6.491   8.475  68.330  1.00  0.00    -0.055 A  
HETATM    8  C   UNL     1      -6.043   9.682  67.755  1.00  0.00    -0.052 A  
ENDROOT
BRANCH   5   9
HETATM    9  S   UNL     1      -7.902   6.986  70.215  1.00  0.00    -0.106 SA 
BRANCH   9  10
HETATM   10  C   UNL     1      -9.481   7.425  70.963  1.00  0.00    -0.157 A  
HETATM   11  C   UNL     1      -9.545   7.351  72.370  1.00  0.00    -0.192 A  
HETATM   12  C   UNL     1     -10.667   7.794  73.066  1.00  0.00    -0.446 A  
HETATM   13  C   UNL     1     -11.742   8.315  72.364  1.00  0.00    -0.463 A  
HETATM   14  C   UNL     1     -11.684   8.409  70.970  1.00  0.00    -0.296 A  
HETATM   15  C   UNL     1     -10.561   7.991  70.224  1.00  0.00    -0.231 A  
BRANCH  15  16
HETATM   16  N   UNL     1     -10.523   8.218  68.855  1.00  0.00    -0.215 NA 
HETATM   17  C   UNL     1     -10.742   9.554  68.274  1.00  0.00    -0.194 C  
HETATM   18  C   UNL     1      -9.802   9.739  67.056  1.00  0.00    -0.193 C  
HETATM   19  N   UNL     1      -9.901   8.668  66.040  1.00  0.00    -0.459 NA 
HETATM   20  C   UNL     1      -9.755   7.347  66.696  1.00  0.00    -0.194 C  
HETATM   21  H   UNL     1      -9.235   8.796  65.279  1.00  0.00     0.000 HD 
HETATM   22  C   UNL     1     -10.739   7.144  67.873  1.00  0.00    -0.192 C  
ENDBRANCH  15  16
ENDBRANCH   9  10
ENDBRANCH   5   9
TORSDOF 3
ENDMDL
MODEL      183
REMARK 921   NORMALIZED FREE ENERGY PREDICTED BY IDOCK:   -3.65 KCAL/MOL
REMARK 922        TOTAL FREE ENERGY PREDICTED BY IDOCK:   -4.98 KCAL/MOL
REMARK 923 INTER-LIGAND FREE ENERGY PREDICTED BY IDOCK:   -4.39 KCAL/MOL
REMARK 924 INTRA-LIGAND FREE ENERGY PREDICTED BY IDOCK:   -0.60 KCAL/MOL
REMARK 927      BINDING AFFINITY PREDICTED BY RF-SCORE:    0.00 PKD
ROOT
HETATM    1  C   UNL     1      -8.912  11.599  65.977  1.00  0.00    -0.149 C  
HETATM    2  C   UNL     1      -9.378  10.277  66.512  1.00  0.00    -0.200 A  
HETATM    3  C   UNL     1     -10.287  10.195  67.566  1.00  0.00    -0.279 A  
HETATM    4  C   UNL     1     -10.766   8.944  67.994  1.00  0.00    -0.168 A  
HETATM    5  C   UNL     1     -10.345   7.750  67.383  1.00  0.00    -0.284 A  
HETATM    6  C   UNL     1      -8.715   6.630  65.730  1.00  0.00    -0.126 C  
HETATM    7  C   UNL     1      -9.347   7.830  66.389  1.00  0.00    -0.237 A  
HETATM    8  C   UNL     1      -8.902   9.094  65.946  1.00  0.00    -0.209 A  
ENDROOT
BRANCH   5   9
HETATM    9  S   UNL     1     -11.016   6.150  67.856  1.00  0.00    -0.208 SA 
BRANCH   9  10
HETATM   10  C   UNL     1     -10.953   6.073  69.654  1.00  0.00    -0.400 A  
HETATM   11  C   UNL     1     -11.984   6.746  70.343  1.00  0.00    -0.343 A  
HETATM   12  C   UNL     1     -12.115   6.645  71.725  1.00  0.00    -0.400 A  
HETATM   13  C   UNL     1     -11.216   5.869  72.439  1.00  0.00    -0.340 A  
HETATM   14  C   UNL     1     -10.200   5.182  71.767  1.00  0.00    -0.271 A  
HETATM   15  C   UNL     1     -10.040   5.240  70.366  1.00  0.00    -0.254 A  
BRANCH  15  16
HETATM   16  N   UNL     1      -9.083   4.444  69.751  1.00  0.00    -0.102 NA 
HETATM   17  C   UNL     1      -9.274   2.997  69.553  1.00  0.00    -0.147 C  
HETATM   18  C   UNL     1      -8.670   2.586  68.187  1.00  0.00    -0.104 C  
HETATM   19  N   UNL     1      -7.260   2.991  67.996  1.00  0.00    -0.050 NA 
HETATM   20  C   UNL     1      -7.117   4.437  68.287  1.00  0.00    -0.060 C  
HETATM   21  H   UNL     1      -6.912   2.749  67.069  1.00  0.00     0.000 HD 
HETATM   22  C   UNL     1      -7.665   4.831  69.680  1.00  0.00    -0.059 C  
ENDBRANCH  15  16
ENDBRANCH   9  10
ENDBRANCH   5   9
TORSDOF 3
ENDMDL
MODEL      184
REMARK 921   NORMALIZED FREE ENERGY PREDICTED BY IDOCK:   -3.63 KCAL/MOL
REMARK 922        TOTAL FREE ENERGY PREDICTED BY IDOCK:   -4.96 KCAL/MOL
REMARK 923 INTER-LIGAND FREE ENERGY PREDICTED BY IDOCK:   -4.34 KCAL/MOL
REMARK 924 INTRA-LIGAND FREE ENERGY PREDICTED BY IDOCK:   -0.62 KCAL/MOL
REMARK 927      BINDING AFFINITY PREDICTED BY RF-SCORE:    0.00 PKD
ROOT
HETATM    1  C   UNL     1      -5.332  13.884  72.139  1.00  0.00    -0.210 C  
HETATM    2  C   UNL     1      -5.806  13.359  70.815  1.00  0.00    -0.148 A  
HETATM    3  C   UNL     1      -5.728  12.003  70.498  1.00  0.00    -0.159 A  
HETATM    4  C   UNL     1      -6.252  11.529  69.281  1.00  0.00    -0.079 A  
HETATM    5  C   UNL     1      -6.860  12.396  68.358  1.00  0.00    -0.080 A  
HETATM    6  C   UNL     1      -7.351  14.836  67.687  1.00  0.00    -0.206 C  
HETATM    7  C   UNL     1      -6.843  13.779  68.636  1.00  0.00    -0.102 A  
HETATM    8  C   UNL     1      -6.345  14.236  69.874  1.00  0.00    -0.150 A  
ENDROOT
BRANCH   5   9
HETATM    9  S   UNL     1      -7.618  11.793  66.842  1.00  0.00    -0.077 SA 
BRANCH   9  10
HETATM   10  C   UNL     1      -8.845  10.568  67.328  1.00  0.00    -0.136 A  
HETATM   11  C   UNL     1      -8.369   9.255  67.529  1.00  0.00    -0.119 A  
HETATM   12  C   UNL     1      -9.196   8.256  68.035  1.00  0.00    -0.142 A  
HETATM   13  C   UNL     1     -10.513   8.555  68.346  1.00  0.00    -0.215 A  
HETATM   14  C   UNL     1     -10.993   9.857  68.169  1.00  0.00    -0.261 A  
HETATM   15  C   UNL     1     -10.186  10.905  67.677  1.00  0.00    -0.183 A  
BRANCH  15  16
HETATM   16  N   UNL     1     -10.691  12.198  67.633  1.00  0.00    -0.214 NA 
HETATM   17  C   UNL     1     -10.932  12.905  66.363  1.00  0.00    -0.285 C  
HETATM   18  C   UNL     1     -12.221  13.756  66.491  1.00  0.00    -0.430 C  
HETATM   19  N   UNL     1     -12.232  14.675  67.650  1.00  0.00    -0.587 NA 
HETATM   20  C   UNL     1     -11.904  13.922  68.883  1.00  0.00    -0.358 C  
HETATM   21  H   UNL     1     -13.113  15.181  67.731  1.00  0.00     0.000 HD 
HETATM   22  C   UNL     1     -10.583  13.124  68.771  1.00  0.00    -0.201 C  
ENDBRANCH  15  16
ENDBRANCH   9  10
ENDBRANCH   5   9
TORSDOF 3
ENDMDL
MODEL      185
REMARK 921   NORMALIZED FREE ENERGY PREDICTED BY IDOCK:   -3.63 KCAL/MOL
REMARK 922        TOTAL FREE ENERGY PREDICTED BY IDOCK:   -4.96 KCAL/MOL
REMARK 923 INTER-LIGAND FREE ENERGY PREDICTED BY IDOCK:   -4.66 KCAL/MOL
REMARK 924 INTRA-LIGAND FREE ENERGY PREDICTED BY IDOCK:   -0.30 KCAL/MOL
REMARK 927      BINDING AFFINITY PREDICTED BY RF-SCORE:    0.00 PKD
ROOT
HETATM    1  C   UNL     1     -14.328   8.407  72.169  1.00  0.00    -0.520 C  
HETATM    2  C   UNL     1     -12.930   8.768  71.758  1.00  0.00    -0.404 A  
HETATM    3  C   UNL     1     -11.818   8.160  72.341  1.00  0.00    -0.448 A  
HETATM    4  C   UNL     1     -10.524   8.461  71.880  1.00  0.00    -0.366 A  
HETATM    5  C   UNL     1     -10.312   9.375  70.834  1.00  0.00    -0.310 A  
HETATM    6  C   UNL     1     -11.344  11.155  69.281  1.00  0.00    -0.349 C  
HETATM    7  C   UNL     1     -11.430  10.065  70.320  1.00  0.00    -0.372 A  
HETATM    8  C   UNL     1     -12.725   9.728  70.767  1.00  0.00    -0.251 A  
ENDROOT
BRANCH   5   9
HETATM    9  S   UNL     1      -8.672   9.701  70.171  1.00  0.00    -0.200 SA 
BRANCH   9  10
HETATM   10  C   UNL     1      -8.098   8.163  69.432  1.00  0.00    -0.116 A  
HETATM   11  C   UNL     1      -8.582   6.973  70.015  1.00  0.00    -0.141 A  
HETATM   12  C   UNL     1      -8.315   5.730  69.447  1.00  0.00    -0.112 A  
HETATM   13  C   UNL     1      -7.559   5.659  68.288  1.00  0.00    -0.081 A  
HETATM   14  C   UNL     1      -7.088   6.831  67.690  1.00  0.00    -0.085 A  
HETATM   15  C   UNL     1      -7.349   8.114  68.219  1.00  0.00    -0.095 A  
BRANCH  15  16
HETATM   16  N   UNL     1      -6.950   9.241  67.514  1.00  0.00    -0.077 NA 
HETATM   17  C   UNL     1      -7.696   9.745  66.349  1.00  0.00    -0.102 C  
HETATM   18  C   UNL     1      -7.677  11.294  66.362  1.00  0.00    -0.089 C  
HETATM   19  N   UNL     1      -6.324  11.886  66.452  1.00  0.00    -0.455 NA 
HETATM   20  C   UNL     1      -5.594  11.282  67.592  1.00  0.00    -0.047 C  
HETATM   21  H   UNL     1      -6.352  12.904  66.509  1.00  0.00     0.000 HD 
HETATM   22  C   UNL     1      -5.564   9.736  67.540  1.00  0.00    -0.036 C  
ENDBRANCH  15  16
ENDBRANCH   9  10
ENDBRANCH   5   9
TORSDOF 3
ENDMDL
MODEL      186
REMARK 921   NORMALIZED FREE ENERGY PREDICTED BY IDOCK:   -3.56 KCAL/MOL
REMARK 922        TOTAL FREE ENERGY PREDICTED BY IDOCK:   -4.87 KCAL/MOL
REMARK 923 INTER-LIGAND FREE ENERGY PREDICTED BY IDOCK:   -4.21 KCAL/MOL
REMARK 924 INTRA-LIGAND FREE ENERGY PREDICTED BY IDOCK:   -0.67 KCAL/MOL
REMARK 927      BINDING AFFINITY PREDICTED BY RF-SCORE:    0.00 PKD
ROOT
HETATM    1  C   UNL     1     -11.061   7.061  72.232  1.00  0.00    -0.287 C  
HETATM    2  C   UNL     1     -10.911   7.962  71.041  1.00  0.00    -0.262 A  
HETATM    3  C   UNL     1     -10.922   9.350  71.170  1.00  0.00    -0.430 A  
HETATM    4  C   UNL     1     -10.700  10.168  70.047  1.00  0.00    -0.356 A  
HETATM    5  C   UNL     1     -10.467   9.619  68.775  1.00  0.00    -0.215 A  
HETATM    6  C   UNL     1     -10.451   7.498  67.309  1.00  0.00    -0.391 C  
HETATM    7  C   UNL     1     -10.561   8.218  68.630  1.00  0.00    -0.144 A  
HETATM    8  C   UNL     1     -10.749   7.409  69.770  1.00  0.00    -0.252 A  
ENDROOT
BRANCH   5   9
HETATM    9  S   UNL     1     -10.090  10.647  67.348  1.00  0.00    -0.203 SA 
BRANCH   9  10
HETATM   10  C   UNL     1      -9.834  12.318  67.968  1.00  0.00    -0.204 A  
HETATM   11  C   UNL     1     -11.000  13.057  68.265  1.00  0.00    -0.285 A  
HETATM   12  C   UNL     1     -10.927  14.307  68.874  1.00  0.00    -0.275 A  
HETATM   13  C   UNL     1      -9.687  14.837  69.195  1.00  0.00    -0.149 A  
HETATM   14  C   UNL     1      -8.526  14.108  68.922  1.00  0.00     0.002 A  
HETATM   15  C   UNL     1      -8.552  12.830  68.322  1.00  0.00    -0.166 A  
BRANCH  15  16
HETATM   16  N   UNL     1      -7.371  12.112  68.184  1.00  0.00    -0.094 NA 
HETATM   17  C   UNL     1      -6.939  11.113  69.176  1.00  0.00    -0.108 C  
HETATM   18  C   UNL     1      -6.268   9.924  68.441  1.00  0.00    -0.050 C  
HETATM   19  N   UNL     1      -5.171  10.313  67.529  1.00  0.00    -0.040 NA 
HETATM   20  C   UNL     1      -5.642  11.376  66.611  1.00  0.00    -0.138 C  
HETATM   21  H   UNL     1      -4.787   9.513  67.026  1.00  0.00     0.000 HD 
HETATM   22  C   UNL     1      -6.254  12.588  67.353  1.00  0.00    -0.158 C  
ENDBRANCH  15  16
ENDBRANCH   9  10
ENDBRANCH   5   9
TORSDOF 3
ENDMDL
MODEL      187
REMARK 921   NORMALIZED FREE ENERGY PREDICTED BY IDOCK:   -3.55 KCAL/MOL
REMARK 922        TOTAL FREE ENERGY PREDICTED BY IDOCK:   -4.86 KCAL/MOL
REMARK 923 INTER-LIGAND FREE ENERGY PREDICTED BY IDOCK:   -4.07 KCAL/MOL
REMARK 924 INTRA-LIGAND FREE ENERGY PREDICTED BY IDOCK:   -0.79 KCAL/MOL
REMARK 927      BINDING AFFINITY PREDICTED BY RF-SCORE:    0.00 PKD
ROOT
HETATM    1  C   UNL     1     -11.048   8.124  72.681  1.00  0.00    -0.450 C  
HETATM    2  C   UNL     1     -10.954   8.601  71.261  1.00  0.00    -0.333 A  
HETATM    3  C   UNL     1     -11.097   9.949  70.932  1.00  0.00    -0.418 A  
HETATM    4  C   UNL     1     -10.925  10.375  69.603  1.00  0.00    -0.325 A  
HETATM    5  C   UNL     1     -10.611   9.469  68.577  1.00  0.00    -0.212 A  
HETATM    6  C   UNL     1     -10.362   7.000  67.879  1.00  0.00    -0.247 C  
HETATM    7  C   UNL     1     -10.571   8.095  68.895  1.00  0.00    -0.161 A  
HETATM    8  C   UNL     1     -10.711   7.685  70.238  1.00  0.00    -0.244 A  
ENDROOT
BRANCH   5   9
HETATM    9  S   UNL     1     -10.297  10.010  66.891  1.00  0.00    -0.220 SA 
BRANCH   9  10
HETATM   10  C   UNL     1      -9.204  11.438  67.001  1.00  0.00    -0.169 A  
HETATM   11  C   UNL     1      -9.832  12.693  67.143  1.00  0.00    -0.212 A  
HETATM   12  C   UNL     1      -9.091  13.850  67.372  1.00  0.00    -0.217 A  
HETATM   13  C   UNL     1      -7.711  13.767  67.461  1.00  0.00    -0.187 A  
HETATM   14  C   UNL     1      -7.077  12.527  67.340  1.00  0.00    -0.146 A  
HETATM   15  C   UNL     1      -7.788  11.326  67.126  1.00  0.00    -0.151 A  
BRANCH  15  16
HETATM   16  N   UNL     1      -7.108  10.116  67.130  1.00  0.00    -0.088 NA 
HETATM   17  C   UNL     1      -6.772   9.407  68.377  1.00  0.00    -0.058 C  
HETATM   18  C   UNL     1      -6.920   7.881  68.151  1.00  0.00    -0.073 C  
HETATM   19  N   UNL     1      -6.160   7.360  66.993  1.00  0.00    -0.044 NA 
HETATM   20  C   UNL     1      -6.478   8.163  65.789  1.00  0.00    -0.052 C  
HETATM   21  H   UNL     1      -6.320   6.364  66.845  1.00  0.00     0.000 HD 
HETATM   22  C   UNL     1      -6.269   9.681  66.002  1.00  0.00    -0.065 C  
ENDBRANCH  15  16
ENDBRANCH   9  10
ENDBRANCH   5   9
TORSDOF 3
ENDMDL
MODEL      188
REMARK 921   NORMALIZED FREE ENERGY PREDICTED BY IDOCK:   -3.53 KCAL/MOL
REMARK 922        TOTAL FREE ENERGY PREDICTED BY IDOCK:   -4.85 KCAL/MOL
REMARK 923 INTER-LIGAND FREE ENERGY PREDICTED BY IDOCK:   -4.48 KCAL/MOL
REMARK 924 INTRA-LIGAND FREE ENERGY PREDICTED BY IDOCK:   -0.37 KCAL/MOL
REMARK 927      BINDING AFFINITY PREDICTED BY RF-SCORE:    0.00 PKD
ROOT
HETATM    1  C   UNL     1     -12.527  13.938  65.560  1.00  0.00    -0.541 C  
HETATM    2  C   UNL     1     -11.319  13.064  65.727  1.00  0.00    -0.331 A  
HETATM    3  C   UNL     1     -10.584  13.052  66.912  1.00  0.00    -0.260 A  
HETATM    4  C   UNL     1      -9.504  12.164  67.067  1.00  0.00    -0.201 A  
HETATM    5  C   UNL     1      -9.133  11.276  66.044  1.00  0.00    -0.209 A  
HETATM    6  C   UNL     1      -9.446  10.560  63.588  1.00  0.00    -0.347 C  
HETATM    7  C   UNL     1      -9.811  11.364  64.810  1.00  0.00    -0.302 A  
HETATM    8  C   UNL     1     -10.914  12.235  64.681  1.00  0.00    -0.349 A  
ENDROOT
BRANCH   5   9
HETATM    9  S   UNL     1      -7.814  10.071  66.261  1.00  0.00    -0.115 SA 
BRANCH   9  10
HETATM   10  C   UNL     1      -8.592   8.447  66.261  1.00  0.00    -0.135 A  
HETATM   11  C   UNL     1      -8.201   7.569  65.229  1.00  0.00    -0.130 A  
HETATM   12  C   UNL     1      -8.632   6.245  65.204  1.00  0.00    -0.030 A  
HETATM   13  C   UNL     1      -9.462   5.781  66.211  1.00  0.00    -0.166 A  
HETATM   14  C   UNL     1      -9.844   6.635  67.250  1.00  0.00    -0.184 A  
HETATM   15  C   UNL     1      -9.417   7.979  67.326  1.00  0.00    -0.155 A  
BRANCH  15  16
HETATM   16  N   UNL     1      -9.738   8.739  68.443  1.00  0.00    -0.158 NA 
HETATM   17  C   UNL     1     -11.013   9.469  68.556  1.00  0.00    -0.065 C  
HETATM   18  C   UNL     1     -11.509   9.401  70.022  1.00  0.00    -0.077 C  
HETATM   19  N   UNL     1     -10.519   9.855  71.023  1.00  0.00    -0.313 NA 
HETATM   20  C   UNL     1      -9.236   9.146  70.807  1.00  0.00    -0.262 C  
HETATM   21  H   UNL     1     -10.860   9.750  71.978  1.00  0.00     0.000 HD 
HETATM   22  C   UNL     1      -8.713   9.269  69.356  1.00  0.00    -0.148 C  
ENDBRANCH  15  16
ENDBRANCH   9  10
ENDBRANCH   5   9
TORSDOF 3
ENDMDL
MODEL      189
REMARK 921   NORMALIZED FREE ENERGY PREDICTED BY IDOCK:   -3.53 KCAL/MOL
REMARK 922        TOTAL FREE ENERGY PREDICTED BY IDOCK:   -4.84 KCAL/MOL
REMARK 923 INTER-LIGAND FREE ENERGY PREDICTED BY IDOCK:   -4.37 KCAL/MOL
REMARK 924 INTRA-LIGAND FREE ENERGY PREDICTED BY IDOCK:   -0.47 KCAL/MOL
REMARK 927      BINDING AFFINITY PREDICTED BY RF-SCORE:    0.00 PKD
ROOT
HETATM    1  C   UNL     1     -12.904   9.336  72.166  1.00  0.00    -0.485 C  
HETATM    2  C   UNL     1     -12.199   9.890  70.963  1.00  0.00    -0.446 A  
HETATM    3  C   UNL     1     -11.364   9.097  70.176  1.00  0.00    -0.164 A  
HETATM    4  C   UNL     1     -10.780   9.623  69.010  1.00  0.00    -0.232 A  
HETATM    5  C   UNL     1     -11.013  10.949  68.607  1.00  0.00    -0.227 A  
HETATM    6  C   UNL     1     -12.007  13.247  69.218  1.00  0.00    -0.354 C  
HETATM    7  C   UNL     1     -11.773  11.777  69.459  1.00  0.00    -0.408 A  
HETATM    8  C   UNL     1     -12.381  11.227  70.608  1.00  0.00    -0.477 A  
ENDROOT
BRANCH   5   9
HETATM    9  S   UNL     1     -10.349  11.608  67.071  1.00  0.00    -0.223 SA 
BRANCH   9  10
HETATM   10  C   UNL     1      -8.656  12.118  67.415  1.00  0.00    -0.175 A  
HETATM   11  C   UNL     1      -8.500  13.173  68.339  1.00  0.00    -0.126 A  
HETATM   12  C   UNL     1      -7.239  13.563  68.784  1.00  0.00    -0.096 A  
HETATM   13  C   UNL     1      -6.117  12.903  68.311  1.00  0.00    -0.082 A  
HETATM   14  C   UNL     1      -6.259  11.844  67.409  1.00  0.00    -0.125 A  
HETATM   15  C   UNL     1      -7.517  11.403  66.944  1.00  0.00    -0.147 A  
BRANCH  15  16
HETATM   16  N   UNL     1      -7.594  10.274  66.140  1.00  0.00    -0.118 NA 
HETATM   17  C   UNL     1      -8.257  10.290  64.824  1.00  0.00    -0.163 C  
HETATM   18  C   UNL     1      -7.466   9.389  63.844  1.00  0.00    -0.116 C  
HETATM   19  N   UNL     1      -7.235   8.012  64.333  1.00  0.00    -0.081 NA 
HETATM   20  C   UNL     1      -6.643   8.060  65.690  1.00  0.00    -0.042 C  
HETATM   21  H   UNL     1      -6.670   7.463  63.685  1.00  0.00     0.000 HD 
HETATM   22  C   UNL     1      -7.472   8.911  66.682  1.00  0.00    -0.086 C  
ENDBRANCH  15  16
ENDBRANCH   9  10
ENDBRANCH   5   9
TORSDOF 3
ENDMDL
MODEL      190
REMARK 921   NORMALIZED FREE ENERGY PREDICTED BY IDOCK:   -3.49 KCAL/MOL
REMARK 922        TOTAL FREE ENERGY PREDICTED BY IDOCK:   -4.79 KCAL/MOL
REMARK 923 INTER-LIGAND FREE ENERGY PREDICTED BY IDOCK:   -4.27 KCAL/MOL
REMARK 924 INTRA-LIGAND FREE ENERGY PREDICTED BY IDOCK:   -0.53 KCAL/MOL
REMARK 927      BINDING AFFINITY PREDICTED BY RF-SCORE:    0.00 PKD
ROOT
HETATM    1  C   UNL     1      -6.154  13.975  68.349  1.00  0.00    -0.100 C  
HETATM    2  C   UNL     1      -7.259  12.966  68.227  1.00  0.00    -0.112 A  
HETATM    3  C   UNL     1      -7.375  11.899  69.118  1.00  0.00     0.022 A  
HETATM    4  C   UNL     1      -8.466  11.016  69.025  1.00  0.00    -0.082 A  
HETATM    5  C   UNL     1      -9.457  11.175  68.043  1.00  0.00    -0.174 A  
HETATM    6  C   UNL     1     -10.198  12.406  65.903  1.00  0.00    -0.273 C  
HETATM    7  C   UNL     1      -9.281  12.191  67.080  1.00  0.00    -0.193 A  
HETATM    8  C   UNL     1      -8.201  13.091  67.206  1.00  0.00    -0.174 A  
ENDROOT
BRANCH   5   9
HETATM    9  S   UNL     1     -10.905  10.110  67.970  1.00  0.00    -0.262 SA 
BRANCH   9  10
HETATM   10  C   UNL     1     -11.269   9.614  69.663  1.00  0.00    -0.141 A  
HETATM   11  C   UNL     1     -12.173  10.434  70.371  1.00  0.00    -0.389 A  
HETATM   12  C   UNL     1     -12.632  10.078  71.637  1.00  0.00    -0.524 A  
HETATM   13  C   UNL     1     -12.193   8.897  72.212  1.00  0.00    -0.413 A  
HETATM   14  C   UNL     1     -11.311   8.067  71.514  1.00  0.00    -0.299 A  
HETATM   15  C   UNL     1     -10.834   8.377  70.223  1.00  0.00    -0.239 A  
BRANCH  15  16
HETATM   16  N   UNL     1     -10.052   7.456  69.540  1.00  0.00    -0.183 NA 
HETATM   17  C   UNL     1      -8.589   7.592  69.433  1.00  0.00    -0.133 C  
HETATM   18  C   UNL     1      -7.940   6.188  69.516  1.00  0.00    -0.107 C  
HETATM   19  N   UNL     1      -8.478   5.208  68.548  1.00  0.00    -0.089 NA 
HETATM   20  C   UNL     1      -9.956   5.175  68.646  1.00  0.00    -0.158 C  
HETATM   21  H   UNL     1      -8.064   4.284  68.664  1.00  0.00     0.000 HD 
HETATM   22  C   UNL     1     -10.603   6.573  68.499  1.00  0.00    -0.244 C  
ENDBRANCH  15  16
ENDBRANCH   9  10
ENDBRANCH   5   9
TORSDOF 3
ENDMDL
MODEL      191
REMARK 921   NORMALIZED FREE ENERGY PREDICTED BY IDOCK:   -3.47 KCAL/MOL
REMARK 922        TOTAL FREE ENERGY PREDICTED BY IDOCK:   -4.77 KCAL/MOL
REMARK 923 INTER-LIGAND FREE ENERGY PREDICTED BY IDOCK:   -4.16 KCAL/MOL
REMARK 924 INTRA-LIGAND FREE ENERGY PREDICTED BY IDOCK:   -0.61 KCAL/MOL
REMARK 927      BINDING AFFINITY PREDICTED BY RF-SCORE:    0.00 PKD
ROOT
HETATM    1  C   UNL     1      -5.357   9.712  68.606  1.00  0.00    -0.036 C  
HETATM    2  C   UNL     1      -6.171  10.953  68.385  1.00  0.00    -0.046 A  
HETATM    3  C   UNL     1      -5.925  12.125  69.100  1.00  0.00    -0.075 A  
HETATM    4  C   UNL     1      -6.653  13.295  68.815  1.00  0.00    -0.099 A  
HETATM    5  C   UNL     1      -7.640  13.319  67.816  1.00  0.00    -0.161 A  
HETATM    6  C   UNL     1      -9.071  11.954  66.161  1.00  0.00    -0.162 C  
HETATM    7  C   UNL     1      -7.958  12.107  67.168  1.00  0.00    -0.170 A  
HETATM    8  C   UNL     1      -7.197  10.950  67.439  1.00  0.00    -0.094 A  
ENDROOT
BRANCH   5   9
HETATM    9  S   UNL     1      -8.513  14.829  67.375  1.00  0.00    -0.215 SA 
BRANCH   9  10
HETATM   10  C   UNL     1      -9.934  14.944  68.475  1.00  0.00    -0.223 A  
HETATM   11  C   UNL     1      -9.653  15.232  69.828  1.00  0.00    -0.140 A  
HETATM   12  C   UNL     1     -10.675  15.477  70.741  1.00  0.00    -0.206 A  
HETATM   13  C   UNL     1     -11.993  15.436  70.316  1.00  0.00    -0.386 A  
HETATM   14  C   UNL     1     -12.285  15.169  68.975  1.00  0.00    -0.158 A  
HETATM   15  C   UNL     1     -11.282  14.932  68.010  1.00  0.00    -0.308 A  
BRANCH  15  16
HETATM   16  N   UNL     1     -11.635  14.787  66.675  1.00  0.00    -0.345 NA 
HETATM   17  C   UNL     1     -11.401  15.848  65.680  1.00  0.00     0.128 C  
HETATM   18  C   UNL     1     -10.988  15.202  64.334  1.00  0.00    -0.023 C  
HETATM   19  N   UNL     1     -11.928  14.173  63.838  1.00  0.00    -0.692 NA 
HETATM   20  C   UNL     1     -12.186  13.180  64.908  1.00  0.00    -0.428 C  
HETATM   21  H   UNL     1     -11.599  13.734  62.978  1.00  0.00     0.000 HD 
HETATM   22  C   UNL     1     -12.658  13.827  66.232  1.00  0.00    -0.321 C  
ENDBRANCH  15  16
ENDBRANCH   9  10
ENDBRANCH   5   9
TORSDOF 3
ENDMDL
MODEL      192
REMARK 921   NORMALIZED FREE ENERGY PREDICTED BY IDOCK:   -3.46 KCAL/MOL
REMARK 922        TOTAL FREE ENERGY PREDICTED BY IDOCK:   -4.76 KCAL/MOL
REMARK 923 INTER-LIGAND FREE ENERGY PREDICTED BY IDOCK:   -5.15 KCAL/MOL
REMARK 924 INTRA-LIGAND FREE ENERGY PREDICTED BY IDOCK:    0.39 KCAL/MOL
REMARK 927      BINDING AFFINITY PREDICTED BY RF-SCORE:    0.00 PKD
ROOT
HETATM    1  C   UNL     1      -8.668   4.487  71.376  1.00  0.00    -0.140 C  
HETATM    2  C   UNL     1      -9.237   5.858  71.155  1.00  0.00    -0.163 A  
HETATM    3  C   UNL     1      -8.418   6.956  70.897  1.00  0.00    -0.135 A  
HETATM    4  C   UNL     1      -8.985   8.212  70.615  1.00  0.00    -0.153 A  
HETATM    5  C   UNL     1     -10.377   8.399  70.589  1.00  0.00    -0.197 A  
HETATM    6  C   UNL     1     -12.699   7.395  71.083  1.00  0.00    -0.318 C  
HETATM    7  C   UNL     1     -11.199   7.312  70.953  1.00  0.00    -0.298 A  
HETATM    8  C   UNL     1     -10.618   6.050  71.199  1.00  0.00    -0.303 A  
ENDROOT
BRANCH   5   9
HETATM    9  S   UNL     1     -11.119   9.975  70.140  1.00  0.00    -0.330 SA 
BRANCH   9  10
HETATM   10  C   UNL     1     -10.594  10.332  68.454  1.00  0.00    -0.216 A  
HETATM   11  C   UNL     1     -10.422   9.217  67.607  1.00  0.00    -0.323 A  
HETATM   12  C   UNL     1     -10.150   9.375  66.250  1.00  0.00    -0.328 A  
HETATM   13  C   UNL     1     -10.046  10.652  65.722  1.00  0.00    -0.327 A  
HETATM   14  C   UNL     1     -10.232  11.765  66.546  1.00  0.00    -0.240 A  
HETATM   15  C   UNL     1     -10.527  11.653  67.923  1.00  0.00    -0.192 A  
BRANCH  15  16
HETATM   16  N   UNL     1     -10.813  12.795  68.659  1.00  0.00    -0.249 NA 
HETATM   17  C   UNL     1     -10.025  14.032  68.527  1.00  0.00    -0.230 C  
HETATM   18  C   UNL     1     -10.973  15.253  68.636  1.00  0.00    -0.257 C  
HETATM   19  N   UNL     1     -11.821  15.261  69.848  1.00  0.00    -0.313 NA 
HETATM   20  C   UNL     1     -12.524  13.963  69.969  1.00  0.00    -0.266 C  
HETATM   21  H   UNL     1     -12.466  16.051  69.861  1.00  0.00     0.000 HD 
HETATM   22  C   UNL     1     -11.566  12.749  69.922  1.00  0.00    -0.173 C  
ENDBRANCH  15  16
ENDBRANCH   9  10
ENDBRANCH   5   9
TORSDOF 3
ENDMDL
MODEL      193
REMARK 921   NORMALIZED FREE ENERGY PREDICTED BY IDOCK:   -3.44 KCAL/MOL
REMARK 922        TOTAL FREE ENERGY PREDICTED BY IDOCK:   -4.74 KCAL/MOL
REMARK 923 INTER-LIGAND FREE ENERGY PREDICTED BY IDOCK:   -5.32 KCAL/MOL
REMARK 924 INTRA-LIGAND FREE ENERGY PREDICTED BY IDOCK:    0.58 KCAL/MOL
REMARK 927      BINDING AFFINITY PREDICTED BY RF-SCORE:    0.00 PKD
ROOT
HETATM    1  C   UNL     1      -9.738  17.969  68.332  1.00  0.00    -0.348 C  
HETATM    2  C   UNL     1      -9.865  16.487  68.136  1.00  0.00    -0.244 A  
HETATM    3  C   UNL     1      -8.956  15.594  68.702  1.00  0.00    -0.202 A  
HETATM    4  C   UNL     1      -9.146  14.207  68.566  1.00  0.00    -0.176 A  
HETATM    5  C   UNL     1     -10.243  13.683  67.861  1.00  0.00    -0.250 A  
HETATM    6  C   UNL     1     -12.247  14.170  66.314  1.00  0.00    -0.474 C  
HETATM    7  C   UNL     1     -11.101  14.588  67.202  1.00  0.00    -0.325 A  
HETATM    8  C   UNL     1     -10.918  15.976  67.375  1.00  0.00    -0.237 A  
ENDROOT
BRANCH   5   9
HETATM    9  S   UNL     1     -10.551  11.914  67.757  1.00  0.00    -0.211 SA 
BRANCH   9  10
HETATM   10  C   UNL     1      -9.185  11.100  68.602  1.00  0.00    -0.171 A  
HETATM   11  C   UNL     1      -7.896  11.609  68.335  1.00  0.00    -0.137 A  
HETATM   12  C   UNL     1      -6.780  11.150  69.030  1.00  0.00    -0.085 A  
HETATM   13  C   UNL     1      -6.937  10.174  70.001  1.00  0.00    -0.145 A  
HETATM   14  C   UNL     1      -8.210   9.674  70.288  1.00  0.00    -0.217 A  
HETATM   15  C   UNL     1      -9.372  10.122  69.623  1.00  0.00    -0.190 A  
BRANCH  15  16
HETATM   16  N   UNL     1     -10.618   9.668  70.035  1.00  0.00    -0.240 NA 
HETATM   17  C   UNL     1     -11.034   8.264  69.875  1.00  0.00    -0.166 C  
HETATM   18  C   UNL     1     -11.873   7.839  71.106  1.00  0.00    -0.291 C  
HETATM   19  N   UNL     1     -13.018   8.727  71.402  1.00  0.00    -0.443 NA 
HETATM   20  C   UNL     1     -12.550  10.132  71.470  1.00  0.00    -0.434 C  
HETATM   21  H   UNL     1     -13.516   8.446  72.246  1.00  0.00     0.000 HD 
HETATM   22  C   UNL     1     -11.767  10.570  70.209  1.00  0.00    -0.332 C  
ENDBRANCH  15  16
ENDBRANCH   9  10
ENDBRANCH   5   9
TORSDOF 3
ENDMDL
MODEL      194
REMARK 921   NORMALIZED FREE ENERGY PREDICTED BY IDOCK:   -3.40 KCAL/MOL
REMARK 922        TOTAL FREE ENERGY PREDICTED BY IDOCK:   -4.69 KCAL/MOL
REMARK 923 INTER-LIGAND FREE ENERGY PREDICTED BY IDOCK:   -4.04 KCAL/MOL
REMARK 924 INTRA-LIGAND FREE ENERGY PREDICTED BY IDOCK:   -0.65 KCAL/MOL
REMARK 927      BINDING AFFINITY PREDICTED BY RF-SCORE:    0.00 PKD
ROOT
HETATM    1  C   UNL     1      -7.712   5.133  64.864  1.00  0.00    -0.085 C  
HETATM    2  C   UNL     1      -8.085   6.559  65.145  1.00  0.00    -0.133 A  
HETATM    3  C   UNL     1      -8.102   7.521  64.136  1.00  0.00    -0.055 A  
HETATM    4  C   UNL     1      -8.533   8.831  64.413  1.00  0.00    -0.146 A  
HETATM    5  C   UNL     1      -8.951   9.208  65.701  1.00  0.00    -0.203 A  
HETATM    6  C   UNL     1      -9.131   8.558  68.189  1.00  0.00    -0.138 C  
HETATM    7  C   UNL     1      -8.833   8.262  66.740  1.00  0.00    -0.158 A  
HETATM    8  C   UNL     1      -8.432   6.942  66.441  1.00  0.00    -0.130 A  
ENDROOT
BRANCH   5   9
HETATM    9  S   UNL     1      -9.592  10.852  66.051  1.00  0.00    -0.220 SA 
BRANCH   9  10
HETATM   10  C   UNL     1      -8.290  11.739  66.925  1.00  0.00    -0.170 A  
HETATM   11  C   UNL     1      -6.987  11.212  66.802  1.00  0.00    -0.137 A  
HETATM   12  C   UNL     1      -5.884  11.885  67.321  1.00  0.00    -0.130 A  
HETATM   13  C   UNL     1      -6.068  13.095  67.970  1.00  0.00    -0.118 A  
HETATM   14  C   UNL     1      -7.352  13.638  68.083  1.00  0.00    -0.121 A  
HETATM   15  C   UNL     1      -8.497  13.000  67.557  1.00  0.00    -0.190 A  
BRANCH  15  16
HETATM   16  N   UNL     1      -9.725  13.647  67.603  1.00  0.00    -0.222 NA 
HETATM   17  C   UNL     1     -10.139  14.620  66.577  1.00  0.00    -0.279 C  
HETATM   18  C   UNL     1     -11.656  14.458  66.306  1.00  0.00    -0.372 C  
HETATM   19  N   UNL     1     -12.503  14.533  67.516  1.00  0.00    -0.505 NA 
HETATM   20  C   UNL     1     -11.989  13.592  68.540  1.00  0.00    -0.361 C  
HETATM   21  H   UNL     1     -13.488  14.373  67.307  1.00  0.00     0.000 HD 
HETATM   22  C   UNL     1     -10.488  13.800  68.852  1.00  0.00    -0.169 C  
ENDBRANCH  15  16
ENDBRANCH   9  10
ENDBRANCH   5   9
TORSDOF 3
ENDMDL
MODEL      195
REMARK 921   NORMALIZED FREE ENERGY PREDICTED BY IDOCK:   -3.37 KCAL/MOL
REMARK 922        TOTAL FREE ENERGY PREDICTED BY IDOCK:   -4.66 KCAL/MOL
REMARK 923 INTER-LIGAND FREE ENERGY PREDICTED BY IDOCK:   -4.01 KCAL/MOL
REMARK 924 INTRA-LIGAND FREE ENERGY PREDICTED BY IDOCK:   -0.64 KCAL/MOL
REMARK 927      BINDING AFFINITY PREDICTED BY RF-SCORE:    0.00 PKD
ROOT
HETATM    1  C   UNL     1      -6.710  11.760  69.813  1.00  0.00     0.015 C  
HETATM    2  C   UNL     1      -7.334  12.826  68.960  1.00  0.00     0.056 A  
HETATM    3  C   UNL     1      -6.987  14.170  69.101  1.00  0.00    -0.111 A  
HETATM    4  C   UNL     1      -7.529  15.136  68.235  1.00  0.00    -0.109 A  
HETATM    5  C   UNL     1      -8.430  14.784  67.215  1.00  0.00    -0.214 A  
HETATM    6  C   UNL     1      -9.905  12.941  66.180  1.00  0.00    -0.270 C  
HETATM    7  C   UNL     1      -8.858  13.442  67.143  1.00  0.00    -0.225 A  
HETATM    8  C   UNL     1      -8.280  12.478  67.996  1.00  0.00    -0.166 A  
ENDROOT
BRANCH   5   9
HETATM    9  S   UNL     1      -9.060  15.992  66.041  1.00  0.00    -0.269 SA 
BRANCH   9  10
HETATM   10  C   UNL     1      -9.323  17.518  66.961  1.00  0.00    -0.259 A  
HETATM   11  C   UNL     1      -8.754  18.685  66.406  1.00  0.00    -0.286 A  
HETATM   12  C   UNL     1      -9.003  19.940  66.955  1.00  0.00    -0.434 A  
HETATM   13  C   UNL     1      -9.824  20.047  68.066  1.00  0.00    -0.522 A  
HETATM   14  C   UNL     1     -10.408  18.902  68.614  1.00  0.00    -0.267 A  
HETATM   15  C   UNL     1     -10.199  17.611  68.081  1.00  0.00    -0.371 A  
BRANCH  15  16
HETATM   16  N   UNL     1     -10.899  16.531  68.603  1.00  0.00    -0.329 NA 
HETATM   17  C   UNL     1     -12.102  15.986  67.951  1.00  0.00     0.652 C  
HETATM   18  C   UNL     1     -12.106  14.444  68.099  1.00  0.00    -0.223 C  
HETATM   19  N   UNL     1     -11.964  13.964  69.492  1.00  0.00    -0.325 NA 
HETATM   20  C   UNL     1     -10.786  14.609  70.119  1.00  0.00    -0.009 C  
HETATM   21  H   UNL     1     -11.921  12.947  69.546  1.00  0.00     0.000 HD 
HETATM   22  C   UNL     1     -10.819  16.153  70.023  1.00  0.00    -0.349 C  
ENDBRANCH  15  16
ENDBRANCH   9  10
ENDBRANCH   5   9
TORSDOF 3
ENDMDL
MODEL      196
REMARK 921   NORMALIZED FREE ENERGY PREDICTED BY IDOCK:   -3.37 KCAL/MOL
REMARK 922        TOTAL FREE ENERGY PREDICTED BY IDOCK:   -4.65 KCAL/MOL
REMARK 923 INTER-LIGAND FREE ENERGY PREDICTED BY IDOCK:   -3.97 KCAL/MOL
REMARK 924 INTRA-LIGAND FREE ENERGY PREDICTED BY IDOCK:   -0.68 KCAL/MOL
REMARK 927      BINDING AFFINITY PREDICTED BY RF-SCORE:    0.00 PKD
ROOT
HETATM    1  C   UNL     1     -12.949   8.660  72.279  1.00  0.00    -0.430 C  
HETATM    2  C   UNL     1     -11.718   8.237  71.533  1.00  0.00    -0.337 A  
HETATM    3  C   UNL     1     -11.694   7.074  70.764  1.00  0.00    -0.394 A  
HETATM    4  C   UNL     1     -10.551   6.745  70.012  1.00  0.00    -0.256 A  
HETATM    5  C   UNL     1      -9.411   7.565  70.014  1.00  0.00    -0.161 A  
HETATM    6  C   UNL     1      -8.208   9.587  71.070  1.00  0.00     0.135 C  
HETATM    7  C   UNL     1      -9.401   8.684  70.874  1.00  0.00    -0.235 A  
HETATM    8  C   UNL     1     -10.566   9.021  71.595  1.00  0.00    -0.434 A  
ENDROOT
BRANCH   5   9
HETATM    9  S   UNL     1      -7.978   7.208  68.987  1.00  0.00    -0.121 SA 
BRANCH   9  10
HETATM   10  C   UNL     1      -8.535   6.083  67.696  1.00  0.00    -0.107 A  
HETATM   11  C   UNL     1      -8.579   4.715  68.039  1.00  0.00    -0.107 A  
HETATM   12  C   UNL     1      -9.118   3.770  67.170  1.00  0.00    -0.178 A  
HETATM   13  C   UNL     1      -9.620   4.179  65.945  1.00  0.00    -0.193 A  
HETATM   14  C   UNL     1      -9.599   5.534  65.600  1.00  0.00     0.028 A  
HETATM   15  C   UNL     1      -9.079   6.529  66.456  1.00  0.00    -0.152 A  
BRANCH  15  16
HETATM   16  N   UNL     1      -9.192   7.867  66.101  1.00  0.00    -0.178 NA 
HETATM   17  C   UNL     1     -10.271   8.728  66.617  1.00  0.00    -0.270 C  
HETATM   18  C   UNL     1      -9.708  10.148  66.874  1.00  0.00    -0.187 C  
HETATM   19  N   UNL     1      -9.023  10.753  65.710  1.00  0.00    -0.181 NA 
HETATM   20  C   UNL     1      -8.009   9.808  65.187  1.00  0.00    -0.129 C  
HETATM   21  H   UNL     1      -8.623  11.665  65.930  1.00  0.00     0.000 HD 
HETATM   22  C   UNL     1      -8.589   8.409  64.873  1.00  0.00    -0.080 C  
ENDBRANCH  15  16
ENDBRANCH   9  10
ENDBRANCH   5   9
TORSDOF 3
ENDMDL
MODEL      197
REMARK 921   NORMALIZED FREE ENERGY PREDICTED BY IDOCK:   -3.33 KCAL/MOL
REMARK 922        TOTAL FREE ENERGY PREDICTED BY IDOCK:   -4.60 KCAL/MOL
REMARK 923 INTER-LIGAND FREE ENERGY PREDICTED BY IDOCK:   -4.00 KCAL/MOL
REMARK 924 INTRA-LIGAND FREE ENERGY PREDICTED BY IDOCK:   -0.61 KCAL/MOL
REMARK 927      BINDING AFFINITY PREDICTED BY RF-SCORE:    0.00 PKD
ROOT
HETATM    1  C   UNL     1     -11.337   7.820  72.201  1.00  0.00    -0.353 C  
HETATM    2  C   UNL     1     -11.448   8.828  71.094  1.00  0.00    -0.344 A  
HETATM    3  C   UNL     1     -11.952  10.108  71.320  1.00  0.00    -0.473 A  
HETATM    4  C   UNL     1     -11.969  11.056  70.281  1.00  0.00    -0.452 A  
HETATM    5  C   UNL     1     -11.489  10.746  68.998  1.00  0.00    -0.298 A  
HETATM    6  C   UNL     1     -10.650   8.913  67.392  1.00  0.00    -0.305 C  
HETATM    7  C   UNL     1     -11.077   9.420  68.746  1.00  0.00     0.009 A  
HETATM    8  C   UNL     1     -11.033   8.490  69.806  1.00  0.00    -0.131 A  
ENDROOT
BRANCH   5   9
HETATM    9  S   UNL     1     -11.418  11.974  67.685  1.00  0.00    -0.321 SA 
BRANCH   9  10
HETATM   10  C   UNL     1      -9.821  12.794  67.829  1.00  0.00    -0.220 A  
HETATM   11  C   UNL     1      -8.747  12.192  67.138  1.00  0.00    -0.190 A  
HETATM   12  C   UNL     1      -7.500  12.807  67.066  1.00  0.00     0.061 A  
HETATM   13  C   UNL     1      -7.308  14.032  67.685  1.00  0.00    -0.188 A  
HETATM   14  C   UNL     1      -8.368  14.647  68.358  1.00  0.00    -0.157 A  
HETATM   15  C   UNL     1      -9.654  14.070  68.442  1.00  0.00    -0.222 A  
BRANCH  15  16
HETATM   16  N   UNL     1     -10.690  14.786  69.026  1.00  0.00    -0.243 NA 
HETATM   17  C   UNL     1     -11.794  15.358  68.235  1.00  0.00    -0.206 C  
HETATM   18  C   UNL     1     -13.113  15.231  69.037  1.00  0.00     1.374 C  
HETATM   19  N   UNL     1     -13.055  15.800  70.401  1.00  0.00    -0.743 NA 
HETATM   20  C   UNL     1     -11.880  15.250  71.118  1.00  0.00    -0.348 C  
HETATM   21  H   UNL     1     -13.922  15.655  70.917  1.00  0.00     0.000 HD 
HETATM   22  C   UNL     1     -10.556  15.435  70.339  1.00  0.00    -0.248 C  
ENDBRANCH  15  16
ENDBRANCH   9  10
ENDBRANCH   5   9
TORSDOF 3
ENDMDL
MODEL      198
REMARK 921   NORMALIZED FREE ENERGY PREDICTED BY IDOCK:   -3.31 KCAL/MOL
REMARK 922        TOTAL FREE ENERGY PREDICTED BY IDOCK:   -4.59 KCAL/MOL
REMARK 923 INTER-LIGAND FREE ENERGY PREDICTED BY IDOCK:   -4.55 KCAL/MOL
REMARK 924 INTRA-LIGAND FREE ENERGY PREDICTED BY IDOCK:   -0.03 KCAL/MOL
REMARK 927      BINDING AFFINITY PREDICTED BY RF-SCORE:    0.00 PKD
ROOT
HETATM    1  C   UNL     1     -11.968  16.249  72.140  1.00  0.00    -0.575 C  
HETATM    2  C   UNL     1     -12.024  15.508  70.836  1.00  0.00    -0.420 A  
HETATM    3  C   UNL     1     -11.918  16.170  69.614  1.00  0.00    -0.070 A  
HETATM    4  C   UNL     1     -11.895  15.440  68.412  1.00  0.00    -0.264 A  
HETATM    5  C   UNL     1     -11.981  14.038  68.404  1.00  0.00    -0.343 A  
HETATM    6  C   UNL     1     -12.421  11.894  69.767  1.00  0.00    -0.011 C  
HETATM    7  C   UNL     1     -12.194  13.379  69.634  1.00  0.00    -0.279 A  
HETATM    8  C   UNL     1     -12.180  14.121  70.834  1.00  0.00    -0.434 A  
ENDROOT
BRANCH   5   9
HETATM    9  S   UNL     1     -11.859  13.084  66.884  1.00  0.00    -0.358 SA 
BRANCH   9  10
HETATM   10  C   UNL     1     -10.697  11.746  67.204  1.00  0.00    -0.241 A  
HETATM   11  C   UNL     1     -11.158  10.442  66.924  1.00  0.00    -0.083 A  
HETATM   12  C   UNL     1     -10.306   9.343  67.004  1.00  0.00    -0.322 A  
HETATM   13  C   UNL     1      -8.982   9.532  67.367  1.00  0.00    -0.141 A  
HETATM   14  C   UNL     1      -8.509  10.821  67.631  1.00  0.00    -0.119 A  
HETATM   15  C   UNL     1      -9.331  11.966  67.544  1.00  0.00    -0.177 A  
BRANCH  15  16
HETATM   16  N   UNL     1      -8.771  13.226  67.706  1.00  0.00    -0.181 NA 
HETATM   17  C   UNL     1      -8.677  14.193  66.599  1.00  0.00    -0.044 C  
HETATM   18  C   UNL     1      -8.930  15.620  67.146  1.00  0.00    -0.214 C  
HETATM   19  N   UNL     1      -8.067  15.998  68.287  1.00  0.00    -0.147 NA 
HETATM   20  C   UNL     1      -8.141  14.949  69.332  1.00  0.00    -0.103 C  
HETATM   21  H   UNL     1      -8.295  16.922  68.653  1.00  0.00     0.000 HD 
HETATM   22  C   UNL     1      -7.826  13.534  68.792  1.00  0.00    -0.029 C  
ENDBRANCH  15  16
ENDBRANCH   9  10
ENDBRANCH   5   9
TORSDOF 3
ENDMDL
MODEL      199
REMARK 921   NORMALIZED FREE ENERGY PREDICTED BY IDOCK:   -3.28 KCAL/MOL
REMARK 922        TOTAL FREE ENERGY PREDICTED BY IDOCK:   -4.54 KCAL/MOL
REMARK 923 INTER-LIGAND FREE ENERGY PREDICTED BY IDOCK:   -4.04 KCAL/MOL
REMARK 924 INTRA-LIGAND FREE ENERGY PREDICTED BY IDOCK:   -0.50 KCAL/MOL
REMARK 927      BINDING AFFINITY PREDICTED BY RF-SCORE:    0.00 PKD
ROOT
HETATM    1  C   UNL     1     -12.030  11.682  69.103  1.00  0.00    -0.378 C  
HETATM    2  C   UNL     1     -10.908  10.717  69.349  1.00  0.00    -0.289 A  
HETATM    3  C   UNL     1     -10.898   9.875  70.461  1.00  0.00    -0.391 A  
HETATM    4  C   UNL     1      -9.873   8.926  70.622  1.00  0.00    -0.261 A  
HETATM    5  C   UNL     1      -8.836   8.800  69.683  1.00  0.00    -0.141 A  
HETATM    6  C   UNL     1      -7.679   9.783  67.599  1.00  0.00    -0.094 C  
HETATM    7  C   UNL     1      -8.792   9.721  68.616  1.00  0.00    -0.126 A  
HETATM    8  C   UNL     1      -9.845  10.645  68.447  1.00  0.00    -0.170 A  
ENDROOT
BRANCH   5   9
HETATM    9  S   UNL     1      -7.570   7.530  69.826  1.00  0.00    -0.095 SA 
BRANCH   9  10
HETATM   10  C   UNL     1      -8.404   6.024  70.354  1.00  0.00    -0.124 A  
HETATM   11  C   UNL     1      -8.488   5.814  71.746  1.00  0.00    -0.131 A  
HETATM   12  C   UNL     1      -9.224   4.756  72.274  1.00  0.00    -0.151 A  
HETATM   13  C   UNL     1      -9.888   3.894  71.417  1.00  0.00    -0.243 A  
HETATM   14  C   UNL     1      -9.828   4.101  70.035  1.00  0.00    -0.245 A  
HETATM   15  C   UNL     1      -9.109   5.169  69.456  1.00  0.00    -0.108 A  
BRANCH  15  16
HETATM   16  N   UNL     1      -9.185   5.385  68.087  1.00  0.00    -0.109 NA 
HETATM   17  C   UNL     1      -7.985   5.444  67.233  1.00  0.00    -0.101 C  
HETATM   18  C   UNL     1      -8.298   4.775  65.871  1.00  0.00    -0.116 C  
HETATM   19  N   UNL     1      -9.493   5.314  65.186  1.00  0.00    -0.363 NA 
HETATM   20  C   UNL     1     -10.644   5.305  66.119  1.00  0.00    -0.194 C  
HETATM   21  H   UNL     1      -9.697   4.818  64.319  1.00  0.00     0.000 HD 
HETATM   22  C   UNL     1     -10.347   6.029  67.454  1.00  0.00    -0.216 C  
ENDBRANCH  15  16
ENDBRANCH   9  10
ENDBRANCH   5   9
TORSDOF 3
ENDMDL
MODEL      200
REMARK 921   NORMALIZED FREE ENERGY PREDICTED BY IDOCK:   -3.26 KCAL/MOL
REMARK 922        TOTAL FREE ENERGY PREDICTED BY IDOCK:   -4.52 KCAL/MOL
REMARK 923 INTER-LIGAND FREE ENERGY PREDICTED BY IDOCK:   -4.12 KCAL/MOL
REMARK 924 INTRA-LIGAND FREE ENERGY PREDICTED BY IDOCK:   -0.41 KCAL/MOL
REMARK 927      BINDING AFFINITY PREDICTED BY RF-SCORE:    0.00 PKD
ROOT
HETATM    1  C   UNL     1     -10.533  14.537  65.904  1.00  0.00    -0.322 C  
HETATM    2  C   UNL     1     -10.528  13.108  66.362  1.00  0.00    -0.287 A  
HETATM    3  C   UNL     1     -11.130  12.722  67.559  1.00  0.00    -0.300 A  
HETATM    4  C   UNL     1     -11.178  11.364  67.923  1.00  0.00    -0.352 A  
HETATM    5  C   UNL     1     -10.626  10.366  67.103  1.00  0.00    -0.261 A  
HETATM    6  C   UNL     1      -9.185   9.823  65.035  1.00  0.00    -0.307 C  
HETATM    7  C   UNL     1      -9.927  10.769  65.946  1.00  0.00    -0.304 A  
HETATM    8  C   UNL     1      -9.916  12.131  65.576  1.00  0.00    -0.269 A  
ENDROOT
BRANCH   5   9
HETATM    9  S   UNL     1     -10.761   8.618  67.507  1.00  0.00    -0.033 SA 
BRANCH   9  10
HETATM   10  C   UNL     1      -9.579   8.300  68.828  1.00  0.00    -0.150 A  
HETATM   11  C   UNL     1      -9.661   9.146  69.955  1.00  0.00    -0.206 A  
HETATM   12  C   UNL     1      -8.891   8.912  71.091  1.00  0.00    -0.297 A  
HETATM   13  C   UNL     1      -8.028   7.829  71.117  1.00  0.00    -0.090 A  
HETATM   14  C   UNL     1      -7.949   6.973  70.015  1.00  0.00    -0.115 A  
HETATM   15  C   UNL     1      -8.723   7.160  68.849  1.00  0.00    -0.128 A  
BRANCH  15  16
HETATM   16  N   UNL     1      -8.682   6.209  67.838  1.00  0.00    -0.114 NA 
HETATM   17  C   UNL     1      -7.960   6.437  66.574  1.00  0.00    -0.109 C  
HETATM   18  C   UNL     1      -7.297   5.112  66.121  1.00  0.00    -0.081 C  
HETATM   19  N   UNL     1      -8.225   3.965  66.031  1.00  0.00    -0.101 NA 
HETATM   20  C   UNL     1      -8.979   3.836  67.300  1.00  0.00    -0.140 C  
HETATM   21  H   UNL     1      -7.746   3.101  65.779  1.00  0.00     0.000 HD 
HETATM   22  C   UNL     1      -9.691   5.146  67.716  1.00  0.00    -0.148 C  
ENDBRANCH  15  16
ENDBRANCH   9  10
ENDBRANCH   5   9
TORSDOF 3
ENDMDL
MODEL      201
REMARK 921   NORMALIZED FREE ENERGY PREDICTED BY IDOCK:   -3.23 KCAL/MOL
REMARK 922        TOTAL FREE ENERGY PREDICTED BY IDOCK:   -4.49 KCAL/MOL
REMARK 923 INTER-LIGAND FREE ENERGY PREDICTED BY IDOCK:   -4.33 KCAL/MOL
REMARK 924 INTRA-LIGAND FREE ENERGY PREDICTED BY IDOCK:   -0.16 KCAL/MOL
REMARK 927      BINDING AFFINITY PREDICTED BY RF-SCORE:    0.00 PKD
ROOT
HETATM    1  C   UNL     1     -10.578  17.222  68.098  1.00  0.00    -0.386 C  
HETATM    2  C   UNL     1      -9.931  15.879  68.268  1.00  0.00    -0.222 A  
HETATM    3  C   UNL     1     -10.676  14.700  68.233  1.00  0.00    -0.240 A  
HETATM    4  C   UNL     1     -10.032  13.453  68.315  1.00  0.00    -0.240 A  
HETATM    5  C   UNL     1      -8.636  13.355  68.438  1.00  0.00    -0.134 A  
HETATM    6  C   UNL     1      -6.411  14.596  68.834  1.00  0.00    -0.090 C  
HETATM    7  C   UNL     1      -7.897  14.548  68.578  1.00  0.00    -0.136 A  
HETATM    8  C   UNL     1      -8.552  15.793  68.459  1.00  0.00    -0.183 A  
ENDROOT
BRANCH   5   9
HETATM    9  S   UNL     1      -7.789  11.767  68.451  1.00  0.00    -0.143 SA 
BRANCH   9  10
HETATM   10  C   UNL     1      -8.964  10.550  67.833  1.00  0.00    -0.137 A  
HETATM   11  C   UNL     1      -9.177  10.544  66.438  1.00  0.00    -0.190 A  
HETATM   12  C   UNL     1      -9.958   9.563  65.831  1.00  0.00    -0.342 A  
HETATM   13  C   UNL     1     -10.537   8.575  66.611  1.00  0.00    -0.118 A  
HETATM   14  C   UNL     1     -10.319   8.559  67.992  1.00  0.00    -0.272 A  
HETATM   15  C   UNL     1      -9.520   9.521  68.648  1.00  0.00    -0.142 A  
BRANCH  15  16
HETATM   16  N   UNL     1      -9.252   9.382  70.003  1.00  0.00    -0.202 NA 
HETATM   17  C   UNL     1     -10.246   9.711  71.039  1.00  0.00    -0.182 C  
HETATM   18  C   UNL     1     -10.129   8.691  72.199  1.00  0.00    -0.318 C  
HETATM   19  N   UNL     1      -8.766   8.557  72.759  1.00  0.00    -0.375 NA 
HETATM   20  C   UNL     1      -7.802   8.308  71.662  1.00  0.00    -0.114 C  
HETATM   21  H   UNL     1      -8.716   7.842  73.485  1.00  0.00     0.000 HD 
HETATM   22  C   UNL     1      -7.880   9.366  70.536  1.00  0.00    -0.164 C  
ENDBRANCH  15  16
ENDBRANCH   9  10
ENDBRANCH   5   9
TORSDOF 3
ENDMDL
MODEL      202
REMARK 921   NORMALIZED FREE ENERGY PREDICTED BY IDOCK:   -3.23 KCAL/MOL
REMARK 922        TOTAL FREE ENERGY PREDICTED BY IDOCK:   -4.48 KCAL/MOL
REMARK 923 INTER-LIGAND FREE ENERGY PREDICTED BY IDOCK:   -3.87 KCAL/MOL
REMARK 924 INTRA-LIGAND FREE ENERGY PREDICTED BY IDOCK:   -0.61 KCAL/MOL
REMARK 927      BINDING AFFINITY PREDICTED BY RF-SCORE:    0.00 PKD
ROOT
HETATM    1  C   UNL     1      -8.573   4.577  73.074  1.00  0.00    -0.105 C  
HETATM    2  C   UNL     1      -8.959   5.786  72.273  1.00  0.00    -0.139 A  
HETATM    3  C   UNL     1      -8.101   6.878  72.140  1.00  0.00    -0.098 A  
HETATM    4  C   UNL     1      -8.458   7.963  71.319  1.00  0.00    -0.127 A  
HETATM    5  C   UNL     1      -9.675   7.983  70.618  1.00  0.00    -0.173 A  
HETATM    6  C   UNL     1     -11.972   6.872  70.249  1.00  0.00    -0.257 C  
HETATM    7  C   UNL     1     -10.584   6.927  70.838  1.00  0.00    -0.243 A  
HETATM    8  C   UNL     1     -10.199   5.829  71.636  1.00  0.00    -0.253 A  
ENDROOT
BRANCH   5   9
HETATM    9  S   UNL     1     -10.105   9.319  69.493  1.00  0.00    -0.209 SA 
BRANCH   9  10
HETATM   10  C   UNL     1      -9.283   8.963  67.930  1.00  0.00    -0.138 A  
HETATM   11  C   UNL     1      -8.931   7.615  67.705  1.00  0.00    -0.131 A  
HETATM   12  C   UNL     1      -8.414   7.198  66.481  1.00  0.00    -0.125 A  
HETATM   13  C   UNL     1      -8.242   8.123  65.464  1.00  0.00    -0.144 A  
HETATM   14  C   UNL     1      -8.603   9.458  65.668  1.00  0.00    -0.159 A  
HETATM   15  C   UNL     1      -9.147   9.923  66.885  1.00  0.00    -0.142 A  
BRANCH  15  16
HETATM   16  N   UNL     1      -9.591  11.235  66.982  1.00  0.00    -0.177 NA 
HETATM   17  C   UNL     1      -8.881  12.247  67.783  1.00  0.00    -0.174 C  
HETATM   18  C   UNL     1      -8.942  13.611  67.050  1.00  0.00    -0.236 C  
HETATM   19  N   UNL     1     -10.308  14.048  66.688  1.00  0.00    -0.274 NA 
HETATM   20  C   UNL     1     -10.998  12.959  65.956  1.00  0.00    -0.276 C  
HETATM   21  H   UNL     1     -10.306  14.922  66.164  1.00  0.00     0.000 HD 
HETATM   22  C   UNL     1     -10.988  11.615  66.722  1.00  0.00    -0.290 C  
ENDBRANCH  15  16
ENDBRANCH   9  10
ENDBRANCH   5   9
TORSDOF 3
ENDMDL
MODEL      203
REMARK 921   NORMALIZED FREE ENERGY PREDICTED BY IDOCK:   -3.22 KCAL/MOL
REMARK 922        TOTAL FREE ENERGY PREDICTED BY IDOCK:   -4.48 KCAL/MOL
REMARK 923 INTER-LIGAND FREE ENERGY PREDICTED BY IDOCK:   -4.52 KCAL/MOL
REMARK 924 INTRA-LIGAND FREE ENERGY PREDICTED BY IDOCK:    0.04 KCAL/MOL
REMARK 927      BINDING AFFINITY PREDICTED BY RF-SCORE:    0.00 PKD
ROOT
HETATM    1  C   UNL     1      -5.953  10.010  62.647  1.00  0.00    -0.117 C  
HETATM    2  C   UNL     1      -6.701  10.184  63.936  1.00  0.00    -0.111 A  
HETATM    3  C   UNL     1      -6.043  10.201  65.166  1.00  0.00    -0.120 A  
HETATM    4  C   UNL     1      -6.761  10.445  66.350  1.00  0.00    -0.107 A  
HETATM    5  C   UNL     1      -8.147  10.673  66.334  1.00  0.00    -0.148 A  
HETATM    6  C   UNL     1     -10.322  10.652  64.949  1.00  0.00    -0.347 C  
HETATM    7  C   UNL     1      -8.825  10.551  65.102  1.00  0.00    -0.206 A  
HETATM    8  C   UNL     1      -8.087  10.340  63.918  1.00  0.00    -0.138 A  
ENDROOT
BRANCH   5   9
HETATM    9  S   UNL     1      -9.064  11.078  67.828  1.00  0.00    -0.150 SA 
BRANCH   9  10
HETATM   10  C   UNL     1      -9.430  12.840  67.748  1.00  0.00    -0.205 A  
HETATM   11  C   UNL     1      -8.648  13.598  66.851  1.00  0.00    -0.121 A  
HETATM   12  C   UNL     1      -8.927  14.940  66.606  1.00  0.00    -0.301 A  
HETATM   13  C   UNL     1      -9.992  15.543  67.255  1.00  0.00    -0.238 A  
HETATM   14  C   UNL     1     -10.785  14.799  68.134  1.00  0.00    -0.247 A  
HETATM   15  C   UNL     1     -10.551  13.432  68.399  1.00  0.00    -0.248 A  
BRANCH  15  16
HETATM   16  N   UNL     1     -11.444  12.724  69.192  1.00  0.00    -0.291 NA 
HETATM   17  C   UNL     1     -11.782  11.315  68.930  1.00  0.00    -0.341 C  
HETATM   18  C   UNL     1     -11.949  10.572  70.279  1.00  0.00    -0.325 C  
HETATM   19  N   UNL     1     -12.906  11.207  71.211  1.00  0.00    -0.415 NA 
HETATM   20  C   UNL     1     -12.564  12.640  71.371  1.00  0.00    -0.202 C  
HETATM   21  H   UNL     1     -12.953  10.721  72.106  1.00  0.00     0.000 HD 
HETATM   22  C   UNL     1     -12.459  13.392  70.022  1.00  0.00    -0.137 C  
ENDBRANCH  15  16
ENDBRANCH   9  10
ENDBRANCH   5   9
TORSDOF 3
ENDMDL
MODEL      204
REMARK 921   NORMALIZED FREE ENERGY PREDICTED BY IDOCK:   -3.21 KCAL/MOL
REMARK 922        TOTAL FREE ENERGY PREDICTED BY IDOCK:   -4.46 KCAL/MOL
REMARK 923 INTER-LIGAND FREE ENERGY PREDICTED BY IDOCK:   -3.99 KCAL/MOL
REMARK 924 INTRA-LIGAND FREE ENERGY PREDICTED BY IDOCK:   -0.47 KCAL/MOL
REMARK 927      BINDING AFFINITY PREDICTED BY RF-SCORE:    0.00 PKD
ROOT
HETATM    1  C   UNL     1     -13.239  11.982  70.964  1.00  0.00     0.164 C  
HETATM    2  C   UNL     1     -12.020  11.168  70.642  1.00  0.00    -0.459 A  
HETATM    3  C   UNL     1     -11.616  10.106  71.451  1.00  0.00    -0.315 A  
HETATM    4  C   UNL     1     -10.515   9.312  71.081  1.00  0.00    -0.401 A  
HETATM    5  C   UNL     1      -9.794   9.563  69.902  1.00  0.00    -0.226 A  
HETATM    6  C   UNL     1      -9.384  11.160  67.920  1.00  0.00    -0.161 C  
HETATM    7  C   UNL     1     -10.140  10.700  69.142  1.00  0.00    -0.234 A  
HETATM    8  C   UNL     1     -11.267  11.467  69.506  1.00  0.00    -0.322 A  
ENDROOT
BRANCH   5   9
HETATM    9  S   UNL     1      -8.443   8.502  69.367  1.00  0.00    -0.128 SA 
BRANCH   9  10
HETATM   10  C   UNL     1      -9.186   7.143  68.447  1.00  0.00    -0.133 A  
HETATM   11  C   UNL     1      -9.213   7.284  67.043  1.00  0.00    -0.170 A  
HETATM   12  C   UNL     1      -9.639   6.244  66.221  1.00  0.00    -0.117 A  
HETATM   13  C   UNL     1     -10.045   5.048  66.791  1.00  0.00    -0.270 A  
HETATM   14  C   UNL     1     -10.006   4.889  68.180  1.00  0.00    -0.171 A  
HETATM   15  C   UNL     1      -9.565   5.909  69.051  1.00  0.00    -0.129 A  
BRANCH  15  16
HETATM   16  N   UNL     1      -9.443   5.646  70.409  1.00  0.00    -0.162 NA 
HETATM   17  C   UNL     1     -10.519   5.952  71.368  1.00  0.00    -0.236 C  
HETATM   18  C   UNL     1     -10.574   4.837  72.443  1.00  0.00    -0.180 C  
HETATM   19  N   UNL     1      -9.284   4.577  73.119  1.00  0.00    -0.118 NA 
HETATM   20  C   UNL     1      -8.228   4.358  72.104  1.00  0.00    -0.107 C  
HETATM   21  H   UNL     1      -9.346   3.806  73.783  1.00  0.00     0.000 HD 
HETATM   22  C   UNL     1      -8.135   5.505  71.069  1.00  0.00    -0.118 C  
ENDBRANCH  15  16
ENDBRANCH   9  10
ENDBRANCH   5   9
TORSDOF 3
ENDMDL
MODEL      205
REMARK 921   NORMALIZED FREE ENERGY PREDICTED BY IDOCK:   -3.20 KCAL/MOL
REMARK 922        TOTAL FREE ENERGY PREDICTED BY IDOCK:   -4.45 KCAL/MOL
REMARK 923 INTER-LIGAND FREE ENERGY PREDICTED BY IDOCK:   -3.72 KCAL/MOL
REMARK 924 INTRA-LIGAND FREE ENERGY PREDICTED BY IDOCK:   -0.73 KCAL/MOL
REMARK 927      BINDING AFFINITY PREDICTED BY RF-SCORE:    0.00 PKD
ROOT
HETATM    1  C   UNL     1      -6.141  10.971  70.315  1.00  0.00    -0.144 C  
HETATM    2  C   UNL     1      -6.503  12.205  69.542  1.00  0.00    -0.100 A  
HETATM    3  C   UNL     1      -5.861  13.423  69.767  1.00  0.00    -0.119 A  
HETATM    4  C   UNL     1      -6.167  14.542  68.972  1.00  0.00    -0.092 A  
HETATM    5  C   UNL     1      -7.120  14.472  67.942  1.00  0.00    -0.157 A  
HETATM    6  C   UNL     1      -8.972  13.085  66.806  1.00  0.00    -0.179 C  
HETATM    7  C   UNL     1      -7.842  13.270  67.787  1.00  0.00    -0.157 A  
HETATM    8  C   UNL     1      -7.500  12.145  68.568  1.00  0.00    -0.117 A  
ENDROOT
BRANCH   5   9
HETATM    9  S   UNL     1      -7.455  15.867  66.858  1.00  0.00    -0.151 SA 
BRANCH   9  10
HETATM   10  C   UNL     1      -8.666  16.899  67.702  1.00  0.00    -0.209 A  
HETATM   11  C   UNL     1      -9.631  16.220  68.475  1.00  0.00    -0.222 A  
HETATM   12  C   UNL     1     -10.533  16.915  69.277  1.00  0.00    -0.319 A  
HETATM   13  C   UNL     1     -10.483  18.299  69.317  1.00  0.00     0.284 A  
HETATM   14  C   UNL     1      -9.520  18.983  68.569  1.00  0.00    -0.436 A  
HETATM   15  C   UNL     1      -8.575  18.321  67.756  1.00  0.00    -0.256 A  
BRANCH  15  16
HETATM   16  N   UNL     1      -7.575  19.053  67.131  1.00  0.00    -0.228 NA 
HETATM   17  C   UNL     1      -6.432  19.615  67.871  1.00  0.00    -0.226 C  
HETATM   18  C   UNL     1      -5.158  19.510  66.996  1.00  0.00    -0.158 C  
HETATM   19  N   UNL     1      -5.293  20.105  65.648  1.00  0.00    -0.161 NA 
HETATM   20  C   UNL     1      -6.503  19.563  64.986  1.00  0.00    -0.256 C  
HETATM   21  H   UNL     1      -4.454  19.974  65.084  1.00  0.00     0.000 HD 
HETATM   22  C   UNL     1      -7.783  19.727  65.839  1.00  0.00    -0.320 C  
ENDBRANCH  15  16
ENDBRANCH   9  10
ENDBRANCH   5   9
TORSDOF 3
ENDMDL
MODEL      206
REMARK 921   NORMALIZED FREE ENERGY PREDICTED BY IDOCK:   -3.19 KCAL/MOL
REMARK 922        TOTAL FREE ENERGY PREDICTED BY IDOCK:   -4.44 KCAL/MOL
REMARK 923 INTER-LIGAND FREE ENERGY PREDICTED BY IDOCK:   -3.88 KCAL/MOL
REMARK 924 INTRA-LIGAND FREE ENERGY PREDICTED BY IDOCK:   -0.56 KCAL/MOL
REMARK 927      BINDING AFFINITY PREDICTED BY RF-SCORE:    0.00 PKD
ROOT
HETATM    1  C   UNL     1      -9.389   7.156  74.218  1.00  0.00    -0.246 C  
HETATM    2  C   UNL     1      -9.632   7.385  72.755  1.00  0.00    -0.212 A  
HETATM    3  C   UNL     1     -10.897   7.228  72.191  1.00  0.00    -0.263 A  
HETATM    4  C   UNL     1     -11.109   7.525  70.833  1.00  0.00    -0.279 A  
HETATM    5  C   UNL     1     -10.065   7.981  70.010  1.00  0.00    -0.196 A  
HETATM    6  C   UNL     1      -7.532   8.394  69.767  1.00  0.00    -0.072 C  
HETATM    7  C   UNL     1      -8.766   8.038  70.558  1.00  0.00    -0.135 A  
HETATM    8  C   UNL     1      -8.575   7.770  71.930  1.00  0.00    -0.143 A  
ENDROOT
BRANCH   5   9
HETATM    9  S   UNL     1     -10.340   8.454  68.297  1.00  0.00    -0.174 SA 
BRANCH   9  10
HETATM   10  C   UNL     1      -9.773   7.078  67.283  1.00  0.00    -0.149 A  
HETATM   11  C   UNL     1     -10.320   5.814  67.587  1.00  0.00    -0.270 A  
HETATM   12  C   UNL     1     -10.060   4.703  66.788  1.00  0.00    -0.246 A  
HETATM   13  C   UNL     1      -9.248   4.840  65.674  1.00  0.00    -0.152 A  
HETATM   14  C   UNL     1      -8.714   6.091  65.352  1.00  0.00    -0.090 A  
HETATM   15  C   UNL     1      -8.964   7.248  66.121  1.00  0.00    -0.149 A  
BRANCH  15  16
HETATM   16  N   UNL     1      -8.497   8.480  65.681  1.00  0.00    -0.146 NA 
HETATM   17  C   UNL     1      -7.235   9.061  66.169  1.00  0.00    -0.090 C  
HETATM   18  C   UNL     1      -6.527   9.792  65.001  1.00  0.00    -0.098 C  
HETATM   19  N   UNL     1      -7.368  10.793  64.309  1.00  0.00    -0.325 NA 
HETATM   20  C   UNL     1      -8.654  10.172  63.915  1.00  0.00    -0.193 C  
HETATM   21  H   UNL     1      -6.887  11.218  63.516  1.00  0.00     0.000 HD 
HETATM   22  C   UNL     1      -9.387   9.497  65.099  1.00  0.00    -0.252 C  
ENDBRANCH  15  16
ENDBRANCH   9  10
ENDBRANCH   5   9
TORSDOF 3
ENDMDL
MODEL      207
REMARK 921   NORMALIZED FREE ENERGY PREDICTED BY IDOCK:   -3.17 KCAL/MOL
REMARK 922        TOTAL FREE ENERGY PREDICTED BY IDOCK:   -4.41 KCAL/MOL
REMARK 923 INTER-LIGAND FREE ENERGY PREDICTED BY IDOCK:   -3.71 KCAL/MOL
REMARK 924 INTRA-LIGAND FREE ENERGY PREDICTED BY IDOCK:   -0.70 KCAL/MOL
REMARK 927      BINDING AFFINITY PREDICTED BY RF-SCORE:    0.00 PKD
ROOT
HETATM    1  C   UNL     1     -12.206   8.920  72.664  1.00  0.00    -0.176 C  
HETATM    2  C   UNL     1     -11.599   8.595  71.331  1.00  0.00    -0.354 A  
HETATM    3  C   UNL     1     -11.285   9.592  70.408  1.00  0.00    -0.342 A  
HETATM    4  C   UNL     1     -10.644   9.264  69.201  1.00  0.00    -0.228 A  
HETATM    5  C   UNL     1     -10.306   7.937  68.887  1.00  0.00    -0.213 A  
HETATM    6  C   UNL     1     -10.532   5.446  69.513  1.00  0.00    -0.343 C  
HETATM    7  C   UNL     1     -10.719   6.920  69.774  1.00  0.00    -0.276 A  
HETATM    8  C   UNL     1     -11.330   7.267  70.997  1.00  0.00    -0.301 A  
ENDROOT
BRANCH   5   9
HETATM    9  S   UNL     1      -9.404   7.511  67.390  1.00  0.00    -0.144 SA 
BRANCH   9  10
HETATM   10  C   UNL     1      -7.727   7.095  67.898  1.00  0.00    -0.113 A  
HETATM   11  C   UNL     1      -7.035   8.082  68.630  1.00  0.00    -0.071 A  
HETATM   12  C   UNL     1      -5.786   7.824  69.190  1.00  0.00    -0.030 A  
HETATM   13  C   UNL     1      -5.211   6.574  69.024  1.00  0.00    -0.012 A  
HETATM   14  C   UNL     1      -5.894   5.581  68.316  1.00  0.00    -0.017 A  
HETATM   15  C   UNL     1      -7.169   5.791  67.747  1.00  0.00    -0.076 A  
BRANCH  15  16
HETATM   16  N   UNL     1      -7.841   4.729  67.156  1.00  0.00    -0.094 NA 
HETATM   17  C   UNL     1      -7.848   3.379  67.745  1.00  0.00    -0.076 C  
HETATM   18  C   UNL     1      -9.242   2.737  67.528  1.00  0.00    -0.187 C  
HETATM   19  N   UNL     1      -9.699   2.732  66.121  1.00  0.00    -0.363 NA 
HETATM   20  C   UNL     1      -9.592   4.100  65.561  1.00  0.00    -0.188 C  
HETATM   21  H   UNL     1     -10.639   2.349  66.023  1.00  0.00     0.000 HD 
HETATM   22  C   UNL     1      -8.180   4.712  65.724  1.00  0.00    -0.111 C  
ENDBRANCH  15  16
ENDBRANCH   9  10
ENDBRANCH   5   9
TORSDOF 3
ENDMDL
MODEL      208
REMARK 921   NORMALIZED FREE ENERGY PREDICTED BY IDOCK:   -3.16 KCAL/MOL
REMARK 922        TOTAL FREE ENERGY PREDICTED BY IDOCK:   -4.41 KCAL/MOL
REMARK 923 INTER-LIGAND FREE ENERGY PREDICTED BY IDOCK:   -3.63 KCAL/MOL
REMARK 924 INTRA-LIGAND FREE ENERGY PREDICTED BY IDOCK:   -0.78 KCAL/MOL
REMARK 927      BINDING AFFINITY PREDICTED BY RF-SCORE:    0.00 PKD
ROOT
HETATM    1  C   UNL     1      -5.810  10.362  63.888  1.00  0.00    -0.120 C  
HETATM    2  C   UNL     1      -6.400  10.362  65.267  1.00  0.00    -0.114 A  
HETATM    3  C   UNL     1      -7.428   9.489  65.623  1.00  0.00    -0.094 A  
HETATM    4  C   UNL     1      -7.906   9.458  66.945  1.00  0.00    -0.105 A  
HETATM    5  C   UNL     1      -7.375  10.300  67.937  1.00  0.00    -0.087 A  
HETATM    6  C   UNL     1      -5.837  12.297  68.476  1.00  0.00    -0.054 C  
HETATM    7  C   UNL     1      -6.410  11.254  67.550  1.00  0.00    -0.068 A  
HETATM    8  C   UNL     1      -5.915  11.249  66.229  1.00  0.00    -0.100 A  
ENDROOT
BRANCH   5   9
HETATM    9  S   UNL     1      -7.911  10.208  69.651  1.00  0.00    -0.168 SA 
BRANCH   9  10
HETATM   10  C   UNL     1      -9.010   8.787  69.775  1.00  0.00    -0.146 A  
HETATM   11  C   UNL     1      -8.433   7.594  70.260  1.00  0.00    -0.134 A  
HETATM   12  C   UNL     1      -9.212   6.470  70.524  1.00  0.00    -0.156 A  
HETATM   13  C   UNL     1     -10.579   6.524  70.307  1.00  0.00    -0.278 A  
HETATM   14  C   UNL     1     -11.166   7.705  69.843  1.00  0.00    -0.097 A  
HETATM   15  C   UNL     1     -10.419   8.874  69.579  1.00  0.00    -0.226 A  
BRANCH  15  16
HETATM   16  N   UNL     1     -11.078  10.045  69.231  1.00  0.00    -0.225 NA 
HETATM   17  C   UNL     1     -12.092  10.665  70.101  1.00  0.00    -0.333 C  
HETATM   18  C   UNL     1     -11.958  12.206  70.021  1.00  0.00    -0.315 C  
HETATM   19  N   UNL     1     -11.999  12.751  68.647  1.00  0.00    -0.288 NA 
HETATM   20  C   UNL     1     -11.016  12.034  67.800  1.00  0.00    -0.232 C  
HETATM   21  H   UNL     1     -11.858  13.761  68.628  1.00  0.00     0.000 HD 
HETATM   22  C   UNL     1     -11.195  10.498  67.835  1.00  0.00    -0.289 C  
ENDBRANCH  15  16
ENDBRANCH   9  10
ENDBRANCH   5   9
TORSDOF 3
ENDMDL
MODEL      209
REMARK 921   NORMALIZED FREE ENERGY PREDICTED BY IDOCK:   -3.14 KCAL/MOL
REMARK 922        TOTAL FREE ENERGY PREDICTED BY IDOCK:   -4.39 KCAL/MOL
REMARK 923 INTER-LIGAND FREE ENERGY PREDICTED BY IDOCK:   -4.85 KCAL/MOL
REMARK 924 INTRA-LIGAND FREE ENERGY PREDICTED BY IDOCK:    0.46 KCAL/MOL
REMARK 927      BINDING AFFINITY PREDICTED BY RF-SCORE:    0.00 PKD
ROOT
HETATM    1  C   UNL     1      -5.856  12.437  70.380  1.00  0.00    -0.149 C  
HETATM    2  C   UNL     1      -6.704  13.204  69.408  1.00  0.00    -0.022 A  
HETATM    3  C   UNL     1      -6.909  14.577  69.542  1.00  0.00    -0.152 A  
HETATM    4  C   UNL     1      -7.643  15.282  68.571  1.00  0.00    -0.119 A  
HETATM    5  C   UNL     1      -8.190  14.633  67.451  1.00  0.00    -0.201 A  
HETATM    6  C   UNL     1      -8.704  12.387  66.295  1.00  0.00     0.099 C  
HETATM    7  C   UNL     1      -8.070  13.229  67.374  1.00  0.00    -0.179 A  
HETATM    8  C   UNL     1      -7.302  12.540  68.336  1.00  0.00    -0.114 A  
ENDROOT
BRANCH   5   9
HETATM    9  S   UNL     1      -9.051  15.534  66.154  1.00  0.00    -0.273 SA 
BRANCH   9  10
HETATM   10  C   UNL     1     -10.549  14.605  65.786  1.00  0.00    -0.320 A  
HETATM   11  C   UNL     1     -10.560  13.899  64.564  1.00  0.00    -0.375 A  
HETATM   12  C   UNL     1     -11.606  13.041  64.235  1.00  0.00    -0.437 A  
HETATM   13  C   UNL     1     -12.657  12.877  65.123  1.00  0.00    -0.536 A  
HETATM   14  C   UNL     1     -12.650  13.557  66.345  1.00  0.00    -0.244 A  
HETATM   15  C   UNL     1     -11.603  14.423  66.729  1.00  0.00    -0.385 A  
BRANCH  15  16
HETATM   16  N   UNL     1     -11.602  14.976  68.002  1.00  0.00    -0.337 NA 
HETATM   17  C   UNL     1     -12.059  14.227  69.185  1.00  0.00    -0.302 C  
HETATM   18  C   UNL     1     -11.164  14.594  70.396  1.00  0.00    -0.124 C  
HETATM   19  N   UNL     1     -11.064  16.045  70.663  1.00  0.00    -0.351 NA 
HETATM   20  C   UNL     1     -10.682  16.752  69.418  1.00  0.00    -0.300 C  
HETATM   21  H   UNL     1     -10.430  16.252  71.434  1.00  0.00     0.000 HD 
HETATM   22  C   UNL     1     -11.617  16.430  68.228  1.00  0.00    -0.030 C  
ENDBRANCH  15  16
ENDBRANCH   9  10
ENDBRANCH   5   9
TORSDOF 3
ENDMDL
MODEL      210
REMARK 921   NORMALIZED FREE ENERGY PREDICTED BY IDOCK:   -3.13 KCAL/MOL
REMARK 922        TOTAL FREE ENERGY PREDICTED BY IDOCK:   -4.37 KCAL/MOL
REMARK 923 INTER-LIGAND FREE ENERGY PREDICTED BY IDOCK:   -3.99 KCAL/MOL
REMARK 924 INTRA-LIGAND FREE ENERGY PREDICTED BY IDOCK:   -0.39 KCAL/MOL
REMARK 927      BINDING AFFINITY PREDICTED BY RF-SCORE:    0.00 PKD
ROOT
HETATM    1  C   UNL     1     -12.034  13.501  63.215  1.00  0.00    -0.182 C  
HETATM    2  C   UNL     1     -11.323  12.289  63.742  1.00  0.00    -0.534 A  
HETATM    3  C   UNL     1     -10.552  11.475  62.912  1.00  0.00    -0.050 A  
HETATM    4  C   UNL     1      -9.834  10.392  63.451  1.00  0.00    -0.251 A  
HETATM    5  C   UNL     1      -9.872  10.097  64.823  1.00  0.00    -0.312 A  
HETATM    6  C   UNL     1     -10.968  10.582  67.106  1.00  0.00    -0.294 C  
HETATM    7  C   UNL     1     -10.734  10.857  65.642  1.00  0.00    -0.178 A  
HETATM    8  C   UNL     1     -11.422  11.961  65.095  1.00  0.00    -0.304 A  
ENDROOT
BRANCH   5   9
HETATM    9  S   UNL     1      -8.888   8.774  65.541  1.00  0.00    -0.169 SA 
BRANCH   9  10
HETATM   10  C   UNL     1      -7.502   9.558  66.382  1.00  0.00    -0.097 A  
HETATM   11  C   UNL     1      -6.607  10.282  65.566  1.00  0.00    -0.128 A  
HETATM   12  C   UNL     1      -5.577  11.039  66.118  1.00  0.00    -0.147 A  
HETATM   13  C   UNL     1      -5.427  11.084  67.494  1.00  0.00    -0.041 A  
HETATM   14  C   UNL     1      -6.318  10.386  68.316  1.00  0.00    -0.051 A  
HETATM   15  C   UNL     1      -7.387   9.620  67.802  1.00  0.00    -0.086 A  
BRANCH  15  16
HETATM   16  N   UNL     1      -8.301   9.046  68.675  1.00  0.00    -0.122 NA 
HETATM   17  C   UNL     1      -8.550   9.590  70.021  1.00  0.00    -0.215 C  
HETATM   18  C   UNL     1     -10.058   9.455  70.353  1.00  0.00    -0.255 C  
HETATM   19  N   UNL     1     -10.597   8.087  70.198  1.00  0.00    -0.233 NA 
HETATM   20  C   UNL     1     -10.245   7.564  68.857  1.00  0.00    -0.208 C  
HETATM   21  H   UNL     1     -11.600   8.046  70.376  1.00  0.00     0.000 HD 
HETATM   22  C   UNL     1      -8.729   7.643  68.556  1.00  0.00    -0.128 C  
ENDBRANCH  15  16
ENDBRANCH   9  10
ENDBRANCH   5   9
TORSDOF 3
ENDMDL
MODEL      211
REMARK 921   NORMALIZED FREE ENERGY PREDICTED BY IDOCK:   -3.12 KCAL/MOL
REMARK 922        TOTAL FREE ENERGY PREDICTED BY IDOCK:   -4.36 KCAL/MOL
REMARK 923 INTER-LIGAND FREE ENERGY PREDICTED BY IDOCK:   -4.39 KCAL/MOL
REMARK 924 INTRA-LIGAND FREE ENERGY PREDICTED BY IDOCK:    0.03 KCAL/MOL
REMARK 927      BINDING AFFINITY PREDICTED BY RF-SCORE:    0.00 PKD
ROOT
HETATM    1  C   UNL     1      -9.864  17.939  68.362  1.00  0.00    -0.355 C  
HETATM    2  C   UNL     1     -10.000  16.468  68.101  1.00  0.00    -0.248 A  
HETATM    3  C   UNL     1      -8.941  15.587  68.318  1.00  0.00    -0.185 A  
HETATM    4  C   UNL     1      -9.122  14.203  68.140  1.00  0.00    -0.193 A  
HETATM    5  C   UNL     1     -10.359  13.672  67.740  1.00  0.00    -0.241 A  
HETATM    6  C   UNL     1     -12.736  14.156  66.867  1.00  0.00     0.313 C  
HETATM    7  C   UNL     1     -11.397  14.573  67.420  1.00  0.00    -0.370 A  
HETATM    8  C   UNL     1     -11.211  15.955  67.637  1.00  0.00    -0.219 A  
ENDROOT
BRANCH   5   9
HETATM    9  S   UNL     1     -10.634  11.900  67.598  1.00  0.00    -0.218 SA 
BRANCH   9  10
HETATM   10  C   UNL     1     -10.286  11.458  65.887  1.00  0.00    -0.246 A  
HETATM   11  C   UNL     1     -10.457  12.483  64.932  1.00  0.00    -0.328 A  
HETATM   12  C   UNL     1     -10.091  12.298  63.601  1.00  0.00    -0.369 A  
HETATM   13  C   UNL     1      -9.549  11.086  63.206  1.00  0.00    -0.370 A  
HETATM   14  C   UNL     1      -9.357  10.069  64.145  1.00  0.00    -0.335 A  
HETATM   15  C   UNL     1      -9.696  10.216  65.508  1.00  0.00    -0.281 A  
BRANCH  15  16
HETATM   16  N   UNL     1      -9.374   9.210  66.408  1.00  0.00    -0.187 NA 
HETATM   17  C   UNL     1     -10.089   7.922  66.436  1.00  0.00    -0.079 C  
HETATM   18  C   UNL     1      -9.080   6.787  66.745  1.00  0.00    -0.140 C  
HETATM   19  N   UNL     1      -8.276   7.002  67.967  1.00  0.00    -0.118 NA 
HETATM   20  C   UNL     1      -7.649   8.343  67.918  1.00  0.00    -0.099 C  
HETATM   21  H   UNL     1      -7.590   6.261  68.112  1.00  0.00     0.000 HD 
HETATM   22  C   UNL     1      -8.670   9.480  67.672  1.00  0.00    -0.122 C  
ENDBRANCH  15  16
ENDBRANCH   9  10
ENDBRANCH   5   9
TORSDOF 3
ENDMDL
MODEL      212
REMARK 921   NORMALIZED FREE ENERGY PREDICTED BY IDOCK:   -3.09 KCAL/MOL
REMARK 922        TOTAL FREE ENERGY PREDICTED BY IDOCK:   -4.33 KCAL/MOL
REMARK 923 INTER-LIGAND FREE ENERGY PREDICTED BY IDOCK:   -3.73 KCAL/MOL
REMARK 924 INTRA-LIGAND FREE ENERGY PREDICTED BY IDOCK:   -0.60 KCAL/MOL
REMARK 927      BINDING AFFINITY PREDICTED BY RF-SCORE:    0.00 PKD
ROOT
HETATM    1  C   UNL     1      -5.481  11.965  70.881  1.00  0.00    -0.112 C  
HETATM    2  C   UNL     1      -5.819  11.098  69.704  1.00  0.00    -0.073 A  
HETATM    3  C   UNL     1      -6.543   9.915  69.852  1.00  0.00    -0.080 A  
HETATM    4  C   UNL     1      -6.912   9.165  68.722  1.00  0.00    -0.062 A  
HETATM    5  C   UNL     1      -6.565   9.575  67.424  1.00  0.00    -0.070 A  
HETATM    6  C   UNL     1      -5.196  11.204  65.969  1.00  0.00    -0.130 C  
HETATM    7  C   UNL     1      -5.744  10.714  67.286  1.00  0.00    -0.045 A  
HETATM    8  C   UNL     1      -5.410  11.476  68.425  1.00  0.00    -0.042 A  
ENDROOT
BRANCH   5   9
HETATM    9  S   UNL     1      -7.108   8.676  65.963  1.00  0.00    -0.085 SA 
BRANCH   9  10
HETATM   10  C   UNL     1      -8.188   9.787  65.045  1.00  0.00    -0.142 A  
HETATM   11  C   UNL     1      -7.754  10.149  63.752  1.00  0.00    -0.141 A  
HETATM   12  C   UNL     1      -8.566  10.892  62.899  1.00  0.00    -0.181 A  
HETATM   13  C   UNL     1      -9.824  11.285  63.327  1.00  0.00    -0.418 A  
HETATM   14  C   UNL     1     -10.273  10.918  64.600  1.00  0.00    -0.411 A  
HETATM   15  C   UNL     1      -9.492  10.151  65.491  1.00  0.00    -0.230 A  
BRANCH  15  16
HETATM   16  N   UNL     1     -10.042   9.725  66.693  1.00  0.00    -0.228 NA 
HETATM   17  C   UNL     1     -10.518   8.345  66.894  1.00  0.00    -0.289 C  
HETATM   18  C   UNL     1     -10.186   7.898  68.340  1.00  0.00    -0.202 C  
HETATM   19  N   UNL     1     -10.680   8.815  69.390  1.00  0.00    -0.331 NA 
HETATM   20  C   UNL     1     -10.239  10.197  69.090  1.00  0.00    -0.214 C  
HETATM   21  H   UNL     1     -10.401   8.516  70.324  1.00  0.00     0.000 HD 
HETATM   22  C   UNL     1     -10.628  10.660  67.665  1.00  0.00    -0.246 C  
ENDBRANCH  15  16
ENDBRANCH   9  10
ENDBRANCH   5   9
TORSDOF 3
ENDMDL
MODEL      213
REMARK 921   NORMALIZED FREE ENERGY PREDICTED BY IDOCK:   -3.09 KCAL/MOL
REMARK 922        TOTAL FREE ENERGY PREDICTED BY IDOCK:   -4.33 KCAL/MOL
REMARK 923 INTER-LIGAND FREE ENERGY PREDICTED BY IDOCK:   -3.49 KCAL/MOL
REMARK 924 INTRA-LIGAND FREE ENERGY PREDICTED BY IDOCK:   -0.84 KCAL/MOL
REMARK 927      BINDING AFFINITY PREDICTED BY RF-SCORE:    0.00 PKD
ROOT
HETATM    1  C   UNL     1      -5.917  11.369  66.947  1.00  0.00    -0.122 C  
HETATM    2  C   UNL     1      -7.018  10.450  67.388  1.00  0.00    -0.085 A  
HETATM    3  C   UNL     1      -7.589  10.551  68.657  1.00  0.00    -0.099 A  
HETATM    4  C   UNL     1      -8.672   9.728  69.014  1.00  0.00    -0.148 A  
HETATM    5  C   UNL     1      -9.204   8.787  68.117  1.00  0.00    -0.140 A  
HETATM    6  C   UNL     1      -8.942   7.565  65.862  1.00  0.00    -0.128 C  
HETATM    7  C   UNL     1      -8.558   8.614  66.875  1.00  0.00    -0.124 A  
HETATM    8  C   UNL     1      -7.495   9.470  66.517  1.00  0.00    -0.093 A  
ENDROOT
BRANCH   5   9
HETATM    9  S   UNL     1     -10.647   7.793  68.524  1.00  0.00    -0.053 SA 
BRANCH   9  10
HETATM   10  C   UNL     1     -10.639   7.578  70.312  1.00  0.00    -0.229 A  
HETATM   11  C   UNL     1     -11.501   8.422  71.044  1.00  0.00    -0.302 A  
HETATM   12  C   UNL     1     -11.680   8.257  72.416  1.00  0.00    -0.463 A  
HETATM   13  C   UNL     1     -10.999   7.247  73.075  1.00  0.00    -0.388 A  
HETATM   14  C   UNL     1     -10.155   6.392  72.358  1.00  0.00    -0.191 A  
HETATM   15  C   UNL     1      -9.957   6.509  70.965  1.00  0.00    -0.183 A  
BRANCH  15  16
HETATM   16  N   UNL     1      -9.197   5.559  70.297  1.00  0.00    -0.146 NA 
HETATM   17  C   UNL     1      -9.548   4.128  70.301  1.00  0.00    -0.199 C  
HETATM   18  C   UNL     1      -9.231   3.523  68.910  1.00  0.00    -0.162 C  
HETATM   19  N   UNL     1      -7.845   3.753  68.447  1.00  0.00    -0.067 NA 
HETATM   20  C   UNL     1      -7.524   5.197  68.543  1.00  0.00    -0.074 C  
HETATM   21  H   UNL     1      -7.687   3.386  67.509  1.00  0.00     0.000 HD 
HETATM   22  C   UNL     1      -7.784   5.782  69.952  1.00  0.00    -0.087 C  
ENDBRANCH  15  16
ENDBRANCH   9  10
ENDBRANCH   5   9
TORSDOF 3
ENDMDL
MODEL      214
REMARK 921   NORMALIZED FREE ENERGY PREDICTED BY IDOCK:   -3.08 KCAL/MOL
REMARK 922        TOTAL FREE ENERGY PREDICTED BY IDOCK:   -4.31 KCAL/MOL
REMARK 923 INTER-LIGAND FREE ENERGY PREDICTED BY IDOCK:   -3.75 KCAL/MOL
REMARK 924 INTRA-LIGAND FREE ENERGY PREDICTED BY IDOCK:   -0.55 KCAL/MOL
REMARK 927      BINDING AFFINITY PREDICTED BY RF-SCORE:    0.00 PKD
ROOT
HETATM    1  C   UNL     1      -6.401   4.764  63.409  1.00  0.00    -0.026 C  
HETATM    2  C   UNL     1      -7.259   5.533  64.370  1.00  0.00    -0.055 A  
HETATM    3  C   UNL     1      -6.949   6.842  64.740  1.00  0.00    -0.055 A  
HETATM    4  C   UNL     1      -7.815   7.564  65.581  1.00  0.00    -0.110 A  
HETATM    5  C   UNL     1      -9.002   6.997  66.072  1.00  0.00    -0.107 A  
HETATM    6  C   UNL     1     -10.430   4.866  66.334  1.00  0.00    -0.325 C  
HETATM    7  C   UNL     1      -9.259   5.640  65.781  1.00  0.00    -0.111 A  
HETATM    8  C   UNL     1      -8.401   4.939  64.909  1.00  0.00    -0.138 A  
ENDROOT
BRANCH   5   9
HETATM    9  S   UNL     1     -10.165   7.937  67.072  1.00  0.00    -0.332 SA 
BRANCH   9  10
HETATM   10  C   UNL     1      -9.211   9.212  67.913  1.00  0.00    -0.133 A  
HETATM   11  C   UNL     1      -8.244   8.759  68.835  1.00  0.00    -0.118 A  
HETATM   12  C   UNL     1      -7.357   9.643  69.444  1.00  0.00    -0.081 A  
HETATM   13  C   UNL     1      -7.426  10.993  69.141  1.00  0.00    -0.121 A  
HETATM   14  C   UNL     1      -8.368  11.453  68.216  1.00  0.00    -0.152 A  
HETATM   15  C   UNL     1      -9.275  10.592  67.560  1.00  0.00    -0.142 A  
BRANCH  15  16
HETATM   16  N   UNL     1     -10.107  11.096  66.570  1.00  0.00    -0.216 NA 
HETATM   17  C   UNL     1     -11.500  11.490  66.839  1.00  0.00    -0.184 C  
HETATM   18  C   UNL     1     -11.842  12.751  66.007  1.00  0.00    -0.439 C  
HETATM   19  N   UNL     1     -11.573  12.618  64.558  1.00  0.00    -0.328 NA 
HETATM   20  C   UNL     1     -10.185  12.142  64.354  1.00  0.00    -0.306 C  
HETATM   21  H   UNL     1     -11.762  13.482  64.050  1.00  0.00     0.000 HD 
HETATM   22  C   UNL     1      -9.868  10.847  65.139  1.00  0.00    -0.275 C  
ENDBRANCH  15  16
ENDBRANCH   9  10
ENDBRANCH   5   9
TORSDOF 3
ENDMDL
MODEL      215
REMARK 921   NORMALIZED FREE ENERGY PREDICTED BY IDOCK:   -3.07 KCAL/MOL
REMARK 922        TOTAL FREE ENERGY PREDICTED BY IDOCK:   -4.30 KCAL/MOL
REMARK 923 INTER-LIGAND FREE ENERGY PREDICTED BY IDOCK:   -3.78 KCAL/MOL
REMARK 924 INTRA-LIGAND FREE ENERGY PREDICTED BY IDOCK:   -0.52 KCAL/MOL
REMARK 927      BINDING AFFINITY PREDICTED BY RF-SCORE:    0.00 PKD
ROOT
HETATM    1  C   UNL     1     -12.467  12.953  64.780  1.00  0.00    -0.517 C  
HETATM    2  C   UNL     1     -11.307  12.189  65.348  1.00  0.00    -0.388 A  
HETATM    3  C   UNL     1     -10.852  12.411  66.647  1.00  0.00    -0.281 A  
HETATM    4  C   UNL     1      -9.814  11.624  67.178  1.00  0.00    -0.205 A  
HETATM    5  C   UNL     1      -9.207  10.605  66.425  1.00  0.00    -0.168 A  
HETATM    6  C   UNL     1      -8.956   9.485  64.116  1.00  0.00    -0.240 C  
HETATM    7  C   UNL     1      -9.598  10.454  65.077  1.00  0.00    -0.339 A  
HETATM    8  C   UNL     1     -10.664  11.226  64.569  1.00  0.00    -0.390 A  
ENDROOT
BRANCH   5   9
HETATM    9  S   UNL     1      -7.943   9.530  67.119  1.00  0.00    -0.102 SA 
BRANCH   9  10
HETATM   10  C   UNL     1      -6.958  10.544  68.235  1.00  0.00    -0.073 A  
HETATM   11  C   UNL     1      -6.588  11.818  67.756  1.00  0.00    -0.075 A  
HETATM   12  C   UNL     1      -5.943  12.740  68.577  1.00  0.00    -0.062 A  
HETATM   13  C   UNL     1      -5.658  12.400  69.889  1.00  0.00    -0.113 A  
HETATM   14  C   UNL     1      -6.034  11.147  70.382  1.00  0.00    -0.144 A  
HETATM   15  C   UNL     1      -6.706  10.188  69.593  1.00  0.00    -0.076 A  
BRANCH  15  16
HETATM   16  N   UNL     1      -7.153   9.010  70.176  1.00  0.00    -0.047 NA 
HETATM   17  C   UNL     1      -8.467   8.908  70.833  1.00  0.00    -0.186 C  
HETATM   18  C   UNL     1      -9.074   7.512  70.541  1.00  0.00    -0.156 C  
HETATM   19  N   UNL     1      -8.191   6.378  70.889  1.00  0.00    -0.124 NA 
HETATM   20  C   UNL     1      -6.861   6.578  70.267  1.00  0.00    -0.058 C  
HETATM   21  H   UNL     1      -8.601   5.479  70.638  1.00  0.00     0.000 HD 
HETATM   22  C   UNL     1      -6.231   7.949  70.612  1.00  0.00    -0.037 C  
ENDBRANCH  15  16
ENDBRANCH   9  10
ENDBRANCH   5   9
TORSDOF 3
ENDMDL
MODEL      216
REMARK 921   NORMALIZED FREE ENERGY PREDICTED BY IDOCK:   -3.06 KCAL/MOL
REMARK 922        TOTAL FREE ENERGY PREDICTED BY IDOCK:   -4.29 KCAL/MOL
REMARK 923 INTER-LIGAND FREE ENERGY PREDICTED BY IDOCK:   -3.70 KCAL/MOL
REMARK 924 INTRA-LIGAND FREE ENERGY PREDICTED BY IDOCK:   -0.59 KCAL/MOL
REMARK 927      BINDING AFFINITY PREDICTED BY RF-SCORE:    0.00 PKD
ROOT
HETATM    1  C   UNL     1     -11.439  12.089  64.776  1.00  0.00    -0.357 C  
HETATM    2  C   UNL     1     -10.427  10.989  64.907  1.00  0.00    -0.371 A  
HETATM    3  C   UNL     1     -10.175  10.370  66.131  1.00  0.00    -0.288 A  
HETATM    4  C   UNL     1      -9.279   9.289  66.207  1.00  0.00    -0.236 A  
HETATM    5  C   UNL     1      -8.613   8.807  65.068  1.00  0.00    -0.169 A  
HETATM    6  C   UNL     1      -8.053   9.173  62.579  1.00  0.00    -0.146 C  
HETATM    7  C   UNL     1      -8.790   9.501  63.853  1.00  0.00    -0.240 A  
HETATM    8  C   UNL     1      -9.718  10.562  63.784  1.00  0.00    -0.385 A  
ENDROOT
BRANCH   5   9
HETATM    9  S   UNL     1      -7.536   7.367  65.132  1.00  0.00    -0.093 SA 
BRANCH   9  10
HETATM   10  C   UNL     1      -7.004   7.195  66.844  1.00  0.00    -0.077 A  
HETATM   11  C   UNL     1      -6.212   8.243  67.358  1.00  0.00    -0.056 A  
HETATM   12  C   UNL     1      -5.855   8.286  68.704  1.00  0.00    -0.040 A  
HETATM   13  C   UNL     1      -6.284   7.279  69.554  1.00  0.00    -0.031 A  
HETATM   14  C   UNL     1      -7.084   6.244  69.061  1.00  0.00    -0.081 A  
HETATM   15  C   UNL     1      -7.486   6.169  67.709  1.00  0.00    -0.089 A  
BRANCH  15  16
HETATM   16  N   UNL     1      -8.373   5.179  67.310  1.00  0.00    -0.107 NA 
HETATM   17  C   UNL     1      -9.803   5.450  67.081  1.00  0.00    -0.158 C  
HETATM   18  C   UNL     1     -10.292   4.613  65.872  1.00  0.00    -0.283 C  
HETATM   19  N   UNL     1     -10.012   3.165  65.981  1.00  0.00    -0.290 NA 
HETATM   20  C   UNL     1      -8.578   2.959  66.292  1.00  0.00    -0.116 C  
HETATM   21  H   UNL     1     -10.302   2.653  65.148  1.00  0.00     0.000 HD 
HETATM   22  C   UNL     1      -8.110   3.749  67.538  1.00  0.00    -0.090 C  
ENDBRANCH  15  16
ENDBRANCH   9  10
ENDBRANCH   5   9
TORSDOF 3
ENDMDL
MODEL      217
REMARK 921   NORMALIZED FREE ENERGY PREDICTED BY IDOCK:   -3.04 KCAL/MOL
REMARK 922        TOTAL FREE ENERGY PREDICTED BY IDOCK:   -4.26 KCAL/MOL
REMARK 923 INTER-LIGAND FREE ENERGY PREDICTED BY IDOCK:   -3.60 KCAL/MOL
REMARK 924 INTRA-LIGAND FREE ENERGY PREDICTED BY IDOCK:   -0.66 KCAL/MOL
REMARK 927      BINDING AFFINITY PREDICTED BY RF-SCORE:    0.00 PKD
ROOT
HETATM    1  C   UNL     1     -10.370   5.011  71.233  1.00  0.00    -0.255 C  
HETATM    2  C   UNL     1      -9.788   6.110  70.393  1.00  0.00    -0.214 A  
HETATM    3  C   UNL     1      -8.649   6.809  70.791  1.00  0.00    -0.141 A  
HETATM    4  C   UNL     1      -8.081   7.778  69.945  1.00  0.00    -0.120 A  
HETATM    5  C   UNL     1      -8.638   8.073  68.689  1.00  0.00    -0.128 A  
HETATM    6  C   UNL     1     -10.622   7.742  67.077  1.00  0.00    -0.396 C  
HETATM    7  C   UNL     1      -9.848   7.440  68.336  1.00  0.00    -0.165 A  
HETATM    8  C   UNL     1     -10.388   6.445  69.178  1.00  0.00    -0.248 A  
ENDROOT
BRANCH   5   9
HETATM    9  S   UNL     1      -7.872   9.242  67.557  1.00  0.00    -0.095 SA 
BRANCH   9  10
HETATM   10  C   UNL     1      -7.348  10.653  68.547  1.00  0.00    -0.090 A  
HETATM   11  C   UNL     1      -6.064  10.564  69.126  1.00  0.00    -0.041 A  
HETATM   12  C   UNL     1      -5.499  11.645  69.798  1.00  0.00    -0.076 A  
HETATM   13  C   UNL     1      -6.210  12.830  69.902  1.00  0.00    -0.084 A  
HETATM   14  C   UNL     1      -7.476  12.936  69.318  1.00  0.00     0.312 A  
HETATM   15  C   UNL     1      -8.081  11.874  68.611  1.00  0.00    -0.086 A  
BRANCH  15  16
HETATM   16  N   UNL     1      -9.288  12.083  67.959  1.00  0.00    -0.190 NA 
HETATM   17  C   UNL     1      -9.362  12.693  66.620  1.00  0.00    -0.236 C  
HETATM   18  C   UNL     1     -10.488  12.004  65.809  1.00  0.00    -0.254 C  
HETATM   19  N   UNL     1     -11.804  11.987  66.484  1.00  0.00    -0.605 NA 
HETATM   20  C   UNL     1     -11.651  11.440  67.853  1.00  0.00    -0.266 C  
HETATM   21  H   UNL     1     -12.508  11.484  65.945  1.00  0.00     0.000 HD 
HETATM   22  C   UNL     1     -10.568  12.173  68.680  1.00  0.00    -0.223 C  
ENDBRANCH  15  16
ENDBRANCH   9  10
ENDBRANCH   5   9
TORSDOF 3
ENDMDL
MODEL      218
REMARK 921   NORMALIZED FREE ENERGY PREDICTED BY IDOCK:   -3.02 KCAL/MOL
REMARK 922        TOTAL FREE ENERGY PREDICTED BY IDOCK:   -4.24 KCAL/MOL
REMARK 923 INTER-LIGAND FREE ENERGY PREDICTED BY IDOCK:   -3.45 KCAL/MOL
REMARK 924 INTRA-LIGAND FREE ENERGY PREDICTED BY IDOCK:   -0.79 KCAL/MOL
REMARK 927      BINDING AFFINITY PREDICTED BY RF-SCORE:    0.00 PKD
ROOT
HETATM    1  C   UNL     1      -5.325   8.709  63.540  1.00  0.00    -0.062 C  
HETATM    2  C   UNL     1      -6.160   9.438  64.552  1.00  0.00    -0.077 A  
HETATM    3  C   UNL     1      -5.582  10.266  65.515  1.00  0.00    -0.090 A  
HETATM    4  C   UNL     1      -6.395  10.997  66.400  1.00  0.00    -0.133 A  
HETATM    5  C   UNL     1      -7.796  10.915  66.346  1.00  0.00    -0.154 A  
HETATM    6  C   UNL     1      -9.852   9.717  65.354  1.00  0.00    -0.322 C  
HETATM    7  C   UNL     1      -8.373   9.998  65.442  1.00  0.00    -0.154 A  
HETATM    8  C   UNL     1      -7.548   9.297  64.537  1.00  0.00    -0.107 A  
ENDROOT
BRANCH   5   9
HETATM    9  S   UNL     1      -8.851  11.914  67.408  1.00  0.00    -0.179 SA 
BRANCH   9  10
HETATM   10  C   UNL     1      -9.271  13.395  66.474  1.00  0.00    -0.169 A  
HETATM   11  C   UNL     1     -10.370  13.287  65.596  1.00  0.00    -0.292 A  
HETATM   12  C   UNL     1     -10.870  14.399  64.923  1.00  0.00    -0.430 A  
HETATM   13  C   UNL     1     -10.277  15.636  65.119  1.00  0.00    -0.297 A  
HETATM   14  C   UNL     1      -9.198  15.760  65.999  1.00  0.00    -0.379 A  
HETATM   15  C   UNL     1      -8.670  14.665  66.716  1.00  0.00    -0.203 A  
BRANCH  15  16
HETATM   16  N   UNL     1      -7.673  14.878  67.660  1.00  0.00    -0.162 NA 
HETATM   17  C   UNL     1      -7.976  15.262  69.049  1.00  0.00    -0.195 C  
HETATM   18  C   UNL     1      -6.975  14.560  70.001  1.00  0.00    -0.019 C  
HETATM   19  N   UNL     1      -5.553  14.782  69.661  1.00  0.00    -0.094 NA 
HETATM   20  C   UNL     1      -5.328  14.457  68.233  1.00  0.00    -0.114 C  
HETATM   21  H   UNL     1      -4.925  14.266  70.276  1.00  0.00     0.000 HD 
HETATM   22  C   UNL     1      -6.290  15.208  67.282  1.00  0.00     0.187 C  
ENDBRANCH  15  16
ENDBRANCH   9  10
ENDBRANCH   5   9
TORSDOF 3
ENDMDL
MODEL      219
REMARK 921   NORMALIZED FREE ENERGY PREDICTED BY IDOCK:   -3.02 KCAL/MOL
REMARK 922        TOTAL FREE ENERGY PREDICTED BY IDOCK:   -4.24 KCAL/MOL
REMARK 923 INTER-LIGAND FREE ENERGY PREDICTED BY IDOCK:   -3.48 KCAL/MOL
REMARK 924 INTRA-LIGAND FREE ENERGY PREDICTED BY IDOCK:   -0.75 KCAL/MOL
REMARK 927      BINDING AFFINITY PREDICTED BY RF-SCORE:    0.00 PKD
ROOT
HETATM    1  C   UNL     1      -5.157  13.625  73.017  1.00  0.00    -0.157 C  
HETATM    2  C   UNL     1      -5.616  13.616  71.588  1.00  0.00    -0.165 A  
HETATM    3  C   UNL     1      -5.569  12.457  70.813  1.00  0.00    -0.150 A  
HETATM    4  C   UNL     1      -6.079  12.460  69.502  1.00  0.00    -0.117 A  
HETATM    5  C   UNL     1      -6.643  13.617  68.938  1.00  0.00    -0.105 A  
HETATM    6  C   UNL     1      -7.052  16.152  69.167  1.00  0.00    -0.209 C  
HETATM    7  C   UNL     1      -6.594  14.812  69.686  1.00  0.00    -0.161 A  
HETATM    8  C   UNL     1      -6.111  14.786  71.012  1.00  0.00     0.039 A  
ENDROOT
BRANCH   5   9
HETATM    9  S   UNL     1      -7.384  13.613  67.299  1.00  0.00     0.125 SA 
BRANCH   9  10
HETATM   10  C   UNL     1      -9.169  13.593  67.538  1.00  0.00    -0.218 A  
HETATM   11  C   UNL     1      -9.856  14.777  67.197  1.00  0.00    -0.232 A  
HETATM   12  C   UNL     1     -11.248  14.835  67.212  1.00  0.00    -0.351 A  
HETATM   13  C   UNL     1     -11.972  13.709  67.570  1.00  0.00    -0.393 A  
HETATM   14  C   UNL     1     -11.304  12.524  67.893  1.00  0.00    -0.343 A  
HETATM   15  C   UNL     1      -9.896  12.413  67.874  1.00  0.00    -0.202 A  
BRANCH  15  16
HETATM   16  N   UNL     1      -9.302  11.178  68.093  1.00  0.00    -0.170 NA 
HETATM   17  C   UNL     1      -8.872  10.305  66.988  1.00  0.00    -0.136 C  
HETATM   18  C   UNL     1      -7.551   9.598  67.382  1.00  0.00    -0.095 C  
HETATM   19  N   UNL     1      -7.607   8.875  68.671  1.00  0.00    -0.094 NA 
HETATM   20  C   UNL     1      -8.123   9.780  69.725  1.00  0.00    -0.167 C  
HETATM   21  H   UNL     1      -6.708   8.465  68.922  1.00  0.00     0.000 HD 
HETATM   22  C   UNL     1      -9.474  10.435  69.352  1.00  0.00    -0.183 C  
ENDBRANCH  15  16
ENDBRANCH   9  10
ENDBRANCH   5   9
TORSDOF 3
ENDMDL
MODEL      220
REMARK 921   NORMALIZED FREE ENERGY PREDICTED BY IDOCK:   -3.00 KCAL/MOL
REMARK 922        TOTAL FREE ENERGY PREDICTED BY IDOCK:   -4.22 KCAL/MOL
REMARK 923 INTER-LIGAND FREE ENERGY PREDICTED BY IDOCK:   -3.59 KCAL/MOL
REMARK 924 INTRA-LIGAND FREE ENERGY PREDICTED BY IDOCK:   -0.63 KCAL/MOL
REMARK 927      BINDING AFFINITY PREDICTED BY RF-SCORE:    0.00 PKD
ROOT
HETATM    1  C   UNL     1      -6.402  12.534  69.339  1.00  0.00    -0.114 C  
HETATM    2  C   UNL     1      -7.341  11.411  69.009  1.00  0.00    -0.108 A  
HETATM    3  C   UNL     1      -7.345  10.223  69.739  1.00  0.00    -0.167 A  
HETATM    4  C   UNL     1      -8.290   9.221  69.457  1.00  0.00    -0.131 A  
HETATM    5  C   UNL     1      -9.246   9.380  68.441  1.00  0.00    -0.127 A  
HETATM    6  C   UNL     1     -10.055  10.789  66.438  1.00  0.00    -0.278 C  
HETATM    7  C   UNL     1      -9.173  10.536  67.636  1.00  0.00    -0.153 A  
HETATM    8  C   UNL     1      -8.242  11.549  67.952  1.00  0.00    -0.134 A  
ENDROOT
BRANCH   5   9
HETATM    9  S   UNL     1     -10.520   8.148  68.129  1.00  0.00    -0.127 SA 
BRANCH   9  10
HETATM   10  C   UNL     1     -10.530   7.043  69.551  1.00  0.00    -0.220 A  
HETATM   11  C   UNL     1     -11.338   7.437  70.639  1.00  0.00    -0.304 A  
HETATM   12  C   UNL     1     -11.530   6.600  71.736  1.00  0.00    -0.334 A  
HETATM   13  C   UNL     1     -10.916   5.358  71.760  1.00  0.00    -0.198 A  
HETATM   14  C   UNL     1     -10.128   4.949  70.681  1.00  0.00    -0.306 A  
HETATM   15  C   UNL     1      -9.920   5.755  69.540  1.00  0.00    -0.191 A  
BRANCH  15  16
HETATM   16  N   UNL     1      -9.221   5.242  68.456  1.00  0.00    -0.110 NA 
HETATM   17  C   UNL     1      -7.810   5.581  68.199  1.00  0.00    -0.092 C  
HETATM   18  C   UNL     1      -7.078   4.329  67.653  1.00  0.00    -0.064 C  
HETATM   19  N   UNL     1      -7.724   3.710  66.475  1.00  0.00    -0.084 NA 
HETATM   20  C   UNL     1      -9.157   3.469  66.765  1.00  0.00    -0.164 C  
HETATM   21  H   UNL     1      -7.244   2.862  66.174  1.00  0.00     0.000 HD 
HETATM   22  C   UNL     1      -9.898   4.737  67.251  1.00  0.00    -0.184 C  
ENDBRANCH  15  16
ENDBRANCH   9  10
ENDBRANCH   5   9
TORSDOF 3
ENDMDL
MODEL      221
REMARK 921   NORMALIZED FREE ENERGY PREDICTED BY IDOCK:   -2.99 KCAL/MOL
REMARK 922        TOTAL FREE ENERGY PREDICTED BY IDOCK:   -4.21 KCAL/MOL
REMARK 923 INTER-LIGAND FREE ENERGY PREDICTED BY IDOCK:   -3.88 KCAL/MOL
REMARK 924 INTRA-LIGAND FREE ENERGY PREDICTED BY IDOCK:   -0.33 KCAL/MOL
REMARK 927      BINDING AFFINITY PREDICTED BY RF-SCORE:    0.00 PKD
ROOT
HETATM    1  C   UNL     1     -11.918  12.540  63.899  1.00  0.00    -0.563 C  
HETATM    2  C   UNL     1     -10.914  11.663  64.589  1.00  0.00    -0.363 A  
HETATM    3  C   UNL     1     -10.918  11.500  65.974  1.00  0.00    -0.316 A  
HETATM    4  C   UNL     1     -10.015  10.610  66.585  1.00  0.00    -0.259 A  
HETATM    5  C   UNL     1      -9.090   9.871  65.829  1.00  0.00    -0.168 A  
HETATM    6  C   UNL     1      -8.001   9.488  63.524  1.00  0.00    -0.139 C  
HETATM    7  C   UNL     1      -9.019  10.117  64.442  1.00  0.00    -0.264 A  
HETATM    8  C   UNL     1      -9.953  10.986  63.838  1.00  0.00    -0.396 A  
ENDROOT
BRANCH   5   9
HETATM    9  S   UNL     1      -7.993   8.662  66.584  1.00  0.00    -0.097 SA 
BRANCH   9  10
HETATM   10  C   UNL     1      -9.040   7.498  67.474  1.00  0.00    -0.125 A  
HETATM   11  C   UNL     1      -9.859   8.044  68.484  1.00  0.00    -0.185 A  
HETATM   12  C   UNL     1     -10.805   7.266  69.146  1.00  0.00    -0.156 A  
HETATM   13  C   UNL     1     -10.945   5.930  68.808  1.00  0.00    -0.311 A  
HETATM   14  C   UNL     1     -10.152   5.380  67.796  1.00  0.00    -0.215 A  
HETATM   15  C   UNL     1      -9.193   6.134  67.085  1.00  0.00    -0.118 A  
BRANCH  15  16
HETATM   16  N   UNL     1      -8.521   5.557  66.017  1.00  0.00    -0.121 NA 
HETATM   17  C   UNL     1      -8.902   5.815  64.617  1.00  0.00     0.162 C  
HETATM   18  C   UNL     1      -7.622   5.893  63.747  1.00  0.00    -0.082 C  
HETATM   19  N   UNL     1      -6.727   4.722  63.872  1.00  0.00    -0.042 NA 
HETATM   20  C   UNL     1      -6.446   4.465  65.304  1.00  0.00    -0.036 C  
HETATM   21  H   UNL     1      -5.873   4.830  63.326  1.00  0.00     0.000 HD 
HETATM   22  C   UNL     1      -7.729   4.325  66.158  1.00  0.00    -0.090 C  
ENDBRANCH  15  16
ENDBRANCH   9  10
ENDBRANCH   5   9
TORSDOF 3
ENDMDL
MODEL      222
REMARK 921   NORMALIZED FREE ENERGY PREDICTED BY IDOCK:   -2.96 KCAL/MOL
REMARK 922        TOTAL FREE ENERGY PREDICTED BY IDOCK:   -4.17 KCAL/MOL
REMARK 923 INTER-LIGAND FREE ENERGY PREDICTED BY IDOCK:   -4.08 KCAL/MOL
REMARK 924 INTRA-LIGAND FREE ENERGY PREDICTED BY IDOCK:   -0.09 KCAL/MOL
REMARK 927      BINDING AFFINITY PREDICTED BY RF-SCORE:    0.00 PKD
ROOT
HETATM    1  C   UNL     1      -5.158  13.247  72.516  1.00  0.00    -0.041 C  
HETATM    2  C   UNL     1      -5.598  12.861  71.134  1.00  0.00    -0.094 A  
HETATM    3  C   UNL     1      -5.492  11.548  70.674  1.00  0.00    -0.142 A  
HETATM    4  C   UNL     1      -5.986  11.201  69.403  1.00  0.00    -0.057 A  
HETATM    5  C   UNL     1      -6.591  12.154  68.566  1.00  0.00    -0.063 A  
HETATM    6  C   UNL     1      -7.108  14.646  68.153  1.00  0.00    -0.127 C  
HETATM    7  C   UNL     1      -6.601  13.499  68.992  1.00  0.00    -0.110 A  
HETATM    8  C   UNL     1      -6.134  13.827  70.282  1.00  0.00    -0.133 A  
ENDROOT
BRANCH   5   9
HETATM    9  S   UNL     1      -7.310  11.708  66.979  1.00  0.00    -0.126 SA 
BRANCH   9  10
HETATM   10  C   UNL     1      -8.414  10.318  67.284  1.00  0.00    -0.125 A  
HETATM   11  C   UNL     1      -7.990   9.389  68.257  1.00  0.00    -0.094 A  
HETATM   12  C   UNL     1      -8.819   8.349  68.672  1.00  0.00    -0.136 A  
HETATM   13  C   UNL     1     -10.084   8.225  68.120  1.00  0.00    -0.238 A  
HETATM   14  C   UNL     1     -10.523   9.150  67.168  1.00  0.00    -0.325 A  
HETATM   15  C   UNL     1      -9.725  10.229  66.730  1.00  0.00    -0.185 A  
BRANCH  15  16
HETATM   16  N   UNL     1     -10.263  11.176  65.869  1.00  0.00    -0.244 NA 
HETATM   17  C   UNL     1     -11.025  12.339  66.356  1.00  0.00    -0.287 C  
HETATM   18  C   UNL     1     -10.693  13.569  65.475  1.00  0.00    -0.290 C  
HETATM   19  N   UNL     1     -10.883  13.350  64.024  1.00  0.00    -0.553 NA 
HETATM   20  C   UNL     1     -10.162  12.123  63.610  1.00  0.00    -0.433 C  
HETATM   21  H   UNL     1     -10.609  14.162  63.473  1.00  0.00     0.000 HD 
HETATM   22  C   UNL     1     -10.544  10.884  64.454  1.00  0.00    -0.273 C  
ENDBRANCH  15  16
ENDBRANCH   9  10
ENDBRANCH   5   9
TORSDOF 3
ENDMDL
MODEL      223
REMARK 921   NORMALIZED FREE ENERGY PREDICTED BY IDOCK:   -2.95 KCAL/MOL
REMARK 922        TOTAL FREE ENERGY PREDICTED BY IDOCK:   -4.16 KCAL/MOL
REMARK 923 INTER-LIGAND FREE ENERGY PREDICTED BY IDOCK:   -3.66 KCAL/MOL
REMARK 924 INTRA-LIGAND FREE ENERGY PREDICTED BY IDOCK:   -0.50 KCAL/MOL
REMARK 927      BINDING AFFINITY PREDICTED BY RF-SCORE:    0.00 PKD
ROOT
HETATM    1  C   UNL     1      -5.977  13.568  67.836  1.00  0.00    -0.143 C  
HETATM    2  C   UNL     1      -6.299  12.140  68.163  1.00  0.00    -0.055 A  
HETATM    3  C   UNL     1      -6.487  11.715  69.478  1.00  0.00    -0.122 A  
HETATM    4  C   UNL     1      -6.866  10.388  69.747  1.00  0.00    -0.130 A  
HETATM    5  C   UNL     1      -7.062   9.457  68.713  1.00  0.00    -0.069 A  
HETATM    6  C   UNL     1      -6.820   8.942  66.198  1.00  0.00    -0.074 C  
HETATM    7  C   UNL     1      -6.770   9.862  67.393  1.00  0.00    -0.074 A  
HETATM    8  C   UNL     1      -6.424  11.205  67.135  1.00  0.00    -0.090 A  
ENDROOT
BRANCH   5   9
HETATM    9  S   UNL     1      -7.636   7.783  69.033  1.00  0.00    -0.102 SA 
BRANCH   9  10
HETATM   10  C   UNL     1      -8.301   7.776  70.707  1.00  0.00    -0.116 A  
HETATM   11  C   UNL     1      -7.455   7.258  71.710  1.00  0.00    -0.084 A  
HETATM   12  C   UNL     1      -7.807   7.324  73.056  1.00  0.00    -0.113 A  
HETATM   13  C   UNL     1      -9.009   7.909  73.418  1.00  0.00    -0.339 A  
HETATM   14  C   UNL     1      -9.849   8.442  72.435  1.00  0.00    -0.378 A  
HETATM   15  C   UNL     1      -9.526   8.414  71.061  1.00  0.00    -0.170 A  
BRANCH  15  16
HETATM   16  N   UNL     1     -10.348   9.062  70.149  1.00  0.00    -0.200 NA 
HETATM   17  C   UNL     1     -11.116  10.269  70.503  1.00  0.00    -0.306 C  
HETATM   18  C   UNL     1     -11.134  11.234  69.291  1.00  0.00    -0.255 C  
HETATM   19  N   UNL     1     -11.611  10.622  68.031  1.00  0.00    -0.686 NA 
HETATM   20  C   UNL     1     -10.858   9.372  67.772  1.00  0.00    -0.159 C  
HETATM   21  H   UNL     1     -11.562  11.270  67.246  1.00  0.00     0.000 HD 
HETATM   22  C   UNL     1     -10.896   8.385  68.963  1.00  0.00     0.009 C  
ENDBRANCH  15  16
ENDBRANCH   9  10
ENDBRANCH   5   9
TORSDOF 3
ENDMDL
MODEL      224
REMARK 921   NORMALIZED FREE ENERGY PREDICTED BY IDOCK:   -2.95 KCAL/MOL
REMARK 922        TOTAL FREE ENERGY PREDICTED BY IDOCK:   -4.15 KCAL/MOL
REMARK 923 INTER-LIGAND FREE ENERGY PREDICTED BY IDOCK:   -3.75 KCAL/MOL
REMARK 924 INTRA-LIGAND FREE ENERGY PREDICTED BY IDOCK:   -0.40 KCAL/MOL
REMARK 927      BINDING AFFINITY PREDICTED BY RF-SCORE:    0.00 PKD
ROOT
HETATM    1  C   UNL     1      -8.848   6.732  66.065  1.00  0.00    -0.150 C  
HETATM    2  C   UNL     1      -8.689   6.788  67.556  1.00  0.00    -0.119 A  
HETATM    3  C   UNL     1      -9.243   5.815  68.387  1.00  0.00    -0.121 A  
HETATM    4  C   UNL     1      -9.011   5.851  69.774  1.00  0.00    -0.135 A  
HETATM    5  C   UNL     1      -8.227   6.859  70.360  1.00  0.00    -0.124 A  
HETATM    6  C   UNL     1      -7.004   9.105  70.035  1.00  0.00    -0.054 C  
HETATM    7  C   UNL     1      -7.756   7.899  69.531  1.00  0.00    -0.104 A  
HETATM    8  C   UNL     1      -7.968   7.831  68.137  1.00  0.00    -0.122 A  
ENDROOT
BRANCH   5   9
HETATM    9  S   UNL     1      -7.843   6.868  72.117  1.00  0.00    -0.094 SA 
BRANCH   9  10
HETATM   10  C   UNL     1      -8.770   5.511  72.855  1.00  0.00    -0.118 A  
HETATM   11  C   UNL     1      -8.004   4.480  73.440  1.00  0.00    -0.095 A  
HETATM   12  C   UNL     1      -8.607   3.449  74.156  1.00  0.00    -0.087 A  
HETATM   13  C   UNL     1      -9.986   3.435  74.297  1.00  0.00    -0.176 A  
HETATM   14  C   UNL     1     -10.755   4.460  73.738  1.00  0.00    -0.344 A  
HETATM   15  C   UNL     1     -10.186   5.534  73.020  1.00  0.00    -0.188 A  
BRANCH  15  16
HETATM   16  N   UNL     1     -10.994   6.577  72.590  1.00  0.00    -0.245 NA 
HETATM   17  C   UNL     1     -10.803   7.962  73.055  1.00  0.00    -0.342 C  
HETATM   18  C   UNL     1     -11.083   8.935  71.882  1.00  0.00    -0.372 C  
HETATM   19  N   UNL     1     -12.397   8.744  71.230  1.00  0.00    -0.350 NA 
HETATM   20  C   UNL     1     -12.564   7.319  70.860  1.00  0.00    -0.193 C  
HETATM   21  H   UNL     1     -12.526   9.366  70.433  1.00  0.00     0.000 HD 
HETATM   22  C   UNL     1     -12.345   6.355  72.050  1.00  0.00    -0.216 C  
ENDBRANCH  15  16
ENDBRANCH   9  10
ENDBRANCH   5   9
TORSDOF 3
ENDMDL
MODEL      225
REMARK 921   NORMALIZED FREE ENERGY PREDICTED BY IDOCK:   -2.91 KCAL/MOL
REMARK 922        TOTAL FREE ENERGY PREDICTED BY IDOCK:   -4.11 KCAL/MOL
REMARK 923 INTER-LIGAND FREE ENERGY PREDICTED BY IDOCK:   -3.22 KCAL/MOL
REMARK 924 INTRA-LIGAND FREE ENERGY PREDICTED BY IDOCK:   -0.89 KCAL/MOL
REMARK 927      BINDING AFFINITY PREDICTED BY RF-SCORE:    0.00 PKD
ROOT
HETATM    1  C   UNL     1     -11.878  13.138  63.637  1.00  0.00    -0.549 C  
HETATM    2  C   UNL     1     -11.345  12.609  64.936  1.00  0.00    -0.347 A  
HETATM    3  C   UNL     1     -10.638  11.409  65.001  1.00  0.00    -0.359 A  
HETATM    4  C   UNL     1     -10.083  10.978  66.219  1.00  0.00    -0.282 A  
HETATM    5  C   UNL     1     -10.224  11.732  67.396  1.00  0.00    -0.199 A  
HETATM    6  C   UNL     1     -11.364  13.733  68.554  1.00  0.00    -0.318 C  
HETATM    7  C   UNL     1     -11.027  12.891  67.349  1.00  0.00    -0.288 A  
HETATM    8  C   UNL     1     -11.549  13.329  66.114  1.00  0.00    -0.385 A  
ENDROOT
BRANCH   5   9
HETATM    9  S   UNL     1      -9.441  11.243  68.940  1.00  0.00    -0.020 SA 
BRANCH   9  10
HETATM   10  C   UNL     1      -7.734  10.825  68.546  1.00  0.00    -0.118 A  
HETATM   11  C   UNL     1      -7.459   9.455  68.345  1.00  0.00    -0.078 A  
HETATM   12  C   UNL     1      -6.209   9.027  67.905  1.00  0.00    -0.051 A  
HETATM   13  C   UNL     1      -5.217   9.962  67.660  1.00  0.00    -0.035 A  
HETATM   14  C   UNL     1      -5.481  11.323  67.838  1.00  0.00    -0.043 A  
HETATM   15  C   UNL     1      -6.738  11.805  68.265  1.00  0.00    -0.065 A  
BRANCH  15  16
HETATM   16  N   UNL     1      -6.969  13.173  68.311  1.00  0.00    -0.093 NA 
HETATM   17  C   UNL     1      -6.798  14.039  67.131  1.00  0.00     0.461 C  
HETATM   18  C   UNL     1      -7.899  15.128  67.136  1.00  0.00    -0.205 C  
HETATM   19  N   UNL     1      -7.980  15.909  68.390  1.00  0.00    -0.142 NA 
HETATM   20  C   UNL     1      -8.069  14.983  69.544  1.00  0.00    -0.122 C  
HETATM   21  H   UNL     1      -8.747  16.581  68.376  1.00  0.00     0.000 HD 
HETATM   22  C   UNL     1      -6.930  13.936  69.568  1.00  0.00     0.021 C  
ENDBRANCH  15  16
ENDBRANCH   9  10
ENDBRANCH   5   9
TORSDOF 3
ENDMDL
MODEL      226
REMARK 921   NORMALIZED FREE ENERGY PREDICTED BY IDOCK:   -2.90 KCAL/MOL
REMARK 922        TOTAL FREE ENERGY PREDICTED BY IDOCK:   -4.10 KCAL/MOL
REMARK 923 INTER-LIGAND FREE ENERGY PREDICTED BY IDOCK:   -3.44 KCAL/MOL
REMARK 924 INTRA-LIGAND FREE ENERGY PREDICTED BY IDOCK:   -0.66 KCAL/MOL
REMARK 927      BINDING AFFINITY PREDICTED BY RF-SCORE:    0.00 PKD
ROOT
HETATM    1  C   UNL     1      -6.192  11.148  70.132  1.00  0.00    -0.147 C  
HETATM    2  C   UNL     1      -7.180  10.051  69.863  1.00  0.00    -0.145 A  
HETATM    3  C   UNL     1      -6.897   8.720  70.170  1.00  0.00    -0.040 A  
HETATM    4  C   UNL     1      -7.873   7.726  69.979  1.00  0.00    -0.103 A  
HETATM    5  C   UNL     1      -9.148   8.037  69.477  1.00  0.00    -0.152 A  
HETATM    6  C   UNL     1     -10.671   9.821  68.407  1.00  0.00    -0.262 C  
HETATM    7  C   UNL     1      -9.395   9.365  69.070  1.00  0.00    -0.153 A  
HETATM    8  C   UNL     1      -8.419  10.358  69.299  1.00  0.00    -0.162 A  
ENDROOT
BRANCH   5   9
HETATM    9  S   UNL     1     -10.437   6.793  69.315  1.00  0.00    -0.229 SA 
BRANCH   9  10
HETATM   10  C   UNL     1     -10.243   5.663  70.704  1.00  0.00    -0.227 A  
HETATM   11  C   UNL     1     -11.016   5.946  71.850  1.00  0.00    -0.321 A  
HETATM   12  C   UNL     1     -11.051   5.071  72.932  1.00  0.00    -0.348 A  
HETATM   13  C   UNL     1     -10.312   3.900  72.884  1.00  0.00    -0.241 A  
HETATM   14  C   UNL     1      -9.555   3.598  71.748  1.00  0.00    -0.221 A  
HETATM   15  C   UNL     1      -9.504   4.446  70.620  1.00  0.00    -0.172 A  
BRANCH  15  16
HETATM   16  N   UNL     1      -8.826   4.034  69.481  1.00  0.00    -0.084 NA 
HETATM   17  C   UNL     1      -9.526   3.495  68.302  1.00  0.00    -0.148 C  
HETATM   18  C   UNL     1      -8.810   3.985  67.018  1.00  0.00    -0.122 C  
HETATM   19  N   UNL     1      -7.359   3.699  66.982  1.00  0.00    -0.067 NA 
HETATM   20  C   UNL     1      -6.726   4.191  68.228  1.00  0.00    -0.047 C  
HETATM   21  H   UNL     1      -6.913   4.079  66.147  1.00  0.00     0.000 HD 
HETATM   22  C   UNL     1      -7.406   3.648  69.507  1.00  0.00    -0.049 C  
ENDBRANCH  15  16
ENDBRANCH   9  10
ENDBRANCH   5   9
TORSDOF 3
ENDMDL
MODEL      227
REMARK 921   NORMALIZED FREE ENERGY PREDICTED BY IDOCK:   -2.88 KCAL/MOL
REMARK 922        TOTAL FREE ENERGY PREDICTED BY IDOCK:   -4.08 KCAL/MOL
REMARK 923 INTER-LIGAND FREE ENERGY PREDICTED BY IDOCK:   -4.34 KCAL/MOL
REMARK 924 INTRA-LIGAND FREE ENERGY PREDICTED BY IDOCK:    0.26 KCAL/MOL
REMARK 927      BINDING AFFINITY PREDICTED BY RF-SCORE:    0.00 PKD
ROOT
HETATM    1  C   UNL     1     -14.118   9.331  72.497  1.00  0.00    -0.319 C  
HETATM    2  C   UNL     1     -12.893   8.838  71.784  1.00  0.00    -0.406 A  
HETATM    3  C   UNL     1     -12.421   7.537  71.958  1.00  0.00    -0.289 A  
HETATM    4  C   UNL     1     -11.318   7.079  71.215  1.00  0.00    -0.309 A  
HETATM    5  C   UNL     1     -10.662   7.907  70.289  1.00  0.00    -0.236 A  
HETATM    6  C   UNL     1     -10.394  10.286  69.332  1.00  0.00    -0.256 C  
HETATM    7  C   UNL     1     -11.076   9.252  70.193  1.00  0.00    -0.260 A  
HETATM    8  C   UNL     1     -12.205   9.688  70.918  1.00  0.00    -0.368 A  
ENDROOT
BRANCH   5   9
HETATM    9  S   UNL     1      -9.310   7.308  69.266  1.00  0.00    -0.153 SA 
BRANCH   9  10
HETATM   10  C   UNL     1      -8.574   5.917  70.142  1.00  0.00    -0.134 A  
HETATM   11  C   UNL     1      -8.104   6.182  71.446  1.00  0.00    -0.118 A  
HETATM   12  C   UNL     1      -7.639   5.158  72.268  1.00  0.00    -0.096 A  
HETATM   13  C   UNL     1      -7.638   3.855  71.797  1.00  0.00    -0.061 A  
HETATM   14  C   UNL     1      -8.118   3.577  70.514  1.00  0.00    -0.063 A  
HETATM   15  C   UNL     1      -8.615   4.579  69.652  1.00  0.00    -0.076 A  
BRANCH  15  16
HETATM   16  N   UNL     1      -9.182   4.220  68.437  1.00  0.00    -0.129 NA 
HETATM   17  C   UNL     1     -10.279   4.989  67.825  1.00  0.00    -0.096 C  
HETATM   18  C   UNL     1     -10.083   5.020  66.288  1.00  0.00    -0.247 C  
HETATM   19  N   UNL     1      -9.923   3.687  65.666  1.00  0.00    -0.403 NA 
HETATM   20  C   UNL     1      -8.863   2.933  66.375  1.00  0.00    -0.145 C  
HETATM   21  H   UNL     1      -9.747   3.749  64.664  1.00  0.00     0.000 HD 
HETATM   22  C   UNL     1      -9.098   2.852  67.903  1.00  0.00    -0.180 C  
ENDBRANCH  15  16
ENDBRANCH   9  10
ENDBRANCH   5   9
TORSDOF 3
ENDMDL
MODEL      228
REMARK 921   NORMALIZED FREE ENERGY PREDICTED BY IDOCK:   -2.88 KCAL/MOL
REMARK 922        TOTAL FREE ENERGY PREDICTED BY IDOCK:   -4.07 KCAL/MOL
REMARK 923 INTER-LIGAND FREE ENERGY PREDICTED BY IDOCK:   -3.58 KCAL/MOL
REMARK 924 INTRA-LIGAND FREE ENERGY PREDICTED BY IDOCK:   -0.49 KCAL/MOL
REMARK 927      BINDING AFFINITY PREDICTED BY RF-SCORE:    0.00 PKD
ROOT
HETATM    1  C   UNL     1     -11.133   5.020  73.649  1.00  0.00    -0.336 C  
HETATM    2  C   UNL     1     -10.996   5.423  72.210  1.00  0.00    -0.277 A  
HETATM    3  C   UNL     1     -11.814   6.401  71.644  1.00  0.00    -0.361 A  
HETATM    4  C   UNL     1     -11.610   6.814  70.315  1.00  0.00    -0.417 A  
HETATM    5  C   UNL     1     -10.591   6.258  69.523  1.00  0.00    -0.271 A  
HETATM    6  C   UNL     1      -8.791   4.427  69.294  1.00  0.00    -0.133 C  
HETATM    7  C   UNL     1      -9.835   5.196  70.064  1.00  0.00    -0.295 A  
HETATM    8  C   UNL     1     -10.028   4.817  71.409  1.00  0.00    -0.267 A  
ENDROOT
BRANCH   5   9
HETATM    9  S   UNL     1     -10.257   6.840  67.854  1.00  0.00    -0.189 SA 
BRANCH   9  10
HETATM   10  C   UNL     1      -9.383   8.406  68.017  1.00  0.00    -0.136 A  
HETATM   11  C   UNL     1      -9.688   9.173  69.162  1.00  0.00    -0.163 A  
HETATM   12  C   UNL     1      -8.980  10.334  69.463  1.00  0.00    -0.176 A  
HETATM   13  C   UNL     1      -7.957  10.744  68.624  1.00  0.00    -0.133 A  
HETATM   14  C   UNL     1      -7.633   9.984  67.496  1.00  0.00    -0.091 A  
HETATM   15  C   UNL     1      -8.310   8.791  67.161  1.00  0.00    -0.103 A  
BRANCH  15  16
HETATM   16  N   UNL     1      -7.863   8.025  66.093  1.00  0.00    -0.090 NA 
HETATM   17  C   UNL     1      -6.801   7.015  66.241  1.00  0.00    -0.061 C  
HETATM   18  C   UNL     1      -7.131   5.795  65.344  1.00  0.00    -0.069 C  
HETATM   19  N   UNL     1      -7.384   6.132  63.926  1.00  0.00    -0.062 NA 
HETATM   20  C   UNL     1      -8.399   7.208  63.846  1.00  0.00     0.195 C  
HETATM   21  H   UNL     1      -7.646   5.313  63.377  1.00  0.00     0.000 HD 
HETATM   22  C   UNL     1      -8.034   8.449  64.694  1.00  0.00    -0.147 C  
ENDBRANCH  15  16
ENDBRANCH   9  10
ENDBRANCH   5   9
TORSDOF 3
ENDMDL
MODEL      229
REMARK 921   NORMALIZED FREE ENERGY PREDICTED BY IDOCK:   -2.86 KCAL/MOL
REMARK 922        TOTAL FREE ENERGY PREDICTED BY IDOCK:   -4.05 KCAL/MOL
REMARK 923 INTER-LIGAND FREE ENERGY PREDICTED BY IDOCK:   -3.45 KCAL/MOL
REMARK 924 INTRA-LIGAND FREE ENERGY PREDICTED BY IDOCK:   -0.61 KCAL/MOL
REMARK 927      BINDING AFFINITY PREDICTED BY RF-SCORE:    0.00 PKD
ROOT
HETATM    1  C   UNL     1      -8.484   9.142  62.719  1.00  0.00    -0.211 C  
HETATM    2  C   UNL     1      -8.908   9.152  64.158  1.00  0.00    -0.127 A  
HETATM    3  C   UNL     1      -8.529   8.138  65.038  1.00  0.00    -0.117 A  
HETATM    4  C   UNL     1      -8.876   8.215  66.399  1.00  0.00    -0.182 A  
HETATM    5  C   UNL     1      -9.609   9.299  66.908  1.00  0.00    -0.174 A  
HETATM    6  C   UNL     1     -10.974  11.422  66.379  1.00  0.00    -0.315 C  
HETATM    7  C   UNL     1     -10.079  10.269  65.998  1.00  0.00    -0.311 A  
HETATM    8  C   UNL     1      -9.695  10.197  64.642  1.00  0.00    -0.377 A  
ENDROOT
BRANCH   5   9
HETATM    9  S   UNL     1      -9.980   9.459  68.661  1.00  0.00    -0.179 SA 
BRANCH   9  10
HETATM   10  C   UNL     1      -8.671   8.596  69.548  1.00  0.00    -0.139 A  
HETATM   11  C   UNL     1      -9.050   7.420  70.228  1.00  0.00    -0.151 A  
HETATM   12  C   UNL     1      -8.103   6.598  70.834  1.00  0.00    -0.119 A  
HETATM   13  C   UNL     1      -6.763   6.943  70.770  1.00  0.00    -0.054 A  
HETATM   14  C   UNL     1      -6.371   8.097  70.084  1.00  0.00    -0.032 A  
HETATM   15  C   UNL     1      -7.294   8.949  69.439  1.00  0.00    -0.075 A  
BRANCH  15  16
HETATM   16  N   UNL     1      -6.829  10.015  68.680  1.00  0.00    -0.054 NA 
HETATM   17  C   UNL     1      -6.074   9.819  67.431  1.00  0.00    -0.059 C  
HETATM   18  C   UNL     1      -6.486  10.910  66.411  1.00  0.00    -0.130 C  
HETATM   19  N   UNL     1      -6.370  12.294  66.918  1.00  0.00    -0.437 NA 
HETATM   20  C   UNL     1      -7.079  12.408  68.214  1.00  0.00    -0.098 C  
HETATM   21  H   UNL     1      -6.696  12.982  66.240  1.00  0.00     0.000 HD 
HETATM   22  C   UNL     1      -6.619  11.355  69.250  1.00  0.00    -0.106 C  
ENDBRANCH  15  16
ENDBRANCH   9  10
ENDBRANCH   5   9
TORSDOF 3
ENDMDL
MODEL      230
REMARK 921   NORMALIZED FREE ENERGY PREDICTED BY IDOCK:   -2.81 KCAL/MOL
REMARK 922        TOTAL FREE ENERGY PREDICTED BY IDOCK:   -3.99 KCAL/MOL
REMARK 923 INTER-LIGAND FREE ENERGY PREDICTED BY IDOCK:   -3.68 KCAL/MOL
REMARK 924 INTRA-LIGAND FREE ENERGY PREDICTED BY IDOCK:   -0.31 KCAL/MOL
REMARK 927      BINDING AFFINITY PREDICTED BY RF-SCORE:    0.00 PKD
ROOT
HETATM    1  C   UNL     1     -10.736  11.305  63.494  1.00  0.00    -0.408 C  
HETATM    2  C   UNL     1      -9.812  10.364  64.209  1.00  0.00    -0.388 A  
HETATM    3  C   UNL     1      -9.988  10.050  65.556  1.00  0.00    -0.367 A  
HETATM    4  C   UNL     1      -9.153   9.104  66.178  1.00  0.00    -0.234 A  
HETATM    5  C   UNL     1      -8.126   8.456  65.472  1.00  0.00    -0.129 A  
HETATM    6  C   UNL     1      -6.747   8.332  63.298  1.00  0.00    -0.085 C  
HETATM    7  C   UNL     1      -7.884   8.853  64.140  1.00  0.00    -0.135 A  
HETATM    8  C   UNL     1      -8.751   9.777  63.519  1.00  0.00    -0.234 A  
ENDROOT
BRANCH   5   9
HETATM    9  S   UNL     1      -7.111   7.177  66.227  1.00  0.00    -0.075 SA 
BRANCH   9  10
HETATM   10  C   UNL     1      -8.208   6.184  67.253  1.00  0.00    -0.106 A  
HETATM   11  C   UNL     1      -8.770   5.043  66.641  1.00  0.00    -0.108 A  
HETATM   12  C   UNL     1      -9.524   4.129  67.373  1.00  0.00    -0.223 A  
HETATM   13  C   UNL     1      -9.728   4.343  68.726  1.00  0.00    -0.200 A  
HETATM   14  C   UNL     1      -9.163   5.460  69.348  1.00  0.00    -0.150 A  
HETATM   15  C   UNL     1      -8.376   6.403  68.652  1.00  0.00    -0.121 A  
BRANCH  15  16
HETATM   16  N   UNL     1      -7.750   7.426  69.352  1.00  0.00    -0.104 NA 
HETATM   17  C   UNL     1      -8.145   8.837  69.201  1.00  0.00    -0.118 C  
HETATM   18  C   UNL     1      -8.048   9.542  70.577  1.00  0.00    -0.166 C  
HETATM   19  N   UNL     1      -6.735   9.401  71.244  1.00  0.00    -0.265 NA 
HETATM   20  C   UNL     1      -6.356   7.969  71.293  1.00  0.00    -0.035 C  
HETATM   21  H   UNL     1      -6.724   9.834  72.167  1.00  0.00     0.000 HD 
HETATM   22  C   UNL     1      -6.394   7.286  69.905  1.00  0.00    -0.035 C  
ENDBRANCH  15  16
ENDBRANCH   9  10
ENDBRANCH   5   9
TORSDOF 3
ENDMDL
MODEL      231
REMARK 921   NORMALIZED FREE ENERGY PREDICTED BY IDOCK:   -2.81 KCAL/MOL
REMARK 922        TOTAL FREE ENERGY PREDICTED BY IDOCK:   -3.99 KCAL/MOL
REMARK 923 INTER-LIGAND FREE ENERGY PREDICTED BY IDOCK:   -3.35 KCAL/MOL
REMARK 924 INTRA-LIGAND FREE ENERGY PREDICTED BY IDOCK:   -0.64 KCAL/MOL
REMARK 927      BINDING AFFINITY PREDICTED BY RF-SCORE:    0.00 PKD
ROOT
HETATM    1  C   UNL     1     -13.075   8.908  72.298  1.00  0.00    -0.491 C  
HETATM    2  C   UNL     1     -11.943   8.669  71.342  1.00  0.00    -0.355 A  
HETATM    3  C   UNL     1     -10.940   9.618  71.145  1.00  0.00    -0.430 A  
HETATM    4  C   UNL     1      -9.851   9.332  70.302  1.00  0.00    -0.265 A  
HETATM    5  C   UNL     1      -9.741   8.100  69.638  1.00  0.00    -0.170 A  
HETATM    6  C   UNL     1     -10.884   5.876  69.011  1.00  0.00    -0.383 C  
HETATM    7  C   UNL     1     -10.808   7.185  69.757  1.00  0.00    -0.261 A  
HETATM    8  C   UNL     1     -11.878   7.470  70.632  1.00  0.00    -0.205 A  
ENDROOT
BRANCH   5   9
HETATM    9  S   UNL     1      -8.309   7.684  68.631  1.00  0.00    -0.129 SA 
BRANCH   9  10
HETATM   10  C   UNL     1      -7.442   6.358  69.488  1.00  0.00    -0.093 A  
HETATM   11  C   UNL     1      -7.534   6.363  70.896  1.00  0.00    -0.088 A  
HETATM   12  C   UNL     1      -7.019   5.316  71.657  1.00  0.00    -0.066 A  
HETATM   13  C   UNL     1      -6.403   4.251  71.021  1.00  0.00    -0.022 A  
HETATM   14  C   UNL     1      -6.321   4.226  69.625  1.00  0.00    -0.028 A  
HETATM   15  C   UNL     1      -6.845   5.254  68.813  1.00  0.00    -0.055 A  
BRANCH  15  16
HETATM   16  N   UNL     1      -6.831   5.112  67.432  1.00  0.00    -0.055 NA 
HETATM   17  C   UNL     1      -5.916   5.882  66.571  1.00  0.00    -0.022 C  
HETATM   18  C   UNL     1      -5.437   4.982  65.405  1.00  0.00    -0.013 C  
HETATM   19  N   UNL     1      -6.529   4.353  64.631  1.00  0.00    -0.038 NA 
HETATM   20  C   UNL     1      -7.459   3.664  65.556  1.00  0.00    -0.077 C  
HETATM   21  H   UNL     1      -6.177   3.730  63.905  1.00  0.00     0.000 HD 
HETATM   22  C   UNL     1      -7.984   4.586  66.683  1.00  0.00    -0.102 C  
ENDBRANCH  15  16
ENDBRANCH   9  10
ENDBRANCH   5   9
TORSDOF 3
ENDMDL
MODEL      232
REMARK 921   NORMALIZED FREE ENERGY PREDICTED BY IDOCK:   -2.80 KCAL/MOL
REMARK 922        TOTAL FREE ENERGY PREDICTED BY IDOCK:   -3.98 KCAL/MOL
REMARK 923 INTER-LIGAND FREE ENERGY PREDICTED BY IDOCK:   -3.52 KCAL/MOL
REMARK 924 INTRA-LIGAND FREE ENERGY PREDICTED BY IDOCK:   -0.46 KCAL/MOL
REMARK 927      BINDING AFFINITY PREDICTED BY RF-SCORE:    0.00 PKD
ROOT
HETATM    1  C   UNL     1      -5.826  12.456  68.379  1.00  0.00    -0.056 C  
HETATM    2  C   UNL     1      -6.131  11.026  68.716  1.00  0.00    -0.043 A  
HETATM    3  C   UNL     1      -6.673  10.665  69.949  1.00  0.00    -0.147 A  
HETATM    4  C   UNL     1      -7.021   9.327  70.206  1.00  0.00    -0.076 A  
HETATM    5  C   UNL     1      -6.833   8.323  69.242  1.00  0.00    -0.050 A  
HETATM    6  C   UNL     1      -5.815   7.682  66.962  1.00  0.00    -0.039 C  
HETATM    7  C   UNL     1      -6.189   8.672  68.037  1.00  0.00    -0.052 A  
HETATM    8  C   UNL     1      -5.876  10.024  67.779  1.00  0.00    -0.042 A  
ENDROOT
BRANCH   5   9
HETATM    9  S   UNL     1      -7.358   6.625  69.521  1.00  0.00    -0.093 SA 
BRANCH   9  10
HETATM   10  C   UNL     1      -8.657   6.282  68.321  1.00  0.00    -0.117 A  
HETATM   11  C   UNL     1      -8.276   5.532  67.188  1.00  0.00    -0.101 A  
HETATM   12  C   UNL     1      -9.219   5.092  66.263  1.00  0.00    -0.147 A  
HETATM   13  C   UNL     1     -10.557   5.397  66.457  1.00  0.00    -0.353 A  
HETATM   14  C   UNL     1     -10.950   6.125  67.584  1.00  0.00    -0.400 A  
HETATM   15  C   UNL     1     -10.032   6.575  68.558  1.00  0.00    -0.142 A  
BRANCH  15  16
HETATM   16  N   UNL     1     -10.501   7.192  69.710  1.00  0.00    -0.218 NA 
HETATM   17  C   UNL     1     -11.220   6.451  70.761  1.00  0.00    -0.327 C  
HETATM   18  C   UNL     1     -10.806   7.006  72.147  1.00  0.00    -0.224 C  
HETATM   19  N   UNL     1     -10.966   8.469  72.292  1.00  0.00    -0.359 NA 
HETATM   20  C   UNL     1     -10.293   9.154  71.164  1.00  0.00    -0.317 C  
HETATM   21  H   UNL     1     -10.639   8.805  73.197  1.00  0.00     0.000 HD 
HETATM   22  C   UNL     1     -10.756   8.640  69.780  1.00  0.00    -0.215 C  
ENDBRANCH  15  16
ENDBRANCH   9  10
ENDBRANCH   5   9
TORSDOF 3
ENDMDL
MODEL      233
REMARK 921   NORMALIZED FREE ENERGY PREDICTED BY IDOCK:   -2.77 KCAL/MOL
REMARK 922        TOTAL FREE ENERGY PREDICTED BY IDOCK:   -3.95 KCAL/MOL
REMARK 923 INTER-LIGAND FREE ENERGY PREDICTED BY IDOCK:   -3.15 KCAL/MOL
REMARK 924 INTRA-LIGAND FREE ENERGY PREDICTED BY IDOCK:   -0.80 KCAL/MOL
REMARK 927      BINDING AFFINITY PREDICTED BY RF-SCORE:    0.00 PKD
ROOT
HETATM    1  C   UNL     1     -12.379   8.261  72.268  1.00  0.00    -0.410 C  
HETATM    2  C   UNL     1     -11.163   7.770  71.538  1.00  0.00    -0.278 A  
HETATM    3  C   UNL     1     -11.261   6.855  70.490  1.00  0.00    -0.353 A  
HETATM    4  C   UNL     1     -10.112   6.475  69.773  1.00  0.00    -0.207 A  
HETATM    5  C   UNL     1      -8.846   6.994  70.087  1.00  0.00    -0.145 A  
HETATM    6  C   UNL     1      -7.429   8.376  71.740  1.00  0.00    -0.124 C  
HETATM    7  C   UNL     1      -8.736   7.838  71.213  1.00  0.00    -0.140 A  
HETATM    8  C   UNL     1      -9.900   8.238  71.901  1.00  0.00    -0.300 A  
ENDROOT
BRANCH   5   9
HETATM    9  S   UNL     1      -7.383   6.590  69.122  1.00  0.00    -0.095 SA 
BRANCH   9  10
HETATM   10  C   UNL     1      -7.943   6.282  67.438  1.00  0.00    -0.109 A  
HETATM   11  C   UNL     1      -7.851   7.370  66.543  1.00  0.00    -0.098 A  
HETATM   12  C   UNL     1      -8.127   7.215  65.187  1.00  0.00    -0.127 A  
HETATM   13  C   UNL     1      -8.501   5.970  64.707  1.00  0.00    -0.032 A  
HETATM   14  C   UNL     1      -8.579   4.880  65.579  1.00  0.00    -0.135 A  
HETATM   15  C   UNL     1      -8.290   4.986  66.958  1.00  0.00    -0.107 A  
BRANCH  15  16
HETATM   16  N   UNL     1      -8.276   3.843  67.745  1.00  0.00    -0.092 NA 
HETATM   17  C   UNL     1      -7.079   2.994  67.877  1.00  0.00    -0.050 C  
HETATM   18  C   UNL     1      -6.984   2.472  69.333  1.00  0.00    -0.036 C  
HETATM   19  N   UNL     1      -8.204   1.790  69.817  1.00  0.00    -0.044 NA 
HETATM   20  C   UNL     1      -9.382   2.658  69.584  1.00  0.00    -0.114 C  
HETATM   21  H   UNL     1      -8.124   1.505  70.793  1.00  0.00     0.000 HD 
HETATM   22  C   UNL     1      -9.507   3.126  68.114  1.00  0.00    -0.157 C  
ENDBRANCH  15  16
ENDBRANCH   9  10
ENDBRANCH   5   9
TORSDOF 3
ENDMDL
MODEL      234
REMARK 921   NORMALIZED FREE ENERGY PREDICTED BY IDOCK:   -2.76 KCAL/MOL
REMARK 922        TOTAL FREE ENERGY PREDICTED BY IDOCK:   -3.93 KCAL/MOL
REMARK 923 INTER-LIGAND FREE ENERGY PREDICTED BY IDOCK:   -3.07 KCAL/MOL
REMARK 924 INTRA-LIGAND FREE ENERGY PREDICTED BY IDOCK:   -0.86 KCAL/MOL
REMARK 927      BINDING AFFINITY PREDICTED BY RF-SCORE:    0.00 PKD
ROOT
HETATM    1  C   UNL     1      -6.031   4.085  63.042  1.00  0.00    -0.017 C  
HETATM    2  C   UNL     1      -7.104   4.449  64.026  1.00  0.00    -0.046 A  
HETATM    3  C   UNL     1      -6.815   5.152  65.195  1.00  0.00    -0.049 A  
HETATM    4  C   UNL     1      -7.853   5.547  66.058  1.00  0.00    -0.104 A  
HETATM    5  C   UNL     1      -9.196   5.246  65.776  1.00  0.00    -0.151 A  
HETATM    6  C   UNL     1     -10.850   3.946  64.286  1.00  0.00    -0.164 C  
HETATM    7  C   UNL     1      -9.474   4.446  64.648  1.00  0.00    -0.144 A  
HETATM    8  C   UNL     1      -8.427   4.086  63.773  1.00  0.00    -0.097 A  
ENDROOT
BRANCH   5   9
HETATM    9  S   UNL     1     -10.542   5.824  66.821  1.00  0.00    -0.283 SA 
BRANCH   9  10
HETATM   10  C   UNL     1      -9.958   5.719  68.522  1.00  0.00    -0.154 A  
HETATM   11  C   UNL     1      -9.891   4.424  69.078  1.00  0.00    -0.182 A  
HETATM   12  C   UNL     1      -9.330   4.206  70.334  1.00  0.00    -0.225 A  
HETATM   13  C   UNL     1      -8.829   5.280  71.052  1.00  0.00    -0.148 A  
HETATM   14  C   UNL     1      -8.873   6.565  70.505  1.00  0.00    -0.151 A  
HETATM   15  C   UNL     1      -9.415   6.832  69.228  1.00  0.00    -0.142 A  
BRANCH  15  16
HETATM   16  N   UNL     1      -9.323   8.112  68.697  1.00  0.00    -0.143 NA 
HETATM   17  C   UNL     1      -8.041   8.693  68.265  1.00  0.00    -0.118 C  
HETATM   18  C   UNL     1      -8.272   9.545  66.992  1.00  0.00    -0.113 C  
HETATM   19  N   UNL     1      -9.329  10.571  67.128  1.00  0.00    -0.154 NA 
HETATM   20  C   UNL     1     -10.568   9.941  67.643  1.00  0.00    -0.270 C  
HETATM   21  H   UNL     1      -9.488  11.078  66.258  1.00  0.00     0.000 HD 
HETATM   22  C   UNL     1     -10.343   9.143  68.949  1.00  0.00    -0.214 C  
ENDBRANCH  15  16
ENDBRANCH   9  10
ENDBRANCH   5   9
TORSDOF 3
ENDMDL
MODEL      235
REMARK 921   NORMALIZED FREE ENERGY PREDICTED BY IDOCK:   -2.71 KCAL/MOL
REMARK 922        TOTAL FREE ENERGY PREDICTED BY IDOCK:   -3.88 KCAL/MOL
REMARK 923 INTER-LIGAND FREE ENERGY PREDICTED BY IDOCK:   -4.07 KCAL/MOL
REMARK 924 INTRA-LIGAND FREE ENERGY PREDICTED BY IDOCK:    0.19 KCAL/MOL
REMARK 927      BINDING AFFINITY PREDICTED BY RF-SCORE:    0.00 PKD
ROOT
HETATM    1  C   UNL     1      -6.572  18.813  65.630  1.00  0.00    -0.308 C  
HETATM    2  C   UNL     1      -6.962  17.483  66.206  1.00  0.00    -0.332 A  
HETATM    3  C   UNL     1      -6.013  16.610  66.736  1.00  0.00    -0.080 A  
HETATM    4  C   UNL     1      -6.417  15.405  67.339  1.00  0.00    -0.115 A  
HETATM    5  C   UNL     1      -7.772  15.046  67.423  1.00  0.00    -0.200 A  
HETATM    6  C   UNL     1     -10.192  15.565  66.701  1.00  0.00    -0.280 C  
HETATM    7  C   UNL     1      -8.720  15.881  66.794  1.00  0.00    -0.303 A  
HETATM    8  C   UNL     1      -8.304  17.102  66.223  1.00  0.00    -0.298 A  
ENDROOT
BRANCH   5   9
HETATM    9  S   UNL     1      -8.312  13.556  68.274  1.00  0.00    -0.154 SA 
BRANCH   9  10
HETATM   10  C   UNL     1      -7.740  12.162  67.288  1.00  0.00    -0.168 A  
HETATM   11  C   UNL     1      -6.602  11.482  67.772  1.00  0.00    -0.068 A  
HETATM   12  C   UNL     1      -6.149  10.311  67.169  1.00  0.00    -0.055 A  
HETATM   13  C   UNL     1      -6.828   9.803  66.073  1.00  0.00    -0.094 A  
HETATM   14  C   UNL     1      -7.966  10.458  65.593  1.00  0.00    -0.153 A  
HETATM   15  C   UNL     1      -8.473  11.636  66.183  1.00  0.00    -0.008 A  
BRANCH  15  16
HETATM   16  N   UNL     1      -9.671  12.171  65.730  1.00  0.00    -0.245 NA 
HETATM   17  C   UNL     1      -9.794  12.820  64.413  1.00  0.00    -0.026 C  
HETATM   18  C   UNL     1     -11.174  12.471  63.801  1.00  0.00    -0.462 C  
HETATM   19  N   UNL     1     -12.325  12.774  64.679  1.00  0.00    -0.467 NA 
HETATM   20  C   UNL     1     -12.106  12.164  66.012  1.00  0.00    -0.020 C  
HETATM   21  H   UNL     1     -13.211  12.487  64.265  1.00  0.00     0.000 HD 
HETATM   22  C   UNL     1     -10.753  12.566  66.646  1.00  0.00    -0.236 C  
ENDBRANCH  15  16
ENDBRANCH   9  10
ENDBRANCH   5   9
TORSDOF 3
ENDMDL
MODEL      236
REMARK 921   NORMALIZED FREE ENERGY PREDICTED BY IDOCK:   -2.71 KCAL/MOL
REMARK 922        TOTAL FREE ENERGY PREDICTED BY IDOCK:   -3.88 KCAL/MOL
REMARK 923 INTER-LIGAND FREE ENERGY PREDICTED BY IDOCK:   -3.25 KCAL/MOL
REMARK 924 INTRA-LIGAND FREE ENERGY PREDICTED BY IDOCK:   -0.62 KCAL/MOL
REMARK 927      BINDING AFFINITY PREDICTED BY RF-SCORE:    0.00 PKD
ROOT
HETATM    1  C   UNL     1      -6.043  10.553  62.461  1.00  0.00    -0.148 C  
HETATM    2  C   UNL     1      -6.363   9.936  63.791  1.00  0.00    -0.126 A  
HETATM    3  C   UNL     1      -6.895   8.651  63.892  1.00  0.00    -0.086 A  
HETATM    4  C   UNL     1      -7.110   8.070  65.154  1.00  0.00    -0.063 A  
HETATM    5  C   UNL     1      -6.803   8.758  66.340  1.00  0.00    -0.075 A  
HETATM    6  C   UNL     1      -6.108  10.993  67.421  1.00  0.00    -0.057 C  
HETATM    7  C   UNL     1      -6.363  10.095  66.236  1.00  0.00    -0.084 A  
HETATM    8  C   UNL     1      -6.120  10.653  64.963  1.00  0.00    -0.024 A  
ENDROOT
BRANCH   5   9
HETATM    9  S   UNL     1      -6.984   7.995  67.959  1.00  0.00    -0.075 SA 
BRANCH   9  10
HETATM   10  C   UNL     1      -8.489   7.006  67.899  1.00  0.00    -0.124 A  
HETATM   11  C   UNL     1      -8.319   5.629  67.643  1.00  0.00    -0.100 A  
HETATM   12  C   UNL     1      -9.393   4.745  67.706  1.00  0.00    -0.163 A  
HETATM   13  C   UNL     1     -10.652   5.226  68.025  1.00  0.00    -0.088 A  
HETATM   14  C   UNL     1     -10.831   6.585  68.298  1.00  0.00    -0.359 A  
HETATM   15  C   UNL     1      -9.769   7.515  68.264  1.00  0.00    -0.155 A  
BRANCH  15  16
HETATM   16  N   UNL     1      -9.993   8.828  68.658  1.00  0.00    -0.177 NA 
HETATM   17  C   UNL     1     -10.037   9.940  67.693  1.00  0.00    -0.197 C  
HETATM   18  C   UNL     1     -11.124  10.952  68.133  1.00  0.00    -0.280 C  
HETATM   19  N   UNL     1     -10.986  11.430  69.526  1.00  0.00    -0.411 NA 
HETATM   20  C   UNL     1     -10.865  10.269  70.438  1.00  0.00    -0.253 C  
HETATM   21  H   UNL     1     -11.745  12.055  69.796  1.00  0.00     0.000 HD 
HETATM   22  C   UNL     1      -9.736   9.293  70.030  1.00  0.00    -0.207 C  
ENDBRANCH  15  16
ENDBRANCH   9  10
ENDBRANCH   5   9
TORSDOF 3
ENDMDL
MODEL      237
REMARK 921   NORMALIZED FREE ENERGY PREDICTED BY IDOCK:   -2.70 KCAL/MOL
REMARK 922        TOTAL FREE ENERGY PREDICTED BY IDOCK:   -3.87 KCAL/MOL
REMARK 923 INTER-LIGAND FREE ENERGY PREDICTED BY IDOCK:   -3.74 KCAL/MOL
REMARK 924 INTRA-LIGAND FREE ENERGY PREDICTED BY IDOCK:   -0.13 KCAL/MOL
REMARK 927      BINDING AFFINITY PREDICTED BY RF-SCORE:    0.00 PKD
ROOT
HETATM    1  C   UNL     1      -9.730  10.437  62.589  1.00  0.00    -0.191 C  
HETATM    2  C   UNL     1      -9.858  10.884  64.015  1.00  0.00    -0.377 A  
HETATM    3  C   UNL     1     -11.032  11.464  64.497  1.00  0.00    -0.346 A  
HETATM    4  C   UNL     1     -11.149  11.800  65.857  1.00  0.00    -0.355 A  
HETATM    5  C   UNL     1     -10.101  11.569  66.763  1.00  0.00    -0.215 A  
HETATM    6  C   UNL     1      -7.634  10.894  67.083  1.00  0.00    -0.109 C  
HETATM    7  C   UNL     1      -8.880  11.080  66.253  1.00  0.00    -0.187 A  
HETATM    8  C   UNL     1      -8.787  10.715  64.894  1.00  0.00    -0.204 A  
ENDROOT
BRANCH   5   9
HETATM    9  S   UNL     1     -10.269  11.907  68.522  1.00  0.00    -0.195 SA 
BRANCH   9  10
HETATM   10  C   UNL     1     -10.481  13.688  68.689  1.00  0.00    -0.234 A  
HETATM   11  C   UNL     1     -11.803  14.143  68.880  1.00  0.00    -0.382 A  
HETATM   12  C   UNL     1     -12.073  15.481  69.155  1.00  0.00    -0.266 A  
HETATM   13  C   UNL     1     -11.026  16.384  69.241  1.00  0.00    -0.322 A  
HETATM   14  C   UNL     1      -9.710  15.943  69.070  1.00  0.00    -0.243 A  
HETATM   15  C   UNL     1      -9.386  14.594  68.809  1.00  0.00    -0.191 A  
BRANCH  15  16
HETATM   16  N   UNL     1      -8.055  14.204  68.764  1.00  0.00    -0.123 NA 
HETATM   17  C   UNL     1      -7.177  14.532  67.628  1.00  0.00    -0.187 C  
HETATM   18  C   UNL     1      -5.756  14.849  68.157  1.00  0.00    -0.136 C  
HETATM   19  N   UNL     1      -5.177  13.796  69.019  1.00  0.00    -0.070 NA 
HETATM   20  C   UNL     1      -6.138  13.451  70.093  1.00  0.00    -0.112 C  
HETATM   21  H   UNL     1      -4.264  14.059  69.389  1.00  0.00     0.000 HD 
HETATM   22  C   UNL     1      -7.539  13.075  69.554  1.00  0.00     0.703 C  
ENDBRANCH  15  16
ENDBRANCH   9  10
ENDBRANCH   5   9
TORSDOF 3
ENDMDL
MODEL      238
REMARK 921   NORMALIZED FREE ENERGY PREDICTED BY IDOCK:   -2.67 KCAL/MOL
REMARK 922        TOTAL FREE ENERGY PREDICTED BY IDOCK:   -3.83 KCAL/MOL
REMARK 923 INTER-LIGAND FREE ENERGY PREDICTED BY IDOCK:   -3.23 KCAL/MOL
REMARK 924 INTRA-LIGAND FREE ENERGY PREDICTED BY IDOCK:   -0.60 KCAL/MOL
REMARK 927      BINDING AFFINITY PREDICTED BY RF-SCORE:    0.00 PKD
ROOT
HETATM    1  C   UNL     1      -8.278   8.712  64.516  1.00  0.00    -0.166 C  
HETATM    2  C   UNL     1      -8.381   8.921  65.998  1.00  0.00    -0.128 A  
HETATM    3  C   UNL     1      -7.748   8.068  66.902  1.00  0.00    -0.099 A  
HETATM    4  C   UNL     1      -7.797   8.335  68.282  1.00  0.00    -0.118 A  
HETATM    5  C   UNL     1      -8.480   9.454  68.788  1.00  0.00    -0.122 A  
HETATM    6  C   UNL     1     -10.078  11.415  68.291  1.00  0.00    -0.204 C  
HETATM    7  C   UNL     1      -9.206  10.255  67.881  1.00  0.00    -0.143 A  
HETATM    8  C   UNL     1      -9.119   9.995  66.497  1.00  0.00    -0.172 A  
ENDROOT
BRANCH   5   9
HETATM    9  S   UNL     1      -8.474   9.861  70.540  1.00  0.00     0.447 SA 
BRANCH   9  10
HETATM   10  C   UNL     1      -7.819   8.423  71.403  1.00  0.00    -0.116 A  
HETATM   11  C   UNL     1      -6.459   8.487  71.776  1.00  0.00    -0.070 A  
HETATM   12  C   UNL     1      -5.879   7.495  72.563  1.00  0.00    -0.040 A  
HETATM   13  C   UNL     1      -6.650   6.425  72.988  1.00  0.00    -0.069 A  
HETATM   14  C   UNL     1      -8.002   6.359  72.640  1.00  0.00    -0.104 A  
HETATM   15  C   UNL     1      -8.638   7.349  71.860  1.00  0.00    -0.111 A  
BRANCH  15  16
HETATM   16  N   UNL     1     -10.008   7.281  71.648  1.00  0.00    -0.180 NA 
HETATM   17  C   UNL     1     -10.960   8.137  72.377  1.00  0.00    -0.345 C  
HETATM   18  C   UNL     1     -12.106   8.553  71.421  1.00  0.00    -0.303 C  
HETATM   19  N   UNL     1     -12.780   7.421  70.748  1.00  0.00    -0.585 NA 
HETATM   20  C   UNL     1     -11.767   6.554  70.103  1.00  0.00    -0.353 C  
HETATM   21  H   UNL     1     -13.493   7.734  70.091  1.00  0.00     0.000 HD 
HETATM   22  C   UNL     1     -10.658   6.090  71.078  1.00  0.00    -0.246 C  
ENDBRANCH  15  16
ENDBRANCH   9  10
ENDBRANCH   5   9
TORSDOF 3
ENDMDL
MODEL      239
REMARK 921   NORMALIZED FREE ENERGY PREDICTED BY IDOCK:   -2.66 KCAL/MOL
REMARK 922        TOTAL FREE ENERGY PREDICTED BY IDOCK:   -3.82 KCAL/MOL
REMARK 923 INTER-LIGAND FREE ENERGY PREDICTED BY IDOCK:   -3.43 KCAL/MOL
REMARK 924 INTRA-LIGAND FREE ENERGY PREDICTED BY IDOCK:   -0.39 KCAL/MOL
REMARK 927      BINDING AFFINITY PREDICTED BY RF-SCORE:    0.00 PKD
ROOT
HETATM    1  C   UNL     1      -5.958   3.317  62.628  1.00  0.00    -0.013 C  
HETATM    2  C   UNL     1      -6.897   3.687  63.738  1.00  0.00    -0.044 A  
HETATM    3  C   UNL     1      -6.431   4.015  65.011  1.00  0.00    -0.038 A  
HETATM    4  C   UNL     1      -7.330   4.433  66.009  1.00  0.00    -0.077 A  
HETATM    5  C   UNL     1      -8.709   4.529  65.760  1.00  0.00    -0.121 A  
HETATM    6  C   UNL     1     -10.649   4.032  64.137  1.00  0.00    -0.197 C  
HETATM    7  C   UNL     1      -9.188   4.097  64.505  1.00  0.00    -0.151 A  
HETATM    8  C   UNL     1      -8.272   3.713  63.503  1.00  0.00    -0.089 A  
ENDROOT
BRANCH   5   9
HETATM    9  S   UNL     1      -9.859   5.151  66.995  1.00  0.00    -0.198 SA 
BRANCH   9  10
HETATM   10  C   UNL     1      -9.695   4.086  68.437  1.00  0.00    -0.066 A  
HETATM   11  C   UNL     1      -9.180   2.793  68.201  1.00  0.00    -0.254 A  
HETATM   12  C   UNL     1      -8.884   1.930  69.253  1.00  0.00    -0.132 A  
HETATM   13  C   UNL     1      -9.099   2.348  70.557  1.00  0.00    -0.178 A  
HETATM   14  C   UNL     1      -9.593   3.632  70.806  1.00  0.00    -0.249 A  
HETATM   15  C   UNL     1      -9.890   4.547  69.772  1.00  0.00    -0.225 A  
BRANCH  15  16
HETATM   16  N   UNL     1     -10.268   5.844  70.092  1.00  0.00    -0.203 NA 
HETATM   17  C   UNL     1     -11.636   6.341  69.870  1.00  0.00    -0.291 C  
HETATM   18  C   UNL     1     -12.029   7.286  71.034  1.00  0.00    -0.327 C  
HETATM   19  N   UNL     1     -11.071   8.386  71.277  1.00  0.00    -0.246 NA 
HETATM   20  C   UNL     1      -9.703   7.832  71.410  1.00  0.00    -0.166 C  
HETATM   21  H   UNL     1     -11.335   8.957  72.079  1.00  0.00     0.000 HD 
HETATM   22  C   UNL     1      -9.293   6.940  70.214  1.00  0.00    -0.162 C  
ENDBRANCH  15  16
ENDBRANCH   9  10
ENDBRANCH   5   9
TORSDOF 3
ENDMDL
MODEL      240
REMARK 921   NORMALIZED FREE ENERGY PREDICTED BY IDOCK:   -2.65 KCAL/MOL
REMARK 922        TOTAL FREE ENERGY PREDICTED BY IDOCK:   -3.80 KCAL/MOL
REMARK 923 INTER-LIGAND FREE ENERGY PREDICTED BY IDOCK:   -3.26 KCAL/MOL
REMARK 924 INTRA-LIGAND FREE ENERGY PREDICTED BY IDOCK:   -0.54 KCAL/MOL
REMARK 927      BINDING AFFINITY PREDICTED BY RF-SCORE:    0.00 PKD
ROOT
HETATM    1  C   UNL     1      -9.703  11.866  67.599  1.00  0.00    -0.186 C  
HETATM    2  C   UNL     1      -9.135  10.569  68.097  1.00  0.00    -0.141 A  
HETATM    3  C   UNL     1      -9.411   9.359  67.462  1.00  0.00    -0.147 A  
HETATM    4  C   UNL     1      -8.800   8.171  67.903  1.00  0.00    -0.131 A  
HETATM    5  C   UNL     1      -7.907   8.166  68.988  1.00  0.00    -0.108 A  
HETATM    6  C   UNL     1      -6.877   9.494  70.943  1.00  0.00    -0.083 C  
HETATM    7  C   UNL     1      -7.712   9.372  69.693  1.00  0.00    -0.098 A  
HETATM    8  C   UNL     1      -8.303  10.562  69.217  1.00  0.00    -0.144 A  
ENDROOT
BRANCH   5   9
HETATM    9  S   UNL     1      -7.047   6.673  69.506  1.00  0.00    -0.078 SA 
BRANCH   9  10
HETATM   10  C   UNL     1      -7.987   5.282  68.856  1.00  0.00    -0.086 A  
HETATM   11  C   UNL     1      -7.366   4.534  67.833  1.00  0.00    -0.066 A  
HETATM   12  C   UNL     1      -7.937   3.361  67.347  1.00  0.00    -0.081 A  
HETATM   13  C   UNL     1      -9.138   2.918  67.877  1.00  0.00    -0.224 A  
HETATM   14  C   UNL     1      -9.756   3.640  68.903  1.00  0.00    -0.058 A  
HETATM   15  C   UNL     1      -9.205   4.825  69.439  1.00  0.00    -0.114 A  
BRANCH  15  16
HETATM   16  N   UNL     1      -9.810   5.429  70.533  1.00  0.00    -0.189 NA 
HETATM   17  C   UNL     1     -10.780   6.528  70.387  1.00  0.00    -0.255 C  
HETATM   18  C   UNL     1     -11.891   6.370  71.455  1.00  0.00    -0.298 C  
HETATM   19  N   UNL     1     -11.392   6.251  72.842  1.00  0.00    -0.441 NA 
HETATM   20  C   UNL     1     -10.363   5.187  72.909  1.00  0.00    -0.196 C  
HETATM   21  H   UNL     1     -12.146   6.099  73.511  1.00  0.00     0.000 HD 
HETATM   22  C   UNL     1      -9.222   5.384  71.882  1.00  0.00    -0.138 C  
ENDBRANCH  15  16
ENDBRANCH   9  10
ENDBRANCH   5   9
TORSDOF 3
ENDMDL
MODEL      241
REMARK 921   NORMALIZED FREE ENERGY PREDICTED BY IDOCK:   -2.64 KCAL/MOL
REMARK 922        TOTAL FREE ENERGY PREDICTED BY IDOCK:   -3.80 KCAL/MOL
REMARK 923 INTER-LIGAND FREE ENERGY PREDICTED BY IDOCK:   -4.16 KCAL/MOL
REMARK 924 INTRA-LIGAND FREE ENERGY PREDICTED BY IDOCK:    0.36 KCAL/MOL
REMARK 927      BINDING AFFINITY PREDICTED BY RF-SCORE:    0.00 PKD
ROOT
HETATM    1  C   UNL     1     -12.180  12.300  62.924  1.00  0.00     0.164 C  
HETATM    2  C   UNL     1     -12.102  13.043  64.225  1.00  0.00    -0.480 A  
HETATM    3  C   UNL     1     -12.527  12.467  65.422  1.00  0.00    -0.311 A  
HETATM    4  C   UNL     1     -12.369  13.159  66.636  1.00  0.00    -0.207 A  
HETATM    5  C   UNL     1     -11.787  14.437  66.682  1.00  0.00    -0.398 A  
HETATM    6  C   UNL     1     -10.934  16.469  65.345  1.00  0.00    -0.137 C  
HETATM    7  C   UNL     1     -11.455  15.058  65.460  1.00  0.00    -0.265 A  
HETATM    8  C   UNL     1     -11.587  14.340  64.253  1.00  0.00    -0.299 A  
ENDROOT
BRANCH   5   9
HETATM    9  S   UNL     1     -11.493  15.295  68.235  1.00  0.00    -0.345 SA 
BRANCH   9  10
HETATM   10  C   UNL     1      -9.718  15.586  68.337  1.00  0.00    -0.203 A  
HETATM   11  C   UNL     1      -9.321  16.894  68.687  1.00  0.00    -0.268 A  
HETATM   12  C   UNL     1      -7.985  17.204  68.926  1.00  0.00    -0.208 A  
HETATM   13  C   UNL     1      -7.026  16.209  68.818  1.00  0.00    -0.148 A  
HETATM   14  C   UNL     1      -7.408  14.905  68.489  1.00  0.00    -0.119 A  
HETATM   15  C   UNL     1      -8.752  14.541  68.255  1.00  0.00    -0.173 A  
BRANCH  15  16
HETATM   16  N   UNL     1      -9.075  13.207  68.046  1.00  0.00    -0.200 NA 
HETATM   17  C   UNL     1      -8.788  12.520  66.775  1.00  0.00    -0.177 C  
HETATM   18  C   UNL     1      -8.359  11.061  67.072  1.00  0.00    -0.137 C  
HETATM   19  N   UNL     1      -9.314  10.303  67.910  1.00  0.00    -0.138 NA 
HETATM   20  C   UNL     1      -9.625  11.080  69.133  1.00  0.00    -0.061 C  
HETATM   21  H   UNL     1      -8.976   9.365  68.127  1.00  0.00     0.000 HD 
HETATM   22  C   UNL     1     -10.113  12.517  68.828  1.00  0.00    -0.048 C  
ENDBRANCH  15  16
ENDBRANCH   9  10
ENDBRANCH   5   9
TORSDOF 3
ENDMDL
MODEL      242
REMARK 921   NORMALIZED FREE ENERGY PREDICTED BY IDOCK:   -2.61 KCAL/MOL
REMARK 922        TOTAL FREE ENERGY PREDICTED BY IDOCK:   -3.76 KCAL/MOL
REMARK 923 INTER-LIGAND FREE ENERGY PREDICTED BY IDOCK:   -3.77 KCAL/MOL
REMARK 924 INTRA-LIGAND FREE ENERGY PREDICTED BY IDOCK:    0.01 KCAL/MOL
REMARK 927      BINDING AFFINITY PREDICTED BY RF-SCORE:    0.00 PKD
ROOT
HETATM    1  C   UNL     1     -11.995  12.897  66.189  1.00  0.00    -0.491 C  
HETATM    2  C   UNL     1     -10.934  11.971  66.708  1.00  0.00    -0.329 A  
HETATM    3  C   UNL     1     -10.768  11.743  68.074  1.00  0.00    -0.244 A  
HETATM    4  C   UNL     1      -9.818  10.809  68.526  1.00  0.00    -0.182 A  
HETATM    5  C   UNL     1      -9.013  10.089  67.627  1.00  0.00    -0.131 A  
HETATM    6  C   UNL     1      -8.232   9.793  65.189  1.00  0.00    -0.140 C  
HETATM    7  C   UNL     1      -9.111  10.398  66.254  1.00  0.00    -0.180 A  
HETATM    8  C   UNL     1     -10.092  11.311  65.813  1.00  0.00    -0.294 A  
ENDROOT
BRANCH   5   9
HETATM    9  S   UNL     1      -7.860   8.825  68.184  1.00  0.00    -0.102 SA 
BRANCH   9  10
HETATM   10  C   UNL     1      -8.565   7.237  67.711  1.00  0.00    -0.120 A  
HETATM   11  C   UNL     1      -8.557   6.938  66.332  1.00  0.00    -0.135 A  
HETATM   12  C   UNL     1      -8.952   5.688  65.861  1.00  0.00    -0.160 A  
HETATM   13  C   UNL     1      -9.360   4.719  66.764  1.00  0.00    -0.148 A  
HETATM   14  C   UNL     1      -9.355   4.996  68.134  1.00  0.00    -0.156 A  
HETATM   15  C   UNL     1      -8.947   6.242  68.658  1.00  0.00    -0.127 A  
BRANCH  15  16
HETATM   16  N   UNL     1      -8.857   6.412  70.033  1.00  0.00    -0.142 NA 
HETATM   17  C   UNL     1      -9.572   7.489  70.740  1.00  0.00    -0.166 C  
HETATM   18  C   UNL     1     -10.070   6.957  72.107  1.00  0.00    -0.181 C  
HETATM   19  N   UNL     1      -9.014   6.348  72.946  1.00  0.00    -0.131 NA 
HETATM   20  C   UNL     1      -8.279   5.332  72.156  1.00  0.00    -0.114 C  
HETATM   21  H   UNL     1      -9.386   5.965  73.814  1.00  0.00     0.000 HD 
HETATM   22  C   UNL     1      -7.730   5.886  70.819  1.00  0.00    -0.097 C  
ENDBRANCH  15  16
ENDBRANCH   9  10
ENDBRANCH   5   9
TORSDOF 3
ENDMDL
MODEL      243
REMARK 921   NORMALIZED FREE ENERGY PREDICTED BY IDOCK:   -2.60 KCAL/MOL
REMARK 922        TOTAL FREE ENERGY PREDICTED BY IDOCK:   -3.75 KCAL/MOL
REMARK 923 INTER-LIGAND FREE ENERGY PREDICTED BY IDOCK:   -3.25 KCAL/MOL
REMARK 924 INTRA-LIGAND FREE ENERGY PREDICTED BY IDOCK:   -0.49 KCAL/MOL
REMARK 927      BINDING AFFINITY PREDICTED BY RF-SCORE:    0.00 PKD
ROOT
HETATM    1  C   UNL     1     -11.023   4.457  74.014  1.00  0.00    -0.268 C  
HETATM    2  C   UNL     1     -10.295   5.407  73.109  1.00  0.00    -0.231 A  
HETATM    3  C   UNL     1     -10.795   5.746  71.851  1.00  0.00    -0.309 A  
HETATM    4  C   UNL     1     -10.131   6.699  71.059  1.00  0.00    -0.207 A  
HETATM    5  C   UNL     1      -8.957   7.330  71.500  1.00  0.00    -0.129 A  
HETATM    6  C   UNL     1      -7.083   7.410  73.269  1.00  0.00    -0.081 C  
HETATM    7  C   UNL     1      -8.398   6.909  72.725  1.00  0.00    -0.118 A  
HETATM    8  C   UNL     1      -9.092   5.977  73.525  1.00  0.00    -0.131 A  
ENDROOT
BRANCH   5   9
HETATM    9  S   UNL     1      -8.148   8.618  70.539  1.00  0.00    -0.127 SA 
BRANCH   9  10
HETATM   10  C   UNL     1      -7.821   7.921  68.911  1.00  0.00    -0.117 A  
HETATM   11  C   UNL     1      -7.220   6.644  68.890  1.00  0.00    -0.091 A  
HETATM   12  C   UNL     1      -7.042   5.949  67.697  1.00  0.00    -0.074 A  
HETATM   13  C   UNL     1      -7.463   6.521  66.507  1.00  0.00    -0.086 A  
HETATM   14  C   UNL     1      -8.076   7.777  66.516  1.00  0.00    -0.111 A  
HETATM   15  C   UNL     1      -8.293   8.511  67.703  1.00  0.00    -0.129 A  
BRANCH  15  16
HETATM   16  N   UNL     1      -9.009   9.699  67.654  1.00  0.00    -0.125 NA 
HETATM   17  C   UNL     1      -8.356  11.002  67.441  1.00  0.00    -0.126 C  
HETATM   18  C   UNL     1      -9.263  11.887  66.550  1.00  0.00    -0.214 C  
HETATM   19  N   UNL     1     -10.648  12.035  67.048  1.00  0.00    -0.221 NA 
HETATM   20  C   UNL     1     -11.223  10.697  67.320  1.00  0.00    -0.161 C  
HETATM   21  H   UNL     1     -11.229  12.581  66.412  1.00  0.00     0.000 HD 
HETATM   22  C   UNL     1     -10.342   9.840  68.260  1.00  0.00    -0.198 C  
ENDBRANCH  15  16
ENDBRANCH   9  10
ENDBRANCH   5   9
TORSDOF 3
ENDMDL
MODEL      244
REMARK 921   NORMALIZED FREE ENERGY PREDICTED BY IDOCK:   -2.58 KCAL/MOL
REMARK 922        TOTAL FREE ENERGY PREDICTED BY IDOCK:   -3.73 KCAL/MOL
REMARK 923 INTER-LIGAND FREE ENERGY PREDICTED BY IDOCK:   -2.99 KCAL/MOL
REMARK 924 INTRA-LIGAND FREE ENERGY PREDICTED BY IDOCK:   -0.74 KCAL/MOL
REMARK 927      BINDING AFFINITY PREDICTED BY RF-SCORE:    0.00 PKD
ROOT
HETATM    1  C   UNL     1     -12.210   8.113  72.202  1.00  0.00    -0.398 C  
HETATM    2  C   UNL     1     -10.951   7.691  71.502  1.00  0.00    -0.263 A  
HETATM    3  C   UNL     1     -10.978   6.823  70.410  1.00  0.00    -0.330 A  
HETATM    4  C   UNL     1      -9.790   6.509  69.726  1.00  0.00    -0.182 A  
HETATM    5  C   UNL     1      -8.554   7.050  70.117  1.00  0.00    -0.140 A  
HETATM    6  C   UNL     1      -7.248   8.393  71.888  1.00  0.00    -0.111 C  
HETATM    7  C   UNL     1      -8.516   7.843  71.283  1.00  0.00    -0.127 A  
HETATM    8  C   UNL     1      -9.719   8.178  71.939  1.00  0.00    -0.268 A  
ENDROOT
BRANCH   5   9
HETATM    9  S   UNL     1      -7.041   6.732  69.196  1.00  0.00    -0.091 SA 
BRANCH   9  10
HETATM   10  C   UNL     1      -6.942   7.992  67.913  1.00  0.00    -0.078 A  
HETATM   11  C   UNL     1      -6.315   9.203  68.277  1.00  0.00    -0.054 A  
HETATM   12  C   UNL     1      -6.061  10.196  67.334  1.00  0.00    -0.057 A  
HETATM   13  C   UNL     1      -6.432   9.993  66.015  1.00  0.00    -0.093 A  
HETATM   14  C   UNL     1      -7.038   8.791  65.638  1.00  0.00    -0.083 A  
HETATM   15  C   UNL     1      -7.298   7.749  66.554  1.00  0.00    -0.087 A  
BRANCH  15  16
HETATM   16  N   UNL     1      -7.797   6.538  66.094  1.00  0.00    -0.102 NA 
HETATM   17  C   UNL     1      -7.151   5.785  65.005  1.00  0.00    -0.064 C  
HETATM   18  C   UNL     1      -7.248   4.269  65.307  1.00  0.00    -0.071 C  
HETATM   19  N   UNL     1      -8.620   3.787  65.577  1.00  0.00    -0.110 NA 
HETATM   20  C   UNL     1      -9.246   4.632  66.621  1.00  0.00    -0.129 C  
HETATM   21  H   UNL     1      -8.640   2.797  65.820  1.00  0.00     0.000 HD 
HETATM   22  C   UNL     1      -9.202   6.142  66.284  1.00  0.00    -0.147 C  
ENDBRANCH  15  16
ENDBRANCH   9  10
ENDBRANCH   5   9
TORSDOF 3
ENDMDL
MODEL      245
REMARK 921   NORMALIZED FREE ENERGY PREDICTED BY IDOCK:   -2.54 KCAL/MOL
REMARK 922        TOTAL FREE ENERGY PREDICTED BY IDOCK:   -3.68 KCAL/MOL
REMARK 923 INTER-LIGAND FREE ENERGY PREDICTED BY IDOCK:   -2.92 KCAL/MOL
REMARK 924 INTRA-LIGAND FREE ENERGY PREDICTED BY IDOCK:   -0.76 KCAL/MOL
REMARK 927      BINDING AFFINITY PREDICTED BY RF-SCORE:    0.00 PKD
ROOT
HETATM    1  C   UNL     1      -5.852  12.444  68.385  1.00  0.00    -0.056 C  
HETATM    2  C   UNL     1      -6.168  11.025  68.756  1.00  0.00    -0.044 A  
HETATM    3  C   UNL     1      -6.728  10.700  69.992  1.00  0.00    -0.156 A  
HETATM    4  C   UNL     1      -7.086   9.371  70.281  1.00  0.00    -0.097 A  
HETATM    5  C   UNL     1      -6.890   8.340  69.347  1.00  0.00    -0.043 A  
HETATM    6  C   UNL     1      -5.845   7.633  67.099  1.00  0.00    -0.040 C  
HETATM    7  C   UNL     1      -6.228   8.654  68.141  1.00  0.00    -0.051 A  
HETATM    8  C   UNL     1      -5.906   9.996  67.851  1.00  0.00    -0.038 A  
ENDROOT
BRANCH   5   9
HETATM    9  S   UNL     1      -7.427   6.653  69.665  1.00  0.00    -0.098 SA 
BRANCH   9  10
HETATM   10  C   UNL     1      -9.111   6.755  70.293  1.00  0.00    -0.153 A  
HETATM   11  C   UNL     1     -10.141   6.635  69.337  1.00  0.00    -0.192 A  
HETATM   12  C   UNL     1     -11.478   6.565  69.720  1.00  0.00    -0.443 A  
HETATM   13  C   UNL     1     -11.804   6.615  71.065  1.00  0.00    -0.427 A  
HETATM   14  C   UNL     1     -10.792   6.716  72.025  1.00  0.00    -0.263 A  
HETATM   15  C   UNL     1      -9.423   6.772  71.684  1.00  0.00    -0.155 A  
BRANCH  15  16
HETATM   16  N   UNL     1      -8.465   6.757  72.689  1.00  0.00    -0.121 NA 
HETATM   17  C   UNL     1      -8.147   5.538  73.453  1.00  0.00    -0.114 C  
HETATM   18  C   UNL     1      -6.625   5.499  73.738  1.00  0.00    -0.078 C  
HETATM   19  N   UNL     1      -6.094   6.717  74.389  1.00  0.00    -0.068 NA 
HETATM   20  C   UNL     1      -6.514   7.912  73.621  1.00  0.00    -0.093 C  
HETATM   21  H   UNL     1      -5.083   6.677  74.515  1.00  0.00     0.000 HD 
HETATM   22  C   UNL     1      -8.043   7.978  73.393  1.00  0.00    -0.192 C  
ENDBRANCH  15  16
ENDBRANCH   9  10
ENDBRANCH   5   9
TORSDOF 3
ENDMDL
MODEL      246
REMARK 921   NORMALIZED FREE ENERGY PREDICTED BY IDOCK:   -2.52 KCAL/MOL
REMARK 922        TOTAL FREE ENERGY PREDICTED BY IDOCK:   -3.65 KCAL/MOL
REMARK 923 INTER-LIGAND FREE ENERGY PREDICTED BY IDOCK:   -2.79 KCAL/MOL
REMARK 924 INTRA-LIGAND FREE ENERGY PREDICTED BY IDOCK:   -0.86 KCAL/MOL
REMARK 927      BINDING AFFINITY PREDICTED BY RF-SCORE:    0.00 PKD
ROOT
HETATM    1  C   UNL     1     -12.631  15.509  64.457  1.00  0.00     0.297 C  
HETATM    2  C   UNL     1     -11.713  15.582  65.641  1.00  0.00     0.265 A  
HETATM    3  C   UNL     1     -10.774  16.604  65.776  1.00  0.00    -0.210 A  
HETATM    4  C   UNL     1      -9.982  16.691  66.935  1.00  0.00    -0.272 A  
HETATM    5  C   UNL     1     -10.107  15.760  67.979  1.00  0.00    -0.228 A  
HETATM    6  C   UNL     1     -11.134  13.533  68.775  1.00  0.00    -0.298 C  
HETATM    7  C   UNL     1     -10.983  14.669  67.794  1.00  0.00    -0.291 A  
HETATM    8  C   UNL     1     -11.795  14.614  66.643  1.00  0.00    -0.325 A  
ENDROOT
BRANCH   5   9
HETATM    9  S   UNL     1      -9.169  15.910  69.507  1.00  0.00    -0.078 SA 
BRANCH   9  10
HETATM   10  C   UNL     1      -7.562  15.156  69.202  1.00  0.00    -0.188 A  
HETATM   11  C   UNL     1      -7.553  13.756  69.031  1.00  0.00     0.022 A  
HETATM   12  C   UNL     1      -6.394  13.080  68.659  1.00  0.00    -0.083 A  
HETATM   13  C   UNL     1      -5.225  13.796  68.453  1.00  0.00    -0.100 A  
HETATM   14  C   UNL     1      -5.224  15.187  68.603  1.00  0.00    -0.093 A  
HETATM   15  C   UNL     1      -6.379  15.915  68.961  1.00  0.00    -0.133 A  
BRANCH  15  16
HETATM   16  N   UNL     1      -6.337  17.303  68.980  1.00  0.00    -0.199 NA 
HETATM   17  C   UNL     1      -6.519  18.111  67.762  1.00  0.00    -0.188 C  
HETATM   18  C   UNL     1      -7.322  19.389  68.115  1.00  0.00    -0.295 C  
HETATM   19  N   UNL     1      -6.751  20.180  69.227  1.00  0.00    -0.270 NA 
HETATM   20  C   UNL     1      -6.516  19.297  70.393  1.00  0.00     0.122 C  
HETATM   21  H   UNL     1      -7.331  20.984  69.464  1.00  0.00     0.000 HD 
HETATM   22  C   UNL     1      -5.660  18.055  70.049  1.00  0.00    -0.242 C  
ENDBRANCH  15  16
ENDBRANCH   9  10
ENDBRANCH   5   9
TORSDOF 3
ENDMDL
MODEL      247
REMARK 921   NORMALIZED FREE ENERGY PREDICTED BY IDOCK:   -2.50 KCAL/MOL
REMARK 922        TOTAL FREE ENERGY PREDICTED BY IDOCK:   -3.63 KCAL/MOL
REMARK 923 INTER-LIGAND FREE ENERGY PREDICTED BY IDOCK:   -3.06 KCAL/MOL
REMARK 924 INTRA-LIGAND FREE ENERGY PREDICTED BY IDOCK:   -0.57 KCAL/MOL
REMARK 927      BINDING AFFINITY PREDICTED BY RF-SCORE:    0.00 PKD
ROOT
HETATM    1  C   UNL     1      -9.335   7.065  73.968  1.00  0.00    -0.273 C  
HETATM    2  C   UNL     1      -8.692   7.240  72.624  1.00  0.00    -0.145 A  
HETATM    3  C   UNL     1      -8.771   6.252  71.642  1.00  0.00    -0.134 A  
HETATM    4  C   UNL     1      -8.226   6.478  70.365  1.00  0.00    -0.125 A  
HETATM    5  C   UNL     1      -7.588   7.687  70.043  1.00  0.00    -0.087 A  
HETATM    6  C   UNL     1      -6.653   9.930  70.903  1.00  0.00    -0.018 C  
HETATM    7  C   UNL     1      -7.417   8.640  71.069  1.00  0.00    -0.093 A  
HETATM    8  C   UNL     1      -7.999   8.416  72.334  1.00  0.00    -0.164 A  
ENDROOT
BRANCH   5   9
HETATM    9  S   UNL     1      -6.969   8.027  68.389  1.00  0.00    -0.074 SA 
BRANCH   9  10
HETATM   10  C   UNL     1      -8.270   8.919  67.522  1.00  0.00    -0.109 A  
HETATM   11  C   UNL     1      -8.177  10.327  67.538  1.00  0.00    -0.114 A  
HETATM   12  C   UNL     1      -9.048  11.117  66.792  1.00  0.00    -0.174 A  
HETATM   13  C   UNL     1     -10.025  10.510  66.019  1.00  0.00    -0.295 A  
HETATM   14  C   UNL     1     -10.117   9.116  65.980  1.00  0.00    -0.204 A  
HETATM   15  C   UNL     1      -9.245   8.275  66.705  1.00  0.00    -0.169 A  
BRANCH  15  16
HETATM   16  N   UNL     1      -9.318   6.899  66.533  1.00  0.00    -0.163 NA 
HETATM   17  C   UNL     1     -10.133   6.039  67.408  1.00  0.00    -0.163 C  
HETATM   18  C   UNL     1     -10.772   4.911  66.560  1.00  0.00    -0.055 C  
HETATM   19  N   UNL     1      -9.807   4.129  65.758  1.00  0.00    -0.237 NA 
HETATM   20  C   UNL     1      -8.963   5.051  64.962  1.00  0.00    -0.130 C  
HETATM   21  H   UNL     1     -10.267   3.429  65.176  1.00  0.00     0.000 HD 
HETATM   22  C   UNL     1      -8.277   6.139  65.823  1.00  0.00    -0.138 C  
ENDBRANCH  15  16
ENDBRANCH   9  10
ENDBRANCH   5   9
TORSDOF 3
ENDMDL
MODEL      248
REMARK 921   NORMALIZED FREE ENERGY PREDICTED BY IDOCK:   -2.43 KCAL/MOL
REMARK 922        TOTAL FREE ENERGY PREDICTED BY IDOCK:   -3.55 KCAL/MOL
REMARK 923 INTER-LIGAND FREE ENERGY PREDICTED BY IDOCK:   -2.90 KCAL/MOL
REMARK 924 INTRA-LIGAND FREE ENERGY PREDICTED BY IDOCK:   -0.65 KCAL/MOL
REMARK 927      BINDING AFFINITY PREDICTED BY RF-SCORE:    0.00 PKD
ROOT
HETATM    1  C   UNL     1      -5.813  10.837  62.593  1.00  0.00    -0.126 C  
HETATM    2  C   UNL     1      -6.103  10.106  63.871  1.00  0.00    -0.137 A  
HETATM    3  C   UNL     1      -6.821   8.910  63.881  1.00  0.00    -0.087 A  
HETATM    4  C   UNL     1      -7.009   8.207  65.085  1.00  0.00    -0.063 A  
HETATM    5  C   UNL     1      -6.490   8.683  66.301  1.00  0.00    -0.061 A  
HETATM    6  C   UNL     1      -5.355  10.633  67.548  1.00  0.00    -0.040 C  
HETATM    7  C   UNL     1      -5.856   9.943  66.303  1.00  0.00    -0.059 A  
HETATM    8  C   UNL     1      -5.644  10.621  65.084  1.00  0.00    -0.128 A  
ENDROOT
BRANCH   5   9
HETATM    9  S   UNL     1      -6.642   7.750  67.831  1.00  0.00    -0.057 SA 
BRANCH   9  10
HETATM   10  C   UNL     1      -8.256   8.150  68.523  1.00  0.00    -0.125 A  
HETATM   11  C   UNL     1      -8.419   9.467  69.003  1.00  0.00    -0.129 A  
HETATM   12  C   UNL     1      -9.659   9.930  69.435  1.00  0.00    -0.229 A  
HETATM   13  C   UNL     1     -10.754   9.082  69.394  1.00  0.00    -0.202 A  
HETATM   14  C   UNL     1     -10.610   7.780  68.905  1.00  0.00    -0.168 A  
HETATM   15  C   UNL     1      -9.377   7.273  68.439  1.00  0.00    -0.143 A  
BRANCH  15  16
HETATM   16  N   UNL     1      -9.328   6.012  67.860  1.00  0.00    -0.111 NA 
HETATM   17  C   UNL     1      -8.709   4.860  68.538  1.00  0.00    -0.097 C  
HETATM   18  C   UNL     1      -9.534   3.585  68.229  1.00  0.00    -0.148 C  
HETATM   19  N   UNL     1      -9.749   3.332  66.788  1.00  0.00    -0.408 NA 
HETATM   20  C   UNL     1     -10.296   4.551  66.147  1.00  0.00    -0.223 C  
HETATM   21  H   UNL     1     -10.337   2.515  66.624  1.00  0.00     0.000 HD 
HETATM   22  C   UNL     1      -9.433   5.809  66.406  1.00  0.00    -0.156 C  
ENDBRANCH  15  16
ENDBRANCH   9  10
ENDBRANCH   5   9
TORSDOF 3
ENDMDL
MODEL      249
REMARK 921   NORMALIZED FREE ENERGY PREDICTED BY IDOCK:   -2.42 KCAL/MOL
REMARK 922        TOTAL FREE ENERGY PREDICTED BY IDOCK:   -3.54 KCAL/MOL
REMARK 923 INTER-LIGAND FREE ENERGY PREDICTED BY IDOCK:   -2.90 KCAL/MOL
REMARK 924 INTRA-LIGAND FREE ENERGY PREDICTED BY IDOCK:   -0.64 KCAL/MOL
REMARK 927      BINDING AFFINITY PREDICTED BY RF-SCORE:    0.00 PKD
ROOT
HETATM    1  C   UNL     1     -10.565   4.701  71.639  1.00  0.00    -0.045 C  
HETATM    2  C   UNL     1      -9.701   5.600  70.804  1.00  0.00    -0.228 A  
HETATM    3  C   UNL     1      -8.392   5.905  71.175  1.00  0.00    -0.124 A  
HETATM    4  C   UNL     1      -7.581   6.686  70.333  1.00  0.00    -0.096 A  
HETATM    5  C   UNL     1      -8.058   7.181  69.107  1.00  0.00    -0.121 A  
HETATM    6  C   UNL     1     -10.095   7.525  67.565  1.00  0.00    -0.261 C  
HETATM    7  C   UNL     1      -9.414   6.958  68.785  1.00  0.00    -0.135 A  
HETATM    8  C   UNL     1     -10.205   6.144  69.623  1.00  0.00    -0.255 A  
ENDROOT
BRANCH   5   9
HETATM    9  S   UNL     1      -7.005   8.102  67.976  1.00  0.00    -0.079 SA 
BRANCH   9  10
HETATM   10  C   UNL     1      -7.026   9.816  68.530  1.00  0.00    -0.064 A  
HETATM   11  C   UNL     1      -6.418  10.074  69.776  1.00  0.00    -0.064 A  
HETATM   12  C   UNL     1      -6.255  11.376  70.244  1.00  0.00    -0.106 A  
HETATM   13  C   UNL     1      -6.698  12.437  69.472  1.00  0.00     0.015 A  
HETATM   14  C   UNL     1      -7.287  12.196  68.227  1.00  0.00    -0.100 A  
HETATM   15  C   UNL     1      -7.457  10.895  67.704  1.00  0.00    -0.095 A  
BRANCH  15  16
HETATM   16  N   UNL     1      -7.943  10.732  66.414  1.00  0.00    -0.146 NA 
HETATM   17  C   UNL     1      -7.059  10.448  65.271  1.00  0.00    -0.098 C  
HETATM   18  C   UNL     1      -7.769   9.461  64.311  1.00  0.00    -0.117 C  
HETATM   19  N   UNL     1      -9.115   9.894  63.877  1.00  0.00    -0.251 NA 
HETATM   20  C   UNL     1      -9.930  10.243  65.065  1.00  0.00    -0.323 C  
HETATM   21  H   UNL     1      -9.572   9.199  63.288  1.00  0.00     0.000 HD 
HETATM   22  C   UNL     1      -9.242  11.276  65.988  1.00  0.00    -0.208 C  
ENDBRANCH  15  16
ENDBRANCH   9  10
ENDBRANCH   5   9
TORSDOF 3
ENDMDL
MODEL      250
REMARK 921   NORMALIZED FREE ENERGY PREDICTED BY IDOCK:   -2.42 KCAL/MOL
REMARK 922        TOTAL FREE ENERGY PREDICTED BY IDOCK:   -3.53 KCAL/MOL
REMARK 923 INTER-LIGAND FREE ENERGY PREDICTED BY IDOCK:   -2.79 KCAL/MOL
REMARK 924 INTRA-LIGAND FREE ENERGY PREDICTED BY IDOCK:   -0.74 KCAL/MOL
REMARK 927      BINDING AFFINITY PREDICTED BY RF-SCORE:    0.00 PKD
ROOT
HETATM    1  C   UNL     1      -9.815   9.694  69.780  1.00  0.00    -0.253 C  
HETATM    2  C   UNL     1      -9.319   8.428  70.414  1.00  0.00    -0.170 A  
HETATM    3  C   UNL     1      -9.609   7.177  69.870  1.00  0.00    -0.163 A  
HETATM    4  C   UNL     1      -9.064   6.012  70.442  1.00  0.00    -0.156 A  
HETATM    5  C   UNL     1      -8.225   6.071  71.566  1.00  0.00    -0.123 A  
HETATM    6  C   UNL     1      -7.240   7.528  73.452  1.00  0.00    -0.098 C  
HETATM    7  C   UNL     1      -8.019   7.327  72.176  1.00  0.00    -0.098 A  
HETATM    8  C   UNL     1      -8.543   8.490  71.572  1.00  0.00    -0.236 A  
ENDROOT
BRANCH   5   9
HETATM    9  S   UNL     1      -7.446   4.602  72.252  1.00  0.00    -0.085 SA 
BRANCH   9  10
HETATM   10  C   UNL     1      -8.771   3.441  72.625  1.00  0.00    -0.085 A  
HETATM   11  C   UNL     1      -9.555   3.734  73.762  1.00  0.00    -0.130 A  
HETATM   12  C   UNL     1     -10.687   2.986  74.072  1.00  0.00    -0.278 A  
HETATM   13  C   UNL     1     -11.052   1.932  73.250  1.00  0.00    -0.274 A  
HETATM   14  C   UNL     1     -10.295   1.641  72.111  1.00  0.00    -0.214 A  
HETATM   15  C   UNL     1      -9.150   2.383  71.747  1.00  0.00    -0.088 A  
BRANCH  15  16
HETATM   16  N   UNL     1      -8.511   2.114  70.544  1.00  0.00    -0.049 NA 
HETATM   17  C   UNL     1      -9.248   1.983  69.276  1.00  0.00    -0.125 C  
HETATM   18  C   UNL     1      -8.407   2.605  68.132  1.00  0.00    -0.070 C  
HETATM   19  N   UNL     1      -7.029   2.076  68.032  1.00  0.00    -0.039 NA 
HETATM   20  C   UNL     1      -6.369   2.160  69.355  1.00  0.00    -0.029 C  
HETATM   21  H   UNL     1      -6.490   2.543  67.302  1.00  0.00     0.000 HD 
HETATM   22  C   UNL     1      -7.184   1.483  70.482  1.00  0.00    -0.033 C  
ENDBRANCH  15  16
ENDBRANCH   9  10
ENDBRANCH   5   9
TORSDOF 3
ENDMDL
MODEL      251
REMARK 921   NORMALIZED FREE ENERGY PREDICTED BY IDOCK:   -2.32 KCAL/MOL
REMARK 922        TOTAL FREE ENERGY PREDICTED BY IDOCK:   -3.42 KCAL/MOL
REMARK 923 INTER-LIGAND FREE ENERGY PREDICTED BY IDOCK:   -2.88 KCAL/MOL
REMARK 924 INTRA-LIGAND FREE ENERGY PREDICTED BY IDOCK:   -0.54 KCAL/MOL
REMARK 927      BINDING AFFINITY PREDICTED BY RF-SCORE:    0.00 PKD
ROOT
HETATM    1  C   UNL     1     -10.472  11.699  66.646  1.00  0.00    -0.268 C  
HETATM    2  C   UNL     1      -9.622  10.952  67.631  1.00  0.00    -0.177 A  
HETATM    3  C   UNL     1     -10.171  10.015  68.507  1.00  0.00    -0.196 A  
HETATM    4  C   UNL     1      -9.338   9.273  69.363  1.00  0.00    -0.164 A  
HETATM    5  C   UNL     1      -7.944   9.452  69.367  1.00  0.00    -0.089 A  
HETATM    6  C   UNL     1      -5.946  10.856  68.542  1.00  0.00    -0.043 C  
HETATM    7  C   UNL     1      -7.404  10.472  68.555  1.00  0.00    -0.088 A  
HETATM    8  C   UNL     1      -8.247  11.184  67.676  1.00  0.00    -0.118 A  
ENDROOT
BRANCH   5   9
HETATM    9  S   UNL     1      -6.857   8.446  70.388  1.00  0.00    -0.038 SA 
BRANCH   9  10
HETATM   10  C   UNL     1      -7.915   7.526  71.519  1.00  0.00    -0.094 A  
HETATM   11  C   UNL     1      -8.280   8.191  72.709  1.00  0.00    -0.231 A  
HETATM   12  C   UNL     1      -9.199   7.634  73.594  1.00  0.00    -0.339 A  
HETATM   13  C   UNL     1      -9.766   6.404  73.302  1.00  0.00    -0.174 A  
HETATM   14  C   UNL     1      -9.427   5.743  72.118  1.00  0.00    -0.164 A  
HETATM   15  C   UNL     1      -8.514   6.277  71.183  1.00  0.00    -0.124 A  
BRANCH  15  16
HETATM   16  N   UNL     1      -8.309   5.625  69.975  1.00  0.00    -0.119 NA 
HETATM   17  C   UNL     1      -6.993   5.087  69.586  1.00  0.00    -0.054 C  
HETATM   18  C   UNL     1      -7.194   3.750  68.829  1.00  0.00    -0.051 C  
HETATM   19  N   UNL     1      -8.122   3.832  67.680  1.00  0.00    -0.089 NA 
HETATM   20  C   UNL     1      -9.395   4.454  68.115  1.00  0.00    -0.146 C  
HETATM   21  H   UNL     1      -8.268   2.925  67.238  1.00  0.00     0.000 HD 
HETATM   22  C   UNL     1      -9.193   5.819  68.815  1.00  0.00    -0.118 C  
ENDBRANCH  15  16
ENDBRANCH   9  10
ENDBRANCH   5   9
TORSDOF 3
ENDMDL
MODEL      252
REMARK 921   NORMALIZED FREE ENERGY PREDICTED BY IDOCK:   -2.10 KCAL/MOL
REMARK 922        TOTAL FREE ENERGY PREDICTED BY IDOCK:   -3.16 KCAL/MOL
REMARK 923 INTER-LIGAND FREE ENERGY PREDICTED BY IDOCK:   -2.58 KCAL/MOL
REMARK 924 INTRA-LIGAND FREE ENERGY PREDICTED BY IDOCK:   -0.58 KCAL/MOL
REMARK 927      BINDING AFFINITY PREDICTED BY RF-SCORE:    0.00 PKD
ROOT
HETATM    1  C   UNL     1     -14.032   7.739  70.942  1.00  0.00     0.077 C  
HETATM    2  C   UNL     1     -12.681   7.194  71.300  1.00  0.00    -0.412 A  
HETATM    3  C   UNL     1     -12.521   6.234  72.299  1.00  0.00    -0.074 A  
HETATM    4  C   UNL     1     -11.253   5.685  72.558  1.00  0.00    -0.346 A  
HETATM    5  C   UNL     1     -10.119   6.083  71.830  1.00  0.00    -0.192 A  
HETATM    6  C   UNL     1      -9.120   7.740  70.126  1.00  0.00    -0.153 C  
HETATM    7  C   UNL     1     -10.265   7.129  70.894  1.00  0.00    -0.207 A  
HETATM    8  C   UNL     1     -11.549   7.646  70.620  1.00  0.00    -0.251 A  
ENDROOT
BRANCH   5   9
HETATM    9  S   UNL     1      -8.508   5.324  72.085  1.00  0.00    -0.126 SA 
BRANCH   9  10
HETATM   10  C   UNL     1      -8.489   3.811  71.109  1.00  0.00    -0.072 A  
HETATM   11  C   UNL     1      -9.418   2.817  71.482  1.00  0.00    -0.212 A  
HETATM   12  C   UNL     1      -9.587   1.664  70.720  1.00  0.00    -0.166 A  
HETATM   13  C   UNL     1      -8.829   1.488  69.574  1.00  0.00    -0.119 A  
HETATM   14  C   UNL     1      -7.917   2.473  69.183  1.00  0.00    -0.059 A  
HETATM   15  C   UNL     1      -7.725   3.666  69.914  1.00  0.00    -0.047 A  
BRANCH  15  16
HETATM   16  N   UNL     1      -6.888   4.652  69.409  1.00  0.00    -0.048 NA 
HETATM   17  C   UNL     1      -6.846   4.989  67.976  1.00  0.00    -0.060 C  
HETATM   18  C   UNL     1      -6.659   6.519  67.818  1.00  0.00    -0.061 C  
HETATM   19  N   UNL     1      -5.500   7.071  68.552  1.00  0.00    -0.017 NA 
HETATM   20  C   UNL     1      -5.554   6.632  69.966  1.00  0.00    -0.018 C  
HETATM   21  H   UNL     1      -5.437   8.085  68.467  1.00  0.00     0.000 HD 
HETATM   22  C   UNL     1      -5.678   5.097  70.119  1.00  0.00    -0.016 C  
ENDBRANCH  15  16
ENDBRANCH   9  10
ENDBRANCH   5   9
TORSDOF 3
ENDMDL
MODEL      253
REMARK 921   NORMALIZED FREE ENERGY PREDICTED BY IDOCK:   -1.92 KCAL/MOL
REMARK 922        TOTAL FREE ENERGY PREDICTED BY IDOCK:   -2.95 KCAL/MOL
REMARK 923 INTER-LIGAND FREE ENERGY PREDICTED BY IDOCK:   -2.22 KCAL/MOL
REMARK 924 INTRA-LIGAND FREE ENERGY PREDICTED BY IDOCK:   -0.73 KCAL/MOL
REMARK 927      BINDING AFFINITY PREDICTED BY RF-SCORE:    0.00 PKD
ROOT
HETATM    1  C   UNL     1     -12.509  15.463  74.528  1.00  0.00    -0.647 C  
HETATM    2  C   UNL     1     -12.263  15.563  73.051  1.00  0.00    -0.564 A  
HETATM    3  C   UNL     1     -10.978  15.720  72.533  1.00  0.00     0.750 A  
HETATM    4  C   UNL     1     -10.771  15.731  71.142  1.00  0.00     0.134 A  
HETATM    5  C   UNL     1     -11.840  15.589  70.240  1.00  0.00    -0.357 A  
HETATM    6  C   UNL     1     -14.396  15.501  69.920  1.00  0.00     2.954 C  
HETATM    7  C   UNL     1     -13.148  15.536  70.766  1.00  0.00    -0.446 A  
HETATM    8  C   UNL     1     -13.338  15.491  72.163  1.00  0.00    -0.561 A  
ENDROOT
BRANCH   5   9
HETATM    9  S   UNL     1     -11.582  15.508  68.462  1.00  0.00    -0.336 SA 
BRANCH   9  10
HETATM   10  C   UNL     1      -9.835  15.149  68.208  1.00  0.00    -0.223 A  
HETATM   11  C   UNL     1      -9.462  13.791  68.285  1.00  0.00    -0.214 A  
HETATM   12  C   UNL     1      -8.168  13.379  67.975  1.00  0.00    -0.161 A  
HETATM   13  C   UNL     1      -7.229  14.320  67.584  1.00  0.00    -0.200 A  
HETATM   14  C   UNL     1      -7.591  15.667  67.487  1.00  0.00    -0.200 A  
HETATM   15  C   UNL     1      -8.895  16.128  67.774  1.00  0.00    -0.183 A  
BRANCH  15  16
HETATM   16  N   UNL     1      -9.217  17.460  67.547  1.00  0.00    -0.232 NA 
HETATM   17  C   UNL     1      -9.648  17.950  66.227  1.00  0.00    -0.241 C  
HETATM   18  C   UNL     1     -10.745  19.028  66.417  1.00  0.00    -0.324 C  
HETATM   19  N   UNL     1     -10.363  20.133  67.322  1.00  0.00    -0.392 NA 
HETATM   20  C   UNL     1      -9.863  19.576  68.601  1.00  0.00    -0.445 C  
HETATM   21  H   UNL     1     -11.125  20.796  67.463  1.00  0.00     0.000 HD 
HETATM   22  C   UNL     1      -8.724  18.546  68.408  1.00  0.00    -0.327 C  
ENDBRANCH  15  16
ENDBRANCH   9  10
ENDBRANCH   5   9
TORSDOF 3
ENDMDL
MODEL      254
REMARK 921   NORMALIZED FREE ENERGY PREDICTED BY IDOCK:   -1.70 KCAL/MOL
REMARK 922        TOTAL FREE ENERGY PREDICTED BY IDOCK:   -2.69 KCAL/MOL
REMARK 923 INTER-LIGAND FREE ENERGY PREDICTED BY IDOCK:   -2.06 KCAL/MOL
REMARK 924 INTRA-LIGAND FREE ENERGY PREDICTED BY IDOCK:   -0.63 KCAL/MOL
REMARK 927      BINDING AFFINITY PREDICTED BY RF-SCORE:    0.00 PKD
ROOT
HETATM    1  C   UNL     1      -9.582   5.850  74.338  1.00  0.00    -0.192 C  
HETATM    2  C   UNL     1      -9.209   6.132  72.913  1.00  0.00    -0.134 A  
HETATM    3  C   UNL     1     -10.062   5.812  71.857  1.00  0.00    -0.228 A  
HETATM    4  C   UNL     1      -9.718   6.161  70.538  1.00  0.00    -0.203 A  
HETATM    5  C   UNL     1      -8.519   6.831  70.246  1.00  0.00    -0.135 A  
HETATM    6  C   UNL     1      -6.240   7.659  71.121  1.00  0.00    -0.035 C  
HETATM    7  C   UNL     1      -7.612   7.059  71.302  1.00  0.00    -0.086 A  
HETATM    8  C   UNL     1      -7.984   6.735  72.624  1.00  0.00    -0.100 A  
ENDROOT
BRANCH   5   9
HETATM    9  S   UNL     1      -8.109   7.366  68.578  1.00  0.00    -0.126 SA 
BRANCH   9  10
HETATM   10  C   UNL     1      -7.354   5.954  67.752  1.00  0.00    -0.077 A  
HETATM   11  C   UNL     1      -7.331   4.746  68.481  1.00  0.00    -0.065 A  
HETATM   12  C   UNL     1      -6.897   3.558  67.898  1.00  0.00    -0.050 A  
HETATM   13  C   UNL     1      -6.478   3.562  66.578  1.00  0.00    -0.037 A  
HETATM   14  C   UNL     1      -6.511   4.749  65.839  1.00  0.00    -0.040 A  
HETATM   15  C   UNL     1      -6.961   5.972  66.382  1.00  0.00    -0.067 A  
BRANCH  15  16
HETATM   16  N   UNL     1      -7.077   7.086  65.562  1.00  0.00    -0.066 NA 
HETATM   17  C   UNL     1      -8.351   7.465  64.927  1.00  0.00    -0.022 C  
HETATM   18  C   UNL     1      -8.474   9.009  64.914  1.00  0.00    -0.178 C  
HETATM   19  N   UNL     1      -7.321   9.708  64.305  1.00  0.00    -0.116 NA 
HETATM   20  C   UNL     1      -6.065   9.226  64.928  1.00  0.00    -0.066 C  
HETATM   21  H   UNL     1      -7.413  10.722  64.359  1.00  0.00     0.000 HD 
HETATM   22  C   UNL     1      -5.919   7.687  64.882  1.00  0.00    -0.038 C  
ENDBRANCH  15  16
ENDBRANCH   9  10
ENDBRANCH   5   9
TORSDOF 3
ENDMDL
MODEL      255
REMARK 921   NORMALIZED FREE ENERGY PREDICTED BY IDOCK:   -0.72 KCAL/MOL
REMARK 922        TOTAL FREE ENERGY PREDICTED BY IDOCK:   -1.54 KCAL/MOL
REMARK 923 INTER-LIGAND FREE ENERGY PREDICTED BY IDOCK:   -1.28 KCAL/MOL
REMARK 924 INTRA-LIGAND FREE ENERGY PREDICTED BY IDOCK:   -0.26 KCAL/MOL
REMARK 927      BINDING AFFINITY PREDICTED BY RF-SCORE:    0.00 PKD
ROOT
HETATM    1  C   UNL     1     -12.955   6.377  71.117  1.00  0.00     0.435 C  
HETATM    2  C   UNL     1     -11.615   7.015  70.892  1.00  0.00    -0.370 A  
HETATM    3  C   UNL     1     -11.179   8.091  71.664  1.00  0.00    -0.301 A  
HETATM    4  C   UNL     1      -9.887   8.616  71.482  1.00  0.00    -0.342 A  
HETATM    5  C   UNL     1      -9.006   8.083  70.526  1.00  0.00    -0.152 A  
HETATM    6  C   UNL     1      -8.699   6.478  68.532  1.00  0.00    -0.122 C  
HETATM    7  C   UNL     1      -9.487   7.064  69.677  1.00  0.00    -0.147 A  
HETATM    8  C   UNL     1     -10.773   6.524  69.893  1.00  0.00    -0.310 A  
ENDROOT
BRANCH   5   9
HETATM    9  S   UNL     1      -7.320   8.681  70.345  1.00  0.00    -0.067 SA 
BRANCH   9  10
HETATM   10  C   UNL     1      -6.514   8.447  71.939  1.00  0.00    -0.067 A  
HETATM   11  C   UNL     1      -6.239   9.619  72.675  1.00  0.00     0.584 A  
HETATM   12  C   UNL     1      -5.743   9.556  73.975  1.00  0.00     0.095 A  
HETATM   13  C   UNL     1      -5.513   8.319  74.556  1.00  0.00    -0.088 A  
HETATM   14  C   UNL     1      -5.797   7.150  73.843  1.00  0.00    -0.057 A  
HETATM   15  C   UNL     1      -6.318   7.166  72.531  1.00  0.00    -0.052 A  
BRANCH  15  16
HETATM   16  N   UNL     1      -6.686   5.972  71.925  1.00  0.00    -0.062 NA 
HETATM   17  C   UNL     1      -5.981   5.441  70.745  1.00  0.00    -0.021 C  
HETATM   18  C   UNL     1      -5.898   3.898  70.855  1.00  0.00    -0.014 C  
HETATM   19  N   UNL     1      -7.200   3.230  71.070  1.00  0.00    -0.033 NA 
HETATM   20  C   UNL     1      -7.896   3.861  72.216  1.00  0.00    -0.076 C  
HETATM   21  H   UNL     1      -7.102   2.222  71.187  1.00  0.00     0.000 HD 
HETATM   22  C   UNL     1      -8.031   5.396  72.072  1.00  0.00    -0.113 C  
ENDBRANCH  15  16
ENDBRANCH   9  10
ENDBRANCH   5   9
TORSDOF 3
ENDMDL
MODEL      256
REMARK 921   NORMALIZED FREE ENERGY PREDICTED BY IDOCK:   -0.41 KCAL/MOL
REMARK 922        TOTAL FREE ENERGY PREDICTED BY IDOCK:   -1.18 KCAL/MOL
REMARK 923 INTER-LIGAND FREE ENERGY PREDICTED BY IDOCK:   -2.95 KCAL/MOL
REMARK 924 INTRA-LIGAND FREE ENERGY PREDICTED BY IDOCK:    1.77 KCAL/MOL
REMARK 927      BINDING AFFINITY PREDICTED BY RF-SCORE:    0.00 PKD
ROOT
HETATM    1  C   UNL     1      -9.813   9.930  62.486  1.00  0.00     0.419 C  
HETATM    2  C   UNL     1      -9.651  10.393  63.904  1.00  0.00    -0.370 A  
HETATM    3  C   UNL     1     -10.744  10.793  64.672  1.00  0.00    -0.160 A  
HETATM    4  C   UNL     1     -10.570  11.145  66.022  1.00  0.00    -0.298 A  
HETATM    5  C   UNL     1      -9.305  11.110  66.632  1.00  0.00    -0.177 A  
HETATM    6  C   UNL     1      -6.761  10.845  66.312  1.00  0.00    -0.124 C  
HETATM    7  C   UNL     1      -8.188  10.807  65.826  1.00  0.00    -0.146 A  
HETATM    8  C   UNL     1      -8.381  10.421  64.482  1.00  0.00    -0.146 A  
ENDROOT
BRANCH   5   9
HETATM    9  S   UNL     1      -9.080  11.468  68.381  1.00  0.00    -0.169 SA 
BRANCH   9  10
HETATM   10  C   UNL     1      -7.568  10.633  68.889  1.00  0.00    -0.113 A  
HETATM   11  C   UNL     1      -6.374  11.372  68.757  1.00  0.00    -0.053 A  
HETATM   12  C   UNL     1      -5.163  10.882  69.241  1.00  0.00    -0.041 A  
HETATM   13  C   UNL     1      -5.130   9.645  69.864  1.00  0.00    -0.033 A  
HETATM   14  C   UNL     1      -6.309   8.910  70.017  1.00  0.00    -0.037 A  
HETATM   15  C   UNL     1      -7.561   9.374  69.559  1.00  0.00    -0.086 A  
BRANCH  15  16
HETATM   16  N   UNL     1      -8.709   8.648  69.845  1.00  0.00    -0.130 NA 
HETATM   17  C   UNL     1      -9.563   8.952  71.006  1.00  0.00    -0.255 C  
HETATM   18  C   UNL     1     -11.047   8.741  70.615  1.00  0.00    -0.246 C  
HETATM   19  N   UNL     1     -11.344   7.411  70.041  1.00  0.00    -0.448 NA 
HETATM   20  C   UNL     1     -10.403   7.128  68.933  1.00  0.00    -0.196 C  
HETATM   21  H   UNL     1     -12.318   7.326  69.750  1.00  0.00     0.000 HD 
HETATM   22  C   UNL     1      -8.919   7.279  69.346  1.00  0.00    -0.139 C  
ENDBRANCH  15  16
ENDBRANCH   9  10
ENDBRANCH   5   9
TORSDOF 3
ENDMDL
MODEL      257
REMARK 921   NORMALIZED FREE ENERGY PREDICTED BY IDOCK:    3.40 KCAL/MOL
REMARK 922        TOTAL FREE ENERGY PREDICTED BY IDOCK:    3.30 KCAL/MOL
REMARK 923 INTER-LIGAND FREE ENERGY PREDICTED BY IDOCK:    0.71 KCAL/MOL
REMARK 924 INTRA-LIGAND FREE ENERGY PREDICTED BY IDOCK:    2.59 KCAL/MOL
REMARK 927      BINDING AFFINITY PREDICTED BY RF-SCORE:    0.00 PKD
ROOT
HETATM    1  C   UNL     1      -8.548  16.221  69.959  1.00  0.00     1.107 C  
HETATM    2  C   UNL     1      -9.281  14.923  69.786  1.00  0.00     0.183 A  
HETATM    3  C   UNL     1     -10.244  14.500  70.702  1.00  0.00     1.122 A  
HETATM    4  C   UNL     1     -10.971  13.318  70.471  1.00  0.00     1.456 A  
HETATM    5  C   UNL     1     -10.751  12.534  69.327  1.00  0.00     0.072 A  
HETATM    6  C   UNL     1      -9.277  12.102  67.256  1.00  0.00    -0.185 C  
HETATM    7  C   UNL     1      -9.705  12.908  68.457  1.00  0.00    -0.129 A  
HETATM    8  C   UNL     1      -9.008  14.114  68.683  1.00  0.00    -0.132 A  
ENDROOT
BRANCH   5   9
HETATM    9  S   UNL     1     -11.735  11.071  68.971  1.00  0.00    -0.328 SA 
BRANCH   9  10
HETATM   10  C   UNL     1     -11.291   9.835  70.204  1.00  0.00    -0.251 A  
HETATM   11  C   UNL     1     -12.283   9.523  71.157  1.00  0.00    -0.421 A  
HETATM   12  C   UNL     1     -12.103   8.490  72.074  1.00  0.00    -0.428 A  
HETATM   13  C   UNL     1     -10.929   7.756  72.051  1.00  0.00    -0.305 A  
HETATM   14  C   UNL     1      -9.945   8.043  71.100  1.00  0.00    -0.206 A  
HETATM   15  C   UNL     1     -10.091   9.068  70.140  1.00  0.00    -0.193 A  
BRANCH  15  16
HETATM   16  N   UNL     1      -9.127   9.226  69.153  1.00  0.00    -0.142 NA 
HETATM   17  C   UNL     1      -9.399   8.932  67.735  1.00  0.00    -0.141 C  
HETATM   18  C   UNL     1      -8.664   9.970  66.850  1.00  0.00    -0.128 C  
HETATM   19  N   UNL     1      -7.215  10.088  67.125  1.00  0.00    -0.089 NA 
HETATM   20  C   UNL     1      -7.002  10.301  68.575  1.00  0.00    -0.066 C  
HETATM   21  H   UNL     1      -6.774  10.814  66.560  1.00  0.00     0.000 HD 
HETATM   22  C   UNL     1      -7.686   9.225  69.452  1.00  0.00    -0.082 C  
ENDBRANCH  15  16
ENDBRANCH   9  10
ENDBRANCH   5   9
TORSDOF 3
ENDMDL
MODEL      258
REMARK 921   NORMALIZED FREE ENERGY PREDICTED BY IDOCK:    5.54 KCAL/MOL
REMARK 922        TOTAL FREE ENERGY PREDICTED BY IDOCK:    5.82 KCAL/MOL
REMARK 923 INTER-LIGAND FREE ENERGY PREDICTED BY IDOCK:    0.63 KCAL/MOL
REMARK 924 INTRA-LIGAND FREE ENERGY PREDICTED BY IDOCK:    5.19 KCAL/MOL
REMARK 927      BINDING AFFINITY PREDICTED BY RF-SCORE:    0.00 PKD
ROOT
HETATM    1  C   UNL     1      -6.756  11.049  65.936  1.00  0.00     0.028 C  
HETATM    2  C   UNL     1      -7.279  11.947  67.019  1.00  0.00    -0.118 A  
HETATM    3  C   UNL     1      -7.321  11.536  68.351  1.00  0.00    -0.097 A  
HETATM    4  C   UNL     1      -7.742  12.428  69.354  1.00  0.00     0.586 A  
HETATM    5  C   UNL     1      -8.132  13.743  69.050  1.00  0.00     0.168 A  
HETATM    6  C   UNL     1      -8.697  15.455  67.207  1.00  0.00    -0.215 C  
HETATM    7  C   UNL     1      -8.188  14.121  67.691  1.00  0.00    -0.193 A  
HETATM    8  C   UNL     1      -7.730  13.228  66.699  1.00  0.00     0.731 A  
ENDROOT
BRANCH   5   9
HETATM    9  S   UNL     1      -8.584  14.923  70.330  1.00  0.00     1.326 SA 
BRANCH   9  10
HETATM   10  C   UNL     1      -9.186  16.396  69.486  1.00  0.00     0.070 A  
HETATM   11  C   UNL     1      -8.326  16.953  68.516  1.00  0.00    -0.257 A  
HETATM   12  C   UNL     1      -8.737  18.009  67.707  1.00  0.00    -0.251 A  
HETATM   13  C   UNL     1     -10.015  18.524  67.857  1.00  0.00    -0.374 A  
HETATM   14  C   UNL     1     -10.883  17.970  68.803  1.00  0.00     0.343 A  
HETATM   15  C   UNL     1     -10.516  16.888  69.632  1.00  0.00    -0.158 A  
BRANCH  15  16
HETATM   16  N   UNL     1     -11.463  16.312  70.467  1.00  0.00    -0.334 NA 
HETATM   17  C   UNL     1     -12.422  15.300  69.990  1.00  0.00    -0.293 C  
HETATM   18  C   UNL     1     -12.641  14.242  71.101  1.00  0.00    -0.362 C  
HETATM   19  N   UNL     1     -13.035  14.806  72.410  1.00  0.00    -0.335 NA 
HETATM   20  C   UNL     1     -12.082  15.872  72.798  1.00  0.00    -0.505 C  
HETATM   21  H   UNL     1     -13.122  14.087  73.128  1.00  0.00     0.000 HD 
HETATM   22  C   UNL     1     -11.914  16.959  71.710  1.00  0.00     0.871 C  
ENDBRANCH  15  16
ENDBRANCH   9  10
ENDBRANCH   5   9
TORSDOF 3
ENDMDL
MODEL      259
REMARK 921   NORMALIZED FREE ENERGY PREDICTED BY IDOCK:    5.73 KCAL/MOL
REMARK 922        TOTAL FREE ENERGY PREDICTED BY IDOCK:    6.05 KCAL/MOL
REMARK 923 INTER-LIGAND FREE ENERGY PREDICTED BY IDOCK:    5.21 KCAL/MOL
REMARK 924 INTRA-LIGAND FREE ENERGY PREDICTED BY IDOCK:    0.84 KCAL/MOL
REMARK 927      BINDING AFFINITY PREDICTED BY RF-SCORE:    0.00 PKD
ROOT
HETATM    1  C   UNL     1      -5.182  20.814  67.842  1.00  0.00    -0.268 C  
HETATM    2  C   UNL     1      -6.111  19.769  67.297  1.00  0.00    -0.199 A  
HETATM    3  C   UNL     1      -7.143  20.097  66.418  1.00  0.00    -0.297 A  
HETATM    4  C   UNL     1      -7.947  19.086  65.862  1.00  0.00    -0.099 A  
HETATM    5  C   UNL     1      -7.742  17.731  66.173  1.00  0.00    -0.245 A  
HETATM    6  C   UNL     1      -6.517  16.020  67.662  1.00  0.00    -0.189 C  
HETATM    7  C   UNL     1      -6.767  17.414  67.142  1.00  0.00    -0.203 A  
HETATM    8  C   UNL     1      -5.945  18.434  67.666  1.00  0.00    -0.172 A  
ENDROOT
BRANCH   5   9
HETATM    9  S   UNL     1      -8.701  16.420  65.400  1.00  0.00     1.791 SA 
BRANCH   9  10
HETATM   10  C   UNL     1     -10.150  16.158  66.437  1.00  0.00    -0.308 A  
HETATM   11  C   UNL     1     -11.219  17.060  66.253  1.00  0.00     0.613 A  
HETATM   12  C   UNL     1     -12.438  16.876  66.900  1.00  0.00     4.001 A  
HETATM   13  C   UNL     1     -12.606  15.789  67.741  1.00  0.00     1.689 A  
HETATM   14  C   UNL     1     -11.560  14.878  67.919  1.00  0.00    -0.364 A  
HETATM   15  C   UNL     1     -10.313  15.013  67.270  1.00  0.00    -0.249 A  
BRANCH  15  16
HETATM   16  N   UNL     1      -9.360  14.012  67.401  1.00  0.00    -0.212 NA 
HETATM   17  C   UNL     1      -9.446  12.743  66.659  1.00  0.00    -0.249 C  
HETATM   18  C   UNL     1      -8.021  12.302  66.239  1.00  0.00     0.510 C  
HETATM   19  N   UNL     1      -7.052  12.228  67.354  1.00  0.00    -0.141 NA 
HETATM   20  C   UNL     1      -7.070  13.502  68.111  1.00  0.00    -0.117 C  
HETATM   21  H   UNL     1      -6.115  11.984  67.035  1.00  0.00     0.000 HD 
HETATM   22  C   UNL     1      -8.488  13.906  68.582  1.00  0.00    -0.082 C  
ENDBRANCH  15  16
ENDBRANCH   9  10
ENDBRANCH   5   9
TORSDOF 3
ENDMDL
MODEL      260
REMARK 921   NORMALIZED FREE ENERGY PREDICTED BY IDOCK:    5.80 KCAL/MOL
REMARK 922        TOTAL FREE ENERGY PREDICTED BY IDOCK:    6.13 KCAL/MOL
REMARK 923 INTER-LIGAND FREE ENERGY PREDICTED BY IDOCK:    4.15 KCAL/MOL
REMARK 924 INTRA-LIGAND FREE ENERGY PREDICTED BY IDOCK:    1.98 KCAL/MOL
REMARK 927      BINDING AFFINITY PREDICTED BY RF-SCORE:    0.00 PKD
ROOT
HETATM    1  C   UNL     1     -12.070  10.101  63.809  1.00  0.00     6.395 C  
HETATM    2  C   UNL     1     -11.581  10.968  64.933  1.00  0.00     0.551 A  
HETATM    3  C   UNL     1     -10.580  10.539  65.804  1.00  0.00    -0.137 A  
HETATM    4  C   UNL     1     -10.088  11.404  66.798  1.00  0.00    -0.250 A  
HETATM    5  C   UNL     1     -10.585  12.709  66.946  1.00  0.00    -0.240 A  
HETATM    6  C   UNL     1     -12.381  14.426  66.258  1.00  0.00    -0.325 C  
HETATM    7  C   UNL     1     -11.669  13.102  66.133  1.00  0.00    -0.428 A  
HETATM    8  C   UNL     1     -12.129  12.238  65.117  1.00  0.00    -0.379 A  
ENDROOT
BRANCH   5   9
HETATM    9  S   UNL     1      -9.902  13.858  68.150  1.00  0.00    -0.245 SA 
BRANCH   9  10
HETATM   10  C   UNL     1      -9.256  15.258  67.221  1.00  0.00    -0.199 A  
HETATM   11  C   UNL     1      -9.996  15.645  66.083  1.00  0.00    -0.335 A  
HETATM   12  C   UNL     1      -9.669  16.793  65.365  1.00  0.00     0.336 A  
HETATM   13  C   UNL     1      -8.597  17.570  65.774  1.00  0.00     0.245 A  
HETATM   14  C   UNL     1      -7.866  17.207  66.910  1.00  0.00    -0.250 A  
HETATM   15  C   UNL     1      -8.172  16.063  67.679  1.00  0.00    -0.148 A  
BRANCH  15  16
HETATM   16  N   UNL     1      -7.479  15.824  68.858  1.00  0.00    -0.159 NA 
HETATM   17  C   UNL     1      -7.750  14.648  69.703  1.00  0.00     0.062 C  
HETATM   18  C   UNL     1      -6.415  14.128  70.294  1.00  0.00    -0.071 C  
HETATM   19  N   UNL     1      -5.623  15.154  71.007  1.00  0.00    -0.080 NA 
HETATM   20  C   UNL     1      -5.454  16.342  70.137  1.00  0.00    -0.182 C  
HETATM   21  H   UNL     1      -4.730  14.790  71.338  1.00  0.00     0.000 HD 
HETATM   22  C   UNL     1      -6.796  16.895  69.600  1.00  0.00    -0.014 C  
ENDBRANCH  15  16
ENDBRANCH   9  10
ENDBRANCH   5   9
TORSDOF 3
ENDMDL
MODEL      261
REMARK 921   NORMALIZED FREE ENERGY PREDICTED BY IDOCK:    7.40 KCAL/MOL
REMARK 922        TOTAL FREE ENERGY PREDICTED BY IDOCK:    8.01 KCAL/MOL
REMARK 923 INTER-LIGAND FREE ENERGY PREDICTED BY IDOCK:    4.33 KCAL/MOL
REMARK 924 INTRA-LIGAND FREE ENERGY PREDICTED BY IDOCK:    3.68 KCAL/MOL
REMARK 927      BINDING AFFINITY PREDICTED BY RF-SCORE:    0.00 PKD
ROOT
HETATM    1  C   UNL     1     -11.842  16.827  64.120  1.00  0.00     1.401 C  
HETATM    2  C   UNL     1     -11.167  16.349  65.372  1.00  0.00     0.080 A  
HETATM    3  C   UNL     1     -10.080  17.029  65.922  1.00  0.00    -0.281 A  
HETATM    4  C   UNL     1      -9.519  16.601  67.138  1.00  0.00    -0.236 A  
HETATM    5  C   UNL     1     -10.025  15.487  67.828  1.00  0.00    -0.222 A  
HETATM    6  C   UNL     1     -11.616  13.459  67.781  1.00  0.00    -0.375 C  
HETATM    7  C   UNL     1     -11.055  14.740  67.217  1.00  0.00    -0.334 A  
HETATM    8  C   UNL     1     -11.631  15.201  66.014  1.00  0.00    -0.080 A  
ENDROOT
BRANCH   5   9
HETATM    9  S   UNL     1      -9.379  14.983  69.430  1.00  0.00    -0.055 SA 
BRANCH   9  10
HETATM   10  C   UNL     1      -8.090  13.768  69.108  1.00  0.00     0.290 A  
HETATM   11  C   UNL     1      -8.320  12.469  69.608  1.00  0.00     1.750 A  
HETATM   12  C   UNL     1      -7.460  11.416  69.307  1.00  0.00    -0.005 A  
HETATM   13  C   UNL     1      -6.356  11.647  68.503  1.00  0.00    -0.052 A  
HETATM   14  C   UNL     1      -6.126  12.926  67.986  1.00  0.00    -0.107 A  
HETATM   15  C   UNL     1      -6.980  14.019  68.249  1.00  0.00    -0.107 A  
BRANCH  15  16
HETATM   16  N   UNL     1      -6.757  15.233  67.613  1.00  0.00    -0.162 NA 
HETATM   17  C   UNL     1      -6.915  15.397  66.157  1.00  0.00     2.942 C  
HETATM   18  C   UNL     1      -7.520  16.794  65.866  1.00  0.00     0.377 C  
HETATM   19  N   UNL     1      -6.778  17.919  66.475  1.00  0.00    -0.196 NA 
HETATM   20  C   UNL     1      -6.580  17.658  67.920  1.00  0.00    -0.187 C  
HETATM   21  H   UNL     1      -7.232  18.816  66.305  1.00  0.00     0.000 HD 
HETATM   22  C   UNL     1      -5.918  16.288  68.202  1.00  0.00    -0.109 C  
ENDBRANCH  15  16
ENDBRANCH   9  10
ENDBRANCH   5   9
TORSDOF 3
ENDMDL
MODEL      262
REMARK 921   NORMALIZED FREE ENERGY PREDICTED BY IDOCK:   15.88 KCAL/MOL
REMARK 922        TOTAL FREE ENERGY PREDICTED BY IDOCK:   17.97 KCAL/MOL
REMARK 923 INTER-LIGAND FREE ENERGY PREDICTED BY IDOCK:   17.94 KCAL/MOL
REMARK 924 INTRA-LIGAND FREE ENERGY PREDICTED BY IDOCK:    0.03 KCAL/MOL
REMARK 927      BINDING AFFINITY PREDICTED BY RF-SCORE:    0.00 PKD
ROOT
HETATM    1  C   UNL     1      -6.759  11.065  65.946  1.00  0.00     0.028 C  
HETATM    2  C   UNL     1      -7.231  11.994  67.026  1.00  0.00    -0.096 A  
HETATM    3  C   UNL     1      -7.276  11.598  68.362  1.00  0.00    -0.088 A  
HETATM    4  C   UNL     1      -7.648  12.517  69.361  1.00  0.00     0.513 A  
HETATM    5  C   UNL     1      -7.986  13.844  69.048  1.00  0.00     0.098 A  
HETATM    6  C   UNL     1      -8.498  15.561  67.194  1.00  0.00    -0.239 C  
HETATM    7  C   UNL     1      -8.040  14.211  67.686  1.00  0.00    -0.188 A  
HETATM    8  C   UNL     1      -7.632  13.290  66.698  1.00  0.00     0.849 A  
ENDROOT
BRANCH   5   9
HETATM    9  S   UNL     1      -8.373  15.054  70.321  1.00  0.00     1.178 SA 
BRANCH   9  10
HETATM   10  C   UNL     1      -7.505  16.569  69.876  1.00  0.00     0.680 A  
HETATM   11  C   UNL     1      -6.126  16.440  69.606  1.00  0.00    -0.205 A  
HETATM   12  C   UNL     1      -5.381  17.513  69.124  1.00  0.00    -0.173 A  
HETATM   13  C   UNL     1      -6.005  18.730  68.904  1.00  0.00    -0.228 A  
HETATM   14  C   UNL     1      -7.374  18.867  69.150  1.00  0.00    -0.264 A  
HETATM   15  C   UNL     1      -8.173  17.802  69.622  1.00  0.00     0.953 A  
BRANCH  15  16
HETATM   16  N   UNL     1      -9.546  17.973  69.736  1.00  0.00     0.650 NA 
HETATM   17  C   UNL     1     -10.456  17.812  68.588  1.00  0.00    -0.292 C  
HETATM   18  C   UNL     1     -11.769  17.147  69.070  1.00  0.00     1.212 C  
HETATM   19  N   UNL     1     -12.423  17.837  70.203  1.00  0.00     7.168 NA 
HETATM   20  C   UNL     1     -11.438  18.042  71.292  1.00  0.00     4.035 C  
HETATM   21  H   UNL     1     -13.255  17.344  70.525  1.00  0.00     0.000 HD 
HETATM   22  C   UNL     1     -10.154  18.763  70.818  1.00  0.00     2.349 C  
ENDBRANCH  15  16
ENDBRANCH   9  10
ENDBRANCH   5   9
TORSDOF 3
ENDMDL
MODEL      263
REMARK 921   NORMALIZED FREE ENERGY PREDICTED BY IDOCK:   16.62 KCAL/MOL
REMARK 922        TOTAL FREE ENERGY PREDICTED BY IDOCK:   18.84 KCAL/MOL
REMARK 923 INTER-LIGAND FREE ENERGY PREDICTED BY IDOCK:   16.30 KCAL/MOL
REMARK 924 INTRA-LIGAND FREE ENERGY PREDICTED BY IDOCK:    2.54 KCAL/MOL
REMARK 927      BINDING AFFINITY PREDICTED BY RF-SCORE:    0.00 PKD
ROOT
HETATM    1  C   UNL     1      -5.355  21.044  68.765  1.00  0.00    -0.367 C  
HETATM    2  C   UNL     1      -6.207  19.869  68.384  1.00  0.00    -0.299 A  
HETATM    3  C   UNL     1      -7.597  19.908  68.497  1.00  0.00    -0.286 A  
HETATM    4  C   UNL     1      -8.374  18.821  68.058  1.00  0.00    -0.315 A  
HETATM    5  C   UNL     1      -7.783  17.674  67.503  1.00  0.00    -0.201 A  
HETATM    6  C   UNL     1      -5.602  16.382  67.032  1.00  0.00    -0.047 C  
HETATM    7  C   UNL     1      -6.374  17.595  67.487  1.00  0.00    -0.176 A  
HETATM    8  C   UNL     1      -5.608  18.706  67.899  1.00  0.00    -0.176 A  
ENDROOT
BRANCH   5   9
HETATM    9  S   UNL     1      -8.766  16.315  66.852  1.00  0.00    -0.231 SA 
BRANCH   9  10
HETATM   10  C   UNL     1      -8.132  14.809  67.610  1.00  0.00    -0.170 A  
HETATM   11  C   UNL     1      -7.807  13.757  66.727  1.00  0.00     0.489 A  
HETATM   12  C   UNL     1      -7.185  12.598  67.183  1.00  0.00    -0.040 A  
HETATM   13  C   UNL     1      -6.880  12.473  68.529  1.00  0.00    -0.083 A  
HETATM   14  C   UNL     1      -7.182  13.515  69.412  1.00  0.00     0.182 A  
HETATM   15  C   UNL     1      -7.795  14.715  68.992  1.00  0.00    -0.133 A  
BRANCH  15  16
HETATM   16  N   UNL     1      -7.962  15.754  69.898  1.00  0.00     0.126 NA 
HETATM   17  C   UNL     1      -6.984  16.032  70.964  1.00  0.00     2.337 C  
HETATM   18  C   UNL     1      -6.862  17.564  71.156  1.00  0.00     3.678 C  
HETATM   19  N   UNL     1      -8.149  18.254  71.390  1.00  0.00     7.517 NA 
HETATM   20  C   UNL     1      -9.115  17.872  70.333  1.00  0.00     3.387 C  
HETATM   21  H   UNL     1      -8.037  19.265  71.462  1.00  0.00     0.000 HD 
HETATM   22  C   UNL     1      -9.280  16.340  70.189  1.00  0.00     1.109 C  
ENDBRANCH  15  16
ENDBRANCH   9  10
ENDBRANCH   5   9
TORSDOF 3
ENDMDL
