MODEL        1
REMARK 921   NORMALIZED FREE ENERGY PREDICTED BY IDOCK:   -7.46 KCAL/MOL
REMARK 922        TOTAL FREE ENERGY PREDICTED BY IDOCK:  -10.86 KCAL/MOL
REMARK 923 INTER-LIGAND FREE ENERGY PREDICTED BY IDOCK:   -9.64 KCAL/MOL
REMARK 924 INTRA-LIGAND FREE ENERGY PREDICTED BY IDOCK:   -1.21 KCAL/MOL
REMARK 927      BINDING AFFINITY PREDICTED BY RF-SCORE:    0.00 PKD
ROOT
HETATM    1  C   UNL     1      -6.331  18.410  65.479  1.00  0.00    -0.310 C  
HETATM    2  C   UNL     1      -7.482  17.606  66.091  1.00  0.00    -0.299 C  
HETATM    3  C   UNL     1      -7.061  17.018  67.444  1.00  0.00    -0.183 C  
ENDROOT
BRANCH   2   4
HETATM    4  N   UNL     1      -8.695  18.410  66.254  1.00  0.00    -0.451 NA 
HETATM    5  N   UNL     1      -8.553  19.760  66.298  1.00  0.00    -0.363 NA 
HETATM    6  C   UNL     1      -9.715  20.189  66.774  1.00  0.00    -0.443 A  
HETATM    7  C   UNL     1     -10.624  19.140  66.978  1.00  0.00    -0.551 A  
HETATM    8  C   UNL     1      -9.987  17.988  66.541  1.00  0.00    -0.371 A  
BRANCH   8   9
HETATM    9  C   UNL     1     -10.510  16.642  66.281  1.00  0.00    -0.268 A  
HETATM   10  C   UNL     1     -10.840  15.675  67.238  1.00  0.00    -0.298 A  
HETATM   11  C   UNL     1     -11.377  15.324  64.566  1.00  0.00    -0.300 A  
HETATM   12  C   UNL     1     -11.440  14.485  66.775  1.00  0.00    -0.376 A  
HETATM   13  N   UNL     1     -10.783  16.470  64.959  1.00  0.00    -0.692 NA 
HETATM   14  C   UNL     1     -11.724  14.309  65.429  1.00  0.00    -0.354 A  
BRANCH  10  15
HETATM   15  C   UNL     1     -10.577  15.767  68.718  1.00  0.00    -0.239 C  
BRANCH  15  16
HETATM   16  O   UNL     1     -11.110  14.607  69.344  1.00  0.00    -0.252 OA 
BRANCH  16  17
HETATM   17  C   UNL     1     -11.781  14.719  70.529  1.00  0.00    -0.293 A  
HETATM   18  C   UNL     1     -11.961  15.927  71.217  1.00  0.00    -0.493 A  
HETATM   19  C   UNL     1     -12.735  15.981  72.381  1.00  0.00    -0.496 A  
HETATM   20  C   UNL     1     -13.319  14.827  72.892  1.00  0.00    -0.582 A  
HETATM   21  C   UNL     1     -13.125  13.612  72.236  1.00  0.00    -0.395 A  
HETATM   22  O   UNL     1     -13.677  12.477  72.765  1.00  0.00    -0.652 OA 
HETATM   23  C   UNL     1     -12.367  13.548  71.053  1.00  0.00    -0.422 A  
HETATM   24  C   UNL     1     -12.225  12.221  70.391  1.00  0.00    -0.288 C  
HETATM   25  H   UNL     1     -13.545  11.649  72.319  1.00  0.00     0.000 HD 
HETATM   26  O   UNL     1     -11.504  11.989  69.428  1.00  0.00    -0.273 OA 
ENDBRANCH  16  17
ENDBRANCH  15  16
ENDBRANCH  10  15
ENDBRANCH   8   9
ENDBRANCH   2   4
TORSDOF 5
ENDMDL
MODEL        2
REMARK 921   NORMALIZED FREE ENERGY PREDICTED BY IDOCK:   -7.35 KCAL/MOL
REMARK 922        TOTAL FREE ENERGY PREDICTED BY IDOCK:  -10.71 KCAL/MOL
REMARK 923 INTER-LIGAND FREE ENERGY PREDICTED BY IDOCK:   -9.54 KCAL/MOL
REMARK 924 INTRA-LIGAND FREE ENERGY PREDICTED BY IDOCK:   -1.18 KCAL/MOL
REMARK 927      BINDING AFFINITY PREDICTED BY RF-SCORE:    0.00 PKD
ROOT
HETATM    1  C   UNL     1     -10.235  19.826  68.395  1.00  0.00    -0.568 C  
HETATM    2  C   UNL     1     -10.400  18.788  67.281  1.00  0.00    -0.416 C  
HETATM    3  C   UNL     1     -10.748  19.479  65.956  1.00  0.00    -0.529 C  
ENDROOT
BRANCH   2   4
HETATM    4  N   UNL     1      -9.204  17.960  67.112  1.00  0.00    -0.254 NA 
HETATM    5  N   UNL     1      -8.014  18.492  67.490  1.00  0.00    -0.235 NA 
HETATM    6  C   UNL     1      -7.114  17.693  66.930  1.00  0.00    -0.185 A  
HETATM    7  C   UNL     1      -7.708  16.621  66.248  1.00  0.00    -0.273 A  
HETATM    8  C   UNL     1      -9.074  16.743  66.455  1.00  0.00    -0.289 A  
BRANCH   8   9
HETATM    9  C   UNL     1     -10.170  15.802  66.200  1.00  0.00    -0.315 A  
HETATM   10  C   UNL     1     -10.796  14.975  67.140  1.00  0.00    -0.314 A  
HETATM   11  C   UNL     1     -11.712  15.201  64.559  1.00  0.00    -0.328 A  
HETATM   12  C   UNL     1     -11.912  14.229  66.705  1.00  0.00    -0.454 A  
HETATM   13  N   UNL     1     -10.629  15.918  64.923  1.00  0.00    -0.580 NA 
HETATM   14  C   UNL     1     -12.385  14.350  65.407  1.00  0.00    -0.359 A  
BRANCH  10  15
HETATM   15  C   UNL     1     -10.366  14.773  68.568  1.00  0.00    -0.237 C  
BRANCH  15  16
HETATM   16  O   UNL     1     -11.194  13.777  69.154  1.00  0.00    -0.252 OA 
BRANCH  16  17
HETATM   17  C   UNL     1     -12.007  14.097  70.204  1.00  0.00    -0.332 A  
HETATM   18  C   UNL     1     -12.392  15.405  70.529  1.00  0.00    -0.452 A  
HETATM   19  C   UNL     1     -13.299  15.650  71.565  1.00  0.00    -0.535 A  
HETATM   20  C   UNL     1     -13.815  14.597  72.312  1.00  0.00    -0.583 A  
HETATM   21  C   UNL     1     -13.420  13.292  72.022  1.00  0.00    -0.507 A  
HETATM   22  O   UNL     1     -13.909  12.266  72.784  1.00  0.00    -0.509 OA 
HETATM   23  C   UNL     1     -12.527  13.030  70.968  1.00  0.00    -0.385 A  
HETATM   24  C   UNL     1     -12.170  11.609  70.697  1.00  0.00    -0.366 C  
HETATM   25  H   UNL     1     -13.640  11.376  72.586  1.00  0.00     0.000 HD 
HETATM   26  O   UNL     1     -11.321  11.237  69.896  1.00  0.00    -0.277 OA 
ENDBRANCH  16  17
ENDBRANCH  15  16
ENDBRANCH  10  15
ENDBRANCH   8   9
ENDBRANCH   2   4
TORSDOF 5
ENDMDL
MODEL        3
REMARK 921   NORMALIZED FREE ENERGY PREDICTED BY IDOCK:   -7.03 KCAL/MOL
REMARK 922        TOTAL FREE ENERGY PREDICTED BY IDOCK:  -10.30 KCAL/MOL
REMARK 923 INTER-LIGAND FREE ENERGY PREDICTED BY IDOCK:   -9.57 KCAL/MOL
REMARK 924 INTRA-LIGAND FREE ENERGY PREDICTED BY IDOCK:   -0.73 KCAL/MOL
REMARK 927      BINDING AFFINITY PREDICTED BY RF-SCORE:    0.00 PKD
ROOT
HETATM    1  C   UNL     1     -10.169  19.763  68.625  1.00  0.00    -0.515 C  
HETATM    2  C   UNL     1     -10.414  18.925  67.367  1.00  0.00    -0.449 C  
HETATM    3  C   UNL     1     -10.522  19.833  66.135  1.00  0.00    -0.613 C  
ENDROOT
BRANCH   2   4
HETATM    4  N   UNL     1      -9.368  17.922  67.156  1.00  0.00    -0.260 NA 
HETATM    5  N   UNL     1      -8.202  18.338  66.598  1.00  0.00    -0.254 NA 
HETATM    6  C   UNL     1      -7.605  17.212  66.228  1.00  0.00    -0.317 A  
HETATM    7  C   UNL     1      -8.341  16.076  66.594  1.00  0.00    -0.331 A  
HETATM    8  C   UNL     1      -9.446  16.542  67.291  1.00  0.00    -0.235 A  
BRANCH   8   9
HETATM    9  C   UNL     1     -10.429  15.830  68.115  1.00  0.00    -0.263 A  
HETATM   10  C   UNL     1     -11.419  14.950  67.662  1.00  0.00    -0.366 A  
HETATM   11  C   UNL     1     -10.930  15.340  70.338  1.00  0.00    -0.290 A  
HETATM   12  C   UNL     1     -12.187  14.282  68.639  1.00  0.00    -0.205 A  
HETATM   13  N   UNL     1     -10.183  16.017  69.441  1.00  0.00    -0.252 NA 
HETATM   14  C   UNL     1     -11.935  14.466  69.990  1.00  0.00    -0.394 A  
BRANCH  10  15
HETATM   15  C   UNL     1     -11.773  14.678  66.224  1.00  0.00    -0.320 C  
BRANCH  15  16
HETATM   16  O   UNL     1     -12.254  13.345  66.122  1.00  0.00    -0.416 OA 
BRANCH  16  17
HETATM   17  C   UNL     1     -11.401  12.336  65.774  1.00  0.00    -0.355 A  
HETATM   18  C   UNL     1     -10.651  11.592  66.695  1.00  0.00    -0.294 A  
HETATM   19  C   UNL     1      -9.865  10.514  66.276  1.00  0.00    -0.269 A  
HETATM   20  C   UNL     1      -9.793  10.178  64.928  1.00  0.00    -0.390 A  
HETATM   21  C   UNL     1     -10.509  10.927  63.996  1.00  0.00    -0.309 A  
HETATM   22  O   UNL     1     -10.406  10.608  62.668  1.00  0.00    -0.752 OA 
HETATM   23  C   UNL     1     -11.321  11.999  64.407  1.00  0.00    -0.411 A  
HETATM   24  C   UNL     1     -12.080  12.737  63.359  1.00  0.00    -0.534 C  
HETATM   25  H   UNL     1     -10.894  11.118  62.033  1.00  0.00     0.000 HD 
HETATM   26  O   UNL     1     -12.730  13.758  63.548  1.00  0.00    -0.774 OA 
ENDBRANCH  16  17
ENDBRANCH  15  16
ENDBRANCH  10  15
ENDBRANCH   8   9
ENDBRANCH   2   4
TORSDOF 5
ENDMDL
MODEL        4
REMARK 921   NORMALIZED FREE ENERGY PREDICTED BY IDOCK:   -7.02 KCAL/MOL
REMARK 922        TOTAL FREE ENERGY PREDICTED BY IDOCK:  -10.28 KCAL/MOL
REMARK 923 INTER-LIGAND FREE ENERGY PREDICTED BY IDOCK:   -9.24 KCAL/MOL
REMARK 924 INTRA-LIGAND FREE ENERGY PREDICTED BY IDOCK:   -1.04 KCAL/MOL
REMARK 927      BINDING AFFINITY PREDICTED BY RF-SCORE:    0.00 PKD
ROOT
HETATM    1  C   UNL     1      -9.780   8.252  72.945  1.00  0.00    -0.310 C  
HETATM    2  C   UNL     1     -10.444   9.044  71.815  1.00  0.00    -0.348 C  
HETATM    3  C   UNL     1      -9.839   8.649  70.461  1.00  0.00    -0.210 C  
ENDROOT
BRANCH   2   4
HETATM    4  N   UNL     1     -11.896   8.857  71.784  1.00  0.00    -0.334 NA 
HETATM    5  N   UNL     1     -12.377   7.627  72.099  1.00  0.00    -0.273 NA 
HETATM    6  C   UNL     1     -13.634   7.657  71.673  1.00  0.00    -0.364 A  
HETATM    7  C   UNL     1     -13.986   8.907  71.144  1.00  0.00    -0.114 A  
HETATM    8  C   UNL     1     -12.875   9.721  71.311  1.00  0.00    -0.377 A  
BRANCH   8   9
HETATM    9  C   UNL     1     -12.723  11.174  71.179  1.00  0.00    -0.408 A  
HETATM   10  C   UNL     1     -12.117  11.858  70.117  1.00  0.00    -0.382 A  
HETATM   11  C   UNL     1     -13.434  13.176  72.137  1.00  0.00    -0.560 A  
HETATM   12  C   UNL     1     -12.182  13.267  70.134  1.00  0.00    -0.376 A  
HETATM   13  N   UNL     1     -13.381  11.828  72.175  1.00  0.00    -0.406 NA 
HETATM   14  C   UNL     1     -12.857  13.936  71.145  1.00  0.00    -0.423 A  
BRANCH  10  15
HETATM   15  C   UNL     1     -11.364  11.231  68.975  1.00  0.00    -0.278 C  
BRANCH  15  16
HETATM   16  O   UNL     1     -11.666  11.949  67.786  1.00  0.00    -0.439 OA 
BRANCH  16  17
HETATM   17  C   UNL     1     -11.133  11.548  66.593  1.00  0.00    -0.295 A  
HETATM   18  C   UNL     1     -10.337  10.406  66.433  1.00  0.00    -0.278 A  
HETATM   19  C   UNL     1      -9.899  10.008  65.166  1.00  0.00    -0.388 A  
HETATM   20  C   UNL     1     -10.226  10.757  64.041  1.00  0.00    -0.390 A  
HETATM   21  C   UNL     1     -10.992  11.913  64.186  1.00  0.00    -0.369 A  
HETATM   22  O   UNL     1     -11.281  12.660  63.076  1.00  0.00    -0.723 OA 
HETATM   23  C   UNL     1     -11.457  12.311  65.451  1.00  0.00    -0.402 A  
HETATM   24  C   UNL     1     -12.295  13.541  65.528  1.00  0.00    -0.481 C  
HETATM   25  H   UNL     1     -11.804  13.448  63.175  1.00  0.00     0.000 HD 
HETATM   26  O   UNL     1     -12.671  14.074  66.564  1.00  0.00    -0.310 OA 
ENDBRANCH  16  17
ENDBRANCH  15  16
ENDBRANCH  10  15
ENDBRANCH   8   9
ENDBRANCH   2   4
TORSDOF 5
ENDMDL
MODEL        5
REMARK 921   NORMALIZED FREE ENERGY PREDICTED BY IDOCK:   -6.99 KCAL/MOL
REMARK 922        TOTAL FREE ENERGY PREDICTED BY IDOCK:  -10.25 KCAL/MOL
REMARK 923 INTER-LIGAND FREE ENERGY PREDICTED BY IDOCK:   -9.17 KCAL/MOL
REMARK 924 INTRA-LIGAND FREE ENERGY PREDICTED BY IDOCK:   -1.08 KCAL/MOL
REMARK 927      BINDING AFFINITY PREDICTED BY RF-SCORE:    0.00 PKD
ROOT
HETATM    1  C   UNL     1      -7.513  15.177  67.811  1.00  0.00    -0.179 C  
HETATM    2  C   UNL     1      -7.880  16.361  68.712  1.00  0.00    -0.220 C  
HETATM    3  C   UNL     1      -6.627  17.177  69.055  1.00  0.00    -0.218 C  
ENDROOT
BRANCH   2   4
HETATM    4  N   UNL     1      -8.888  17.230  68.102  1.00  0.00    -0.233 NA 
HETATM    5  N   UNL     1      -8.448  18.264  67.340  1.00  0.00    -0.247 NA 
HETATM    6  C   UNL     1      -9.515  19.042  67.209  1.00  0.00    -0.308 A  
HETATM    7  C   UNL     1     -10.650  18.495  67.825  1.00  0.00    -0.422 A  
HETATM    8  C   UNL     1     -10.259  17.260  68.322  1.00  0.00    -0.348 A  
BRANCH   8   9
HETATM    9  C   UNL     1     -11.053  16.141  68.841  1.00  0.00    -0.347 A  
HETATM   10  C   UNL     1     -11.447  14.998  68.135  1.00  0.00    -0.355 A  
HETATM   11  C   UNL     1     -11.883  15.265  70.835  1.00  0.00    -0.341 A  
HETATM   12  C   UNL     1     -12.110  13.986  68.860  1.00  0.00    -0.351 A  
HETATM   13  N   UNL     1     -11.264  16.269  70.180  1.00  0.00    -0.363 NA 
HETATM   14  C   UNL     1     -12.321  14.110  70.225  1.00  0.00    -0.421 A  
BRANCH  10  15
HETATM   15  C   UNL     1     -11.267  14.762  66.659  1.00  0.00    -0.346 C  
BRANCH  15  16
HETATM   16  O   UNL     1     -11.930  13.554  66.310  1.00  0.00    -0.370 OA 
BRANCH  16  17
HETATM   17  C   UNL     1     -11.208  12.488  65.852  1.00  0.00    -0.320 A  
HETATM   18  C   UNL     1     -10.469  11.629  66.677  1.00  0.00    -0.268 A  
HETATM   19  C   UNL     1      -9.826  10.504  66.150  1.00  0.00    -0.271 A  
HETATM   20  C   UNL     1      -9.888  10.233  64.787  1.00  0.00    -0.403 A  
HETATM   21  C   UNL     1     -10.594  11.094  63.948  1.00  0.00    -0.364 A  
HETATM   22  O   UNL     1     -10.622  10.835  62.604  1.00  0.00    -0.742 OA 
HETATM   23  C   UNL     1     -11.263  12.215  64.469  1.00  0.00    -0.385 A  
HETATM   24  C   UNL     1     -12.022  13.076  63.518  1.00  0.00    -0.545 C  
HETATM   25  H   UNL     1     -11.103  11.422  62.032  1.00  0.00     0.000 HD 
HETATM   26  O   UNL     1     -12.552  14.142  63.803  1.00  0.00    -0.804 OA 
ENDBRANCH  16  17
ENDBRANCH  15  16
ENDBRANCH  10  15
ENDBRANCH   8   9
ENDBRANCH   2   4
TORSDOF 5
ENDMDL
MODEL        6
REMARK 921   NORMALIZED FREE ENERGY PREDICTED BY IDOCK:   -6.88 KCAL/MOL
REMARK 922        TOTAL FREE ENERGY PREDICTED BY IDOCK:  -10.10 KCAL/MOL
REMARK 923 INTER-LIGAND FREE ENERGY PREDICTED BY IDOCK:   -9.36 KCAL/MOL
REMARK 924 INTRA-LIGAND FREE ENERGY PREDICTED BY IDOCK:   -0.75 KCAL/MOL
REMARK 927      BINDING AFFINITY PREDICTED BY RF-SCORE:    0.00 PKD
ROOT
HETATM    1  C   UNL     1     -14.387  15.558  72.179  1.00  0.00    -0.598 C  
HETATM    2  C   UNL     1     -12.941  15.055  72.164  1.00  0.00    -0.342 C  
HETATM    3  C   UNL     1     -12.402  14.939  73.595  1.00  0.00    -0.558 C  
ENDROOT
BRANCH   2   4
HETATM    4  N   UNL     1     -12.808  13.768  71.477  1.00  0.00    -0.353 NA 
HETATM    5  N   UNL     1     -13.461  12.703  72.008  1.00  0.00    -0.484 NA 
HETATM    6  C   UNL     1     -12.910  11.656  71.406  1.00  0.00    -0.356 A  
HETATM    7  C   UNL     1     -11.954  12.036  70.452  1.00  0.00    -0.379 A  
HETATM    8  C   UNL     1     -11.964  13.423  70.430  1.00  0.00    -0.285 A  
BRANCH   8   9
HETATM    9  C   UNL     1     -11.369  14.371  69.481  1.00  0.00    -0.276 A  
HETATM   10  C   UNL     1     -11.660  14.480  68.116  1.00  0.00    -0.359 A  
HETATM   11  C   UNL     1     -10.027  16.275  69.406  1.00  0.00    -0.232 A  
HETATM   12  C   UNL     1     -11.057  15.542  67.409  1.00  0.00    -0.285 A  
HETATM   13  N   UNL     1     -10.565  15.264  70.120  1.00  0.00    -0.282 NA 
HETATM   14  C   UNL     1     -10.242  16.457  68.058  1.00  0.00    -0.264 A  
BRANCH  10  15
HETATM   15  C   UNL     1     -12.529  13.545  67.318  1.00  0.00     0.054 C  
BRANCH  15  16
HETATM   16  O   UNL     1     -12.029  13.489  65.988  1.00  0.00    -0.365 OA 
BRANCH  16  17
HETATM   17  C   UNL     1     -11.239  12.444  65.599  1.00  0.00    -0.322 A  
HETATM   18  C   UNL     1     -10.464  11.677  66.480  1.00  0.00    -0.276 A  
HETATM   19  C   UNL     1      -9.749  10.565  66.024  1.00  0.00    -0.257 A  
HETATM   20  C   UNL     1      -9.773  10.217  64.677  1.00  0.00    -0.377 A  
HETATM   21  C   UNL     1     -10.514  10.988  63.783  1.00  0.00    -0.341 A  
HETATM   22  O   UNL     1     -10.505  10.655  62.455  1.00  0.00    -0.719 OA 
HETATM   23  C   UNL     1     -11.256  12.094  64.233  1.00  0.00    -0.409 A  
HETATM   24  C   UNL     1     -12.048  12.855  63.226  1.00  0.00    -0.440 C  
HETATM   25  H   UNL     1     -11.011  11.180  61.846  1.00  0.00     0.000 HD 
HETATM   26  O   UNL     1     -12.644  13.902  63.444  1.00  0.00    -0.853 OA 
ENDBRANCH  16  17
ENDBRANCH  15  16
ENDBRANCH  10  15
ENDBRANCH   8   9
ENDBRANCH   2   4
TORSDOF 5
ENDMDL
MODEL        7
REMARK 921   NORMALIZED FREE ENERGY PREDICTED BY IDOCK:   -6.85 KCAL/MOL
REMARK 922        TOTAL FREE ENERGY PREDICTED BY IDOCK:  -10.07 KCAL/MOL
REMARK 923 INTER-LIGAND FREE ENERGY PREDICTED BY IDOCK:   -8.89 KCAL/MOL
REMARK 924 INTRA-LIGAND FREE ENERGY PREDICTED BY IDOCK:   -1.18 KCAL/MOL
REMARK 927      BINDING AFFINITY PREDICTED BY RF-SCORE:    0.00 PKD
ROOT
HETATM    1  C   UNL     1      -6.366  17.895  65.632  1.00  0.00    -0.213 C  
HETATM    2  C   UNL     1      -7.584  17.156  66.195  1.00  0.00    -0.269 C  
HETATM    3  C   UNL     1      -7.222  16.457  67.512  1.00  0.00    -0.171 C  
ENDROOT
BRANCH   2   4
HETATM    4  N   UNL     1      -8.727  18.047  66.403  1.00  0.00    -0.382 NA 
HETATM    5  N   UNL     1      -8.465  19.349  66.686  1.00  0.00    -0.303 NA 
HETATM    6  C   UNL     1      -9.620  19.817  67.141  1.00  0.00    -0.361 A  
HETATM    7  C   UNL     1     -10.637  18.852  67.098  1.00  0.00    -0.531 A  
HETATM    8  C   UNL     1     -10.073  17.725  66.520  1.00  0.00    -0.358 A  
BRANCH   8   9
HETATM    9  C   UNL     1     -10.694  16.502  65.999  1.00  0.00    -0.177 A  
HETATM   10  C   UNL     1     -11.007  15.348  66.727  1.00  0.00    -0.282 A  
HETATM   11  C   UNL     1     -11.765  15.666  64.105  1.00  0.00    -0.075 A  
HETATM   12  C   UNL     1     -11.710  14.327  66.052  1.00  0.00    -0.384 A  
HETATM   13  N   UNL     1     -11.076  16.661  64.702  1.00  0.00    -0.853 NA 
HETATM   14  C   UNL     1     -12.106  14.489  64.733  1.00  0.00    -0.454 A  
BRANCH  10  15
HETATM   15  C   UNL     1     -10.627  15.073  68.157  1.00  0.00    -0.248 C  
BRANCH  15  16
HETATM   16  O   UNL     1     -11.815  14.857  68.907  1.00  0.00    -0.311 OA 
BRANCH  16  17
HETATM   17  C   UNL     1     -12.021  13.658  69.530  1.00  0.00    -0.341 A  
HETATM   18  C   UNL     1     -11.559  12.429  69.039  1.00  0.00    -0.362 A  
HETATM   19  C   UNL     1     -11.729  11.252  69.775  1.00  0.00    -0.422 A  
HETATM   20  C   UNL     1     -12.386  11.278  71.001  1.00  0.00    -0.472 A  
HETATM   21  C   UNL     1     -12.878  12.487  71.490  1.00  0.00    -0.265 A  
HETATM   22  O   UNL     1     -13.551  12.497  72.682  1.00  0.00    -0.594 OA 
HETATM   23  C   UNL     1     -12.693  13.681  70.770  1.00  0.00    -0.338 A  
HETATM   24  C   UNL     1     -13.220  14.941  71.367  1.00  0.00    -0.389 C  
HETATM   25  H   UNL     1     -13.886  13.321  73.016  1.00  0.00     0.000 HD 
HETATM   26  O   UNL     1     -13.240  16.030  70.808  1.00  0.00    -0.327 OA 
ENDBRANCH  16  17
ENDBRANCH  15  16
ENDBRANCH  10  15
ENDBRANCH   8   9
ENDBRANCH   2   4
TORSDOF 5
ENDMDL
MODEL        8
REMARK 921   NORMALIZED FREE ENERGY PREDICTED BY IDOCK:   -6.84 KCAL/MOL
REMARK 922        TOTAL FREE ENERGY PREDICTED BY IDOCK:  -10.06 KCAL/MOL
REMARK 923 INTER-LIGAND FREE ENERGY PREDICTED BY IDOCK:   -8.88 KCAL/MOL
REMARK 924 INTRA-LIGAND FREE ENERGY PREDICTED BY IDOCK:   -1.18 KCAL/MOL
REMARK 927      BINDING AFFINITY PREDICTED BY RF-SCORE:    0.00 PKD
ROOT
HETATM    1  C   UNL     1     -10.437  11.571  68.675  1.00  0.00    -0.224 C  
HETATM    2  C   UNL     1     -11.747  12.196  69.162  1.00  0.00    -0.328 C  
HETATM    3  C   UNL     1     -12.205  11.527  70.465  1.00  0.00    -0.469 C  
ENDROOT
BRANCH   2   4
HETATM    4  N   UNL     1     -11.632  13.643  69.361  1.00  0.00    -0.295 NA 
HETATM    5  N   UNL     1     -11.544  14.097  70.637  1.00  0.00    -0.178 NA 
HETATM    6  C   UNL     1     -11.786  15.397  70.532  1.00  0.00    -0.339 A  
HETATM    7  C   UNL     1     -11.969  15.797  69.200  1.00  0.00    -0.312 A  
HETATM    8  C   UNL     1     -11.768  14.663  68.428  1.00  0.00    -0.320 A  
BRANCH   8   9
HETATM    9  C   UNL     1     -11.587  14.509  66.980  1.00  0.00    -0.386 A  
HETATM   10  C   UNL     1     -10.450  14.852  66.239  1.00  0.00    -0.306 A  
HETATM   11  C   UNL     1     -12.574  13.519  65.115  1.00  0.00    -0.436 A  
HETATM   12  C   UNL     1     -10.442  14.511  64.870  1.00  0.00    -0.435 A  
HETATM   13  N   UNL     1     -12.635  13.842  66.423  1.00  0.00    -0.363 NA 
HETATM   14  C   UNL     1     -11.506  13.827  64.301  1.00  0.00    -0.363 A  
BRANCH  10  15
HETATM   15  C   UNL     1      -9.245  15.591  66.756  1.00  0.00    -0.248 C  
BRANCH  15  16
HETATM   16  O   UNL     1      -9.032  16.736  65.942  1.00  0.00    -0.497 OA 
BRANCH  16  17
HETATM   17  C   UNL     1      -9.358  17.977  66.411  1.00  0.00    -0.255 A  
HETATM   18  C   UNL     1     -10.623  18.321  66.907  1.00  0.00    -0.356 A  
HETATM   19  C   UNL     1     -10.860  19.587  67.454  1.00  0.00    -0.536 A  
HETATM   20  C   UNL     1      -9.846  20.538  67.490  1.00  0.00    -0.534 A  
HETATM   21  C   UNL     1      -8.591  20.223  66.973  1.00  0.00    -0.318 A  
HETATM   22  O   UNL     1      -7.609  21.177  66.985  1.00  0.00    -0.649 OA 
HETATM   23  C   UNL     1      -8.333  18.947  66.442  1.00  0.00    -0.306 A  
HETATM   24  C   UNL     1      -6.961  18.670  65.933  1.00  0.00    -0.270 C  
HETATM   25  H   UNL     1      -6.753  20.962  66.633  1.00  0.00     0.000 HD 
HETATM   26  O   UNL     1      -6.621  17.654  65.339  1.00  0.00    -0.158 OA 
ENDBRANCH  16  17
ENDBRANCH  15  16
ENDBRANCH  10  15
ENDBRANCH   8   9
ENDBRANCH   2   4
TORSDOF 5
ENDMDL
MODEL        9
REMARK 921   NORMALIZED FREE ENERGY PREDICTED BY IDOCK:   -6.81 KCAL/MOL
REMARK 922        TOTAL FREE ENERGY PREDICTED BY IDOCK:  -10.01 KCAL/MOL
REMARK 923 INTER-LIGAND FREE ENERGY PREDICTED BY IDOCK:   -8.69 KCAL/MOL
REMARK 924 INTRA-LIGAND FREE ENERGY PREDICTED BY IDOCK:   -1.32 KCAL/MOL
REMARK 927      BINDING AFFINITY PREDICTED BY RF-SCORE:    0.00 PKD
ROOT
HETATM    1  C   UNL     1      -8.402  11.976  68.007  1.00  0.00    -0.162 C  
HETATM    2  C   UNL     1      -8.601  13.457  67.670  1.00  0.00    -0.193 C  
HETATM    3  C   UNL     1      -7.260  14.106  67.304  1.00  0.00     0.011 C  
ENDROOT
BRANCH   2   4
HETATM    4  N   UNL     1      -9.562  13.655  66.583  1.00  0.00    -0.276 NA 
HETATM    5  N   UNL     1     -10.002  12.552  65.925  1.00  0.00    -0.256 NA 
HETATM    6  C   UNL     1     -10.565  13.038  64.826  1.00  0.00    -0.362 A  
HETATM    7  C   UNL     1     -10.549  14.440  64.797  1.00  0.00    -0.417 A  
HETATM    8  C   UNL     1      -9.981  14.842  65.997  1.00  0.00    -0.313 A  
BRANCH   8   9
HETATM    9  C   UNL     1      -9.921  16.163  66.634  1.00  0.00    -0.260 A  
HETATM   10  C   UNL     1     -10.632  16.577  67.767  1.00  0.00    -0.332 A  
HETATM   11  C   UNL     1      -8.695  18.145  66.608  1.00  0.00    -0.264 A  
HETATM   12  C   UNL     1     -10.337  17.856  68.284  1.00  0.00    -0.389 A  
HETATM   13  N   UNL     1      -8.957  16.938  66.065  1.00  0.00    -0.510 NA 
HETATM   14  C   UNL     1      -9.352  18.645  67.711  1.00  0.00    -0.315 A  
BRANCH  10  15
HETATM   15  C   UNL     1     -11.717  15.801  68.464  1.00  0.00    -0.319 C  
BRANCH  15  16
HETATM   16  O   UNL     1     -11.128  15.042  69.512  1.00  0.00    -0.252 OA 
BRANCH  16  17
HETATM   17  C   UNL     1     -11.716  15.008  70.745  1.00  0.00    -0.320 A  
HETATM   18  C   UNL     1     -11.754  16.097  71.626  1.00  0.00    -0.558 A  
HETATM   19  C   UNL     1     -12.452  16.018  72.835  1.00  0.00    -0.596 A  
HETATM   20  C   UNL     1     -13.101  14.842  73.197  1.00  0.00    -0.615 A  
HETATM   21  C   UNL     1     -13.048  13.740  72.346  1.00  0.00    -0.422 A  
HETATM   22  O   UNL     1     -13.663  12.577  72.726  1.00  0.00    -0.652 OA 
HETATM   23  C   UNL     1     -12.369  13.814  71.117  1.00  0.00    -0.428 A  
HETATM   24  C   UNL     1     -12.377  12.606  70.245  1.00  0.00    -0.195 C  
HETATM   25  H   UNL     1     -13.627  11.826  72.146  1.00  0.00     0.000 HD 
HETATM   26  O   UNL     1     -11.736  12.481  69.208  1.00  0.00    -0.291 OA 
ENDBRANCH  16  17
ENDBRANCH  15  16
ENDBRANCH  10  15
ENDBRANCH   8   9
ENDBRANCH   2   4
TORSDOF 5
ENDMDL
MODEL       10
REMARK 921   NORMALIZED FREE ENERGY PREDICTED BY IDOCK:   -6.77 KCAL/MOL
REMARK 922        TOTAL FREE ENERGY PREDICTED BY IDOCK:   -9.96 KCAL/MOL
REMARK 923 INTER-LIGAND FREE ENERGY PREDICTED BY IDOCK:   -8.86 KCAL/MOL
REMARK 924 INTRA-LIGAND FREE ENERGY PREDICTED BY IDOCK:   -1.10 KCAL/MOL
REMARK 927      BINDING AFFINITY PREDICTED BY RF-SCORE:    0.00 PKD
ROOT
HETATM    1  C   UNL     1     -12.872  14.035  65.580  1.00  0.00    -0.453 C  
HETATM    2  C   UNL     1     -12.269  13.504  66.883  1.00  0.00    -0.327 C  
HETATM    3  C   UNL     1     -11.474  12.218  66.618  1.00  0.00    -0.431 C  
ENDROOT
BRANCH   2   4
HETATM    4  N   UNL     1     -11.412  14.491  67.542  1.00  0.00    -0.340 NA 
HETATM    5  N   UNL     1     -10.540  15.184  66.765  1.00  0.00    -0.292 NA 
HETATM    6  C   UNL     1      -9.699  15.729  67.635  1.00  0.00    -0.222 A  
HETATM    7  C   UNL     1     -10.053  15.447  68.963  1.00  0.00    -0.234 A  
HETATM    8  C   UNL     1     -11.232  14.720  68.900  1.00  0.00    -0.266 A  
BRANCH   8   9
HETATM    9  C   UNL     1     -12.193  14.359  69.949  1.00  0.00    -0.340 A  
HETATM   10  C   UNL     1     -12.376  13.091  70.513  1.00  0.00    -0.365 A  
HETATM   11  C   UNL     1     -13.660  15.318  71.485  1.00  0.00    -0.504 A  
HETATM   12  C   UNL     1     -13.276  12.988  71.595  1.00  0.00    -0.426 A  
HETATM   13  N   UNL     1     -12.824  15.463  70.436  1.00  0.00    -0.367 NA 
HETATM   14  C   UNL     1     -13.917  14.111  72.097  1.00  0.00    -0.626 A  
BRANCH  10  15
HETATM   15  C   UNL     1     -11.733  11.812  70.048  1.00  0.00    -0.305 C  
BRANCH  15  16
HETATM   16  O   UNL     1     -12.195  10.749  70.869  1.00  0.00    -0.325 OA 
BRANCH  16  17
HETATM   17  C   UNL     1     -11.378   9.685  71.132  1.00  0.00    -0.386 A  
HETATM   18  C   UNL     1     -10.068   9.564  70.650  1.00  0.00    -0.353 A  
HETATM   19  C   UNL     1      -9.258   8.490  71.033  1.00  0.00    -0.227 A  
HETATM   20  C   UNL     1      -9.752   7.504  71.880  1.00  0.00    -0.191 A  
HETATM   21  C   UNL     1     -11.064   7.592  72.344  1.00  0.00    -0.310 A  
HETATM   22  O   UNL     1     -11.551   6.600  73.151  1.00  0.00    -0.469 OA 
HETATM   23  C   UNL     1     -11.880   8.679  71.985  1.00  0.00    -0.443 A  
HETATM   24  C   UNL     1     -13.262   8.724  72.540  1.00  0.00    -0.347 C  
HETATM   25  H   UNL     1     -12.444   6.660  73.468  1.00  0.00     0.000 HD 
HETATM   26  O   UNL     1     -14.121   9.538  72.227  1.00  0.00    -0.316 OA 
ENDBRANCH  16  17
ENDBRANCH  15  16
ENDBRANCH  10  15
ENDBRANCH   8   9
ENDBRANCH   2   4
TORSDOF 5
ENDMDL
MODEL       11
REMARK 921   NORMALIZED FREE ENERGY PREDICTED BY IDOCK:   -6.77 KCAL/MOL
REMARK 922        TOTAL FREE ENERGY PREDICTED BY IDOCK:   -9.96 KCAL/MOL
REMARK 923 INTER-LIGAND FREE ENERGY PREDICTED BY IDOCK:   -8.69 KCAL/MOL
REMARK 924 INTRA-LIGAND FREE ENERGY PREDICTED BY IDOCK:   -1.27 KCAL/MOL
REMARK 927      BINDING AFFINITY PREDICTED BY RF-SCORE:    0.00 PKD
ROOT
HETATM    1  C   UNL     1     -10.482  17.864  66.904  1.00  0.00    -0.334 C  
HETATM    2  C   UNL     1     -10.655  16.370  66.612  1.00  0.00    -0.239 C  
HETATM    3  C   UNL     1     -10.649  16.120  65.098  1.00  0.00    -0.366 C  
ENDROOT
BRANCH   2   4
HETATM    4  N   UNL     1      -9.623  15.555  67.255  1.00  0.00    -0.212 NA 
HETATM    5  N   UNL     1      -8.391  15.536  66.683  1.00  0.00    -0.269 NA 
HETATM    6  C   UNL     1      -7.790  14.499  67.253  1.00  0.00    -0.173 A  
HETATM    7  C   UNL     1      -8.594  13.888  68.226  1.00  0.00    -0.177 A  
HETATM    8  C   UNL     1      -9.754  14.645  68.296  1.00  0.00    -0.215 A  
BRANCH   8   9
HETATM    9  C   UNL     1     -10.842  14.645  69.281  1.00  0.00    -0.258 A  
HETATM   10  C   UNL     1     -11.663  13.562  69.618  1.00  0.00    -0.378 A  
HETATM   11  C   UNL     1     -11.758  15.944  70.985  1.00  0.00    -0.432 A  
HETATM   12  C   UNL     1     -12.574  13.747  70.680  1.00  0.00    -0.386 A  
HETATM   13  N   UNL     1     -10.885  15.822  69.964  1.00  0.00    -0.314 NA 
HETATM   14  C   UNL     1     -12.616  14.943  71.381  1.00  0.00    -0.402 A  
BRANCH  10  15
HETATM   15  C   UNL     1     -11.697  12.226  68.926  1.00  0.00    -0.328 C  
BRANCH  15  16
HETATM   16  O   UNL     1     -12.031  12.433  67.560  1.00  0.00    -0.482 OA 
BRANCH  16  17
HETATM   17  C   UNL     1     -11.284  11.844  66.578  1.00  0.00    -0.327 A  
HETATM   18  C   UNL     1     -10.291  10.885  66.817  1.00  0.00    -0.289 A  
HETATM   19  C   UNL     1      -9.628  10.259  65.756  1.00  0.00    -0.279 A  
HETATM   20  C   UNL     1      -9.926  10.599  64.441  1.00  0.00    -0.415 A  
HETATM   21  C   UNL     1     -10.890  11.573  64.187  1.00  0.00    -0.372 A  
HETATM   22  O   UNL     1     -11.153  11.924  62.890  1.00  0.00    -0.632 OA 
HETATM   23  C   UNL     1     -11.580  12.194  65.243  1.00  0.00    -0.376 A  
HETATM   24  C   UNL     1     -12.617  13.206  64.897  1.00  0.00    -0.407 C  
HETATM   25  H   UNL     1     -11.810  12.588  62.716  1.00  0.00     0.000 HD 
HETATM   26  O   UNL     1     -13.212  13.909  65.704  1.00  0.00    -0.623 OA 
ENDBRANCH  16  17
ENDBRANCH  15  16
ENDBRANCH  10  15
ENDBRANCH   8   9
ENDBRANCH   2   4
TORSDOF 5
ENDMDL
MODEL       12
REMARK 921   NORMALIZED FREE ENERGY PREDICTED BY IDOCK:   -6.76 KCAL/MOL
REMARK 922        TOTAL FREE ENERGY PREDICTED BY IDOCK:   -9.95 KCAL/MOL
REMARK 923 INTER-LIGAND FREE ENERGY PREDICTED BY IDOCK:   -9.88 KCAL/MOL
REMARK 924 INTRA-LIGAND FREE ENERGY PREDICTED BY IDOCK:   -0.07 KCAL/MOL
REMARK 927      BINDING AFFINITY PREDICTED BY RF-SCORE:    0.00 PKD
ROOT
HETATM    1  C   UNL     1     -12.413  15.391  73.846  1.00  0.00    -0.763 C  
HETATM    2  C   UNL     1     -13.015  14.814  72.562  1.00  0.00    -0.392 C  
HETATM    3  C   UNL     1     -14.401  15.421  72.304  1.00  0.00    -0.576 C  
ENDROOT
BRANCH   2   4
HETATM    4  N   UNL     1     -12.154  15.030  71.398  1.00  0.00    -0.315 NA 
HETATM    5  N   UNL     1     -11.633  16.272  71.224  1.00  0.00    -0.415 NA 
HETATM    6  C   UNL     1     -11.198  16.265  69.970  1.00  0.00    -0.319 A  
HETATM    7  C   UNL     1     -11.377  15.017  69.354  1.00  0.00    -0.314 A  
HETATM    8  C   UNL     1     -11.911  14.183  70.325  1.00  0.00    -0.303 A  
BRANCH   8   9
HETATM    9  C   UNL     1     -12.081  12.725  70.348  1.00  0.00    -0.302 A  
HETATM   10  C   UNL     1     -11.412  11.793  69.545  1.00  0.00    -0.363 A  
HETATM   11  C   UNL     1     -13.067  11.025  71.601  1.00  0.00    -0.438 A  
HETATM   12  C   UNL     1     -11.642  10.427  69.812  1.00  0.00    -0.339 A  
HETATM   13  N   UNL     1     -12.895  12.344  71.370  1.00  0.00    -0.330 NA 
HETATM   14  C   UNL     1     -12.465  10.035  70.857  1.00  0.00    -0.431 A  
BRANCH  10  15
HETATM   15  C   UNL     1     -10.500  12.111  68.391  1.00  0.00    -0.231 C  
BRANCH  15  16
HETATM   16  O   UNL     1     -10.818  11.244  67.311  1.00  0.00    -0.235 OA 
BRANCH  16  17
HETATM   17  C   UNL     1     -11.171  11.766  66.098  1.00  0.00    -0.306 A  
HETATM   18  C   UNL     1     -11.989  12.893  65.937  1.00  0.00    -0.504 A  
HETATM   19  C   UNL     1     -12.236  13.425  64.668  1.00  0.00    -0.456 A  
HETATM   20  C   UNL     1     -11.693  12.826  63.536  1.00  0.00    -0.597 A  
HETATM   21  C   UNL     1     -10.902  11.687  63.676  1.00  0.00    -0.432 A  
HETATM   22  O   UNL     1     -10.398  11.087  62.553  1.00  0.00    -0.672 OA 
HETATM   23  C   UNL     1     -10.627  11.156  64.948  1.00  0.00    -0.356 A  
HETATM   24  C   UNL     1      -9.750   9.953  65.025  1.00  0.00    -0.288 C  
HETATM   25  H   UNL     1      -9.859  10.311  62.648  1.00  0.00     0.000 HD 
HETATM   26  O   UNL     1      -9.520   9.314  66.043  1.00  0.00    -0.206 OA 
ENDBRANCH  16  17
ENDBRANCH  15  16
ENDBRANCH  10  15
ENDBRANCH   8   9
ENDBRANCH   2   4
TORSDOF 5
ENDMDL
MODEL       13
REMARK 921   NORMALIZED FREE ENERGY PREDICTED BY IDOCK:   -6.76 KCAL/MOL
REMARK 922        TOTAL FREE ENERGY PREDICTED BY IDOCK:   -9.94 KCAL/MOL
REMARK 923 INTER-LIGAND FREE ENERGY PREDICTED BY IDOCK:   -9.13 KCAL/MOL
REMARK 924 INTRA-LIGAND FREE ENERGY PREDICTED BY IDOCK:   -0.82 KCAL/MOL
REMARK 927      BINDING AFFINITY PREDICTED BY RF-SCORE:    0.00 PKD
ROOT
HETATM    1  C   UNL     1     -11.685   8.367  72.245  1.00  0.00    -0.453 C  
HETATM    2  C   UNL     1     -12.678   9.067  71.314  1.00  0.00    -0.262 C  
HETATM    3  C   UNL     1     -14.118   8.790  71.766  1.00  0.00    -0.468 C  
ENDROOT
BRANCH   2   4
HETATM    4  N   UNL     1     -12.449  10.512  71.244  1.00  0.00    -0.389 NA 
HETATM    5  N   UNL     1     -13.091  11.294  72.150  1.00  0.00    -0.358 NA 
HETATM    6  C   UNL     1     -12.972  12.520  71.654  1.00  0.00    -0.302 A  
HETATM    7  C   UNL     1     -12.213  12.545  70.475  1.00  0.00    -0.382 A  
HETATM    8  C   UNL     1     -11.788  11.242  70.265  1.00  0.00    -0.357 A  
BRANCH   8   9
HETATM    9  C   UNL     1     -10.780  10.699  69.347  1.00  0.00    -0.244 A  
HETATM   10  C   UNL     1     -10.709  10.910  67.965  1.00  0.00    -0.263 A  
HETATM   11  C   UNL     1      -8.732   9.585  69.340  1.00  0.00    -0.165 A  
HETATM   12  C   UNL     1      -9.587  10.387  67.288  1.00  0.00    -0.182 A  
HETATM   13  N   UNL     1      -9.797  10.049  70.029  1.00  0.00    -0.233 NA 
HETATM   14  C   UNL     1      -8.581   9.730  67.980  1.00  0.00    -0.122 A  
BRANCH  10  15
HETATM   15  C   UNL     1     -11.741  11.608  67.121  1.00  0.00    -0.133 C  
BRANCH  15  16
HETATM   16  O   UNL     1     -11.087  12.208  66.011  1.00  0.00    -0.288 OA 
BRANCH  16  17
HETATM   17  C   UNL     1     -10.868  13.557  65.996  1.00  0.00    -0.278 A  
HETATM   18  C   UNL     1     -10.104  14.239  66.953  1.00  0.00    -0.264 A  
HETATM   19  C   UNL     1      -9.848  15.608  66.825  1.00  0.00    -0.255 A  
HETATM   20  C   UNL     1     -10.373  16.324  65.755  1.00  0.00    -0.393 A  
HETATM   21  C   UNL     1     -11.160  15.668  64.810  1.00  0.00    -0.412 A  
HETATM   22  O   UNL     1     -11.698  16.388  63.778  1.00  0.00    -1.553 OA 
HETATM   23  C   UNL     1     -11.405  14.287  64.915  1.00  0.00    -0.372 A  
HETATM   24  C   UNL     1     -12.232  13.646  63.854  1.00  0.00    -0.374 C  
HETATM   25  H   UNL     1     -12.234  15.941  63.134  1.00  0.00     0.000 HD 
HETATM   26  O   UNL     1     -12.625  12.486  63.873  1.00  0.00    -0.624 OA 
ENDBRANCH  16  17
ENDBRANCH  15  16
ENDBRANCH  10  15
ENDBRANCH   8   9
ENDBRANCH   2   4
TORSDOF 5
ENDMDL
MODEL       14
REMARK 921   NORMALIZED FREE ENERGY PREDICTED BY IDOCK:   -6.73 KCAL/MOL
REMARK 922        TOTAL FREE ENERGY PREDICTED BY IDOCK:   -9.91 KCAL/MOL
REMARK 923 INTER-LIGAND FREE ENERGY PREDICTED BY IDOCK:   -8.74 KCAL/MOL
REMARK 924 INTRA-LIGAND FREE ENERGY PREDICTED BY IDOCK:   -1.17 KCAL/MOL
REMARK 927      BINDING AFFINITY PREDICTED BY RF-SCORE:    0.00 PKD
ROOT
HETATM    1  C   UNL     1      -7.119  16.141  67.020  1.00  0.00    -0.248 C  
HETATM    2  C   UNL     1      -7.755  16.702  68.295  1.00  0.00    -0.183 C  
HETATM    3  C   UNL     1      -6.670  17.240  69.238  1.00  0.00    -0.230 C  
ENDROOT
BRANCH   2   4
HETATM    4  N   UNL     1      -8.733  17.754  68.012  1.00  0.00    -0.245 NA 
HETATM    5  N   UNL     1      -8.404  19.027  68.352  1.00  0.00    -0.336 NA 
HETATM    6  C   UNL     1      -9.557  19.681  68.297  1.00  0.00    -0.385 A  
HETATM    7  C   UNL     1     -10.612  18.862  67.869  1.00  0.00    -0.425 A  
HETATM    8  C   UNL     1     -10.049  17.627  67.586  1.00  0.00    -0.339 A  
BRANCH   8   9
HETATM    9  C   UNL     1     -10.597  16.462  66.881  1.00  0.00    -0.252 A  
HETATM   10  C   UNL     1     -11.268  15.377  67.458  1.00  0.00    -0.302 A  
HETATM   11  C   UNL     1     -11.060  15.682  64.735  1.00  0.00    -0.412 A  
HETATM   12  C   UNL     1     -11.818  14.417  66.582  1.00  0.00    -0.417 A  
HETATM   13  N   UNL     1     -10.501  16.616  65.532  1.00  0.00    -0.568 NA 
HETATM   14  C   UNL     1     -11.726  14.573  65.207  1.00  0.00    -0.361 A  
BRANCH  10  15
HETATM   15  C   UNL     1     -11.425  15.114  68.932  1.00  0.00    -0.320 C  
BRANCH  15  16
HETATM   16  O   UNL     1     -11.168  13.737  69.175  1.00  0.00    -0.252 OA 
BRANCH  16  17
HETATM   17  C   UNL     1     -11.863  13.074  70.146  1.00  0.00    -0.252 A  
HETATM   18  C   UNL     1     -12.549  13.708  71.191  1.00  0.00    -0.452 A  
HETATM   19  C   UNL     1     -13.315  12.969  72.099  1.00  0.00    -0.622 A  
HETATM   20  C   UNL     1     -13.386  11.584  71.996  1.00  0.00    -0.397 A  
HETATM   21  C   UNL     1     -12.686  10.935  70.981  1.00  0.00    -0.407 A  
HETATM   22  O   UNL     1     -12.737   9.569  70.907  1.00  0.00    -0.467 OA 
HETATM   23  C   UNL     1     -11.931  11.668  70.048  1.00  0.00    -0.429 A  
HETATM   24  C   UNL     1     -11.231  10.911  68.972  1.00  0.00    -0.266 C  
HETATM   25  H   UNL     1     -12.260   9.127  70.215  1.00  0.00     0.000 HD 
HETATM   26  O   UNL     1     -10.448  11.396  68.165  1.00  0.00    -0.176 OA 
ENDBRANCH  16  17
ENDBRANCH  15  16
ENDBRANCH  10  15
ENDBRANCH   8   9
ENDBRANCH   2   4
TORSDOF 5
ENDMDL
MODEL       15
REMARK 921   NORMALIZED FREE ENERGY PREDICTED BY IDOCK:   -6.69 KCAL/MOL
REMARK 922        TOTAL FREE ENERGY PREDICTED BY IDOCK:   -9.86 KCAL/MOL
REMARK 923 INTER-LIGAND FREE ENERGY PREDICTED BY IDOCK:   -8.61 KCAL/MOL
REMARK 924 INTRA-LIGAND FREE ENERGY PREDICTED BY IDOCK:   -1.25 KCAL/MOL
REMARK 927      BINDING AFFINITY PREDICTED BY RF-SCORE:    0.00 PKD
ROOT
HETATM    1  C   UNL     1     -10.491  10.188  68.079  1.00  0.00    -0.249 C  
HETATM    2  C   UNL     1     -10.377  11.680  68.401  1.00  0.00    -0.204 C  
HETATM    3  C   UNL     1      -8.943  12.170  68.162  1.00  0.00    -0.195 C  
ENDROOT
BRANCH   2   4
HETATM    4  N   UNL     1     -11.315  12.490  67.621  1.00  0.00    -0.285 NA 
HETATM    5  N   UNL     1     -11.732  11.992  66.428  1.00  0.00    -0.565 NA 
HETATM    6  C   UNL     1     -12.275  13.038  65.817  1.00  0.00    -0.453 A  
HETATM    7  C   UNL     1     -12.268  14.186  66.623  1.00  0.00    -0.450 A  
HETATM    8  C   UNL     1     -11.730  13.797  67.841  1.00  0.00    -0.360 A  
BRANCH   8   9
HETATM    9  C   UNL     1     -11.694  14.485  69.137  1.00  0.00    -0.314 A  
HETATM   10  C   UNL     1     -10.756  15.438  69.551  1.00  0.00    -0.269 A  
HETATM   11  C   UNL     1     -12.973  14.825  71.055  1.00  0.00    -0.363 A  
HETATM   12  C   UNL     1     -10.975  16.061  70.797  1.00  0.00    -0.232 A  
HETATM   13  N   UNL     1     -12.795  14.187  69.879  1.00  0.00    -0.042 NA 
HETATM   14  C   UNL     1     -12.099  15.765  71.553  1.00  0.00    -0.517 A  
BRANCH  10  15
HETATM   15  C   UNL     1      -9.507  15.833  68.809  1.00  0.00    -0.219 C  
BRANCH  15  16
HETATM   16  O   UNL     1      -9.176  17.169  69.162  1.00  0.00    -0.182 OA 
BRANCH  16  17
HETATM   17  C   UNL     1      -9.439  18.190  68.292  1.00  0.00    -0.307 A  
HETATM   18  C   UNL     1     -10.643  18.331  67.589  1.00  0.00    -0.427 A  
HETATM   19  C   UNL     1     -10.877  19.450  66.783  1.00  0.00    -0.490 A  
HETATM   20  C   UNL     1      -9.903  20.433  66.645  1.00  0.00    -0.496 A  
HETATM   21  C   UNL     1      -8.688  20.293  67.313  1.00  0.00    -0.352 A  
HETATM   22  O   UNL     1      -7.724  21.251  67.145  1.00  0.00    -0.732 OA 
HETATM   23  C   UNL     1      -8.449  19.185  68.144  1.00  0.00    -0.355 A  
HETATM   24  C   UNL     1      -7.139  19.115  68.851  1.00  0.00    -0.337 C  
HETATM   25  H   UNL     1      -6.896  21.156  67.601  1.00  0.00     0.000 HD 
HETATM   26  O   UNL     1      -6.744  18.161  69.509  1.00  0.00    -0.212 OA 
ENDBRANCH  16  17
ENDBRANCH  15  16
ENDBRANCH  10  15
ENDBRANCH   8   9
ENDBRANCH   2   4
TORSDOF 5
ENDMDL
MODEL       16
REMARK 921   NORMALIZED FREE ENERGY PREDICTED BY IDOCK:   -6.69 KCAL/MOL
REMARK 922        TOTAL FREE ENERGY PREDICTED BY IDOCK:   -9.86 KCAL/MOL
REMARK 923 INTER-LIGAND FREE ENERGY PREDICTED BY IDOCK:   -8.53 KCAL/MOL
REMARK 924 INTRA-LIGAND FREE ENERGY PREDICTED BY IDOCK:   -1.32 KCAL/MOL
REMARK 927      BINDING AFFINITY PREDICTED BY RF-SCORE:    0.00 PKD
ROOT
HETATM    1  C   UNL     1     -11.369  14.966  65.325  1.00  0.00    -0.358 C  
HETATM    2  C   UNL     1     -11.926  13.714  66.009  1.00  0.00    -0.413 C  
HETATM    3  C   UNL     1     -12.631  12.815  64.984  1.00  0.00    -0.538 C  
ENDROOT
BRANCH   2   4
HETATM    4  N   UNL     1     -10.886  12.953  66.705  1.00  0.00    -0.264 NA 
HETATM    5  N   UNL     1     -10.169  12.059  65.977  1.00  0.00    -0.220 NA 
HETATM    6  C   UNL     1      -9.567  11.310  66.893  1.00  0.00    -0.191 A  
HETATM    7  C   UNL     1      -9.839  11.746  68.198  1.00  0.00    -0.190 A  
HETATM    8  C   UNL     1     -10.622  12.884  68.067  1.00  0.00    -0.227 A  
BRANCH   8   9
HETATM    9  C   UNL     1     -11.007  13.902  69.052  1.00  0.00    -0.250 A  
HETATM   10  C   UNL     1     -10.459  15.183  69.186  1.00  0.00    -0.252 A  
HETATM   11  C   UNL     1     -12.645  14.372  70.641  1.00  0.00    -0.357 A  
HETATM   12  C   UNL     1     -11.058  16.047  70.127  1.00  0.00    -0.372 A  
HETATM   13  N   UNL     1     -12.094  13.503  69.768  1.00  0.00    -0.328 NA 
HETATM   14  C   UNL     1     -12.169  15.647  70.854  1.00  0.00    -0.466 A  
BRANCH  10  15
HETATM   15  C   UNL     1      -9.261  15.716  68.448  1.00  0.00    -0.191 C  
BRANCH  15  16
HETATM   16  O   UNL     1      -9.047  17.064  68.847  1.00  0.00    -0.262 OA 
BRANCH  16  17
HETATM   17  C   UNL     1      -9.270  18.081  67.961  1.00  0.00    -0.272 A  
HETATM   18  C   UNL     1     -10.399  18.169  67.136  1.00  0.00    -0.391 A  
HETATM   19  C   UNL     1     -10.605  19.284  66.317  1.00  0.00    -0.545 A  
HETATM   20  C   UNL     1      -9.673  20.317  66.288  1.00  0.00    -0.455 A  
HETATM   21  C   UNL     1      -8.530  20.231  67.080  1.00  0.00    -0.339 A  
HETATM   22  O   UNL     1      -7.604  21.237  67.020  1.00  0.00    -0.741 OA 
HETATM   23  C   UNL     1      -8.322  19.126  67.924  1.00  0.00    -0.333 A  
HETATM   24  C   UNL     1      -7.092  19.113  68.764  1.00  0.00    -0.331 C  
HETATM   25  H   UNL     1      -6.824  21.179  67.560  1.00  0.00     0.000 HD 
HETATM   26  O   UNL     1      -6.719  18.173  69.454  1.00  0.00    -0.248 OA 
ENDBRANCH  16  17
ENDBRANCH  15  16
ENDBRANCH  10  15
ENDBRANCH   8   9
ENDBRANCH   2   4
TORSDOF 5
ENDMDL
MODEL       17
REMARK 921   NORMALIZED FREE ENERGY PREDICTED BY IDOCK:   -6.66 KCAL/MOL
REMARK 922        TOTAL FREE ENERGY PREDICTED BY IDOCK:   -9.82 KCAL/MOL
REMARK 923 INTER-LIGAND FREE ENERGY PREDICTED BY IDOCK:   -8.70 KCAL/MOL
REMARK 924 INTRA-LIGAND FREE ENERGY PREDICTED BY IDOCK:   -1.12 KCAL/MOL
REMARK 927      BINDING AFFINITY PREDICTED BY RF-SCORE:    0.00 PKD
ROOT
HETATM    1  C   UNL     1     -13.535   9.464  71.150  1.00  0.00    -0.253 C  
HETATM    2  C   UNL     1     -12.446  10.232  70.396  1.00  0.00    -0.219 C  
HETATM    3  C   UNL     1     -12.421  11.699  70.845  1.00  0.00    -0.440 C  
ENDROOT
BRANCH   2   4
HETATM    4  N   UNL     1     -11.121   9.635  70.575  1.00  0.00    -0.283 NA 
HETATM    5  N   UNL     1     -10.808   9.158  71.807  1.00  0.00    -0.365 NA 
HETATM    6  C   UNL     1      -9.491   8.998  71.764  1.00  0.00    -0.175 A  
HETATM    7  C   UNL     1      -8.961   9.307  70.502  1.00  0.00    -0.296 A  
HETATM    8  C   UNL     1     -10.044   9.627  69.698  1.00  0.00    -0.224 A  
BRANCH   8   9
HETATM    9  C   UNL     1     -10.142   9.793  68.243  1.00  0.00    -0.163 A  
HETATM   10  C   UNL     1     -10.266  11.001  67.547  1.00  0.00    -0.219 A  
HETATM   11  C   UNL     1      -9.904   8.604  66.253  1.00  0.00    -0.249 A  
HETATM   12  C   UNL     1     -10.227  10.943  66.138  1.00  0.00    -0.304 A  
HETATM   13  N   UNL     1      -9.956   8.607  67.601  1.00  0.00    -0.181 NA 
HETATM   14  C   UNL     1     -10.031   9.738  65.481  1.00  0.00    -0.329 A  
BRANCH  10  15
HETATM   15  C   UNL     1     -10.480  12.359  68.160  1.00  0.00    -0.219 C  
BRANCH  15  16
HETATM   16  O   UNL     1     -11.334  13.111  67.308  1.00  0.00    -0.278 OA 
BRANCH  16  17
HETATM   17  C   UNL     1     -10.941  14.341  66.861  1.00  0.00    -0.304 A  
HETATM   18  C   UNL     1     -10.085  15.196  67.568  1.00  0.00    -0.232 A  
HETATM   19  C   UNL     1      -9.653  16.403  67.009  1.00  0.00    -0.244 A  
HETATM   20  C   UNL     1     -10.091  16.789  65.747  1.00  0.00    -0.276 A  
HETATM   21  C   UNL     1     -10.966  15.965  65.042  1.00  0.00    -0.412 A  
HETATM   22  O   UNL     1     -11.415  16.369  63.814  1.00  0.00    -1.590 OA 
HETATM   23  C   UNL     1     -11.389  14.738  65.584  1.00  0.00    -0.343 A  
HETATM   24  C   UNL     1     -12.303  13.894  64.763  1.00  0.00    -0.400 C  
HETATM   25  H   UNL     1     -12.012  15.807  63.333  1.00  0.00     0.000 HD 
HETATM   26  O   UNL     1     -12.844  12.865  65.146  1.00  0.00    -0.702 OA 
ENDBRANCH  16  17
ENDBRANCH  15  16
ENDBRANCH  10  15
ENDBRANCH   8   9
ENDBRANCH   2   4
TORSDOF 5
ENDMDL
MODEL       18
REMARK 921   NORMALIZED FREE ENERGY PREDICTED BY IDOCK:   -6.63 KCAL/MOL
REMARK 922        TOTAL FREE ENERGY PREDICTED BY IDOCK:   -9.78 KCAL/MOL
REMARK 923 INTER-LIGAND FREE ENERGY PREDICTED BY IDOCK:   -8.52 KCAL/MOL
REMARK 924 INTRA-LIGAND FREE ENERGY PREDICTED BY IDOCK:   -1.26 KCAL/MOL
REMARK 927      BINDING AFFINITY PREDICTED BY RF-SCORE:    0.00 PKD
ROOT
HETATM    1  C   UNL     1     -12.568  12.022  63.381  1.00  0.00    -0.592 C  
HETATM    2  C   UNL     1     -11.328  11.997  64.279  1.00  0.00    -0.364 C  
HETATM    3  C   UNL     1     -10.090  11.598  63.465  1.00  0.00    -0.455 C  
ENDROOT
BRANCH   2   4
HETATM    4  N   UNL     1     -11.096  13.282  64.941  1.00  0.00    -0.315 NA 
HETATM    5  N   UNL     1     -11.643  14.388  64.374  1.00  0.00    -0.364 NA 
HETATM    6  C   UNL     1     -11.012  15.395  64.965  1.00  0.00    -0.436 A  
HETATM    7  C   UNL     1     -10.112  14.955  65.947  1.00  0.00    -0.348 A  
HETATM    8  C   UNL     1     -10.244  13.575  65.998  1.00  0.00    -0.305 A  
BRANCH   8   9
HETATM    9  C   UNL     1      -9.752  12.601  66.978  1.00  0.00    -0.225 A  
HETATM   10  C   UNL     1     -10.470  12.063  68.053  1.00  0.00    -0.224 A  
HETATM   11  C   UNL     1      -7.962  11.164  67.380  1.00  0.00    -0.125 A  
HETATM   12  C   UNL     1      -9.842  11.049  68.807  1.00  0.00    -0.206 A  
HETATM   13  N   UNL     1      -8.513  12.150  66.642  1.00  0.00    -0.137 NA 
HETATM   14  C   UNL     1      -8.582  10.583  68.464  1.00  0.00    -0.135 A  
BRANCH  10  15
HETATM   15  C   UNL     1     -11.839  12.493  68.509  1.00  0.00    -0.295 C  
BRANCH  15  16
HETATM   16  O   UNL     1     -11.724  13.755  69.153  1.00  0.00    -0.286 OA 
BRANCH  16  17
HETATM   17  C   UNL     1     -12.220  13.925  70.415  1.00  0.00    -0.368 A  
HETATM   18  C   UNL     1     -12.981  12.964  71.094  1.00  0.00    -0.259 A  
HETATM   19  C   UNL     1     -13.381  13.170  72.419  1.00  0.00    -0.591 A  
HETATM   20  C   UNL     1     -13.051  14.350  73.077  1.00  0.00    -0.581 A  
HETATM   21  C   UNL     1     -12.321  15.329  72.406  1.00  0.00    -0.373 A  
HETATM   22  O   UNL     1     -12.029  16.499  73.053  1.00  0.00    -0.530 OA 
HETATM   23  C   UNL     1     -11.894  15.124  71.082  1.00  0.00    -0.393 A  
HETATM   24  C   UNL     1     -11.092  16.202  70.436  1.00  0.00    -0.351 C  
HETATM   25  H   UNL     1     -11.531  17.167  72.596  1.00  0.00     0.000 HD 
HETATM   26  O   UNL     1     -10.753  16.218  69.260  1.00  0.00    -0.263 OA 
ENDBRANCH  16  17
ENDBRANCH  15  16
ENDBRANCH  10  15
ENDBRANCH   8   9
ENDBRANCH   2   4
TORSDOF 5
ENDMDL
MODEL       19
REMARK 921   NORMALIZED FREE ENERGY PREDICTED BY IDOCK:   -6.61 KCAL/MOL
REMARK 922        TOTAL FREE ENERGY PREDICTED BY IDOCK:   -9.75 KCAL/MOL
REMARK 923 INTER-LIGAND FREE ENERGY PREDICTED BY IDOCK:   -8.48 KCAL/MOL
REMARK 924 INTRA-LIGAND FREE ENERGY PREDICTED BY IDOCK:   -1.27 KCAL/MOL
REMARK 927      BINDING AFFINITY PREDICTED BY RF-SCORE:    0.00 PKD
ROOT
HETATM    1  C   UNL     1      -6.744  13.061  67.539  1.00  0.00    -0.156 C  
HETATM    2  C   UNL     1      -7.654  14.169  68.078  1.00  0.00    -0.141 C  
HETATM    3  C   UNL     1      -7.088  14.734  69.387  1.00  0.00    -0.170 C  
ENDROOT
BRANCH   2   4
HETATM    4  N   UNL     1      -7.844  15.251  67.110  1.00  0.00    -0.209 NA 
HETATM    5  N   UNL     1      -6.800  16.092  66.895  1.00  0.00    -0.257 NA 
HETATM    6  C   UNL     1      -7.345  17.123  66.262  1.00  0.00    -0.291 A  
HETATM    7  C   UNL     1      -8.712  16.932  66.013  1.00  0.00    -0.193 A  
HETATM    8  C   UNL     1      -9.013  15.661  66.481  1.00  0.00    -0.308 A  
BRANCH   8   9
HETATM    9  C   UNL     1     -10.201  14.823  66.282  1.00  0.00    -0.298 A  
HETATM   10  C   UNL     1     -11.367  14.830  67.056  1.00  0.00    -0.358 A  
HETATM   11  C   UNL     1     -11.162  13.359  64.744  1.00  0.00    -0.345 A  
HETATM   12  C   UNL     1     -12.439  14.023  66.619  1.00  0.00    -0.296 A  
HETATM   13  N   UNL     1     -10.103  14.099  65.133  1.00  0.00    -0.357 NA 
HETATM   14  C   UNL     1     -12.344  13.290  65.446  1.00  0.00    -0.528 A  
BRANCH  10  15
HETATM   15  C   UNL     1     -11.573  15.588  68.340  1.00  0.00    -0.357 C  
BRANCH  15  16
HETATM   16  O   UNL     1     -11.113  14.785  69.418  1.00  0.00    -0.261 OA 
BRANCH  16  17
HETATM   17  C   UNL     1     -11.745  14.840  70.629  1.00  0.00    -0.297 A  
HETATM   18  C   UNL     1     -11.807  15.988  71.430  1.00  0.00    -0.531 A  
HETATM   19  C   UNL     1     -12.547  15.996  72.617  1.00  0.00    -0.551 A  
HETATM   20  C   UNL     1     -13.215  14.851  73.037  1.00  0.00    -0.596 A  
HETATM   21  C   UNL     1     -13.139  13.692  72.267  1.00  0.00    -0.395 A  
HETATM   22  O   UNL     1     -13.775  12.561  72.705  1.00  0.00    -0.652 OA 
HETATM   23  C   UNL     1     -12.417  13.677  71.061  1.00  0.00    -0.456 A  
HETATM   24  C   UNL     1     -12.402  12.411  70.275  1.00  0.00    -0.188 C  
HETATM   25  H   UNL     1     -13.723  11.771  72.181  1.00  0.00     0.000 HD 
HETATM   26  O   UNL     1     -11.726  12.212  69.273  1.00  0.00    -0.289 OA 
ENDBRANCH  16  17
ENDBRANCH  15  16
ENDBRANCH  10  15
ENDBRANCH   8   9
ENDBRANCH   2   4
TORSDOF 5
ENDMDL
MODEL       20
REMARK 921   NORMALIZED FREE ENERGY PREDICTED BY IDOCK:   -6.57 KCAL/MOL
REMARK 922        TOTAL FREE ENERGY PREDICTED BY IDOCK:   -9.71 KCAL/MOL
REMARK 923 INTER-LIGAND FREE ENERGY PREDICTED BY IDOCK:   -8.27 KCAL/MOL
REMARK 924 INTRA-LIGAND FREE ENERGY PREDICTED BY IDOCK:   -1.44 KCAL/MOL
REMARK 927      BINDING AFFINITY PREDICTED BY RF-SCORE:    0.00 PKD
ROOT
HETATM    1  C   UNL     1     -10.967   6.561  67.200  1.00  0.00    -0.480 C  
HETATM    2  C   UNL     1     -10.904   7.062  68.645  1.00  0.00    -0.147 C  
HETATM    3  C   UNL     1     -10.805   5.878  69.616  1.00  0.00    -0.444 C  
ENDROOT
BRANCH   2   4
HETATM    4  N   UNL     1      -9.786   7.981  68.866  1.00  0.00    -0.156 NA 
HETATM    5  N   UNL     1      -8.617   7.713  68.229  1.00  0.00    -0.124 NA 
HETATM    6  C   UNL     1      -7.729   8.476  68.854  1.00  0.00    -0.100 A  
HETATM    7  C   UNL     1      -8.320   9.275  69.844  1.00  0.00    -0.161 A  
HETATM    8  C   UNL     1      -9.682   9.022  69.780  1.00  0.00    -0.175 A  
BRANCH   8   9
HETATM    9  C   UNL     1     -10.817   9.726  70.386  1.00  0.00    -0.311 A  
HETATM   10  C   UNL     1     -11.383  10.931  69.951  1.00  0.00    -0.381 A  
HETATM   11  C   UNL     1     -12.503   9.441  71.970  1.00  0.00    -0.365 A  
HETATM   12  C   UNL     1     -12.547  11.375  70.612  1.00  0.00    -0.360 A  
HETATM   13  N   UNL     1     -11.377   8.986  71.382  1.00  0.00    -0.295 NA 
HETATM   14  C   UNL     1     -13.124  10.620  71.622  1.00  0.00    -0.555 A  
BRANCH  10  15
HETATM   15  C   UNL     1     -10.840  11.823  68.867  1.00  0.00    -0.223 C  
BRANCH  15  16
HETATM   16  O   UNL     1     -11.672  11.700  67.721  1.00  0.00    -0.489 OA 
BRANCH  16  17
HETATM   17  C   UNL     1     -11.123  11.377  66.512  1.00  0.00    -0.251 A  
HETATM   18  C   UNL     1     -10.344  10.235  66.283  1.00  0.00    -0.256 A  
HETATM   19  C   UNL     1      -9.889   9.922  64.998  1.00  0.00    -0.323 A  
HETATM   20  C   UNL     1     -10.181  10.757  63.925  1.00  0.00    -0.377 A  
HETATM   21  C   UNL     1     -10.930  11.913  64.141  1.00  0.00    -0.369 A  
HETATM   22  O   UNL     1     -11.184  12.745  63.084  1.00  0.00    -0.721 OA 
HETATM   23  C   UNL     1     -11.412  12.227  65.423  1.00  0.00    -0.402 A  
HETATM   24  C   UNL     1     -12.229  13.464  65.575  1.00  0.00    -0.455 C  
HETATM   25  H   UNL     1     -11.695  13.533  63.230  1.00  0.00     0.000 HD 
HETATM   26  O   UNL     1     -12.616  13.927  66.641  1.00  0.00    -0.351 OA 
ENDBRANCH  16  17
ENDBRANCH  15  16
ENDBRANCH  10  15
ENDBRANCH   8   9
ENDBRANCH   2   4
TORSDOF 5
ENDMDL
MODEL       21
REMARK 921   NORMALIZED FREE ENERGY PREDICTED BY IDOCK:   -6.55 KCAL/MOL
REMARK 922        TOTAL FREE ENERGY PREDICTED BY IDOCK:   -9.67 KCAL/MOL
REMARK 923 INTER-LIGAND FREE ENERGY PREDICTED BY IDOCK:   -8.35 KCAL/MOL
REMARK 924 INTRA-LIGAND FREE ENERGY PREDICTED BY IDOCK:   -1.32 KCAL/MOL
REMARK 927      BINDING AFFINITY PREDICTED BY RF-SCORE:    0.00 PKD
ROOT
HETATM    1  C   UNL     1     -10.767   7.234  66.985  1.00  0.00    -0.406 C  
HETATM    2  C   UNL     1     -10.389   8.705  67.181  1.00  0.00    -0.299 C  
HETATM    3  C   UNL     1      -9.729   8.908  68.551  1.00  0.00    -0.172 C  
ENDROOT
BRANCH   2   4
HETATM    4  N   UNL     1      -9.501   9.195  66.124  1.00  0.00    -0.225 NA 
HETATM    5  N   UNL     1      -8.450   8.411  65.773  1.00  0.00    -0.147 NA 
HETATM    6  C   UNL     1      -7.666   9.221  65.074  1.00  0.00    -0.109 A  
HETATM    7  C   UNL     1      -8.225  10.498  64.919  1.00  0.00    -0.117 A  
HETATM    8  C   UNL     1      -9.473  10.447  65.522  1.00  0.00    -0.215 A  
BRANCH   8   9
HETATM    9  C   UNL     1     -10.603  11.382  65.470  1.00  0.00    -0.271 A  
HETATM   10  C   UNL     1     -10.967  12.307  66.454  1.00  0.00    -0.326 A  
HETATM   11  C   UNL     1     -12.198  12.231  63.999  1.00  0.00    -0.475 A  
HETATM   12  C   UNL     1     -12.022  13.194  66.150  1.00  0.00    -0.478 A  
HETATM   13  N   UNL     1     -11.208  11.349  64.251  1.00  0.00    -0.289 NA 
HETATM   14  C   UNL     1     -12.637  13.168  64.908  1.00  0.00    -0.468 A  
BRANCH  10  15
HETATM   15  C   UNL     1     -10.366  12.421  67.830  1.00  0.00    -0.216 C  
BRANCH  15  16
HETATM   16  O   UNL     1     -11.227  13.215  68.635  1.00  0.00    -0.245 OA 
BRANCH  16  17
HETATM   17  C   UNL     1     -11.904  12.645  69.677  1.00  0.00    -0.311 A  
HETATM   18  C   UNL     1     -11.963  11.265  69.913  1.00  0.00    -0.440 A  
HETATM   19  C   UNL     1     -12.600  10.758  71.051  1.00  0.00    -0.520 A  
HETATM   20  C   UNL     1     -13.211  11.618  71.957  1.00  0.00    -0.443 A  
HETATM   21  C   UNL     1     -13.188  12.992  71.721  1.00  0.00    -0.392 A  
HETATM   22  O   UNL     1     -13.820  13.827  72.602  1.00  0.00    -0.691 OA 
HETATM   23  C   UNL     1     -12.531  13.516  70.594  1.00  0.00    -0.405 A  
HETATM   24  C   UNL     1     -12.521  14.995  70.420  1.00  0.00    -0.356 C  
HETATM   25  H   UNL     1     -13.804  14.763  72.442  1.00  0.00     0.000 HD 
HETATM   26  O   UNL     1     -12.095  15.586  69.436  1.00  0.00    -0.336 OA 
ENDBRANCH  16  17
ENDBRANCH  15  16
ENDBRANCH  10  15
ENDBRANCH   8   9
ENDBRANCH   2   4
TORSDOF 5
ENDMDL
MODEL       22
REMARK 921   NORMALIZED FREE ENERGY PREDICTED BY IDOCK:   -6.53 KCAL/MOL
REMARK 922        TOTAL FREE ENERGY PREDICTED BY IDOCK:   -9.65 KCAL/MOL
REMARK 923 INTER-LIGAND FREE ENERGY PREDICTED BY IDOCK:   -8.49 KCAL/MOL
REMARK 924 INTRA-LIGAND FREE ENERGY PREDICTED BY IDOCK:   -1.16 KCAL/MOL
REMARK 927      BINDING AFFINITY PREDICTED BY RF-SCORE:    0.00 PKD
ROOT
HETATM    1  C   UNL     1      -8.184  12.272  67.152  1.00  0.00    -0.179 C  
HETATM    2  C   UNL     1      -9.015  13.527  67.432  1.00  0.00    -0.219 C  
HETATM    3  C   UNL     1      -8.229  14.785  67.039  1.00  0.00    -0.211 C  
ENDROOT
BRANCH   2   4
HETATM    4  N   UNL     1     -10.303  13.508  66.735  1.00  0.00    -0.261 NA 
HETATM    5  N   UNL     1     -10.287  13.311  65.392  1.00  0.00    -0.300 NA 
HETATM    6  C   UNL     1     -11.504  13.669  65.002  1.00  0.00    -0.327 A  
HETATM    7  C   UNL     1     -12.321  14.035  66.082  1.00  0.00    -0.491 A  
HETATM    8  C   UNL     1     -11.562  13.831  67.224  1.00  0.00    -0.361 A  
BRANCH   8   9
HETATM    9  C   UNL     1     -11.948  13.805  68.640  1.00  0.00    -0.366 A  
HETATM   10  C   UNL     1     -12.029  12.675  69.463  1.00  0.00    -0.332 A  
HETATM   11  C   UNL     1     -12.340  15.222  70.448  1.00  0.00    -0.380 A  
HETATM   12  C   UNL     1     -12.308  12.889  70.829  1.00  0.00    -0.385 A  
HETATM   13  N   UNL     1     -12.095  15.067  69.130  1.00  0.00    -0.263 NA 
HETATM   14  C   UNL     1     -12.453  14.173  71.333  1.00  0.00    -0.438 A  
BRANCH  10  15
HETATM   15  C   UNL     1     -11.887  11.244  69.019  1.00  0.00    -0.352 C  
BRANCH  15  16
HETATM   16  O   UNL     1     -12.259  10.397  70.098  1.00  0.00    -0.273 OA 
BRANCH  16  17
HETATM   17  C   UNL     1     -11.309   9.652  70.739  1.00  0.00    -0.340 A  
HETATM   18  C   UNL     1      -9.944   9.684  70.425  1.00  0.00    -0.330 A  
HETATM   19  C   UNL     1      -9.016   8.961  71.182  1.00  0.00    -0.305 A  
HETATM   20  C   UNL     1      -9.439   8.173  72.248  1.00  0.00    -0.312 A  
HETATM   21  C   UNL     1     -10.797   8.107  72.555  1.00  0.00    -0.361 A  
HETATM   22  O   UNL     1     -11.207   7.304  73.585  1.00  0.00    -0.570 OA 
HETATM   23  C   UNL     1     -11.737   8.847  71.816  1.00  0.00    -0.432 A  
HETATM   24  C   UNL     1     -13.169   8.750  72.217  1.00  0.00    -0.412 C  
HETATM   25  H   UNL     1     -12.132   7.259  73.795  1.00  0.00     0.000 HD 
HETATM   26  O   UNL     1     -14.108   9.239  71.602  1.00  0.00    -0.285 OA 
ENDBRANCH  16  17
ENDBRANCH  15  16
ENDBRANCH  10  15
ENDBRANCH   8   9
ENDBRANCH   2   4
TORSDOF 5
ENDMDL
MODEL       23
REMARK 921   NORMALIZED FREE ENERGY PREDICTED BY IDOCK:   -6.51 KCAL/MOL
REMARK 922        TOTAL FREE ENERGY PREDICTED BY IDOCK:   -9.63 KCAL/MOL
REMARK 923 INTER-LIGAND FREE ENERGY PREDICTED BY IDOCK:   -8.24 KCAL/MOL
REMARK 924 INTRA-LIGAND FREE ENERGY PREDICTED BY IDOCK:   -1.39 KCAL/MOL
REMARK 927      BINDING AFFINITY PREDICTED BY RF-SCORE:    0.00 PKD
ROOT
HETATM    1  C   UNL     1     -12.395  12.174  63.338  1.00  0.00    -0.648 C  
HETATM    2  C   UNL     1     -11.144  11.853  64.162  1.00  0.00    -0.375 C  
HETATM    3  C   UNL     1      -9.972  11.500  63.236  1.00  0.00    -0.435 C  
ENDROOT
BRANCH   2   4
HETATM    4  N   UNL     1     -10.764  12.956  65.046  1.00  0.00    -0.294 NA 
HETATM    5  N   UNL     1     -11.193  14.201  64.717  1.00  0.00    -0.364 NA 
HETATM    6  C   UNL     1     -10.449  15.005  65.467  1.00  0.00    -0.365 A  
HETATM    7  C   UNL     1      -9.590  14.292  66.317  1.00  0.00    -0.310 A  
HETATM    8  C   UNL     1      -9.872  12.950  66.111  1.00  0.00    -0.270 A  
BRANCH   8   9
HETATM    9  C   UNL     1      -9.478  11.760  66.873  1.00  0.00    -0.193 A  
HETATM   10  C   UNL     1     -10.282  11.030  67.756  1.00  0.00    -0.210 A  
HETATM   11  C   UNL     1      -7.766  10.188  67.042  1.00  0.00    -0.096 A  
HETATM   12  C   UNL     1      -9.739   9.845  68.297  1.00  0.00    -0.159 A  
HETATM   13  N   UNL     1      -8.234  11.338  66.514  1.00  0.00    -0.167 NA 
HETATM   14  C   UNL     1      -8.475   9.410  67.929  1.00  0.00    -0.116 A  
BRANCH  10  15
HETATM   15  C   UNL     1     -11.662  11.412  68.219  1.00  0.00    -0.288 C  
BRANCH  15  16
HETATM   16  O   UNL     1     -11.603  11.730  69.603  1.00  0.00    -0.293 OA 
BRANCH  16  17
HETATM   17  C   UNL     1     -11.999  12.964  70.037  1.00  0.00    -0.309 A  
HETATM   18  C   UNL     1     -11.666  14.165  69.395  1.00  0.00    -0.361 A  
HETATM   19  C   UNL     1     -12.181  15.385  69.845  1.00  0.00    -0.363 A  
HETATM   20  C   UNL     1     -13.013  15.431  70.958  1.00  0.00    -0.556 A  
HETATM   21  C   UNL     1     -13.329  14.249  71.626  1.00  0.00    -0.365 A  
HETATM   22  O   UNL     1     -14.123  14.308  72.740  1.00  0.00    -0.575 OA 
HETATM   23  C   UNL     1     -12.837  13.013  71.171  1.00  0.00    -0.331 A  
HETATM   24  C   UNL     1     -13.238  11.787  71.917  1.00  0.00    -0.362 C  
HETATM   25  H   UNL     1     -14.339  13.503  73.196  1.00  0.00     0.000 HD 
HETATM   26  O   UNL     1     -12.799  10.663  71.713  1.00  0.00    -0.437 OA 
ENDBRANCH  16  17
ENDBRANCH  15  16
ENDBRANCH  10  15
ENDBRANCH   8   9
ENDBRANCH   2   4
TORSDOF 5
ENDMDL
MODEL       24
REMARK 921   NORMALIZED FREE ENERGY PREDICTED BY IDOCK:   -6.49 KCAL/MOL
REMARK 922        TOTAL FREE ENERGY PREDICTED BY IDOCK:   -9.60 KCAL/MOL
REMARK 923 INTER-LIGAND FREE ENERGY PREDICTED BY IDOCK:   -8.37 KCAL/MOL
REMARK 924 INTRA-LIGAND FREE ENERGY PREDICTED BY IDOCK:   -1.23 KCAL/MOL
REMARK 927      BINDING AFFINITY PREDICTED BY RF-SCORE:    0.00 PKD
ROOT
HETATM    1  C   UNL     1      -8.699  14.766  66.806  1.00  0.00    -0.255 C  
HETATM    2  C   UNL     1     -10.061  14.284  67.315  1.00  0.00    -0.252 C  
HETATM    3  C   UNL     1     -10.714  15.362  68.190  1.00  0.00    -0.271 C  
ENDROOT
BRANCH   2   4
HETATM    4  N   UNL     1     -10.964  13.917  66.222  1.00  0.00    -0.297 NA 
HETATM    5  N   UNL     1     -11.532  14.925  65.512  1.00  0.00    -0.335 NA 
HETATM    6  C   UNL     1     -12.516  14.332  64.847  1.00  0.00    -0.390 A  
HETATM    7  C   UNL     1     -12.551  12.948  65.072  1.00  0.00    -0.538 A  
HETATM    8  C   UNL     1     -11.470  12.666  65.894  1.00  0.00    -0.363 A  
BRANCH   8   9
HETATM    9  C   UNL     1     -10.856  11.386  66.264  1.00  0.00    -0.263 A  
HETATM   10  C   UNL     1     -11.005  10.708  67.480  1.00  0.00    -0.371 A  
HETATM   11  C   UNL     1      -9.677   9.597  65.347  1.00  0.00    -0.295 A  
HETATM   12  C   UNL     1     -10.418   9.430  67.585  1.00  0.00    -0.328 A  
HETATM   13  N   UNL     1     -10.204  10.831  65.206  1.00  0.00    -0.284 NA 
HETATM   14  C   UNL     1      -9.759   8.859  66.507  1.00  0.00    -0.322 A  
BRANCH  10  15
HETATM   15  C   UNL     1     -11.700  11.234  68.708  1.00  0.00    -0.338 C  
BRANCH  15  16
HETATM   16  O   UNL     1     -11.029  10.733  69.856  1.00  0.00    -0.267 OA 
BRANCH  16  17
HETATM   17  C   UNL     1     -11.735  10.085  70.831  1.00  0.00    -0.374 A  
HETATM   18  C   UNL     1     -13.098  10.293  71.081  1.00  0.00    -0.481 A  
HETATM   19  C   UNL     1     -13.777   9.529  72.036  1.00  0.00    -0.435 A  
HETATM   20  C   UNL     1     -13.101   8.565  72.776  1.00  0.00    -0.082 A  
HETATM   21  C   UNL     1     -11.738   8.367  72.561  1.00  0.00    -0.359 A  
HETATM   22  O   UNL     1     -11.075   7.438  73.317  1.00  0.00    -0.525 OA 
HETATM   23  C   UNL     1     -11.049   9.113  71.588  1.00  0.00    -0.445 A  
HETATM   24  C   UNL     1      -9.599   8.828  71.392  1.00  0.00    -0.267 C  
HETATM   25  H   UNL     1     -10.146   7.303  73.171  1.00  0.00     0.000 HD 
HETATM   26  O   UNL     1      -8.847   9.471  70.672  1.00  0.00    -0.230 OA 
ENDBRANCH  16  17
ENDBRANCH  15  16
ENDBRANCH  10  15
ENDBRANCH   8   9
ENDBRANCH   2   4
TORSDOF 5
ENDMDL
MODEL       25
REMARK 921   NORMALIZED FREE ENERGY PREDICTED BY IDOCK:   -6.49 KCAL/MOL
REMARK 922        TOTAL FREE ENERGY PREDICTED BY IDOCK:   -9.59 KCAL/MOL
REMARK 923 INTER-LIGAND FREE ENERGY PREDICTED BY IDOCK:   -8.85 KCAL/MOL
REMARK 924 INTRA-LIGAND FREE ENERGY PREDICTED BY IDOCK:   -0.74 KCAL/MOL
REMARK 927      BINDING AFFINITY PREDICTED BY RF-SCORE:    0.00 PKD
ROOT
HETATM    1  C   UNL     1      -6.790  20.058  65.020  1.00  0.00    -0.239 C  
HETATM    2  C   UNL     1      -7.130  19.861  66.500  1.00  0.00    -0.240 C  
HETATM    3  C   UNL     1      -6.781  21.123  67.300  1.00  0.00    -0.420 C  
ENDROOT
BRANCH   2   4
HETATM    4  N   UNL     1      -8.539  19.517  66.705  1.00  0.00    -0.322 NA 
HETATM    5  N   UNL     1      -9.462  20.187  65.968  1.00  0.00    -0.328 NA 
HETATM    6  C   UNL     1     -10.611  19.926  66.580  1.00  0.00    -0.415 A  
HETATM    7  C   UNL     1     -10.448  19.051  67.664  1.00  0.00    -0.523 A  
HETATM    8  C   UNL     1      -9.105  18.706  67.680  1.00  0.00    -0.278 A  
BRANCH   8   9
HETATM    9  C   UNL     1      -8.394  17.653  68.415  1.00  0.00    -0.290 A  
HETATM   10  C   UNL     1      -8.710  16.290  68.437  1.00  0.00    -0.205 A  
HETATM   11  C   UNL     1      -6.433  17.276  69.617  1.00  0.00    -0.165 A  
HETATM   12  C   UNL     1      -7.823  15.430  69.118  1.00  0.00    -0.212 A  
HETATM   13  N   UNL     1      -7.262  18.140  68.994  1.00  0.00    -0.252 NA 
HETATM   14  C   UNL     1      -6.666  15.921  69.704  1.00  0.00    -0.173 A  
BRANCH  10  15
HETATM   15  C   UNL     1      -9.935  15.655  67.834  1.00  0.00    -0.223 C  
BRANCH  15  16
HETATM   16  O   UNL     1      -9.712  15.474  66.442  1.00  0.00    -0.247 OA 
BRANCH  16  17
HETATM   17  C   UNL     1     -10.199  14.364  65.812  1.00  0.00    -0.337 A  
HETATM   18  C   UNL     1      -9.914  13.049  66.207  1.00  0.00    -0.283 A  
HETATM   19  C   UNL     1     -10.520  11.961  65.569  1.00  0.00    -0.309 A  
HETATM   20  C   UNL     1     -11.398  12.166  64.510  1.00  0.00    -0.393 A  
HETATM   21  C   UNL     1     -11.669  13.466  64.085  1.00  0.00    -0.419 A  
HETATM   22  O   UNL     1     -12.509  13.655  63.022  1.00  0.00    -1.020 OA 
HETATM   23  C   UNL     1     -11.084  14.569  64.732  1.00  0.00    -0.400 A  
HETATM   24  C   UNL     1     -11.441  15.930  64.244  1.00  0.00    -0.191 C  
HETATM   25  H   UNL     1     -12.694  14.540  62.732  1.00  0.00     0.000 HD 
HETATM   26  O   UNL     1     -10.926  16.973  64.627  1.00  0.00    -0.968 OA 
ENDBRANCH  16  17
ENDBRANCH  15  16
ENDBRANCH  10  15
ENDBRANCH   8   9
ENDBRANCH   2   4
TORSDOF 5
ENDMDL
MODEL       26
REMARK 921   NORMALIZED FREE ENERGY PREDICTED BY IDOCK:   -6.49 KCAL/MOL
REMARK 922        TOTAL FREE ENERGY PREDICTED BY IDOCK:   -9.59 KCAL/MOL
REMARK 923 INTER-LIGAND FREE ENERGY PREDICTED BY IDOCK:   -8.49 KCAL/MOL
REMARK 924 INTRA-LIGAND FREE ENERGY PREDICTED BY IDOCK:   -1.11 KCAL/MOL
REMARK 927      BINDING AFFINITY PREDICTED BY RF-SCORE:    0.00 PKD
ROOT
HETATM    1  C   UNL     1     -11.008   6.180  66.838  1.00  0.00    -0.384 C  
HETATM    2  C   UNL     1     -10.873   7.015  68.115  1.00  0.00    -0.153 C  
HETATM    3  C   UNL     1     -10.920   6.108  69.352  1.00  0.00    -0.454 C  
ENDROOT
BRANCH   2   4
HETATM    4  N   UNL     1      -9.645   7.813  68.129  1.00  0.00    -0.149 NA 
HETATM    5  N   UNL     1      -8.549   7.290  67.521  1.00  0.00    -0.122 NA 
HETATM    6  C   UNL     1      -7.548   8.038  67.967  1.00  0.00    -0.112 A  
HETATM    7  C   UNL     1      -7.991   9.071  68.807  1.00  0.00    -0.101 A  
HETATM    8  C   UNL     1      -9.374   8.982  68.829  1.00  0.00    -0.140 A  
BRANCH   8   9
HETATM    9  C   UNL     1     -10.388   9.919  69.326  1.00  0.00    -0.219 A  
HETATM   10  C   UNL     1     -10.951  10.990  68.621  1.00  0.00    -0.271 A  
HETATM   11  C   UNL     1     -11.862  10.237  71.103  1.00  0.00    -0.362 A  
HETATM   12  C   UNL     1     -11.998  11.698  69.249  1.00  0.00    -0.382 A  
HETATM   13  N   UNL     1     -10.844   9.543  70.552  1.00  0.00    -0.266 NA 
HETATM   14  C   UNL     1     -12.470  11.313  70.495  1.00  0.00    -0.398 A  
BRANCH  10  15
HETATM   15  C   UNL     1     -10.517  11.488  67.269  1.00  0.00    -0.212 C  
BRANCH  15  16
HETATM   16  O   UNL     1     -11.448  12.467  66.827  1.00  0.00    -0.319 OA 
BRANCH  16  17
HETATM   17  C   UNL     1     -11.020  13.732  66.536  1.00  0.00    -0.299 A  
HETATM   18  C   UNL     1     -10.053  14.423  67.278  1.00  0.00    -0.251 A  
HETATM   19  C   UNL     1      -9.599  15.682  66.869  1.00  0.00    -0.244 A  
HETATM   20  C   UNL     1     -10.123  16.282  65.730  1.00  0.00    -0.373 A  
HETATM   21  C   UNL     1     -11.108  15.622  64.997  1.00  0.00    -0.389 A  
HETATM   22  O   UNL     1     -11.639  16.236  63.896  1.00  0.00    -1.489 OA 
HETATM   23  C   UNL     1     -11.556  14.347  65.385  1.00  0.00    -0.347 A  
HETATM   24  C   UNL     1     -12.591  13.687  64.539  1.00  0.00    -0.197 C  
HETATM   25  H   UNL     1     -12.311  15.786  63.396  1.00  0.00     0.000 HD 
HETATM   26  O   UNL     1     -13.159  12.638  64.812  1.00  0.00    -0.852 OA 
ENDBRANCH  16  17
ENDBRANCH  15  16
ENDBRANCH  10  15
ENDBRANCH   8   9
ENDBRANCH   2   4
TORSDOF 5
ENDMDL
MODEL       27
REMARK 921   NORMALIZED FREE ENERGY PREDICTED BY IDOCK:   -6.47 KCAL/MOL
REMARK 922        TOTAL FREE ENERGY PREDICTED BY IDOCK:   -9.57 KCAL/MOL
REMARK 923 INTER-LIGAND FREE ENERGY PREDICTED BY IDOCK:   -8.45 KCAL/MOL
REMARK 924 INTRA-LIGAND FREE ENERGY PREDICTED BY IDOCK:   -1.13 KCAL/MOL
REMARK 927      BINDING AFFINITY PREDICTED BY RF-SCORE:    0.00 PKD
ROOT
HETATM    1  C   UNL     1     -10.105  17.701  68.634  1.00  0.00    -0.377 C  
HETATM    2  C   UNL     1      -9.943  16.179  68.666  1.00  0.00    -0.228 C  
HETATM    3  C   UNL     1      -8.582  15.801  69.265  1.00  0.00    -0.259 C  
ENDROOT
BRANCH   2   4
HETATM    4  N   UNL     1     -11.015  15.522  69.416  1.00  0.00    -0.255 NA 
HETATM    5  N   UNL     1     -11.454  16.130  70.549  1.00  0.00    -0.373 NA 
HETATM    6  C   UNL     1     -12.149  15.186  71.170  1.00  0.00    -0.333 A  
HETATM    7  C   UNL     1     -12.216  13.999  70.426  1.00  0.00    -0.433 A  
HETATM    8  C   UNL     1     -11.557  14.256  69.233  1.00  0.00    -0.306 A  
BRANCH   8   9
HETATM    9  C   UNL     1     -11.511  13.494  67.980  1.00  0.00    -0.307 A  
HETATM   10  C   UNL     1     -10.939  12.230  67.791  1.00  0.00    -0.274 A  
HETATM   11  C   UNL     1     -12.385  13.484  65.820  1.00  0.00    -0.468 A  
HETATM   12  C   UNL     1     -11.108  11.626  66.528  1.00  0.00    -0.357 A  
HETATM   13  N   UNL     1     -12.233  14.111  67.005  1.00  0.00    -0.406 NA 
HETATM   14  C   UNL     1     -11.848  12.249  65.535  1.00  0.00    -0.420 A  
BRANCH  10  15
HETATM   15  C   UNL     1     -10.120  11.469  68.800  1.00  0.00    -0.179 C  
BRANCH  15  16
HETATM   16  O   UNL     1     -11.005  10.760  69.657  1.00  0.00    -0.243 OA 
BRANCH  16  17
HETATM   17  C   UNL     1     -10.512   9.830  70.529  1.00  0.00    -0.301 A  
HETATM   18  C   UNL     1      -9.181   9.388  70.534  1.00  0.00    -0.314 A  
HETATM   19  C   UNL     1      -8.724   8.500  71.513  1.00  0.00    -0.246 A  
HETATM   20  C   UNL     1      -9.593   8.018  72.486  1.00  0.00    -0.306 A  
HETATM   21  C   UNL     1     -10.926   8.424  72.477  1.00  0.00    -0.318 A  
HETATM   22  O   UNL     1     -11.781   7.918  73.420  1.00  0.00    -0.561 OA 
HETATM   23  C   UNL     1     -11.393   9.334  71.512  1.00  0.00    -0.455 A  
HETATM   24  C   UNL     1     -12.823   9.745  71.579  1.00  0.00    -0.405 C  
HETATM   25  H   UNL     1     -12.690   8.195  73.414  1.00  0.00     0.000 HD 
HETATM   26  O   UNL     1     -13.398  10.433  70.745  1.00  0.00    -0.322 OA 
ENDBRANCH  16  17
ENDBRANCH  15  16
ENDBRANCH  10  15
ENDBRANCH   8   9
ENDBRANCH   2   4
TORSDOF 5
ENDMDL
MODEL       28
REMARK 921   NORMALIZED FREE ENERGY PREDICTED BY IDOCK:   -6.46 KCAL/MOL
REMARK 922        TOTAL FREE ENERGY PREDICTED BY IDOCK:   -9.56 KCAL/MOL
REMARK 923 INTER-LIGAND FREE ENERGY PREDICTED BY IDOCK:   -8.55 KCAL/MOL
REMARK 924 INTRA-LIGAND FREE ENERGY PREDICTED BY IDOCK:   -1.01 KCAL/MOL
REMARK 927      BINDING AFFINITY PREDICTED BY RF-SCORE:    0.00 PKD
ROOT
HETATM    1  C   UNL     1     -10.605  10.874  68.538  1.00  0.00    -0.219 C  
HETATM    2  C   UNL     1     -10.149  11.841  67.441  1.00  0.00    -0.195 C  
HETATM    3  C   UNL     1      -9.336  11.093  66.376  1.00  0.00    -0.207 C  
ENDROOT
BRANCH   2   4
HETATM    4  N   UNL     1     -11.273  12.536  66.811  1.00  0.00    -0.280 NA 
HETATM    5  N   UNL     1     -11.812  11.977  65.697  1.00  0.00    -0.447 NA 
HETATM    6  C   UNL     1     -12.547  12.950  65.174  1.00  0.00    -0.471 A  
HETATM    7  C   UNL     1     -12.537  14.107  65.967  1.00  0.00    -0.407 A  
HETATM    8  C   UNL     1     -11.783  13.797  67.089  1.00  0.00    -0.385 A  
BRANCH   8   9
HETATM    9  C   UNL     1     -11.622  14.508  68.362  1.00  0.00    -0.326 A  
HETATM   10  C   UNL     1     -10.975  15.734  68.559  1.00  0.00    -0.312 A  
HETATM   11  C   UNL     1     -12.365  14.481  70.571  1.00  0.00    -0.337 A  
HETATM   12  C   UNL     1     -11.037  16.299  69.850  1.00  0.00    -0.347 A  
HETATM   13  N   UNL     1     -12.316  13.892  69.358  1.00  0.00    -0.282 NA 
HETATM   14  C   UNL     1     -11.748  15.676  70.865  1.00  0.00    -0.423 A  
BRANCH  10  15
HETATM   15  C   UNL     1     -10.180  16.492  67.529  1.00  0.00    -0.283 C  
BRANCH  15  16
HETATM   16  O   UNL     1     -10.183  17.869  67.879  1.00  0.00    -0.334 OA 
BRANCH  16  17
HETATM   17  C   UNL     1      -9.001  18.518  68.102  1.00  0.00    -0.306 A  
HETATM   18  C   UNL     1      -8.065  18.133  69.072  1.00  0.00    -0.072 A  
HETATM   19  C   UNL     1      -6.836  18.791  69.185  1.00  0.00    -0.299 A  
HETATM   20  C   UNL     1      -6.532  19.862  68.350  1.00  0.00    -0.313 A  
HETATM   21  C   UNL     1      -7.464  20.277  67.401  1.00  0.00    -0.307 A  
HETATM   22  O   UNL     1      -7.169  21.352  66.606  1.00  0.00    -0.741 OA 
HETATM   23  C   UNL     1      -8.694  19.609  67.262  1.00  0.00    -0.367 A  
HETATM   24  C   UNL     1      -9.631  20.090  66.207  1.00  0.00    -0.407 C  
HETATM   25  H   UNL     1      -7.804  21.635  65.959  1.00  0.00     0.000 HD 
HETATM   26  O   UNL     1     -10.776  19.688  66.047  1.00  0.00    -0.479 OA 
ENDBRANCH  16  17
ENDBRANCH  15  16
ENDBRANCH  10  15
ENDBRANCH   8   9
ENDBRANCH   2   4
TORSDOF 5
ENDMDL
MODEL       29
REMARK 921   NORMALIZED FREE ENERGY PREDICTED BY IDOCK:   -6.43 KCAL/MOL
REMARK 922        TOTAL FREE ENERGY PREDICTED BY IDOCK:   -9.53 KCAL/MOL
REMARK 923 INTER-LIGAND FREE ENERGY PREDICTED BY IDOCK:   -8.33 KCAL/MOL
REMARK 924 INTRA-LIGAND FREE ENERGY PREDICTED BY IDOCK:   -1.20 KCAL/MOL
REMARK 927      BINDING AFFINITY PREDICTED BY RF-SCORE:    0.00 PKD
ROOT
HETATM    1  C   UNL     1     -11.744   6.163  72.129  1.00  0.00    -0.361 C  
HETATM    2  C   UNL     1     -11.059   7.039  71.076  1.00  0.00    -0.264 C  
HETATM    3  C   UNL     1     -11.353   6.506  69.667  1.00  0.00    -0.443 C  
ENDROOT
BRANCH   2   4
HETATM    4  N   UNL     1     -11.467   8.443  71.171  1.00  0.00    -0.269 NA 
HETATM    5  N   UNL     1     -12.530   8.735  71.963  1.00  0.00    -0.359 NA 
HETATM    6  C   UNL     1     -12.867   9.968  71.603  1.00  0.00    -0.440 A  
HETATM    7  C   UNL     1     -11.999  10.494  70.635  1.00  0.00    -0.455 A  
HETATM    8  C   UNL     1     -11.024   9.530  70.429  1.00  0.00    -0.278 A  
BRANCH   8   9
HETATM    9  C   UNL     1      -9.737   9.603  69.727  1.00  0.00    -0.224 A  
HETATM   10  C   UNL     1      -9.544   9.741  68.348  1.00  0.00    -0.157 A  
HETATM   11  C   UNL     1      -7.454   9.842  70.129  1.00  0.00    -0.170 A  
HETATM   12  C   UNL     1      -8.219   9.909  67.894  1.00  0.00    -0.113 A  
HETATM   13  N   UNL     1      -8.702   9.660  70.609  1.00  0.00    -0.207 NA 
HETATM   14  C   UNL     1      -7.163   9.973  68.790  1.00  0.00    -0.076 A  
BRANCH  10  15
HETATM   15  C   UNL     1     -10.617   9.687  67.293  1.00  0.00    -0.247 C  
BRANCH  15  16
HETATM   16  O   UNL     1     -10.287  10.612  66.265  1.00  0.00    -0.242 OA 
BRANCH  16  17
HETATM   17  C   UNL     1     -11.038  11.742  66.098  1.00  0.00    -0.307 A  
HETATM   18  C   UNL     1     -11.586  12.483  67.153  1.00  0.00    -0.437 A  
HETATM   19  C   UNL     1     -12.269  13.680  66.911  1.00  0.00    -0.398 A  
HETATM   20  C   UNL     1     -12.438  14.142  65.611  1.00  0.00    -0.490 A  
HETATM   21  C   UNL     1     -11.925  13.402  64.547  1.00  0.00    -0.407 A  
HETATM   22  O   UNL     1     -12.125  13.849  63.269  1.00  0.00    -0.938 OA 
HETATM   23  C   UNL     1     -11.217  12.209  64.778  1.00  0.00    -0.373 A  
HETATM   24  C   UNL     1     -10.672  11.484  63.596  1.00  0.00    -0.424 C  
HETATM   25  H   UNL     1     -11.775  13.345  62.544  1.00  0.00     0.000 HD 
HETATM   26  O   UNL     1     -10.140  10.381  63.630  1.00  0.00    -0.247 OA 
ENDBRANCH  16  17
ENDBRANCH  15  16
ENDBRANCH  10  15
ENDBRANCH   8   9
ENDBRANCH   2   4
TORSDOF 5
ENDMDL
MODEL       30
REMARK 921   NORMALIZED FREE ENERGY PREDICTED BY IDOCK:   -6.42 KCAL/MOL
REMARK 922        TOTAL FREE ENERGY PREDICTED BY IDOCK:   -9.51 KCAL/MOL
REMARK 923 INTER-LIGAND FREE ENERGY PREDICTED BY IDOCK:   -8.16 KCAL/MOL
REMARK 924 INTRA-LIGAND FREE ENERGY PREDICTED BY IDOCK:   -1.35 KCAL/MOL
REMARK 927      BINDING AFFINITY PREDICTED BY RF-SCORE:    0.00 PKD
ROOT
HETATM    1  C   UNL     1      -9.954  10.489  66.107  1.00  0.00    -0.286 C  
HETATM    2  C   UNL     1      -9.706  11.415  64.913  1.00  0.00    -0.247 C  
HETATM    3  C   UNL     1      -9.445  10.592  63.645  1.00  0.00    -0.347 C  
ENDROOT
BRANCH   2   4
HETATM    4  N   UNL     1     -10.820  12.338  64.685  1.00  0.00    -0.294 NA 
HETATM    5  N   UNL     1     -11.741  11.993  63.748  1.00  0.00    -0.451 NA 
HETATM    6  C   UNL     1     -12.408  13.118  63.525  1.00  0.00    -0.398 A  
HETATM    7  C   UNL     1     -11.970  14.167  64.347  1.00  0.00    -0.478 A  
HETATM    8  C   UNL     1     -10.999  13.625  65.176  1.00  0.00    -0.330 A  
BRANCH   8   9
HETATM    9  C   UNL     1     -10.364  14.160  66.386  1.00  0.00    -0.287 A  
HETATM   10  C   UNL     1     -10.659  13.810  67.709  1.00  0.00    -0.250 A  
HETATM   11  C   UNL     1      -8.553  15.457  67.072  1.00  0.00    -0.234 A  
HETATM   12  C   UNL     1      -9.845  14.362  68.721  1.00  0.00    -0.214 A  
HETATM   13  N   UNL     1      -9.316  14.971  66.071  1.00  0.00    -0.300 NA 
HETATM   14  C   UNL     1      -8.773  15.183  68.403  1.00  0.00    -0.169 A  
BRANCH  10  15
HETATM   15  C   UNL     1     -11.793  12.930  68.161  1.00  0.00    -0.336 C  
BRANCH  15  16
HETATM   16  O   UNL     1     -11.636  12.666  69.548  1.00  0.00    -0.287 OA 
BRANCH  16  17
HETATM   17  C   UNL     1     -11.816  11.399  70.027  1.00  0.00    -0.359 A  
HETATM   18  C   UNL     1     -11.171  10.267  69.513  1.00  0.00    -0.314 A  
HETATM   19  C   UNL     1     -11.335   9.013  70.110  1.00  0.00    -0.139 A  
HETATM   20  C   UNL     1     -12.168   8.864  71.214  1.00  0.00    -0.351 A  
HETATM   21  C   UNL     1     -12.841   9.975  71.721  1.00  0.00    -0.446 A  
HETATM   22  O   UNL     1     -13.683   9.811  72.788  1.00  0.00    -0.664 OA 
HETATM   23  C   UNL     1     -12.666  11.245  71.143  1.00  0.00    -0.492 A  
HETATM   24  C   UNL     1     -13.395  12.392  71.753  1.00  0.00    -0.270 C  
HETATM   25  H   UNL     1     -14.141  10.568  73.133  1.00  0.00     0.000 HD 
HETATM   26  O   UNL     1     -13.435  13.526  71.293  1.00  0.00    -0.222 OA 
ENDBRANCH  16  17
ENDBRANCH  15  16
ENDBRANCH  10  15
ENDBRANCH   8   9
ENDBRANCH   2   4
TORSDOF 5
ENDMDL
MODEL       31
REMARK 921   NORMALIZED FREE ENERGY PREDICTED BY IDOCK:   -6.42 KCAL/MOL
REMARK 922        TOTAL FREE ENERGY PREDICTED BY IDOCK:   -9.50 KCAL/MOL
REMARK 923 INTER-LIGAND FREE ENERGY PREDICTED BY IDOCK:   -8.25 KCAL/MOL
REMARK 924 INTRA-LIGAND FREE ENERGY PREDICTED BY IDOCK:   -1.26 KCAL/MOL
REMARK 927      BINDING AFFINITY PREDICTED BY RF-SCORE:    0.00 PKD
ROOT
HETATM    1  C   UNL     1     -11.349  11.161  68.330  1.00  0.00    -0.357 C  
HETATM    2  C   UNL     1     -10.689  11.655  67.040  1.00  0.00    -0.253 C  
HETATM    3  C   UNL     1     -10.291  10.466  66.155  1.00  0.00    -0.269 C  
ENDROOT
BRANCH   2   4
HETATM    4  N   UNL     1     -11.553  12.567  66.287  1.00  0.00    -0.374 NA 
HETATM    5  N   UNL     1     -12.278  12.044  65.265  1.00  0.00    -0.400 NA 
HETATM    6  C   UNL     1     -12.681  13.109  64.582  1.00  0.00    -0.261 A  
HETATM    7  C   UNL     1     -12.278  14.310  65.184  1.00  0.00    -0.422 A  
HETATM    8  C   UNL     1     -11.626  13.952  66.355  1.00  0.00    -0.367 A  
BRANCH   8   9
HETATM    9  C   UNL     1     -11.206  14.762  67.504  1.00  0.00    -0.332 A  
HETATM   10  C   UNL     1     -10.061  15.563  67.588  1.00  0.00    -0.243 A  
HETATM   11  C   UNL     1     -11.978  15.550  69.557  1.00  0.00    -0.350 A  
HETATM   12  C   UNL     1      -9.908  16.353  68.747  1.00  0.00    -0.250 A  
HETATM   13  N   UNL     1     -12.159  14.762  68.477  1.00  0.00    -0.231 NA 
HETATM   14  C   UNL     1     -10.879  16.359  69.737  1.00  0.00    -0.343 A  
BRANCH  10  15
HETATM   15  C   UNL     1      -8.951  15.630  66.574  1.00  0.00    -0.308 C  
BRANCH  15  16
HETATM   16  O   UNL     1      -8.918  16.941  66.026  1.00  0.00    -0.458 OA 
BRANCH  16  17
HETATM   17  C   UNL     1      -7.863  17.767  66.295  1.00  0.00    -0.264 A  
HETATM   18  C   UNL     1      -6.524  17.353  66.298  1.00  0.00    -0.270 A  
HETATM   19  C   UNL     1      -5.489  18.273  66.493  1.00  0.00    -0.176 A  
HETATM   20  C   UNL     1      -5.774  19.616  66.716  1.00  0.00    -0.169 A  
HETATM   21  C   UNL     1      -7.101  20.039  66.747  1.00  0.00    -0.234 A  
HETATM   22  O   UNL     1      -7.372  21.357  66.999  1.00  0.00    -0.810 OA 
HETATM   23  C   UNL     1      -8.150  19.128  66.529  1.00  0.00    -0.309 A  
HETATM   24  C   UNL     1      -9.544  19.656  66.547  1.00  0.00    -0.389 C  
HETATM   25  H   UNL     1      -8.277  21.646  67.019  1.00  0.00     0.000 HD 
HETATM   26  O   UNL     1     -10.557  18.971  66.491  1.00  0.00    -0.408 OA 
ENDBRANCH  16  17
ENDBRANCH  15  16
ENDBRANCH  10  15
ENDBRANCH   8   9
ENDBRANCH   2   4
TORSDOF 5
ENDMDL
MODEL       32
REMARK 921   NORMALIZED FREE ENERGY PREDICTED BY IDOCK:   -6.41 KCAL/MOL
REMARK 922        TOTAL FREE ENERGY PREDICTED BY IDOCK:   -9.50 KCAL/MOL
REMARK 923 INTER-LIGAND FREE ENERGY PREDICTED BY IDOCK:   -8.36 KCAL/MOL
REMARK 924 INTRA-LIGAND FREE ENERGY PREDICTED BY IDOCK:   -1.14 KCAL/MOL
REMARK 927      BINDING AFFINITY PREDICTED BY RF-SCORE:    0.00 PKD
ROOT
HETATM    1  C   UNL     1     -12.249  14.337  64.127  1.00  0.00    -0.410 C  
HETATM    2  C   UNL     1     -12.269  12.893  64.637  1.00  0.00    -0.435 C  
HETATM    3  C   UNL     1     -12.755  11.945  63.532  1.00  0.00    -0.530 C  
ENDROOT
BRANCH   2   4
HETATM    4  N   UNL     1     -10.959  12.457  65.124  1.00  0.00    -0.292 NA 
HETATM    5  N   UNL     1     -10.233  11.634  64.325  1.00  0.00    -0.288 NA 
HETATM    6  C   UNL     1      -9.294  11.152  65.129  1.00  0.00    -0.213 A  
HETATM    7  C   UNL     1      -9.369  11.699  66.419  1.00  0.00    -0.224 A  
HETATM    8  C   UNL     1     -10.397  12.629  66.383  1.00  0.00    -0.249 A  
BRANCH   8   9
HETATM    9  C   UNL     1     -10.780  13.674  67.340  1.00  0.00    -0.267 A  
HETATM   10  C   UNL     1     -10.531  15.046  67.222  1.00  0.00    -0.265 A  
HETATM   11  C   UNL     1     -12.086  14.015  69.240  1.00  0.00    -0.338 A  
HETATM   12  C   UNL     1     -11.089  15.892  68.204  1.00  0.00    -0.338 A  
HETATM   13  N   UNL     1     -11.556  13.165  68.336  1.00  0.00    -0.314 NA 
HETATM   14  C   UNL     1     -11.885  15.377  69.216  1.00  0.00    -0.365 A  
BRANCH  10  15
HETATM   15  C   UNL     1      -9.685  15.706  66.166  1.00  0.00    -0.318 C  
BRANCH  15  16
HETATM   16  O   UNL     1      -9.703  17.110  66.384  1.00  0.00    -0.269 OA 
BRANCH  16  17
HETATM   17  C   UNL     1      -8.532  17.813  66.404  1.00  0.00    -0.239 A  
HETATM   18  C   UNL     1      -7.269  17.239  66.199  1.00  0.00    -0.304 A  
HETATM   19  C   UNL     1      -6.120  18.034  66.145  1.00  0.00    -0.250 A  
HETATM   20  C   UNL     1      -6.208  19.411  66.321  1.00  0.00    -0.185 A  
HETATM   21  C   UNL     1      -7.452  19.994  66.556  1.00  0.00    -0.276 A  
HETATM   22  O   UNL     1      -7.523  21.346  66.759  1.00  0.00    -0.755 OA 
HETATM   23  C   UNL     1      -8.618  19.209  66.590  1.00  0.00    -0.329 A  
HETATM   24  C   UNL     1      -9.916  19.903  66.817  1.00  0.00    -0.444 C  
HETATM   25  H   UNL     1      -8.371  21.744  66.919  1.00  0.00     0.000 HD 
HETATM   26  O   UNL     1     -10.993  19.344  66.988  1.00  0.00    -0.467 OA 
ENDBRANCH  16  17
ENDBRANCH  15  16
ENDBRANCH  10  15
ENDBRANCH   8   9
ENDBRANCH   2   4
TORSDOF 5
ENDMDL
MODEL       33
REMARK 921   NORMALIZED FREE ENERGY PREDICTED BY IDOCK:   -6.41 KCAL/MOL
REMARK 922        TOTAL FREE ENERGY PREDICTED BY IDOCK:   -9.49 KCAL/MOL
REMARK 923 INTER-LIGAND FREE ENERGY PREDICTED BY IDOCK:   -8.68 KCAL/MOL
REMARK 924 INTRA-LIGAND FREE ENERGY PREDICTED BY IDOCK:   -0.81 KCAL/MOL
REMARK 927      BINDING AFFINITY PREDICTED BY RF-SCORE:    0.00 PKD
ROOT
HETATM    1  C   UNL     1      -9.965   9.405  66.024  1.00  0.00    -0.352 C  
HETATM    2  C   UNL     1      -9.705  10.834  65.541  1.00  0.00    -0.239 C  
HETATM    3  C   UNL     1      -8.694  10.832  64.387  1.00  0.00    -0.087 C  
ENDROOT
BRANCH   2   4
HETATM    4  N   UNL     1     -10.934  11.512  65.124  1.00  0.00    -0.267 NA 
HETATM    5  N   UNL     1     -11.329  11.359  63.834  1.00  0.00    -0.315 NA 
HETATM    6  C   UNL     1     -12.235  12.313  63.661  1.00  0.00    -0.567 A  
HETATM    7  C   UNL     1     -12.472  13.039  64.838  1.00  0.00    -0.512 A  
HETATM    8  C   UNL     1     -11.692  12.446  65.819  1.00  0.00    -0.414 A  
BRANCH   8   9
HETATM    9  C   UNL     1     -11.701  12.605  67.278  1.00  0.00    -0.370 A  
HETATM   10  C   UNL     1     -11.570  13.805  67.988  1.00  0.00    -0.368 A  
HETATM   11  C   UNL     1     -12.158  11.429  69.237  1.00  0.00    -0.289 A  
HETATM   12  C   UNL     1     -11.724  13.747  69.389  1.00  0.00    -0.379 A  
HETATM   13  N   UNL     1     -12.000  11.430  67.897  1.00  0.00    -0.644 NA 
HETATM   14  C   UNL     1     -12.034  12.553  70.022  1.00  0.00    -0.372 A  
BRANCH  10  15
HETATM   15  C   UNL     1     -11.237  15.150  67.400  1.00  0.00    -0.323 C  
BRANCH  15  16
HETATM   16  O   UNL     1     -10.203  15.739  68.177  1.00  0.00    -0.225 OA 
BRANCH  16  17
HETATM   17  C   UNL     1      -9.898  17.062  68.017  1.00  0.00    -0.275 A  
HETATM   18  C   UNL     1     -10.770  18.005  67.456  1.00  0.00    -0.352 A  
HETATM   19  C   UNL     1     -10.426  19.360  67.406  1.00  0.00    -0.581 A  
HETATM   20  C   UNL     1      -9.195  19.791  67.889  1.00  0.00    -0.427 A  
HETATM   21  C   UNL     1      -8.304  18.862  68.422  1.00  0.00    -0.347 A  
HETATM   22  O   UNL     1      -7.082  19.292  68.866  1.00  0.00    -0.322 OA 
HETATM   23  C   UNL     1      -8.647  17.500  68.499  1.00  0.00    -0.276 A  
HETATM   24  C   UNL     1      -7.657  16.567  69.108  1.00  0.00    -0.210 C  
HETATM   25  H   UNL     1      -6.475  18.659  69.229  1.00  0.00     0.000 HD 
HETATM   26  O   UNL     1      -7.765  15.348  69.137  1.00  0.00    -0.171 OA 
ENDBRANCH  16  17
ENDBRANCH  15  16
ENDBRANCH  10  15
ENDBRANCH   8   9
ENDBRANCH   2   4
TORSDOF 5
ENDMDL
MODEL       34
REMARK 921   NORMALIZED FREE ENERGY PREDICTED BY IDOCK:   -6.36 KCAL/MOL
REMARK 922        TOTAL FREE ENERGY PREDICTED BY IDOCK:   -9.44 KCAL/MOL
REMARK 923 INTER-LIGAND FREE ENERGY PREDICTED BY IDOCK:   -8.36 KCAL/MOL
REMARK 924 INTRA-LIGAND FREE ENERGY PREDICTED BY IDOCK:   -1.08 KCAL/MOL
REMARK 927      BINDING AFFINITY PREDICTED BY RF-SCORE:    0.00 PKD
ROOT
HETATM    1  C   UNL     1     -11.769  10.147  70.164  1.00  0.00    -0.330 C  
HETATM    2  C   UNL     1     -10.789  11.113  69.492  1.00  0.00    -0.188 C  
HETATM    3  C   UNL     1      -9.624  10.337  68.862  1.00  0.00    -0.193 C  
ENDROOT
BRANCH   2   4
HETATM    4  N   UNL     1     -11.437  11.945  68.476  1.00  0.00    -0.268 NA 
HETATM    5  N   UNL     1     -11.683  11.382  67.265  1.00  0.00    -0.583 NA 
HETATM    6  C   UNL     1     -11.947  12.418  66.479  1.00  0.00    -0.252 A  
HETATM    7  C   UNL     1     -11.935  13.633  67.179  1.00  0.00    -0.434 A  
HETATM    8  C   UNL     1     -11.700  13.309  68.507  1.00  0.00    -0.352 A  
BRANCH   8   9
HETATM    9  C   UNL     1     -11.818  14.117  69.726  1.00  0.00    -0.322 A  
HETATM   10  C   UNL     1     -11.086  15.268  70.040  1.00  0.00    -0.303 A  
HETATM   11  C   UNL     1     -13.170  14.396  71.604  1.00  0.00    -0.350 A  
HETATM   12  C   UNL     1     -11.441  15.960  71.217  1.00  0.00    -0.489 A  
HETATM   13  N   UNL     1     -12.855  13.689  70.498  1.00  0.00    -0.166 NA 
HETATM   14  C   UNL     1     -12.500  15.531  72.002  1.00  0.00    -0.476 A  
BRANCH  10  15
HETATM   15  C   UNL     1      -9.923  15.819  69.258  1.00  0.00    -0.262 C  
BRANCH  15  16
HETATM   16  O   UNL     1     -10.428  16.502  68.118  1.00  0.00    -0.285 OA 
BRANCH  16  17
HETATM   17  C   UNL     1     -10.213  17.844  67.977  1.00  0.00    -0.376 A  
HETATM   18  C   UNL     1      -9.980  18.719  69.047  1.00  0.00    -0.348 A  
HETATM   19  C   UNL     1      -9.679  20.066  68.821  1.00  0.00    -0.271 A  
HETATM   20  C   UNL     1      -9.633  20.568  67.525  1.00  0.00    -0.545 A  
HETATM   21  C   UNL     1      -9.892  19.719  66.450  1.00  0.00    -0.449 A  
HETATM   22  O   UNL     1      -9.876  20.230  65.181  1.00  0.00    -0.274 OA 
HETATM   23  C   UNL     1     -10.173  18.358  66.663  1.00  0.00    -0.416 A  
HETATM   24  C   UNL     1     -10.413  17.502  65.467  1.00  0.00    -0.068 C  
HETATM   25  H   UNL     1     -10.052  19.652  64.448  1.00  0.00     0.000 HD 
HETATM   26  O   UNL     1     -10.781  16.335  65.498  1.00  0.00    -0.359 OA 
ENDBRANCH  16  17
ENDBRANCH  15  16
ENDBRANCH  10  15
ENDBRANCH   8   9
ENDBRANCH   2   4
TORSDOF 5
ENDMDL
MODEL       35
REMARK 921   NORMALIZED FREE ENERGY PREDICTED BY IDOCK:   -6.36 KCAL/MOL
REMARK 922        TOTAL FREE ENERGY PREDICTED BY IDOCK:   -9.44 KCAL/MOL
REMARK 923 INTER-LIGAND FREE ENERGY PREDICTED BY IDOCK:   -8.07 KCAL/MOL
REMARK 924 INTRA-LIGAND FREE ENERGY PREDICTED BY IDOCK:   -1.37 KCAL/MOL
REMARK 927      BINDING AFFINITY PREDICTED BY RF-SCORE:    0.00 PKD
ROOT
HETATM    1  C   UNL     1     -10.392  14.897  65.089  1.00  0.00    -0.431 C  
HETATM    2  C   UNL     1     -10.803  13.557  65.705  1.00  0.00    -0.275 C  
HETATM    3  C   UNL     1     -12.330  13.476  65.835  1.00  0.00    -0.507 C  
ENDROOT
BRANCH   2   4
HETATM    4  N   UNL     1     -10.309  12.415  64.931  1.00  0.00    -0.287 NA 
HETATM    5  N   UNL     1     -10.562  12.404  63.597  1.00  0.00    -0.445 NA 
HETATM    6  C   UNL     1     -10.313  11.152  63.235  1.00  0.00    -0.308 A  
HETATM    7  C   UNL     1      -9.846  10.373  64.304  1.00  0.00    -0.388 A  
HETATM    8  C   UNL     1      -9.749  11.230  65.390  1.00  0.00    -0.231 A  
BRANCH   8   9
HETATM    9  C   UNL     1      -9.100  11.055  66.694  1.00  0.00    -0.166 A  
HETATM   10  C   UNL     1      -9.732  10.751  67.907  1.00  0.00    -0.181 A  
HETATM   11  C   UNL     1      -6.995  10.828  67.668  1.00  0.00    -0.082 A  
HETATM   12  C   UNL     1      -8.904  10.510  69.024  1.00  0.00    -0.174 A  
HETATM   13  N   UNL     1      -7.745  11.086  66.576  1.00  0.00    -0.151 NA 
HETATM   14  C   UNL     1      -7.523  10.535  68.905  1.00  0.00    -0.104 A  
BRANCH  10  15
HETATM   15  C   UNL     1     -11.217  10.697  68.143  1.00  0.00    -0.302 C  
BRANCH  15  16
HETATM   16  O   UNL     1     -11.458  10.820  69.538  1.00  0.00    -0.246 OA 
BRANCH  16  17
HETATM   17  C   UNL     1     -11.919  12.000  70.050  1.00  0.00    -0.324 A  
HETATM   18  C   UNL     1     -11.652  13.256  69.488  1.00  0.00    -0.349 A  
HETATM   19  C   UNL     1     -12.231  14.416  70.014  1.00  0.00    -0.408 A  
HETATM   20  C   UNL     1     -13.065  14.344  71.125  1.00  0.00    -0.419 A  
HETATM   21  C   UNL     1     -13.317  13.106  71.714  1.00  0.00    -0.389 A  
HETATM   22  O   UNL     1     -14.113  13.050  72.827  1.00  0.00    -0.737 OA 
HETATM   23  C   UNL     1     -12.759  11.930  71.182  1.00  0.00    -0.384 A  
HETATM   24  C   UNL     1     -13.094  10.639  71.845  1.00  0.00    -0.458 C  
HETATM   25  H   UNL     1     -14.285  12.206  73.228  1.00  0.00     0.000 HD 
HETATM   26  O   UNL     1     -12.595   9.555  71.570  1.00  0.00    -0.326 OA 
ENDBRANCH  16  17
ENDBRANCH  15  16
ENDBRANCH  10  15
ENDBRANCH   8   9
ENDBRANCH   2   4
TORSDOF 5
ENDMDL
MODEL       36
REMARK 921   NORMALIZED FREE ENERGY PREDICTED BY IDOCK:   -6.36 KCAL/MOL
REMARK 922        TOTAL FREE ENERGY PREDICTED BY IDOCK:   -9.44 KCAL/MOL
REMARK 923 INTER-LIGAND FREE ENERGY PREDICTED BY IDOCK:   -8.40 KCAL/MOL
REMARK 924 INTRA-LIGAND FREE ENERGY PREDICTED BY IDOCK:   -1.04 KCAL/MOL
REMARK 927      BINDING AFFINITY PREDICTED BY RF-SCORE:    0.00 PKD
ROOT
HETATM    1  C   UNL     1      -8.247  15.483  69.214  1.00  0.00    -0.255 C  
HETATM    2  C   UNL     1      -9.759  15.698  69.328  1.00  0.00    -0.271 C  
HETATM    3  C   UNL     1     -10.112  17.162  69.031  1.00  0.00    -0.297 C  
ENDROOT
BRANCH   2   4
HETATM    4  N   UNL     1     -10.514  14.814  68.439  1.00  0.00    -0.238 NA 
HETATM    5  N   UNL     1     -10.002  14.579  67.203  1.00  0.00    -0.249 NA 
HETATM    6  C   UNL     1     -11.017  14.050  66.531  1.00  0.00    -0.306 A  
HETATM    7  C   UNL     1     -12.156  13.885  67.333  1.00  0.00    -0.380 A  
HETATM    8  C   UNL     1     -11.791  14.293  68.607  1.00  0.00    -0.344 A  
BRANCH   8   9
HETATM    9  C   UNL     1     -12.468  14.126  69.898  1.00  0.00    -0.260 A  
HETATM   10  C   UNL     1     -12.482  12.973  70.691  1.00  0.00    -0.347 A  
HETATM   11  C   UNL     1     -13.555  15.350  71.558  1.00  0.00    -0.512 A  
HETATM   12  C   UNL     1     -13.099  13.065  71.957  1.00  0.00    -0.481 A  
HETATM   13  N   UNL     1     -12.994  15.305  70.332  1.00  0.00    -0.317 NA 
HETATM   14  C   UNL     1     -13.630  14.266  72.403  1.00  0.00    -0.599 A  
BRANCH  10  15
HETATM   15  C   UNL     1     -11.935  11.625  70.304  1.00  0.00    -0.358 C  
BRANCH  15  16
HETATM   16  O   UNL     1     -12.123  10.731  71.393  1.00  0.00    -0.307 OA 
BRANCH  16  17
HETATM   17  C   UNL     1     -11.407   9.569  71.453  1.00  0.00    -0.392 A  
HETATM   18  C   UNL     1     -10.081   9.441  71.020  1.00  0.00    -0.353 A  
HETATM   19  C   UNL     1      -9.380   8.243  71.194  1.00  0.00    -0.205 A  
HETATM   20  C   UNL     1     -10.001   7.145  71.779  1.00  0.00    -0.186 A  
HETATM   21  C   UNL     1     -11.329   7.245  72.188  1.00  0.00    -0.265 A  
HETATM   22  O   UNL     1     -11.940   6.148  72.733  1.00  0.00    -0.509 OA 
HETATM   23  C   UNL     1     -12.037   8.450  72.039  1.00  0.00    -0.417 A  
HETATM   24  C   UNL     1     -13.445   8.494  72.525  1.00  0.00    -0.213 C  
HETATM   25  H   UNL     1     -12.846   6.216  73.013  1.00  0.00     0.000 HD 
HETATM   26  O   UNL     1     -14.219   9.429  72.359  1.00  0.00    -0.338 OA 
ENDBRANCH  16  17
ENDBRANCH  15  16
ENDBRANCH  10  15
ENDBRANCH   8   9
ENDBRANCH   2   4
TORSDOF 5
ENDMDL
MODEL       37
REMARK 921   NORMALIZED FREE ENERGY PREDICTED BY IDOCK:   -6.35 KCAL/MOL
REMARK 922        TOTAL FREE ENERGY PREDICTED BY IDOCK:   -9.42 KCAL/MOL
REMARK 923 INTER-LIGAND FREE ENERGY PREDICTED BY IDOCK:   -8.20 KCAL/MOL
REMARK 924 INTRA-LIGAND FREE ENERGY PREDICTED BY IDOCK:   -1.22 KCAL/MOL
REMARK 927      BINDING AFFINITY PREDICTED BY RF-SCORE:    0.00 PKD
ROOT
HETATM    1  C   UNL     1     -11.000  14.996  65.101  1.00  0.00    -0.417 C  
HETATM    2  C   UNL     1     -11.671  13.943  65.988  1.00  0.00    -0.366 C  
HETATM    3  C   UNL     1     -12.527  12.997  65.136  1.00  0.00    -0.552 C  
ENDROOT
BRANCH   2   4
HETATM    4  N   UNL     1     -10.699  13.171  66.765  1.00  0.00    -0.266 NA 
HETATM    5  N   UNL     1      -9.915  12.290  66.093  1.00  0.00    -0.238 NA 
HETATM    6  C   UNL     1      -9.401  11.525  67.048  1.00  0.00    -0.178 A  
HETATM    7  C   UNL     1      -9.795  11.940  68.329  1.00  0.00    -0.199 A  
HETATM    8  C   UNL     1     -10.564  13.079  68.144  1.00  0.00    -0.245 A  
BRANCH   8   9
HETATM    9  C   UNL     1     -11.041  14.080  69.106  1.00  0.00    -0.259 A  
HETATM   10  C   UNL     1     -10.605  15.405  69.218  1.00  0.00    -0.252 A  
HETATM   11  C   UNL     1     -12.726  14.441  70.675  1.00  0.00    -0.357 A  
HETATM   12  C   UNL     1     -11.282  16.233  70.138  1.00  0.00    -0.340 A  
HETATM   13  N   UNL     1     -12.096  13.605  69.823  1.00  0.00    -0.336 NA 
HETATM   14  C   UNL     1     -12.361  15.755  70.865  1.00  0.00    -0.451 A  
BRANCH  10  15
HETATM   15  C   UNL     1      -9.449  16.023  68.477  1.00  0.00    -0.216 C  
BRANCH  15  16
HETATM   16  O   UNL     1      -9.536  17.436  68.603  1.00  0.00    -0.272 OA 
BRANCH  16  17
HETATM   17  C   UNL     1      -8.410  18.202  68.486  1.00  0.00    -0.301 A  
HETATM   18  C   UNL     1      -7.163  17.849  69.019  1.00  0.00    -0.211 A  
HETATM   19  C   UNL     1      -6.032  18.639  68.784  1.00  0.00    -0.219 A  
HETATM   20  C   UNL     1      -6.134  19.807  68.037  1.00  0.00    -0.249 A  
HETATM   21  C   UNL     1      -7.373  20.188  67.524  1.00  0.00    -0.290 A  
HETATM   22  O   UNL     1      -7.468  21.356  66.817  1.00  0.00    -0.755 OA 
HETATM   23  C   UNL     1      -8.512  19.392  67.734  1.00  0.00    -0.345 A  
HETATM   24  C   UNL     1      -9.798  19.845  67.133  1.00  0.00    -0.406 C  
HETATM   25  H   UNL     1      -8.312  21.616  66.467  1.00  0.00     0.000 HD 
HETATM   26  O   UNL     1     -10.888  19.323  67.327  1.00  0.00    -0.479 OA 
ENDBRANCH  16  17
ENDBRANCH  15  16
ENDBRANCH  10  15
ENDBRANCH   8   9
ENDBRANCH   2   4
TORSDOF 5
ENDMDL
MODEL       38
REMARK 921   NORMALIZED FREE ENERGY PREDICTED BY IDOCK:   -6.35 KCAL/MOL
REMARK 922        TOTAL FREE ENERGY PREDICTED BY IDOCK:   -9.42 KCAL/MOL
REMARK 923 INTER-LIGAND FREE ENERGY PREDICTED BY IDOCK:   -8.50 KCAL/MOL
REMARK 924 INTRA-LIGAND FREE ENERGY PREDICTED BY IDOCK:   -0.91 KCAL/MOL
REMARK 927      BINDING AFFINITY PREDICTED BY RF-SCORE:    0.00 PKD
ROOT
HETATM    1  C   UNL     1      -9.239   8.623  72.046  1.00  0.00    -0.338 C  
HETATM    2  C   UNL     1     -10.194   9.227  71.013  1.00  0.00    -0.314 C  
HETATM    3  C   UNL     1     -10.132   8.432  69.702  1.00  0.00    -0.199 C  
ENDROOT
BRANCH   2   4
HETATM    4  N   UNL     1     -11.575   9.280  71.497  1.00  0.00    -0.356 NA 
HETATM    5  N   UNL     1     -12.047   8.198  72.168  1.00  0.00    -0.337 NA 
HETATM    6  C   UNL     1     -13.362   8.380  72.184  1.00  0.00    -0.315 A  
HETATM    7  C   UNL     1     -13.737   9.592  71.585  1.00  0.00    -0.328 A  
HETATM    8  C   UNL     1     -12.556  10.225  71.227  1.00  0.00    -0.418 A  
BRANCH   8   9
HETATM    9  C   UNL     1     -12.301  11.604  70.794  1.00  0.00    -0.358 A  
HETATM   10  C   UNL     1     -11.972  12.025  69.500  1.00  0.00    -0.346 A  
HETATM   11  C   UNL     1     -12.483  13.808  71.528  1.00  0.00    -0.274 A  
HETATM   12  C   UNL     1     -11.883  13.415  69.275  1.00  0.00    -0.385 A  
HETATM   13  N   UNL     1     -12.561  12.488  71.796  1.00  0.00    -0.098 NA 
HETATM   14  C   UNL     1     -12.152  14.319  70.292  1.00  0.00    -0.403 A  
BRANCH  10  15
HETATM   15  C   UNL     1     -11.663  11.132  68.329  1.00  0.00    -0.252 C  
BRANCH  15  16
HETATM   16  O   UNL     1     -10.802  11.832  67.441  1.00  0.00    -0.227 OA 
BRANCH  16  17
HETATM   17  C   UNL     1     -11.201  12.080  66.157  1.00  0.00    -0.343 A  
HETATM   18  C   UNL     1     -12.237  12.960  65.813  1.00  0.00    -0.498 A  
HETATM   19  C   UNL     1     -12.532  13.232  64.474  1.00  0.00    -0.381 A  
HETATM   20  C   UNL     1     -11.818  12.610  63.455  1.00  0.00    -0.619 A  
HETATM   21  C   UNL     1     -10.805  11.709  63.780  1.00  0.00    -0.424 A  
HETATM   22  O   UNL     1     -10.130  11.078  62.770  1.00  0.00    -0.585 OA 
HETATM   23  C   UNL     1     -10.483  11.444  65.123  1.00  0.00    -0.351 A  
HETATM   24  C   UNL     1      -9.370  10.491  65.395  1.00  0.00    -0.211 C  
HETATM   25  H   UNL     1      -9.439  10.464  62.991  1.00  0.00     0.000 HD 
HETATM   26  O   UNL     1      -9.055  10.075  66.503  1.00  0.00    -0.145 OA 
ENDBRANCH  16  17
ENDBRANCH  15  16
ENDBRANCH  10  15
ENDBRANCH   8   9
ENDBRANCH   2   4
TORSDOF 5
ENDMDL
MODEL       39
REMARK 921   NORMALIZED FREE ENERGY PREDICTED BY IDOCK:   -6.35 KCAL/MOL
REMARK 922        TOTAL FREE ENERGY PREDICTED BY IDOCK:   -9.42 KCAL/MOL
REMARK 923 INTER-LIGAND FREE ENERGY PREDICTED BY IDOCK:   -7.93 KCAL/MOL
REMARK 924 INTRA-LIGAND FREE ENERGY PREDICTED BY IDOCK:   -1.49 KCAL/MOL
REMARK 927      BINDING AFFINITY PREDICTED BY RF-SCORE:    0.00 PKD
ROOT
HETATM    1  C   UNL     1     -12.987  15.443  70.283  1.00  0.00    -0.207 C  
HETATM    2  C   UNL     1     -11.887  14.924  69.353  1.00  0.00    -0.324 C  
HETATM    3  C   UNL     1     -10.514  15.426  69.819  1.00  0.00    -0.303 C  
ENDROOT
BRANCH   2   4
HETATM    4  N   UNL     1     -11.878  13.462  69.264  1.00  0.00    -0.319 NA 
HETATM    5  N   UNL     1     -12.140  12.763  70.398  1.00  0.00    -0.352 NA 
HETATM    6  C   UNL     1     -11.745  11.529  70.112  1.00  0.00    -0.309 A  
HETATM    7  C   UNL     1     -11.289  11.411  68.790  1.00  0.00    -0.334 A  
HETATM    8  C   UNL     1     -11.473  12.657  68.208  1.00  0.00    -0.313 A  
BRANCH   8   9
HETATM    9  C   UNL     1     -11.412  13.076  66.803  1.00  0.00    -0.345 A  
HETATM   10  C   UNL     1     -10.359  13.755  66.179  1.00  0.00    -0.301 A  
HETATM   11  C   UNL     1     -12.516  12.800  64.770  1.00  0.00    -0.472 A  
HETATM   12  C   UNL     1     -10.457  13.960  64.786  1.00  0.00    -0.451 A  
HETATM   13  N   UNL     1     -12.477  12.597  66.103  1.00  0.00    -0.434 NA 
HETATM   14  C   UNL     1     -11.537  13.468  64.069  1.00  0.00    -0.394 A  
BRANCH  10  15
HETATM   15  C   UNL     1      -9.146  14.327  66.861  1.00  0.00    -0.252 C  
BRANCH  15  16
HETATM   16  O   UNL     1      -8.736  15.490  66.154  1.00  0.00    -0.304 OA 
BRANCH  16  17
HETATM   17  C   UNL     1      -8.986  16.729  66.675  1.00  0.00    -0.250 A  
HETATM   18  C   UNL     1     -10.247  17.342  66.669  1.00  0.00    -0.319 A  
HETATM   19  C   UNL     1     -10.449  18.574  67.299  1.00  0.00    -0.455 A  
HETATM   20  C   UNL     1      -9.391  19.227  67.922  1.00  0.00    -0.378 A  
HETATM   21  C   UNL     1      -8.124  18.645  67.911  1.00  0.00    -0.264 A  
HETATM   22  O   UNL     1      -7.083  19.311  68.500  1.00  0.00    -0.277 OA 
HETATM   23  C   UNL     1      -7.913  17.397  67.301  1.00  0.00    -0.218 A  
HETATM   24  C   UNL     1      -6.539  16.821  67.352  1.00  0.00    -0.160 C  
HETATM   25  H   UNL     1      -6.219  18.915  68.493  1.00  0.00     0.000 HD 
HETATM   26  O   UNL     1      -6.178  15.807  66.768  1.00  0.00    -0.195 OA 
ENDBRANCH  16  17
ENDBRANCH  15  16
ENDBRANCH  10  15
ENDBRANCH   8   9
ENDBRANCH   2   4
TORSDOF 5
ENDMDL
MODEL       40
REMARK 921   NORMALIZED FREE ENERGY PREDICTED BY IDOCK:   -6.35 KCAL/MOL
REMARK 922        TOTAL FREE ENERGY PREDICTED BY IDOCK:   -9.41 KCAL/MOL
REMARK 923 INTER-LIGAND FREE ENERGY PREDICTED BY IDOCK:   -8.10 KCAL/MOL
REMARK 924 INTRA-LIGAND FREE ENERGY PREDICTED BY IDOCK:   -1.31 KCAL/MOL
REMARK 927      BINDING AFFINITY PREDICTED BY RF-SCORE:    0.00 PKD
ROOT
HETATM    1  C   UNL     1     -10.187  10.907  68.896  1.00  0.00    -0.213 C  
HETATM    2  C   UNL     1     -11.596  11.502  68.970  1.00  0.00    -0.318 C  
HETATM    3  C   UNL     1     -12.352  10.933  70.178  1.00  0.00    -0.399 C  
ENDROOT
BRANCH   2   4
HETATM    4  N   UNL     1     -11.577  12.965  69.039  1.00  0.00    -0.303 NA 
HETATM    5  N   UNL     1     -11.601  13.536  70.271  1.00  0.00    -0.144 NA 
HETATM    6  C   UNL     1     -11.909  14.804  70.029  1.00  0.00    -0.311 A  
HETATM    7  C   UNL     1     -12.025  15.070  68.657  1.00  0.00    -0.278 A  
HETATM    8  C   UNL     1     -11.707  13.887  68.008  1.00  0.00    -0.352 A  
BRANCH   8   9
HETATM    9  C   UNL     1     -11.421  13.615  66.595  1.00  0.00    -0.343 A  
HETATM   10  C   UNL     1     -10.217  13.863  65.924  1.00  0.00    -0.326 A  
HETATM   11  C   UNL     1     -12.298  12.517  64.736  1.00  0.00    -0.474 A  
HETATM   12  C   UNL     1     -10.117  13.417  64.589  1.00  0.00    -0.256 A  
HETATM   13  N   UNL     1     -12.448  12.942  66.008  1.00  0.00    -0.491 NA 
HETATM   14  C   UNL     1     -11.159  12.726  63.990  1.00  0.00    -0.458 A  
BRANCH  10  15
HETATM   15  C   UNL     1      -9.029  14.600  66.480  1.00  0.00    -0.204 C  
BRANCH  15  16
HETATM   16  O   UNL     1      -9.027  15.919  65.951  1.00  0.00    -0.323 OA 
BRANCH  16  17
HETATM   17  C   UNL     1      -8.915  16.991  66.791  1.00  0.00    -0.244 A  
HETATM   18  C   UNL     1      -7.978  17.080  67.829  1.00  0.00    -0.192 A  
HETATM   19  C   UNL     1      -7.860  18.245  68.593  1.00  0.00    -0.313 A  
HETATM   20  C   UNL     1      -8.695  19.331  68.352  1.00  0.00    -0.395 A  
HETATM   21  C   UNL     1      -9.653  19.249  67.343  1.00  0.00    -0.314 A  
HETATM   22  O   UNL     1     -10.491  20.311  67.135  1.00  0.00    -0.352 OA 
HETATM   23  C   UNL     1      -9.766  18.091  66.553  1.00  0.00    -0.338 A  
HETATM   24  C   UNL     1     -10.793  18.084  65.474  1.00  0.00     0.146 C  
HETATM   25  H   UNL     1     -11.144  20.256  66.447  1.00  0.00     0.000 HD 
HETATM   26  O   UNL     1     -11.086  17.113  64.787  1.00  0.00    -0.909 OA 
ENDBRANCH  16  17
ENDBRANCH  15  16
ENDBRANCH  10  15
ENDBRANCH   8   9
ENDBRANCH   2   4
TORSDOF 5
ENDMDL
MODEL       41
REMARK 921   NORMALIZED FREE ENERGY PREDICTED BY IDOCK:   -6.35 KCAL/MOL
REMARK 922        TOTAL FREE ENERGY PREDICTED BY IDOCK:   -9.41 KCAL/MOL
REMARK 923 INTER-LIGAND FREE ENERGY PREDICTED BY IDOCK:   -8.32 KCAL/MOL
REMARK 924 INTRA-LIGAND FREE ENERGY PREDICTED BY IDOCK:   -1.10 KCAL/MOL
REMARK 927      BINDING AFFINITY PREDICTED BY RF-SCORE:    0.00 PKD
ROOT
HETATM    1  C   UNL     1     -13.978   6.821  71.582  1.00  0.00    -0.195 C  
HETATM    2  C   UNL     1     -13.273   8.180  71.590  1.00  0.00    -0.332 C  
HETATM    3  C   UNL     1     -13.903   9.101  72.643  1.00  0.00    -0.414 C  
ENDROOT
BRANCH   2   4
HETATM    4  N   UNL     1     -11.834   8.058  71.834  1.00  0.00    -0.290 NA 
HETATM    5  N   UNL     1     -11.440   7.357  72.927  1.00  0.00    -0.269 NA 
HETATM    6  C   UNL     1     -10.163   7.688  73.077  1.00  0.00    -0.320 A  
HETATM    7  C   UNL     1      -9.715   8.544  72.060  1.00  0.00    -0.377 A  
HETATM    8  C   UNL     1     -10.785   8.704  71.192  1.00  0.00    -0.240 A  
BRANCH   8   9
HETATM    9  C   UNL     1     -10.848   9.277  69.843  1.00  0.00    -0.234 A  
HETATM   10  C   UNL     1     -11.463  10.478  69.474  1.00  0.00    -0.339 A  
HETATM   11  C   UNL     1      -9.955   9.011  67.707  1.00  0.00    -0.187 A  
HETATM   12  C   UNL     1     -11.304  10.903  68.137  1.00  0.00    -0.383 A  
HETATM   13  N   UNL     1     -10.095   8.554  68.969  1.00  0.00    -0.195 NA 
HETATM   14  C   UNL     1     -10.533  10.172  67.246  1.00  0.00    -0.313 A  
BRANCH  10  15
HETATM   15  C   UNL     1     -12.317  11.345  70.359  1.00  0.00    -0.319 C  
BRANCH  15  16
HETATM   16  O   UNL     1     -12.031  12.707  70.071  1.00  0.00    -0.339 OA 
BRANCH  16  17
HETATM   17  C   UNL     1     -12.450  13.688  70.925  1.00  0.00    -0.371 A  
HETATM   18  C   UNL     1     -13.450  13.512  71.891  1.00  0.00    -0.528 A  
HETATM   19  C   UNL     1     -13.766  14.535  72.791  1.00  0.00    -0.466 A  
HETATM   20  C   UNL     1     -13.110  15.760  72.724  1.00  0.00    -0.596 A  
HETATM   21  C   UNL     1     -12.134  15.961  71.749  1.00  0.00    -0.492 A  
HETATM   22  O   UNL     1     -11.516  17.181  71.671  1.00  0.00    -0.246 OA 
HETATM   23  C   UNL     1     -11.791  14.934  70.853  1.00  0.00    -0.375 A  
HETATM   24  C   UNL     1     -10.719  15.210  69.855  1.00  0.00    -0.257 C  
HETATM   25  H   UNL     1     -10.851  17.319  71.006  1.00  0.00     0.000 HD 
HETATM   26  O   UNL     1     -10.396  14.461  68.942  1.00  0.00    -0.236 OA 
ENDBRANCH  16  17
ENDBRANCH  15  16
ENDBRANCH  10  15
ENDBRANCH   8   9
ENDBRANCH   2   4
TORSDOF 5
ENDMDL
MODEL       42
REMARK 921   NORMALIZED FREE ENERGY PREDICTED BY IDOCK:   -6.34 KCAL/MOL
REMARK 922        TOTAL FREE ENERGY PREDICTED BY IDOCK:   -9.41 KCAL/MOL
REMARK 923 INTER-LIGAND FREE ENERGY PREDICTED BY IDOCK:   -8.08 KCAL/MOL
REMARK 924 INTRA-LIGAND FREE ENERGY PREDICTED BY IDOCK:   -1.33 KCAL/MOL
REMARK 927      BINDING AFFINITY PREDICTED BY RF-SCORE:    0.00 PKD
ROOT
HETATM    1  C   UNL     1      -8.213  11.929  68.205  1.00  0.00    -0.158 C  
HETATM    2  C   UNL     1      -8.508  13.380  67.816  1.00  0.00    -0.181 C  
HETATM    3  C   UNL     1      -7.207  14.113  67.466  1.00  0.00    -0.188 C  
ENDROOT
BRANCH   2   4
HETATM    4  N   UNL     1      -9.449  13.475  66.698  1.00  0.00    -0.264 NA 
HETATM    5  N   UNL     1      -9.788  12.324  66.063  1.00  0.00    -0.246 NA 
HETATM    6  C   UNL     1     -10.353  12.735  64.935  1.00  0.00    -0.309 A  
HETATM    7  C   UNL     1     -10.437  14.133  64.862  1.00  0.00    -0.461 A  
HETATM    8  C   UNL     1      -9.935  14.611  66.063  1.00  0.00    -0.316 A  
BRANCH   8   9
HETATM    9  C   UNL     1      -9.990  15.950  66.660  1.00  0.00    -0.257 A  
HETATM   10  C   UNL     1     -10.801  16.358  67.725  1.00  0.00    -0.306 A  
HETATM   11  C   UNL     1      -8.870  17.994  66.656  1.00  0.00    -0.266 A  
HETATM   12  C   UNL     1     -10.610  17.665  68.220  1.00  0.00    -0.342 A  
HETATM   13  N   UNL     1      -9.028  16.759  66.135  1.00  0.00    -0.436 NA 
HETATM   14  C   UNL     1      -9.628  18.489  67.692  1.00  0.00    -0.304 A  
BRANCH  10  15
HETATM   15  C   UNL     1     -11.891  15.545  68.370  1.00  0.00    -0.224 C  
BRANCH  15  16
HETATM   16  O   UNL     1     -11.374  14.953  69.554  1.00  0.00    -0.252 OA 
BRANCH  16  17
HETATM   17  C   UNL     1     -11.840  13.737  69.970  1.00  0.00    -0.307 A  
HETATM   18  C   UNL     1     -11.647  12.541  69.265  1.00  0.00    -0.378 A  
HETATM   19  C   UNL     1     -12.075  11.319  69.794  1.00  0.00    -0.394 A  
HETATM   20  C   UNL     1     -12.726  11.274  71.022  1.00  0.00    -0.457 A  
HETATM   21  C   UNL     1     -12.953  12.458  71.722  1.00  0.00    -0.316 A  
HETATM   22  O   UNL     1     -13.623  12.407  72.915  1.00  0.00    -0.532 OA 
HETATM   23  C   UNL     1     -12.508  13.690  71.212  1.00  0.00    -0.412 A  
HETATM   24  C   UNL     1     -12.759  14.912  72.026  1.00  0.00    -0.324 C  
HETATM   25  H   UNL     1     -13.778  13.213  73.392  1.00  0.00     0.000 HD 
HETATM   26  O   UNL     1     -12.537  16.060  71.662  1.00  0.00    -0.448 OA 
ENDBRANCH  16  17
ENDBRANCH  15  16
ENDBRANCH  10  15
ENDBRANCH   8   9
ENDBRANCH   2   4
TORSDOF 5
ENDMDL
MODEL       43
REMARK 921   NORMALIZED FREE ENERGY PREDICTED BY IDOCK:   -6.34 KCAL/MOL
REMARK 922        TOTAL FREE ENERGY PREDICTED BY IDOCK:   -9.40 KCAL/MOL
REMARK 923 INTER-LIGAND FREE ENERGY PREDICTED BY IDOCK:   -8.37 KCAL/MOL
REMARK 924 INTRA-LIGAND FREE ENERGY PREDICTED BY IDOCK:   -1.04 KCAL/MOL
REMARK 927      BINDING AFFINITY PREDICTED BY RF-SCORE:    0.00 PKD
ROOT
HETATM    1  C   UNL     1      -7.041   7.457  69.776  1.00  0.00    -0.068 C  
HETATM    2  C   UNL     1      -7.909   8.585  69.210  1.00  0.00    -0.099 C  
HETATM    3  C   UNL     1      -7.055   9.547  68.374  1.00  0.00    -0.071 C  
ENDROOT
BRANCH   2   4
HETATM    4  N   UNL     1      -9.020   8.077  68.401  1.00  0.00    -0.133 NA 
HETATM    5  N   UNL     1      -8.796   6.967  67.652  1.00  0.00    -0.119 NA 
HETATM    6  C   UNL     1      -9.817   6.940  66.805  1.00  0.00    -0.181 A  
HETATM    7  C   UNL     1     -10.727   7.983  67.038  1.00  0.00    -0.263 A  
HETATM    8  C   UNL     1     -10.253   8.666  68.148  1.00  0.00    -0.205 A  
BRANCH   8   9
HETATM    9  C   UNL     1     -10.892   9.678  68.996  1.00  0.00    -0.183 A  
HETATM   10  C   UNL     1     -11.309  10.955  68.602  1.00  0.00    -0.360 A  
HETATM   11  C   UNL     1     -11.865   9.946  71.097  1.00  0.00    -0.386 A  
HETATM   12  C   UNL     1     -12.010  11.729  69.552  1.00  0.00    -0.364 A  
HETATM   13  N   UNL     1     -11.174   9.176  70.230  1.00  0.00    -0.240 NA 
HETATM   14  C   UNL     1     -12.304  11.218  70.807  1.00  0.00    -0.495 A  
BRANCH  10  15
HETATM   15  C   UNL     1     -11.044  11.602  67.269  1.00  0.00    -0.290 C  
BRANCH  15  16
HETATM   16  O   UNL     1     -11.933  12.699  67.114  1.00  0.00    -0.437 OA 
BRANCH  16  17
HETATM   17  C   UNL     1     -11.440  13.945  66.847  1.00  0.00    -0.351 A  
HETATM   18  C   UNL     1     -10.693  14.705  67.758  1.00  0.00    -0.265 A  
HETATM   19  C   UNL     1     -10.144  15.936  67.385  1.00  0.00    -0.252 A  
HETATM   20  C   UNL     1     -10.352  16.441  66.106  1.00  0.00    -0.354 A  
HETATM   21  C   UNL     1     -11.118  15.712  65.197  1.00  0.00    -0.348 A  
HETATM   22  O   UNL     1     -11.344  16.233  63.952  1.00  0.00    -1.415 OA 
HETATM   23  C   UNL     1     -11.657  14.463  65.552  1.00  0.00    -0.347 A  
HETATM   24  C   UNL     1     -12.440  13.726  64.521  1.00  0.00    -0.285 C  
HETATM   25  H   UNL     1     -11.865  15.736  63.332  1.00  0.00     0.000 HD 
HETATM   26  O   UNL     1     -13.064  12.691  64.718  1.00  0.00    -0.852 OA 
ENDBRANCH  16  17
ENDBRANCH  15  16
ENDBRANCH  10  15
ENDBRANCH   8   9
ENDBRANCH   2   4
TORSDOF 5
ENDMDL
MODEL       44
REMARK 921   NORMALIZED FREE ENERGY PREDICTED BY IDOCK:   -6.32 KCAL/MOL
REMARK 922        TOTAL FREE ENERGY PREDICTED BY IDOCK:   -9.38 KCAL/MOL
REMARK 923 INTER-LIGAND FREE ENERGY PREDICTED BY IDOCK:   -8.19 KCAL/MOL
REMARK 924 INTRA-LIGAND FREE ENERGY PREDICTED BY IDOCK:   -1.20 KCAL/MOL
REMARK 927      BINDING AFFINITY PREDICTED BY RF-SCORE:    0.00 PKD
ROOT
HETATM    1  C   UNL     1     -14.330   7.336  71.615  1.00  0.00    -0.583 C  
HETATM    2  C   UNL     1     -13.243   8.411  71.524  1.00  0.00    -0.290 C  
HETATM    3  C   UNL     1     -13.589   9.597  72.433  1.00  0.00    -0.397 C  
ENDROOT
BRANCH   2   4
HETATM    4  N   UNL     1     -11.918   7.891  71.867  1.00  0.00    -0.291 NA 
HETATM    5  N   UNL     1     -11.654   7.660  73.179  1.00  0.00    -0.186 NA 
HETATM    6  C   UNL     1     -10.334   7.528  73.222  1.00  0.00    -0.357 A  
HETATM    7  C   UNL     1      -9.751   7.610  71.949  1.00  0.00    -0.203 A  
HETATM    8  C   UNL     1     -10.801   7.746  71.053  1.00  0.00    -0.239 A  
BRANCH   8   9
HETATM    9  C   UNL     1     -10.835   7.636  69.590  1.00  0.00    -0.191 A  
HETATM   10  C   UNL     1     -10.645   8.673  68.670  1.00  0.00    -0.165 A  
HETATM   11  C   UNL     1     -10.872   6.050  67.883  1.00  0.00    -0.290 A  
HETATM   12  C   UNL     1     -10.602   8.326  67.303  1.00  0.00    -0.335 A  
HETATM   13  N   UNL     1     -10.940   6.336  69.200  1.00  0.00    -0.343 NA 
HETATM   14  C   UNL     1     -10.702   7.002  66.902  1.00  0.00    -0.376 A  
BRANCH  10  15
HETATM   15  C   UNL     1     -10.523  10.137  68.998  1.00  0.00    -0.219 C  
BRANCH  15  16
HETATM   16  O   UNL     1     -11.789  10.752  68.800  1.00  0.00    -0.359 OA 
BRANCH  16  17
HETATM   17  C   UNL     1     -12.027  12.002  69.299  1.00  0.00    -0.270 A  
HETATM   18  C   UNL     1     -12.270  12.273  70.652  1.00  0.00    -0.378 A  
HETATM   19  C   UNL     1     -12.417  13.588  71.106  1.00  0.00    -0.424 A  
HETATM   20  C   UNL     1     -12.351  14.651  70.212  1.00  0.00    -0.406 A  
HETATM   21  C   UNL     1     -12.140  14.397  68.858  1.00  0.00    -0.253 A  
HETATM   22  O   UNL     1     -12.108  15.449  67.983  1.00  0.00    -0.433 OA 
HETATM   23  C   UNL     1     -11.968  13.082  68.393  1.00  0.00    -0.309 A  
HETATM   24  C   UNL     1     -11.718  12.886  66.937  1.00  0.00    -0.382 C  
HETATM   25  H   UNL     1     -11.964  15.276  67.060  1.00  0.00     0.000 HD 
HETATM   26  O   UNL     1     -11.666  11.802  66.371  1.00  0.00    -0.511 OA 
ENDBRANCH  16  17
ENDBRANCH  15  16
ENDBRANCH  10  15
ENDBRANCH   8   9
ENDBRANCH   2   4
TORSDOF 5
ENDMDL
MODEL       45
REMARK 921   NORMALIZED FREE ENERGY PREDICTED BY IDOCK:   -6.32 KCAL/MOL
REMARK 922        TOTAL FREE ENERGY PREDICTED BY IDOCK:   -9.38 KCAL/MOL
REMARK 923 INTER-LIGAND FREE ENERGY PREDICTED BY IDOCK:   -8.20 KCAL/MOL
REMARK 924 INTRA-LIGAND FREE ENERGY PREDICTED BY IDOCK:   -1.18 KCAL/MOL
REMARK 927      BINDING AFFINITY PREDICTED BY RF-SCORE:    0.00 PKD
ROOT
HETATM    1  C   UNL     1      -7.275   8.172  71.110  1.00  0.00    -0.060 C  
HETATM    2  C   UNL     1      -8.236   8.412  69.943  1.00  0.00    -0.122 C  
HETATM    3  C   UNL     1      -7.511   8.211  68.606  1.00  0.00    -0.098 C  
ENDROOT
BRANCH   2   4
HETATM    4  N   UNL     1      -9.414   7.544  70.006  1.00  0.00    -0.161 NA 
HETATM    5  N   UNL     1      -9.206   6.202  69.986  1.00  0.00    -0.150 NA 
HETATM    6  C   UNL     1     -10.404   5.697  69.719  1.00  0.00    -0.282 A  
HETATM    7  C   UNL     1     -11.390   6.691  69.627  1.00  0.00    -0.387 A  
HETATM    8  C   UNL     1     -10.756   7.890  69.915  1.00  0.00    -0.244 A  
BRANCH   8   9
HETATM    9  C   UNL     1     -11.305   9.219  70.208  1.00  0.00    -0.203 A  
HETATM   10  C   UNL     1     -11.354  10.313  69.336  1.00  0.00    -0.279 A  
HETATM   11  C   UNL     1     -12.567  10.358  71.802  1.00  0.00    -0.367 A  
HETATM   12  C   UNL     1     -12.033  11.466  69.784  1.00  0.00    -0.422 A  
HETATM   13  N   UNL     1     -11.912   9.240  71.427  1.00  0.00    -0.327 NA 
HETATM   14  C   UNL     1     -12.657  11.489  71.022  1.00  0.00    -0.457 A  
BRANCH  10  15
HETATM   15  C   UNL     1     -10.714  10.392  67.976  1.00  0.00    -0.249 C  
BRANCH  15  16
HETATM   16  O   UNL     1     -11.092  11.620  67.369  1.00  0.00    -0.246 OA 
BRANCH  16  17
HETATM   17  C   UNL     1     -11.039  11.755  66.010  1.00  0.00    -0.312 A  
HETATM   18  C   UNL     1     -10.441  10.821  65.153  1.00  0.00    -0.299 A  
HETATM   19  C   UNL     1     -10.502  10.980  63.764  1.00  0.00    -0.408 A  
HETATM   20  C   UNL     1     -11.137  12.087  63.210  1.00  0.00    -0.400 A  
HETATM   21  C   UNL     1     -11.711  13.040  64.050  1.00  0.00    -0.436 A  
HETATM   22  O   UNL     1     -12.305  14.141  63.495  1.00  0.00    -1.065 OA 
HETATM   23  C   UNL     1     -11.676  12.880  65.447  1.00  0.00    -0.413 A  
HETATM   24  C   UNL     1     -12.334  13.924  66.282  1.00  0.00    -0.449 C  
HETATM   25  H   UNL     1     -12.696  14.791  64.067  1.00  0.00     0.000 HD 
HETATM   26  O   UNL     1     -12.284  13.982  67.504  1.00  0.00    -0.366 OA 
ENDBRANCH  16  17
ENDBRANCH  15  16
ENDBRANCH  10  15
ENDBRANCH   8   9
ENDBRANCH   2   4
TORSDOF 5
ENDMDL
MODEL       46
REMARK 921   NORMALIZED FREE ENERGY PREDICTED BY IDOCK:   -6.32 KCAL/MOL
REMARK 922        TOTAL FREE ENERGY PREDICTED BY IDOCK:   -9.37 KCAL/MOL
REMARK 923 INTER-LIGAND FREE ENERGY PREDICTED BY IDOCK:   -8.42 KCAL/MOL
REMARK 924 INTRA-LIGAND FREE ENERGY PREDICTED BY IDOCK:   -0.96 KCAL/MOL
REMARK 927      BINDING AFFINITY PREDICTED BY RF-SCORE:    0.00 PKD
ROOT
HETATM    1  C   UNL     1      -9.622   7.007  71.703  1.00  0.00    -0.160 C  
HETATM    2  C   UNL     1      -9.595   8.421  71.115  1.00  0.00    -0.177 C  
HETATM    3  C   UNL     1      -8.158   8.958  71.084  1.00  0.00    -0.201 C  
ENDROOT
BRANCH   2   4
HETATM    4  N   UNL     1     -10.174   8.474  69.771  1.00  0.00    -0.201 NA 
HETATM    5  N   UNL     1      -9.976   7.404  68.959  1.00  0.00    -0.171 NA 
HETATM    6  C   UNL     1     -10.300   7.853  67.752  1.00  0.00    -0.226 A  
HETATM    7  C   UNL     1     -10.761   9.177  67.786  1.00  0.00    -0.243 A  
HETATM    8  C   UNL     1     -10.772   9.547  69.122  1.00  0.00    -0.210 A  
BRANCH   8   9
HETATM    9  C   UNL     1     -11.375  10.705  69.792  1.00  0.00    -0.301 A  
HETATM   10  C   UNL     1     -11.202  12.051  69.449  1.00  0.00    -0.263 A  
HETATM   11  C   UNL     1     -12.995  11.256  71.374  1.00  0.00    -0.379 A  
HETATM   12  C   UNL     1     -11.969  13.002  70.155  1.00  0.00    -0.374 A  
HETATM   13  N   UNL     1     -12.269  10.312  70.741  1.00  0.00    -0.323 NA 
HETATM   14  C   UNL     1     -12.884  12.605  71.118  1.00  0.00    -0.311 A  
BRANCH  10  15
HETATM   15  C   UNL     1     -10.240  12.588  68.423  1.00  0.00    -0.228 C  
BRANCH  15  16
HETATM   16  O   UNL     1     -10.787  13.776  67.868  1.00  0.00    -0.238 OA 
BRANCH  16  17
HETATM   17  C   UNL     1     -11.239  13.781  66.578  1.00  0.00    -0.312 A  
HETATM   18  C   UNL     1     -11.863  12.688  65.961  1.00  0.00    -0.492 A  
HETATM   19  C   UNL     1     -12.380  12.795  64.666  1.00  0.00    -0.524 A  
HETATM   20  C   UNL     1     -12.259  13.984  63.955  1.00  0.00    -0.395 A  
HETATM   21  C   UNL     1     -11.614  15.071  64.543  1.00  0.00    -0.343 A  
HETATM   22  O   UNL     1     -11.472  16.227  63.824  1.00  0.00    -1.475 OA 
HETATM   23  C   UNL     1     -11.110  14.984  65.853  1.00  0.00    -0.334 A  
HETATM   24  C   UNL     1     -10.458  16.194  66.428  1.00  0.00    -0.301 C  
HETATM   25  H   UNL     1     -11.033  16.968  64.224  1.00  0.00     0.000 HD 
HETATM   26  O   UNL     1      -9.872  16.235  67.503  1.00  0.00    -0.233 OA 
ENDBRANCH  16  17
ENDBRANCH  15  16
ENDBRANCH  10  15
ENDBRANCH   8   9
ENDBRANCH   2   4
TORSDOF 5
ENDMDL
MODEL       47
REMARK 921   NORMALIZED FREE ENERGY PREDICTED BY IDOCK:   -6.31 KCAL/MOL
REMARK 922        TOTAL FREE ENERGY PREDICTED BY IDOCK:   -9.36 KCAL/MOL
REMARK 923 INTER-LIGAND FREE ENERGY PREDICTED BY IDOCK:   -8.37 KCAL/MOL
REMARK 924 INTRA-LIGAND FREE ENERGY PREDICTED BY IDOCK:   -1.00 KCAL/MOL
REMARK 927      BINDING AFFINITY PREDICTED BY RF-SCORE:    0.00 PKD
ROOT
HETATM    1  C   UNL     1      -9.930  16.456  66.099  1.00  0.00    -0.360 C  
HETATM    2  C   UNL     1      -9.416  17.542  67.048  1.00  0.00    -0.268 C  
HETATM    3  C   UNL     1     -10.593  18.307  67.668  1.00  0.00    -0.427 C  
ENDROOT
BRANCH   2   4
HETATM    4  N   UNL     1      -8.565  16.996  68.107  1.00  0.00    -0.221 NA 
HETATM    5  N   UNL     1      -7.298  17.475  68.203  1.00  0.00    -0.211 NA 
HETATM    6  C   UNL     1      -6.683  16.599  68.988  1.00  0.00    -0.202 A  
HETATM    7  C   UNL     1      -7.551  15.597  69.447  1.00  0.00    -0.221 A  
HETATM    8  C   UNL     1      -8.805  15.918  68.949  1.00  0.00    -0.225 A  
BRANCH   8   9
HETATM    9  C   UNL     1     -10.134  15.392  69.284  1.00  0.00    -0.253 A  
HETATM   10  C   UNL     1     -10.672  14.165  68.881  1.00  0.00    -0.270 A  
HETATM   11  C   UNL     1     -11.956  15.798  70.680  1.00  0.00    -0.393 A  
HETATM   12  C   UNL     1     -11.927  13.802  69.414  1.00  0.00    -0.397 A  
HETATM   13  N   UNL     1     -10.767  16.197  70.181  1.00  0.00    -0.315 NA 
HETATM   14  C   UNL     1     -12.572  14.617  70.332  1.00  0.00    -0.399 A  
BRANCH  10  15
HETATM   15  C   UNL     1     -10.056  13.208  67.895  1.00  0.00    -0.232 C  
BRANCH  15  16
HETATM   16  O   UNL     1     -11.093  12.434  67.308  1.00  0.00    -0.254 OA 
BRANCH  16  17
HETATM   17  C   UNL     1     -11.466  12.661  66.013  1.00  0.00    -0.368 A  
HETATM   18  C   UNL     1     -12.251  13.747  65.601  1.00  0.00    -0.484 A  
HETATM   19  C   UNL     1     -12.519  13.966  64.246  1.00  0.00    -0.305 A  
HETATM   20  C   UNL     1     -12.031  13.090  63.282  1.00  0.00    -0.493 A  
HETATM   21  C   UNL     1     -11.274  11.988  63.677  1.00  0.00    -0.450 A  
HETATM   22  O   UNL     1     -10.826  11.115  62.723  1.00  0.00    -0.779 OA 
HETATM   23  C   UNL     1     -10.979  11.769  65.034  1.00  0.00    -0.357 A  
HETATM   24  C   UNL     1     -10.140  10.587  65.381  1.00  0.00    -0.291 C  
HETATM   25  H   UNL     1     -10.310  10.364  62.991  1.00  0.00     0.000 HD 
HETATM   26  O   UNL     1      -9.900  10.204  66.519  1.00  0.00    -0.193 OA 
ENDBRANCH  16  17
ENDBRANCH  15  16
ENDBRANCH  10  15
ENDBRANCH   8   9
ENDBRANCH   2   4
TORSDOF 5
ENDMDL
MODEL       48
REMARK 921   NORMALIZED FREE ENERGY PREDICTED BY IDOCK:   -6.30 KCAL/MOL
REMARK 922        TOTAL FREE ENERGY PREDICTED BY IDOCK:   -9.36 KCAL/MOL
REMARK 923 INTER-LIGAND FREE ENERGY PREDICTED BY IDOCK:   -8.31 KCAL/MOL
REMARK 924 INTRA-LIGAND FREE ENERGY PREDICTED BY IDOCK:   -1.04 KCAL/MOL
REMARK 927      BINDING AFFINITY PREDICTED BY RF-SCORE:    0.00 PKD
ROOT
HETATM    1  C   UNL     1     -10.281  19.806  68.777  1.00  0.00    -0.473 C  
HETATM    2  C   UNL     1      -9.594  19.414  67.466  1.00  0.00    -0.326 C  
HETATM    3  C   UNL     1     -10.287  20.096  66.278  1.00  0.00    -0.512 C  
ENDROOT
BRANCH   2   4
HETATM    4  N   UNL     1      -8.168  19.745  67.465  1.00  0.00    -0.302 NA 
HETATM    5  N   UNL     1      -7.820  21.027  67.184  1.00  0.00    -0.227 NA 
HETATM    6  C   UNL     1      -6.519  20.957  66.929  1.00  0.00    -0.301 A  
HETATM    7  C   UNL     1      -6.014  19.660  67.102  1.00  0.00    -0.185 A  
HETATM    8  C   UNL     1      -7.076  18.890  67.551  1.00  0.00    -0.206 A  
BRANCH   8   9
HETATM    9  C   UNL     1      -7.106  17.541  68.127  1.00  0.00    -0.206 A  
HETATM   10  C   UNL     1      -7.582  16.379  67.508  1.00  0.00    -0.168 A  
HETATM   11  C   UNL     1      -6.312  16.317  69.944  1.00  0.00    -0.131 A  
HETATM   12  C   UNL     1      -7.410  15.161  68.199  1.00  0.00    -0.117 A  
HETATM   13  N   UNL     1      -6.472  17.508  69.331  1.00  0.00    -0.246 NA 
HETATM   14  C   UNL     1      -6.758  15.123  69.422  1.00  0.00    -0.162 A  
BRANCH  10  15
HETATM   15  C   UNL     1      -8.299  16.309  66.186  1.00  0.00    -0.225 C  
BRANCH  15  16
HETATM   16  O   UNL     1      -9.648  15.929  66.424  1.00  0.00    -0.246 OA 
BRANCH  16  17
HETATM   17  C   UNL     1     -10.135  14.770  65.887  1.00  0.00    -0.321 A  
HETATM   18  C   UNL     1      -9.771  13.489  66.323  1.00  0.00    -0.287 A  
HETATM   19  C   UNL     1     -10.377  12.349  65.787  1.00  0.00    -0.289 A  
HETATM   20  C   UNL     1     -11.336  12.467  64.786  1.00  0.00    -0.360 A  
HETATM   21  C   UNL     1     -11.688  13.732  64.319  1.00  0.00    -0.395 A  
HETATM   22  O   UNL     1     -12.610  13.835  63.312  1.00  0.00    -1.005 OA 
HETATM   23  C   UNL     1     -11.102  14.887  64.866  1.00  0.00    -0.424 A  
HETATM   24  C   UNL     1     -11.546  16.208  64.338  1.00  0.00    -0.146 C  
HETATM   25  H   UNL     1     -12.849  14.697  62.994  1.00  0.00     0.000 HD 
HETATM   26  O   UNL     1     -11.047  17.287  64.631  1.00  0.00    -1.052 OA 
ENDBRANCH  16  17
ENDBRANCH  15  16
ENDBRANCH  10  15
ENDBRANCH   8   9
ENDBRANCH   2   4
TORSDOF 5
ENDMDL
MODEL       49
REMARK 921   NORMALIZED FREE ENERGY PREDICTED BY IDOCK:   -6.30 KCAL/MOL
REMARK 922        TOTAL FREE ENERGY PREDICTED BY IDOCK:   -9.35 KCAL/MOL
REMARK 923 INTER-LIGAND FREE ENERGY PREDICTED BY IDOCK:   -8.08 KCAL/MOL
REMARK 924 INTRA-LIGAND FREE ENERGY PREDICTED BY IDOCK:   -1.27 KCAL/MOL
REMARK 927      BINDING AFFINITY PREDICTED BY RF-SCORE:    0.00 PKD
ROOT
HETATM    1  C   UNL     1     -11.044  11.779  66.119  1.00  0.00    -0.358 C  
HETATM    2  C   UNL     1     -10.451  12.642  65.001  1.00  0.00    -0.308 C  
HETATM    3  C   UNL     1     -10.514  11.896  63.661  1.00  0.00    -0.493 C  
ENDROOT
BRANCH   2   4
HETATM    4  N   UNL     1     -11.126  13.936  64.881  1.00  0.00    -0.350 NA 
HETATM    5  N   UNL     1     -12.195  14.012  64.048  1.00  0.00    -0.625 NA 
HETATM    6  C   UNL     1     -12.381  15.316  63.884  1.00  0.00     0.227 A  
HETATM    7  C   UNL     1     -11.486  16.080  64.648  1.00  0.00    -0.252 A  
HETATM    8  C   UNL     1     -10.732  15.172  65.377  1.00  0.00    -0.381 A  
BRANCH   8   9
HETATM    9  C   UNL     1      -9.822  15.374  66.510  1.00  0.00    -0.272 A  
HETATM   10  C   UNL     1     -10.108  15.150  67.862  1.00  0.00    -0.222 A  
HETATM   11  C   UNL     1      -7.582  15.796  66.995  1.00  0.00    -0.222 A  
HETATM   12  C   UNL     1      -9.047  15.296  68.781  1.00  0.00    -0.200 A  
HETATM   13  N   UNL     1      -8.568  15.687  66.081  1.00  0.00    -0.237 NA 
HETATM   14  C   UNL     1      -7.768  15.610  68.347  1.00  0.00    -0.126 A  
BRANCH  10  15
HETATM   15  C   UNL     1     -11.456  14.806  68.437  1.00  0.00    -0.314 C  
BRANCH  15  16
HETATM   16  O   UNL     1     -11.310  13.676  69.286  1.00  0.00    -0.260 OA 
BRANCH  16  17
HETATM   17  C   UNL     1     -12.108  13.542  70.387  1.00  0.00    -0.345 A  
HETATM   18  C   UNL     1     -12.739  14.613  71.034  1.00  0.00    -0.406 A  
HETATM   19  C   UNL     1     -13.615  14.393  72.102  1.00  0.00    -0.529 A  
HETATM   20  C   UNL     1     -13.853  13.101  72.560  1.00  0.00    -0.495 A  
HETATM   21  C   UNL     1     -13.211  12.027  71.948  1.00  0.00    -0.364 A  
HETATM   22  O   UNL     1     -13.428  10.763  72.427  1.00  0.00    -0.599 OA 
HETATM   23  C   UNL     1     -12.346  12.233  70.859  1.00  0.00    -0.363 A  
HETATM   24  C   UNL     1     -11.715  11.036  70.235  1.00  0.00    -0.355 C  
HETATM   25  H   UNL     1     -12.990  10.030  72.011  1.00  0.00     0.000 HD 
HETATM   26  O   UNL     1     -10.857  11.066  69.363  1.00  0.00    -0.230 OA 
ENDBRANCH  16  17
ENDBRANCH  15  16
ENDBRANCH  10  15
ENDBRANCH   8   9
ENDBRANCH   2   4
TORSDOF 5
ENDMDL
MODEL       50
REMARK 921   NORMALIZED FREE ENERGY PREDICTED BY IDOCK:   -6.29 KCAL/MOL
REMARK 922        TOTAL FREE ENERGY PREDICTED BY IDOCK:   -9.35 KCAL/MOL
REMARK 923 INTER-LIGAND FREE ENERGY PREDICTED BY IDOCK:   -8.02 KCAL/MOL
REMARK 924 INTRA-LIGAND FREE ENERGY PREDICTED BY IDOCK:   -1.33 KCAL/MOL
REMARK 927      BINDING AFFINITY PREDICTED BY RF-SCORE:    0.00 PKD
ROOT
HETATM    1  C   UNL     1     -10.742  15.024  65.595  1.00  0.00    -0.365 C  
HETATM    2  C   UNL     1     -10.602  13.656  66.268  1.00  0.00    -0.289 C  
HETATM    3  C   UNL     1     -11.886  13.304  67.032  1.00  0.00    -0.442 C  
ENDROOT
BRANCH   2   4
HETATM    4  N   UNL     1     -10.287  12.594  65.310  1.00  0.00    -0.286 NA 
HETATM    5  N   UNL     1     -10.713  12.757  64.031  1.00  0.00    -0.413 NA 
HETATM    6  C   UNL     1     -10.593  11.547  63.498  1.00  0.00    -0.423 A  
HETATM    7  C   UNL     1     -10.040  10.623  64.397  1.00  0.00    -0.418 A  
HETATM    8  C   UNL     1      -9.748  11.337  65.549  1.00  0.00    -0.229 A  
BRANCH   8   9
HETATM    9  C   UNL     1      -8.946  10.974  66.724  1.00  0.00    -0.157 A  
HETATM   10  C   UNL     1      -9.349  10.163  67.791  1.00  0.00    -0.153 A  
HETATM   11  C   UNL     1      -6.767  11.072  67.544  1.00  0.00    -0.072 A  
HETATM   12  C   UNL     1      -8.378   9.846  68.765  1.00  0.00    -0.116 A  
HETATM   13  N   UNL     1      -7.665  11.419  66.599  1.00  0.00    -0.150 NA 
HETATM   14  C   UNL     1      -7.071  10.292  68.637  1.00  0.00    -0.075 A  
BRANCH  10  15
HETATM   15  C   UNL     1     -10.736   9.627  68.023  1.00  0.00    -0.232 C  
BRANCH  15  16
HETATM   16  O   UNL     1     -10.836   9.201  69.375  1.00  0.00    -0.219 OA 
BRANCH  16  17
HETATM   17  C   UNL     1     -11.620   9.896  70.253  1.00  0.00    -0.250 A  
HETATM   18  C   UNL     1     -11.812  11.283  70.205  1.00  0.00    -0.449 A  
HETATM   19  C   UNL     1     -12.699  11.916  71.082  1.00  0.00    -0.384 A  
HETATM   20  C   UNL     1     -13.388  11.179  72.039  1.00  0.00    -0.384 A  
HETATM   21  C   UNL     1     -13.185   9.802  72.120  1.00  0.00    -0.436 A  
HETATM   22  O   UNL     1     -13.844   9.091  73.087  1.00  0.00    -1.096 OA 
HETATM   23  C   UNL     1     -12.313   9.151  71.230  1.00  0.00    -0.382 A  
HETATM   24  C   UNL     1     -12.167   7.673  71.357  1.00  0.00    -0.326 C  
HETATM   25  H   UNL     1     -13.706   8.152  73.143  1.00  0.00     0.000 HD 
HETATM   26  O   UNL     1     -11.363   6.989  70.736  1.00  0.00    -0.270 OA 
ENDBRANCH  16  17
ENDBRANCH  15  16
ENDBRANCH  10  15
ENDBRANCH   8   9
ENDBRANCH   2   4
TORSDOF 5
ENDMDL
MODEL       51
REMARK 921   NORMALIZED FREE ENERGY PREDICTED BY IDOCK:   -6.27 KCAL/MOL
REMARK 922        TOTAL FREE ENERGY PREDICTED BY IDOCK:   -9.32 KCAL/MOL
REMARK 923 INTER-LIGAND FREE ENERGY PREDICTED BY IDOCK:   -7.98 KCAL/MOL
REMARK 924 INTRA-LIGAND FREE ENERGY PREDICTED BY IDOCK:   -1.35 KCAL/MOL
REMARK 927      BINDING AFFINITY PREDICTED BY RF-SCORE:    0.00 PKD
ROOT
HETATM    1  C   UNL     1     -10.391   6.720  67.175  1.00  0.00    -0.327 C  
HETATM    2  C   UNL     1     -10.694   7.173  68.606  1.00  0.00    -0.163 C  
HETATM    3  C   UNL     1     -11.158   5.981  69.454  1.00  0.00    -0.445 C  
ENDROOT
BRANCH   2   4
HETATM    4  N   UNL     1      -9.542   7.816  69.241  1.00  0.00    -0.159 NA 
HETATM    5  N   UNL     1      -8.308   7.341  68.931  1.00  0.00    -0.125 NA 
HETATM    6  C   UNL     1      -7.522   7.858  69.867  1.00  0.00    -0.080 A  
HETATM    7  C   UNL     1      -8.221   8.706  70.738  1.00  0.00    -0.158 A  
HETATM    8  C   UNL     1      -9.523   8.755  70.264  1.00  0.00    -0.174 A  
BRANCH   8   9
HETATM    9  C   UNL     1     -10.635   9.649  70.606  1.00  0.00    -0.319 A  
HETATM   10  C   UNL     1     -11.011  10.813  69.925  1.00  0.00    -0.304 A  
HETATM   11  C   UNL     1     -12.511   9.781  71.984  1.00  0.00    -0.308 A  
HETATM   12  C   UNL     1     -12.187  11.464  70.356  1.00  0.00    -0.450 A  
HETATM   13  N   UNL     1     -11.383   9.135  71.621  1.00  0.00    -0.355 NA 
HETATM   14  C   UNL     1     -12.953  10.939  71.385  1.00  0.00    -0.527 A  
BRANCH  10  15
HETATM   15  C   UNL     1     -10.254  11.464  68.799  1.00  0.00    -0.197 C  
BRANCH  15  16
HETATM   16  O   UNL     1     -10.850  11.075  67.569  1.00  0.00    -0.226 OA 
BRANCH  16  17
HETATM   17  C   UNL     1     -11.299  12.026  66.696  1.00  0.00    -0.340 A  
HETATM   18  C   UNL     1     -11.998  13.177  67.083  1.00  0.00    -0.397 A  
HETATM   19  C   UNL     1     -12.349  14.153  66.144  1.00  0.00    -0.463 A  
HETATM   20  C   UNL     1     -12.031  13.983  64.801  1.00  0.00    -0.432 A  
HETATM   21  C   UNL     1     -11.362  12.830  64.395  1.00  0.00    -0.347 A  
HETATM   22  O   UNL     1     -11.082  12.657  63.066  1.00  0.00    -0.694 OA 
HETATM   23  C   UNL     1     -10.984  11.852  65.332  1.00  0.00    -0.352 A  
HETATM   24  C   UNL     1     -10.247  10.658  64.831  1.00  0.00    -0.324 C  
HETATM   25  H   UNL     1     -10.626  11.871  62.789  1.00  0.00     0.000 HD 
HETATM   26  O   UNL     1      -9.958   9.676  65.503  1.00  0.00    -0.311 OA 
ENDBRANCH  16  17
ENDBRANCH  15  16
ENDBRANCH  10  15
ENDBRANCH   8   9
ENDBRANCH   2   4
TORSDOF 5
ENDMDL
MODEL       52
REMARK 921   NORMALIZED FREE ENERGY PREDICTED BY IDOCK:   -6.27 KCAL/MOL
REMARK 922        TOTAL FREE ENERGY PREDICTED BY IDOCK:   -9.32 KCAL/MOL
REMARK 923 INTER-LIGAND FREE ENERGY PREDICTED BY IDOCK:   -8.10 KCAL/MOL
REMARK 924 INTRA-LIGAND FREE ENERGY PREDICTED BY IDOCK:   -1.22 KCAL/MOL
REMARK 927      BINDING AFFINITY PREDICTED BY RF-SCORE:    0.00 PKD
ROOT
HETATM    1  C   UNL     1     -11.257  15.311  64.901  1.00  0.00    -0.422 C  
HETATM    2  C   UNL     1     -10.945  14.120  65.810  1.00  0.00    -0.301 C  
HETATM    3  C   UNL     1     -12.120  13.852  66.760  1.00  0.00    -0.476 C  
ENDROOT
BRANCH   2   4
HETATM    4  N   UNL     1     -10.635  12.907  65.050  1.00  0.00    -0.303 NA 
HETATM    5  N   UNL     1     -11.085  12.836  63.771  1.00  0.00    -0.432 NA 
HETATM    6  C   UNL     1     -10.960  11.551  63.459  1.00  0.00    -0.373 A  
HETATM    7  C   UNL     1     -10.381  10.807  64.497  1.00  0.00    -0.401 A  
HETATM    8  C   UNL     1     -10.077  11.717  65.499  1.00  0.00    -0.246 A  
BRANCH   8   9
HETATM    9  C   UNL     1      -9.251  11.576  66.704  1.00  0.00    -0.186 A  
HETATM   10  C   UNL     1      -9.646  11.019  67.926  1.00  0.00    -0.180 A  
HETATM   11  C   UNL     1      -7.045  11.759  67.434  1.00  0.00    -0.126 A  
HETATM   12  C   UNL     1      -8.655  10.875  68.921  1.00  0.00    -0.143 A  
HETATM   13  N   UNL     1      -7.961  11.936  66.459  1.00  0.00    -0.033 NA 
HETATM   14  C   UNL     1      -7.340  11.235  68.672  1.00  0.00    -0.109 A  
BRANCH  10  15
HETATM   15  C   UNL     1     -11.042  10.595  68.298  1.00  0.00    -0.279 C  
BRANCH  15  16
HETATM   16  O   UNL     1     -11.177  10.674  69.710  1.00  0.00    -0.254 OA 
BRANCH  16  17
HETATM   17  C   UNL     1     -11.642   9.597  70.412  1.00  0.00    -0.236 A  
HETATM   18  C   UNL     1     -11.201   8.282  70.213  1.00  0.00    -0.176 A  
HETATM   19  C   UNL     1     -11.656   7.241  71.030  1.00  0.00    -0.329 A  
HETATM   20  C   UNL     1     -12.579   7.492  72.040  1.00  0.00    -0.268 A  
HETATM   21  C   UNL     1     -13.050   8.790  72.231  1.00  0.00    -0.409 A  
HETATM   22  O   UNL     1     -13.982   9.020  73.207  1.00  0.00    -1.205 OA 
HETATM   23  C   UNL     1     -12.584   9.848  71.432  1.00  0.00    -0.497 A  
HETATM   24  C   UNL     1     -13.110  11.214  71.711  1.00  0.00    -0.431 C  
HETATM   25  H   UNL     1     -14.304   9.905  73.338  1.00  0.00     0.000 HD 
HETATM   26  O   UNL     1     -12.888  12.207  71.030  1.00  0.00    -0.279 OA 
ENDBRANCH  16  17
ENDBRANCH  15  16
ENDBRANCH  10  15
ENDBRANCH   8   9
ENDBRANCH   2   4
TORSDOF 5
ENDMDL
MODEL       53
REMARK 921   NORMALIZED FREE ENERGY PREDICTED BY IDOCK:   -6.26 KCAL/MOL
REMARK 922        TOTAL FREE ENERGY PREDICTED BY IDOCK:   -9.30 KCAL/MOL
REMARK 923 INTER-LIGAND FREE ENERGY PREDICTED BY IDOCK:   -8.20 KCAL/MOL
REMARK 924 INTRA-LIGAND FREE ENERGY PREDICTED BY IDOCK:   -1.10 KCAL/MOL
REMARK 927      BINDING AFFINITY PREDICTED BY RF-SCORE:    0.00 PKD
ROOT
HETATM    1  C   UNL     1     -10.809   6.150  66.772  1.00  0.00    -0.360 C  
HETATM    2  C   UNL     1     -10.816   7.132  67.948  1.00  0.00    -0.150 C  
HETATM    3  C   UNL     1     -11.319   6.437  69.220  1.00  0.00    -0.405 C  
ENDROOT
BRANCH   2   4
HETATM    4  N   UNL     1      -9.495   7.716  68.191  1.00  0.00    -0.144 NA 
HETATM    5  N   UNL     1      -8.809   7.287  69.281  1.00  0.00    -0.137 NA 
HETATM    6  C   UNL     1      -7.849   8.191  69.432  1.00  0.00    -0.105 A  
HETATM    7  C   UNL     1      -7.871   9.162  68.420  1.00  0.00    -0.102 A  
HETATM    8  C   UNL     1      -8.887   8.790  67.553  1.00  0.00    -0.134 A  
BRANCH   8   9
HETATM    9  C   UNL     1      -9.221   9.268  66.206  1.00  0.00    -0.186 A  
HETATM   10  C   UNL     1     -10.033  10.362  65.885  1.00  0.00    -0.317 A  
HETATM   11  C   UNL     1      -8.626   8.981  63.971  1.00  0.00    -0.140 A  
HETATM   12  C   UNL     1     -10.129  10.719  64.524  1.00  0.00    -0.415 A  
HETATM   13  N   UNL     1      -8.519   8.589  65.258  1.00  0.00    -0.169 NA 
HETATM   14  C   UNL     1      -9.410  10.034  63.556  1.00  0.00    -0.301 A  
BRANCH  10  15
HETATM   15  C   UNL     1     -10.852  11.172  66.855  1.00  0.00    -0.279 C  
BRANCH  15  16
HETATM   16  O   UNL     1     -11.616  12.118  66.120  1.00  0.00    -0.364 OA 
BRANCH  16  17
HETATM   17  C   UNL     1     -11.285  13.444  66.163  1.00  0.00    -0.295 A  
HETATM   18  C   UNL     1     -10.595  14.046  67.223  1.00  0.00    -0.273 A  
HETATM   19  C   UNL     1     -10.211  15.389  67.159  1.00  0.00    -0.251 A  
HETATM   20  C   UNL     1     -10.534  16.161  66.048  1.00  0.00    -0.349 A  
HETATM   21  C   UNL     1     -11.247  15.585  64.998  1.00  0.00    -0.358 A  
HETATM   22  O   UNL     1     -11.588  16.362  63.923  1.00  0.00    -1.564 OA 
HETATM   23  C   UNL     1     -11.619  14.230  65.040  1.00  0.00    -0.367 A  
HETATM   24  C   UNL     1     -12.355  13.674  63.869  1.00  0.00    -0.316 C  
HETATM   25  H   UNL     1     -12.074  15.970  63.207  1.00  0.00     0.000 HD 
HETATM   26  O   UNL     1     -12.843  12.553  63.812  1.00  0.00    -0.721 OA 
ENDBRANCH  16  17
ENDBRANCH  15  16
ENDBRANCH  10  15
ENDBRANCH   8   9
ENDBRANCH   2   4
TORSDOF 5
ENDMDL
MODEL       54
REMARK 921   NORMALIZED FREE ENERGY PREDICTED BY IDOCK:   -6.25 KCAL/MOL
REMARK 922        TOTAL FREE ENERGY PREDICTED BY IDOCK:   -9.29 KCAL/MOL
REMARK 923 INTER-LIGAND FREE ENERGY PREDICTED BY IDOCK:   -8.10 KCAL/MOL
REMARK 924 INTRA-LIGAND FREE ENERGY PREDICTED BY IDOCK:   -1.19 KCAL/MOL
REMARK 927      BINDING AFFINITY PREDICTED BY RF-SCORE:    0.00 PKD
ROOT
HETATM    1  C   UNL     1      -8.078  12.478  67.266  1.00  0.00    -0.179 C  
HETATM    2  C   UNL     1      -9.011  13.670  67.494  1.00  0.00    -0.209 C  
HETATM    3  C   UNL     1      -8.329  14.973  67.056  1.00  0.00    -0.254 C  
ENDROOT
BRANCH   2   4
HETATM    4  N   UNL     1     -10.288  13.518  66.793  1.00  0.00    -0.261 NA 
HETATM    5  N   UNL     1     -10.247  13.150  65.487  1.00  0.00    -0.291 NA 
HETATM    6  C   UNL     1     -11.470  13.412  65.042  1.00  0.00    -0.311 A  
HETATM    7  C   UNL     1     -12.314  13.887  66.057  1.00  0.00    -0.511 A  
HETATM    8  C   UNL     1     -11.564  13.859  67.224  1.00  0.00    -0.365 A  
BRANCH   8   9
HETATM    9  C   UNL     1     -11.968  14.002  68.627  1.00  0.00    -0.354 A  
HETATM   10  C   UNL     1     -12.094  12.975  69.570  1.00  0.00    -0.289 A  
HETATM   11  C   UNL     1     -12.341  15.624  70.259  1.00  0.00    -0.370 A  
HETATM   12  C   UNL     1     -12.384  13.349  70.899  1.00  0.00    -0.436 A  
HETATM   13  N   UNL     1     -12.084  15.315  68.971  1.00  0.00    -0.261 NA 
HETATM   14  C   UNL     1     -12.496  14.684  71.254  1.00  0.00    -0.408 A  
BRANCH  10  15
HETATM   15  C   UNL     1     -11.989  11.499  69.291  1.00  0.00    -0.330 C  
BRANCH  15  16
HETATM   16  O   UNL     1     -11.552  10.846  70.475  1.00  0.00    -0.322 OA 
BRANCH  16  17
HETATM   17  C   UNL     1     -12.201   9.727  70.917  1.00  0.00    -0.302 A  
HETATM   18  C   UNL     1     -13.515   9.724  71.404  1.00  0.00    -0.397 A  
HETATM   19  C   UNL     1     -14.147   8.527  71.756  1.00  0.00    -0.515 A  
HETATM   20  C   UNL     1     -13.469   7.317  71.654  1.00  0.00    -0.428 A  
HETATM   21  C   UNL     1     -12.151   7.306  71.200  1.00  0.00    -0.340 A  
HETATM   22  O   UNL     1     -11.482   6.113  71.133  1.00  0.00    -0.302 OA 
HETATM   23  C   UNL     1     -11.512   8.500  70.821  1.00  0.00    -0.281 A  
HETATM   24  C   UNL     1     -10.112   8.410  70.319  1.00  0.00    -0.189 C  
HETATM   25  H   UNL     1     -10.584   6.105  70.824  1.00  0.00     0.000 HD 
HETATM   26  O   UNL     1      -9.392   9.367  70.065  1.00  0.00    -0.192 OA 
ENDBRANCH  16  17
ENDBRANCH  15  16
ENDBRANCH  10  15
ENDBRANCH   8   9
ENDBRANCH   2   4
TORSDOF 5
ENDMDL
MODEL       55
REMARK 921   NORMALIZED FREE ENERGY PREDICTED BY IDOCK:   -6.25 KCAL/MOL
REMARK 922        TOTAL FREE ENERGY PREDICTED BY IDOCK:   -9.28 KCAL/MOL
REMARK 923 INTER-LIGAND FREE ENERGY PREDICTED BY IDOCK:   -8.06 KCAL/MOL
REMARK 924 INTRA-LIGAND FREE ENERGY PREDICTED BY IDOCK:   -1.22 KCAL/MOL
REMARK 927      BINDING AFFINITY PREDICTED BY RF-SCORE:    0.00 PKD
ROOT
HETATM    1  C   UNL     1     -14.332   7.314  71.656  1.00  0.00    -0.583 C  
HETATM    2  C   UNL     1     -13.238   8.372  71.483  1.00  0.00    -0.290 C  
HETATM    3  C   UNL     1     -13.558   9.612  72.328  1.00  0.00    -0.449 C  
ENDROOT
BRANCH   2   4
HETATM    4  N   UNL     1     -11.911   7.861  71.833  1.00  0.00    -0.291 NA 
HETATM    5  N   UNL     1     -11.656   7.624  73.146  1.00  0.00    -0.186 NA 
HETATM    6  C   UNL     1     -10.335   7.503  73.198  1.00  0.00    -0.347 A  
HETATM    7  C   UNL     1      -9.743   7.599  71.930  1.00  0.00    -0.203 A  
HETATM    8  C   UNL     1     -10.787   7.733  71.027  1.00  0.00    -0.239 A  
BRANCH   8   9
HETATM    9  C   UNL     1     -10.808   7.633  69.564  1.00  0.00    -0.165 A  
HETATM   10  C   UNL     1     -10.556   8.665  68.652  1.00  0.00    -0.165 A  
HETATM   11  C   UNL     1     -10.903   6.061  67.845  1.00  0.00    -0.290 A  
HETATM   12  C   UNL     1     -10.514   8.324  67.284  1.00  0.00    -0.373 A  
HETATM   13  N   UNL     1     -10.973   6.342  69.163  1.00  0.00    -0.343 NA 
HETATM   14  C   UNL     1     -10.675   7.009  66.873  1.00  0.00    -0.376 A  
BRANCH  10  15
HETATM   15  C   UNL     1     -10.367  10.119  68.991  1.00  0.00    -0.212 C  
BRANCH  15  16
HETATM   16  O   UNL     1     -11.578  10.809  68.716  1.00  0.00    -0.282 OA 
BRANCH  16  17
HETATM   17  C   UNL     1     -11.563  11.932  67.937  1.00  0.00    -0.323 A  
HETATM   18  C   UNL     1     -11.308  11.928  66.559  1.00  0.00    -0.403 A  
HETATM   19  C   UNL     1     -11.396  13.105  65.809  1.00  0.00    -0.331 A  
HETATM   20  C   UNL     1     -11.713  14.310  66.426  1.00  0.00    -0.403 A  
HETATM   21  C   UNL     1     -11.940  14.337  67.801  1.00  0.00    -0.349 A  
HETATM   22  O   UNL     1     -12.221  15.534  68.404  1.00  0.00    -0.510 OA 
HETATM   23  C   UNL     1     -11.877  13.157  68.563  1.00  0.00    -0.377 A  
HETATM   24  C   UNL     1     -12.159  13.256  70.023  1.00  0.00    -0.315 C  
HETATM   25  H   UNL     1     -12.376  15.553  69.341  1.00  0.00     0.000 HD 
HETATM   26  O   UNL     1     -12.028  12.343  70.829  1.00  0.00    -0.260 OA 
ENDBRANCH  16  17
ENDBRANCH  15  16
ENDBRANCH  10  15
ENDBRANCH   8   9
ENDBRANCH   2   4
TORSDOF 5
ENDMDL
MODEL       56
REMARK 921   NORMALIZED FREE ENERGY PREDICTED BY IDOCK:   -6.23 KCAL/MOL
REMARK 922        TOTAL FREE ENERGY PREDICTED BY IDOCK:   -9.26 KCAL/MOL
REMARK 923 INTER-LIGAND FREE ENERGY PREDICTED BY IDOCK:   -8.65 KCAL/MOL
REMARK 924 INTRA-LIGAND FREE ENERGY PREDICTED BY IDOCK:   -0.61 KCAL/MOL
REMARK 927      BINDING AFFINITY PREDICTED BY RF-SCORE:    0.00 PKD
ROOT
HETATM    1  C   UNL     1     -11.437   5.820  72.248  1.00  0.00    -0.320 C  
HETATM    2  C   UNL     1     -11.096   6.830  71.148  1.00  0.00    -0.270 C  
HETATM    3  C   UNL     1     -11.523   6.289  69.777  1.00  0.00    -0.449 C  
ENDROOT
BRANCH   2   4
HETATM    4  N   UNL     1     -11.715   8.136  71.382  1.00  0.00    -0.278 NA 
HETATM    5  N   UNL     1     -12.806   8.178  72.189  1.00  0.00    -0.307 NA 
HETATM    6  C   UNL     1     -13.332   9.374  71.954  1.00  0.00    -0.434 A  
HETATM    7  C   UNL     1     -12.562  10.124  71.053  1.00  0.00    -0.478 A  
HETATM    8  C   UNL     1     -11.451   9.349  70.759  1.00  0.00    -0.300 A  
BRANCH   8   9
HETATM    9  C   UNL     1     -10.195   9.691  70.081  1.00  0.00    -0.264 A  
HETATM   10  C   UNL     1     -10.054  10.479  68.932  1.00  0.00    -0.215 A  
HETATM   11  C   UNL     1      -7.884   9.588  70.364  1.00  0.00    -0.172 A  
HETATM   12  C   UNL     1      -8.741  10.780  68.512  1.00  0.00    -0.149 A  
HETATM   13  N   UNL     1      -9.120   9.256  70.794  1.00  0.00    -0.250 NA 
HETATM   14  C   UNL     1      -7.644  10.344  69.239  1.00  0.00    -0.132 A  
BRANCH  10  15
HETATM   15  C   UNL     1     -11.174  11.003  68.074  1.00  0.00    -0.309 C  
BRANCH  15  16
HETATM   16  O   UNL     1     -10.668  12.054  67.262  1.00  0.00    -0.219 OA 
BRANCH  16  17
HETATM   17  C   UNL     1     -10.710  11.945  65.900  1.00  0.00    -0.284 A  
HETATM   18  C   UNL     1     -10.018  10.968  65.170  1.00  0.00    -0.333 A  
HETATM   19  C   UNL     1     -10.179  10.861  63.784  1.00  0.00    -0.407 A  
HETATM   20  C   UNL     1     -11.010  11.743  63.102  1.00  0.00    -0.275 A  
HETATM   21  C   UNL     1     -11.681  12.739  63.810  1.00  0.00    -0.493 A  
HETATM   22  O   UNL     1     -12.472  13.621  63.124  1.00  0.00    -1.033 OA 
HETATM   23  C   UNL     1     -11.547  12.843  65.205  1.00  0.00    -0.376 A  
HETATM   24  C   UNL     1     -12.316  13.913  65.900  1.00  0.00    -0.483 C  
HETATM   25  H   UNL     1     -12.930  14.300  63.606  1.00  0.00     0.000 HD 
HETATM   26  O   UNL     1     -12.210  14.200  67.086  1.00  0.00    -0.421 OA 
ENDBRANCH  16  17
ENDBRANCH  15  16
ENDBRANCH  10  15
ENDBRANCH   8   9
ENDBRANCH   2   4
TORSDOF 5
ENDMDL
MODEL       57
REMARK 921   NORMALIZED FREE ENERGY PREDICTED BY IDOCK:   -6.20 KCAL/MOL
REMARK 922        TOTAL FREE ENERGY PREDICTED BY IDOCK:   -9.23 KCAL/MOL
REMARK 923 INTER-LIGAND FREE ENERGY PREDICTED BY IDOCK:   -7.87 KCAL/MOL
REMARK 924 INTRA-LIGAND FREE ENERGY PREDICTED BY IDOCK:   -1.36 KCAL/MOL
REMARK 927      BINDING AFFINITY PREDICTED BY RF-SCORE:    0.00 PKD
ROOT
HETATM    1  C   UNL     1      -7.972  12.678  68.250  1.00  0.00    -0.153 C  
HETATM    2  C   UNL     1      -7.887  11.840  66.971  1.00  0.00    -0.161 C  
HETATM    3  C   UNL     1      -6.450  11.348  66.751  1.00  0.00    -0.140 C  
ENDROOT
BRANCH   2   4
HETATM    4  N   UNL     1      -8.805  10.699  66.992  1.00  0.00    -0.137 NA 
HETATM    5  N   UNL     1      -8.326   9.517  67.456  1.00  0.00    -0.124 NA 
HETATM    6  C   UNL     1      -9.227   8.628  67.057  1.00  0.00    -0.151 A  
HETATM    7  C   UNL     1     -10.308   9.228  66.395  1.00  0.00    -0.238 A  
HETATM    8  C   UNL     1     -10.077  10.595  66.444  1.00  0.00    -0.225 A  
BRANCH   8   9
HETATM    9  C   UNL     1     -10.959  11.728  66.142  1.00  0.00    -0.307 A  
HETATM   10  C   UNL     1     -11.681  12.493  67.066  1.00  0.00    -0.437 A  
HETATM   11  C   UNL     1     -11.563  13.155  64.401  1.00  0.00    -0.377 A  
HETATM   12  C   UNL     1     -12.380  13.615  66.571  1.00  0.00    -0.412 A  
HETATM   13  N   UNL     1     -10.895  12.061  64.824  1.00  0.00    -0.295 NA 
HETATM   14  C   UNL     1     -12.312  13.960  65.230  1.00  0.00    -0.485 A  
BRANCH  10  15
HETATM   15  C   UNL     1     -11.819  12.208  68.537  1.00  0.00    -0.310 C  
BRANCH  15  16
HETATM   16  O   UNL     1     -11.288  13.308  69.263  1.00  0.00    -0.262 OA 
BRANCH  16  17
HETATM   17  C   UNL     1     -11.927  13.760  70.383  1.00  0.00    -0.315 A  
HETATM   18  C   UNL     1     -12.850  13.004  71.118  1.00  0.00    -0.331 A  
HETATM   19  C   UNL     1     -13.399  13.498  72.306  1.00  0.00    -0.628 A  
HETATM   20  C   UNL     1     -13.056  14.764  72.766  1.00  0.00    -0.569 A  
HETATM   21  C   UNL     1     -12.161  15.542  72.031  1.00  0.00    -0.404 A  
HETATM   22  O   UNL     1     -11.855  16.799  72.476  1.00  0.00    -0.548 OA 
HETATM   23  C   UNL     1     -11.586  15.048  70.848  1.00  0.00    -0.364 A  
HETATM   24  C   UNL     1     -10.616  15.922  70.129  1.00  0.00    -0.295 C  
HETATM   25  H   UNL     1     -11.245  17.329  71.976  1.00  0.00     0.000 HD 
HETATM   26  O   UNL     1     -10.127  15.679  69.033  1.00  0.00    -0.204 OA 
ENDBRANCH  16  17
ENDBRANCH  15  16
ENDBRANCH  10  15
ENDBRANCH   8   9
ENDBRANCH   2   4
TORSDOF 5
ENDMDL
MODEL       58
REMARK 921   NORMALIZED FREE ENERGY PREDICTED BY IDOCK:   -6.20 KCAL/MOL
REMARK 922        TOTAL FREE ENERGY PREDICTED BY IDOCK:   -9.22 KCAL/MOL
REMARK 923 INTER-LIGAND FREE ENERGY PREDICTED BY IDOCK:   -7.93 KCAL/MOL
REMARK 924 INTRA-LIGAND FREE ENERGY PREDICTED BY IDOCK:   -1.29 KCAL/MOL
REMARK 927      BINDING AFFINITY PREDICTED BY RF-SCORE:    0.00 PKD
ROOT
HETATM    1  C   UNL     1     -10.207  17.411  66.832  1.00  0.00    -0.322 C  
HETATM    2  C   UNL     1      -9.696  16.348  67.808  1.00  0.00    -0.235 C  
HETATM    3  C   UNL     1      -8.602  16.934  68.711  1.00  0.00    -0.246 C  
ENDROOT
BRANCH   2   4
HETATM    4  N   UNL     1     -10.770  15.786  68.630  1.00  0.00    -0.250 NA 
HETATM    5  N   UNL     1     -11.138  16.476  69.740  1.00  0.00    -0.309 NA 
HETATM    6  C   UNL     1     -11.854  15.603  70.437  1.00  0.00    -0.370 A  
HETATM    7  C   UNL     1     -12.003  14.381  69.763  1.00  0.00    -0.385 A  
HETATM    8  C   UNL     1     -11.377  14.541  68.536  1.00  0.00    -0.286 A  
BRANCH   8   9
HETATM    9  C   UNL     1     -11.412  13.710  67.327  1.00  0.00    -0.343 A  
HETATM   10  C   UNL     1     -10.766  12.483  67.137  1.00  0.00    -0.263 A  
HETATM   11  C   UNL     1     -12.523  13.505  65.288  1.00  0.00    -0.482 A  
HETATM   12  C   UNL     1     -11.028  11.792  65.935  1.00  0.00    -0.354 A  
HETATM   13  N   UNL     1     -12.288  14.212  66.414  1.00  0.00    -0.454 NA 
HETATM   14  C   UNL     1     -11.924  12.298  65.006  1.00  0.00    -0.413 A  
BRANCH  10  15
HETATM   15  C   UNL     1      -9.779  11.846  68.080  1.00  0.00    -0.191 C  
BRANCH  15  16
HETATM   16  O   UNL     1     -10.230  10.534  68.386  1.00  0.00    -0.161 OA 
BRANCH  16  17
HETATM   17  C   UNL     1     -10.901  10.298  69.554  1.00  0.00    -0.256 A  
HETATM   18  C   UNL     1     -12.171  10.814  69.846  1.00  0.00    -0.384 A  
HETATM   19  C   UNL     1     -12.836  10.458  71.024  1.00  0.00    -0.494 A  
HETATM   20  C   UNL     1     -12.234   9.604  71.942  1.00  0.00    -0.413 A  
HETATM   21  C   UNL     1     -10.959   9.106  71.680  1.00  0.00    -0.374 A  
HETATM   22  O   UNL     1     -10.362   8.292  72.605  1.00  0.00    -0.313 OA 
HETATM   23  C   UNL     1     -10.289   9.438  70.489  1.00  0.00    -0.341 A  
HETATM   24  C   UNL     1      -8.940   8.847  70.263  1.00  0.00    -0.183 C  
HETATM   25  H   UNL     1      -9.493   7.952  72.427  1.00  0.00     0.000 HD 
HETATM   26  O   UNL     1      -8.192   9.133  69.337  1.00  0.00    -0.110 OA 
ENDBRANCH  16  17
ENDBRANCH  15  16
ENDBRANCH  10  15
ENDBRANCH   8   9
ENDBRANCH   2   4
TORSDOF 5
ENDMDL
MODEL       59
REMARK 921   NORMALIZED FREE ENERGY PREDICTED BY IDOCK:   -6.19 KCAL/MOL
REMARK 922        TOTAL FREE ENERGY PREDICTED BY IDOCK:   -9.21 KCAL/MOL
REMARK 923 INTER-LIGAND FREE ENERGY PREDICTED BY IDOCK:   -7.33 KCAL/MOL
REMARK 924 INTRA-LIGAND FREE ENERGY PREDICTED BY IDOCK:   -1.88 KCAL/MOL
REMARK 927      BINDING AFFINITY PREDICTED BY RF-SCORE:    0.00 PKD
ROOT
HETATM    1  C   UNL     1      -8.233  13.500  68.369  1.00  0.00    -0.141 C  
HETATM    2  C   UNL     1      -8.167  12.156  67.639  1.00  0.00    -0.163 C  
HETATM    3  C   UNL     1      -6.961  11.342  68.127  1.00  0.00    -0.069 C  
ENDROOT
BRANCH   2   4
HETATM    4  N   UNL     1      -9.394  11.374  67.803  1.00  0.00    -0.159 NA 
HETATM    5  N   UNL     1      -9.827  11.144  69.070  1.00  0.00    -0.161 NA 
HETATM    6  C   UNL     1     -10.719  10.171  68.931  1.00  0.00    -0.223 A  
HETATM    7  C   UNL     1     -10.910   9.813  67.589  1.00  0.00    -0.301 A  
HETATM    8  C   UNL     1     -10.115  10.672  66.845  1.00  0.00    -0.214 A  
BRANCH   8   9
HETATM    9  C   UNL     1     -10.081  10.941  65.403  1.00  0.00    -0.277 A  
HETATM   10  C   UNL     1     -10.875  11.859  64.705  1.00  0.00    -0.359 A  
HETATM   11  C   UNL     1      -8.817  10.496  63.496  1.00  0.00    -0.202 A  
HETATM   12  C   UNL     1     -10.597  12.043  63.334  1.00  0.00    -0.478 A  
HETATM   13  N   UNL     1      -9.058  10.271  64.805  1.00  0.00    -0.199 NA 
HETATM   14  C   UNL     1      -9.552  11.367  62.723  1.00  0.00    -0.290 A  
BRANCH  10  15
HETATM   15  C   UNL     1     -12.029  12.643  65.271  1.00  0.00    -0.439 C  
BRANCH  15  16
HETATM   16  O   UNL     1     -11.589  13.968  65.536  1.00  0.00    -0.318 OA 
BRANCH  16  17
HETATM   17  C   UNL     1     -11.584  14.442  66.817  1.00  0.00    -0.385 A  
HETATM   18  C   UNL     1     -12.064  13.725  67.921  1.00  0.00    -0.322 A  
HETATM   19  C   UNL     1     -11.946  14.237  69.217  1.00  0.00    -0.375 A  
HETATM   20  C   UNL     1     -11.372  15.486  69.430  1.00  0.00    -0.321 A  
HETATM   21  C   UNL     1     -10.916  16.226  68.340  1.00  0.00    -0.351 A  
HETATM   22  O   UNL     1     -10.381  17.467  68.557  1.00  0.00    -0.348 OA 
HETATM   23  C   UNL     1     -11.008  15.712  67.035  1.00  0.00    -0.261 A  
HETATM   24  C   UNL     1     -10.475  16.546  65.920  1.00  0.00    -0.323 C  
HETATM   25  H   UNL     1     -10.071  17.972  67.815  1.00  0.00     0.000 HD 
HETATM   26  O   UNL     1     -10.591  16.286  64.729  1.00  0.00    -0.658 OA 
ENDBRANCH  16  17
ENDBRANCH  15  16
ENDBRANCH  10  15
ENDBRANCH   8   9
ENDBRANCH   2   4
TORSDOF 5
ENDMDL
MODEL       60
REMARK 921   NORMALIZED FREE ENERGY PREDICTED BY IDOCK:   -6.19 KCAL/MOL
REMARK 922        TOTAL FREE ENERGY PREDICTED BY IDOCK:   -9.21 KCAL/MOL
REMARK 923 INTER-LIGAND FREE ENERGY PREDICTED BY IDOCK:   -7.98 KCAL/MOL
REMARK 924 INTRA-LIGAND FREE ENERGY PREDICTED BY IDOCK:   -1.24 KCAL/MOL
REMARK 927      BINDING AFFINITY PREDICTED BY RF-SCORE:    0.00 PKD
ROOT
HETATM    1  C   UNL     1      -9.522   9.094  65.648  1.00  0.00    -0.309 C  
HETATM    2  C   UNL     1     -10.102   8.920  67.055  1.00  0.00    -0.261 C  
HETATM    3  C   UNL     1     -10.785   7.553  67.184  1.00  0.00    -0.379 C  
ENDROOT
BRANCH   2   4
HETATM    4  N   UNL     1      -9.084   9.068  68.097  1.00  0.00    -0.133 NA 
HETATM    5  N   UNL     1      -7.820   8.668  67.802  1.00  0.00    -0.102 NA 
HETATM    6  C   UNL     1      -7.221   8.602  68.984  1.00  0.00    -0.072 A  
HETATM    7  C   UNL     1      -8.062   9.011  70.029  1.00  0.00    -0.124 A  
HETATM    8  C   UNL     1      -9.248   9.411  69.433  1.00  0.00    -0.165 A  
BRANCH   8   9
HETATM    9  C   UNL     1     -10.393  10.152  69.977  1.00  0.00    -0.250 A  
HETATM   10  C   UNL     1     -10.861  11.399  69.546  1.00  0.00    -0.165 A  
HETATM   11  C   UNL     1     -12.211   9.899  71.412  1.00  0.00    -0.408 A  
HETATM   12  C   UNL     1     -12.052  11.879  70.131  1.00  0.00    -0.382 A  
HETATM   13  N   UNL     1     -11.066   9.406  70.895  1.00  0.00    -0.290 NA 
HETATM   14  C   UNL     1     -12.743  11.120  71.063  1.00  0.00    -0.476 A  
BRANCH  10  15
HETATM   15  C   UNL     1     -10.191  12.300  68.544  1.00  0.00    -0.206 C  
BRANCH  15  16
HETATM   16  O   UNL     1     -11.116  13.305  68.150  1.00  0.00    -0.239 OA 
BRANCH  16  17
HETATM   17  C   UNL     1     -11.428  13.465  66.830  1.00  0.00    -0.343 A  
HETATM   18  C   UNL     1     -12.113  12.512  66.064  1.00  0.00    -0.390 A  
HETATM   19  C   UNL     1     -12.477  12.781  64.741  1.00  0.00    -0.539 A  
HETATM   20  C   UNL     1     -12.140  13.994  64.151  1.00  0.00    -0.456 A  
HETATM   21  C   UNL     1     -11.432  14.942  64.889  1.00  0.00    -0.407 A  
HETATM   22  O   UNL     1     -11.077  16.120  64.289  1.00  0.00    -1.042 OA 
HETATM   23  C   UNL     1     -11.080  14.693  66.227  1.00  0.00    -0.336 A  
HETATM   24  C   UNL     1     -10.349  15.761  66.964  1.00  0.00    -0.292 C  
HETATM   25  H   UNL     1     -10.595  16.766  64.791  1.00  0.00     0.000 HD 
HETATM   26  O   UNL     1      -9.876  15.646  68.087  1.00  0.00    -0.211 OA 
ENDBRANCH  16  17
ENDBRANCH  15  16
ENDBRANCH  10  15
ENDBRANCH   8   9
ENDBRANCH   2   4
TORSDOF 5
ENDMDL
MODEL       61
REMARK 921   NORMALIZED FREE ENERGY PREDICTED BY IDOCK:   -6.18 KCAL/MOL
REMARK 922        TOTAL FREE ENERGY PREDICTED BY IDOCK:   -9.20 KCAL/MOL
REMARK 923 INTER-LIGAND FREE ENERGY PREDICTED BY IDOCK:   -7.95 KCAL/MOL
REMARK 924 INTRA-LIGAND FREE ENERGY PREDICTED BY IDOCK:   -1.25 KCAL/MOL
REMARK 927      BINDING AFFINITY PREDICTED BY RF-SCORE:    0.00 PKD
ROOT
HETATM    1  C   UNL     1     -11.674  10.626  69.858  1.00  0.00    -0.395 C  
HETATM    2  C   UNL     1     -11.542  11.733  68.809  1.00  0.00    -0.307 C  
HETATM    3  C   UNL     1     -11.801  13.105  69.446  1.00  0.00    -0.383 C  
ENDROOT
BRANCH   2   4
HETATM    4  N   UNL     1     -10.230  11.727  68.157  1.00  0.00    -0.196 NA 
HETATM    5  N   UNL     1      -9.206  11.124  68.814  1.00  0.00    -0.172 NA 
HETATM    6  C   UNL     1      -8.122  11.553  68.178  1.00  0.00    -0.146 A  
HETATM    7  C   UNL     1      -8.438  12.374  67.086  1.00  0.00    -0.185 A  
HETATM    8  C   UNL     1      -9.822  12.404  67.015  1.00  0.00    -0.211 A  
BRANCH   8   9
HETATM    9  C   UNL     1     -10.718  12.887  65.957  1.00  0.00    -0.277 A  
HETATM   10  C   UNL     1     -11.194  14.193  65.798  1.00  0.00    -0.312 A  
HETATM   11  C   UNL     1     -11.657  12.236  63.926  1.00  0.00    -0.444 A  
HETATM   12  C   UNL     1     -11.954  14.469  64.642  1.00  0.00    -0.478 A  
HETATM   13  N   UNL     1     -10.942  11.919  65.026  1.00  0.00    -0.306 NA 
HETATM   14  C   UNL     1     -12.179  13.487  63.688  1.00  0.00    -0.438 A  
BRANCH  10  15
HETATM   15  C   UNL     1     -11.007  15.329  66.768  1.00  0.00    -0.306 C  
BRANCH  15  16
HETATM   16  O   UNL     1      -9.834  16.045  66.406  1.00  0.00    -0.254 OA 
BRANCH  16  17
HETATM   17  C   UNL     1      -9.750  17.386  66.653  1.00  0.00    -0.290 A  
HETATM   18  C   UNL     1     -10.492  18.358  65.968  1.00  0.00    -0.400 A  
HETATM   19  C   UNL     1     -10.421  19.706  66.335  1.00  0.00    -0.618 A  
HETATM   20  C   UNL     1      -9.587  20.110  67.372  1.00  0.00    -0.551 A  
HETATM   21  C   UNL     1      -8.819  19.160  68.044  1.00  0.00    -0.313 A  
HETATM   22  O   UNL     1      -7.978  19.572  69.042  1.00  0.00    -0.356 OA 
HETATM   23  C   UNL     1      -8.899  17.799  67.700  1.00  0.00    -0.248 A  
HETATM   24  C   UNL     1      -8.071  16.836  68.478  1.00  0.00    -0.241 C  
HETATM   25  H   UNL     1      -7.454  18.925  69.500  1.00  0.00     0.000 HD 
HETATM   26  O   UNL     1      -7.946  15.645  68.221  1.00  0.00    -0.126 OA 
ENDBRANCH  16  17
ENDBRANCH  15  16
ENDBRANCH  10  15
ENDBRANCH   8   9
ENDBRANCH   2   4
TORSDOF 5
ENDMDL
MODEL       62
REMARK 921   NORMALIZED FREE ENERGY PREDICTED BY IDOCK:   -6.16 KCAL/MOL
REMARK 922        TOTAL FREE ENERGY PREDICTED BY IDOCK:   -9.18 KCAL/MOL
REMARK 923 INTER-LIGAND FREE ENERGY PREDICTED BY IDOCK:   -7.32 KCAL/MOL
REMARK 924 INTRA-LIGAND FREE ENERGY PREDICTED BY IDOCK:   -1.86 KCAL/MOL
REMARK 927      BINDING AFFINITY PREDICTED BY RF-SCORE:    0.00 PKD
ROOT
HETATM    1  C   UNL     1     -10.109   8.654  69.050  1.00  0.00    -0.207 C  
HETATM    2  C   UNL     1     -10.603  10.007  68.528  1.00  0.00    -0.215 C  
HETATM    3  C   UNL     1     -11.423  10.727  69.607  1.00  0.00    -0.376 C  
ENDROOT
BRANCH   2   4
HETATM    4  N   UNL     1      -9.503  10.866  68.085  1.00  0.00    -0.160 NA 
HETATM    5  N   UNL     1      -8.373  10.879  68.838  1.00  0.00    -0.150 NA 
HETATM    6  C   UNL     1      -7.715  11.950  68.411  1.00  0.00    -0.131 A  
HETATM    7  C   UNL     1      -8.377  12.591  67.352  1.00  0.00    -0.182 A  
HETATM    8  C   UNL     1      -9.496  11.820  67.076  1.00  0.00    -0.185 A  
BRANCH   8   9
HETATM    9  C   UNL     1     -10.421  11.848  65.937  1.00  0.00    -0.258 A  
HETATM   10  C   UNL     1     -11.665  12.488  65.887  1.00  0.00    -0.480 A  
HETATM   11  C   UNL     1     -10.539  11.318  63.671  1.00  0.00    -0.388 A  
HETATM   12  C   UNL     1     -12.344  12.487  64.650  1.00  0.00    -0.547 A  
HETATM   13  N   UNL     1      -9.861  11.275  64.836  1.00  0.00    -0.250 NA 
HETATM   14  C   UNL     1     -11.773  11.910  63.526  1.00  0.00    -0.550 A  
BRANCH  10  15
HETATM   15  C   UNL     1     -12.371  13.144  67.044  1.00  0.00    -0.057 C  
BRANCH  15  16
HETATM   16  O   UNL     1     -12.255  14.553  66.904  1.00  0.00    -0.375 OA 
BRANCH  16  17
HETATM   17  C   UNL     1     -11.135  15.194  67.353  1.00  0.00    -0.325 A  
HETATM   18  C   UNL     1     -10.674  15.133  68.676  1.00  0.00    -0.239 A  
HETATM   19  C   UNL     1      -9.470  15.741  69.045  1.00  0.00    -0.247 A  
HETATM   20  C   UNL     1      -8.720  16.443  68.107  1.00  0.00    -0.191 A  
HETATM   21  C   UNL     1      -9.179  16.539  66.795  1.00  0.00    -0.234 A  
HETATM   22  O   UNL     1      -8.450  17.259  65.887  1.00  0.00    -0.533 OA 
HETATM   23  C   UNL     1     -10.376  15.913  66.405  1.00  0.00    -0.313 A  
HETATM   24  C   UNL     1     -10.792  16.033  64.980  1.00  0.00    -0.404 C  
HETATM   25  H   UNL     1      -8.763  17.325  64.993  1.00  0.00     0.000 HD 
HETATM   26  O   UNL     1     -11.860  15.645  64.522  1.00  0.00    -0.325 OA 
ENDBRANCH  16  17
ENDBRANCH  15  16
ENDBRANCH  10  15
ENDBRANCH   8   9
ENDBRANCH   2   4
TORSDOF 5
ENDMDL
MODEL       63
REMARK 921   NORMALIZED FREE ENERGY PREDICTED BY IDOCK:   -6.15 KCAL/MOL
REMARK 922        TOTAL FREE ENERGY PREDICTED BY IDOCK:   -9.16 KCAL/MOL
REMARK 923 INTER-LIGAND FREE ENERGY PREDICTED BY IDOCK:   -7.96 KCAL/MOL
REMARK 924 INTRA-LIGAND FREE ENERGY PREDICTED BY IDOCK:   -1.20 KCAL/MOL
REMARK 927      BINDING AFFINITY PREDICTED BY RF-SCORE:    0.00 PKD
ROOT
HETATM    1  C   UNL     1      -6.991  20.173  65.225  1.00  0.00    -0.300 C  
HETATM    2  C   UNL     1      -6.909  19.930  66.735  1.00  0.00    -0.210 C  
HETATM    3  C   UNL     1      -6.388  21.185  67.448  1.00  0.00    -0.430 C  
ENDROOT
BRANCH   2   4
HETATM    4  N   UNL     1      -8.198  19.533  67.304  1.00  0.00    -0.280 NA 
HETATM    5  N   UNL     1      -9.232  20.406  67.187  1.00  0.00    -0.385 NA 
HETATM    6  C   UNL     1     -10.132  19.953  68.050  1.00  0.00    -0.440 A  
HETATM    7  C   UNL     1      -9.718  18.769  68.677  1.00  0.00    -0.437 A  
HETATM    8  C   UNL     1      -8.495  18.442  68.111  1.00  0.00    -0.285 A  
BRANCH   8   9
HETATM    9  C   UNL     1      -7.704  17.208  68.182  1.00  0.00    -0.204 A  
HETATM   10  C   UNL     1      -7.728  16.147  67.269  1.00  0.00    -0.212 A  
HETATM   11  C   UNL     1      -5.920  16.250  69.336  1.00  0.00    -0.157 A  
HETATM   12  C   UNL     1      -6.799  15.104  67.465  1.00  0.00    -0.203 A  
HETATM   13  N   UNL     1      -6.803  17.262  69.202  1.00  0.00    -0.241 NA 
HETATM   14  C   UNL     1      -5.876  15.158  68.499  1.00  0.00    -0.095 A  
BRANCH  10  15
HETATM   15  C   UNL     1      -8.683  15.992  66.116  1.00  0.00    -0.313 C  
BRANCH  15  16
HETATM   16  O   UNL     1      -9.994  15.813  66.636  1.00  0.00    -0.241 OA 
BRANCH  16  17
HETATM   17  C   UNL     1     -10.787  14.808  66.157  1.00  0.00    -0.321 A  
HETATM   18  C   UNL     1     -11.297  14.766  64.853  1.00  0.00    -0.411 A  
HETATM   19  C   UNL     1     -12.029  13.661  64.404  1.00  0.00    -0.476 A  
HETATM   20  C   UNL     1     -12.286  12.594  65.257  1.00  0.00    -0.528 A  
HETATM   21  C   UNL     1     -11.811  12.633  66.567  1.00  0.00    -0.396 A  
HETATM   22  O   UNL     1     -12.097  11.592  67.409  1.00  0.00    -0.605 OA 
HETATM   23  C   UNL     1     -11.055  13.727  67.024  1.00  0.00    -0.313 A  
HETATM   24  C   UNL     1     -10.556  13.690  68.427  1.00  0.00    -0.251 C  
HETATM   25  H   UNL     1     -11.774  11.619  68.301  1.00  0.00     0.000 HD 
HETATM   26  O   UNL     1      -9.989  14.613  68.998  1.00  0.00    -0.226 OA 
ENDBRANCH  16  17
ENDBRANCH  15  16
ENDBRANCH  10  15
ENDBRANCH   8   9
ENDBRANCH   2   4
TORSDOF 5
ENDMDL
MODEL       64
REMARK 921   NORMALIZED FREE ENERGY PREDICTED BY IDOCK:   -6.15 KCAL/MOL
REMARK 922        TOTAL FREE ENERGY PREDICTED BY IDOCK:   -9.16 KCAL/MOL
REMARK 923 INTER-LIGAND FREE ENERGY PREDICTED BY IDOCK:   -7.96 KCAL/MOL
REMARK 924 INTRA-LIGAND FREE ENERGY PREDICTED BY IDOCK:   -1.20 KCAL/MOL
REMARK 927      BINDING AFFINITY PREDICTED BY RF-SCORE:    0.00 PKD
ROOT
HETATM    1  C   UNL     1     -13.980   8.982  72.233  1.00  0.00    -0.522 C  
HETATM    2  C   UNL     1     -12.870   9.065  71.182  1.00  0.00    -0.167 C  
HETATM    3  C   UNL     1     -12.556  10.530  70.852  1.00  0.00    -0.493 C  
ENDROOT
BRANCH   2   4
HETATM    4  N   UNL     1     -11.648   8.380  71.610  1.00  0.00    -0.272 NA 
HETATM    5  N   UNL     1     -11.394   8.323  72.943  1.00  0.00    -0.262 NA 
HETATM    6  C   UNL     1     -10.118   7.966  73.011  1.00  0.00    -0.317 A  
HETATM    7  C   UNL     1      -9.564   7.734  71.743  1.00  0.00    -0.204 A  
HETATM    8  C   UNL     1     -10.597   7.908  70.835  1.00  0.00    -0.213 A  
BRANCH   8   9
HETATM    9  C   UNL     1     -10.688   7.569  69.410  1.00  0.00    -0.193 A  
HETATM   10  C   UNL     1     -10.503   8.441  68.330  1.00  0.00    -0.208 A  
HETATM   11  C   UNL     1     -10.835   5.735  67.979  1.00  0.00    -0.161 A  
HETATM   12  C   UNL     1     -10.521   7.880  67.036  1.00  0.00    -0.419 A  
HETATM   13  N   UNL     1     -10.846   6.228  69.235  1.00  0.00    -0.305 NA 
HETATM   14  C   UNL     1     -10.676   6.514  66.854  1.00  0.00    -0.403 A  
BRANCH  10  15
HETATM   15  C   UNL     1     -10.327   9.933  68.417  1.00  0.00    -0.198 C  
BRANCH  15  16
HETATM   16  O   UNL     1     -10.300  10.462  67.098  1.00  0.00    -0.213 OA 
BRANCH  16  17
HETATM   17  C   UNL     1     -10.991  11.605  66.807  1.00  0.00    -0.290 A  
HETATM   18  C   UNL     1     -11.642  12.393  67.766  1.00  0.00    -0.413 A  
HETATM   19  C   UNL     1     -12.255  13.598  67.408  1.00  0.00    -0.283 A  
HETATM   20  C   UNL     1     -12.252  14.023  66.083  1.00  0.00    -0.494 A  
HETATM   21  C   UNL     1     -11.636  13.235  65.112  1.00  0.00    -0.308 A  
HETATM   22  O   UNL     1     -11.666  13.646  63.807  1.00  0.00    -0.622 OA 
HETATM   23  C   UNL     1     -10.996  12.033  65.463  1.00  0.00    -0.345 A  
HETATM   24  C   UNL     1     -10.333  11.257  64.378  1.00  0.00    -0.329 C  
HETATM   25  H   UNL     1     -11.246  13.110  63.145  1.00  0.00     0.000 HD 
HETATM   26  O   UNL     1      -9.842  10.142  64.508  1.00  0.00    -0.324 OA 
ENDBRANCH  16  17
ENDBRANCH  15  16
ENDBRANCH  10  15
ENDBRANCH   8   9
ENDBRANCH   2   4
TORSDOF 5
ENDMDL
MODEL       65
REMARK 921   NORMALIZED FREE ENERGY PREDICTED BY IDOCK:   -6.14 KCAL/MOL
REMARK 922        TOTAL FREE ENERGY PREDICTED BY IDOCK:   -9.15 KCAL/MOL
REMARK 923 INTER-LIGAND FREE ENERGY PREDICTED BY IDOCK:   -8.27 KCAL/MOL
REMARK 924 INTRA-LIGAND FREE ENERGY PREDICTED BY IDOCK:   -0.88 KCAL/MOL
REMARK 927      BINDING AFFINITY PREDICTED BY RF-SCORE:    0.00 PKD
ROOT
HETATM    1  C   UNL     1     -12.236  14.395  64.543  1.00  0.00    -0.483 C  
HETATM    2  C   UNL     1     -12.317  12.930  64.983  1.00  0.00    -0.485 C  
HETATM    3  C   UNL     1     -12.757  12.045  63.809  1.00  0.00    -0.516 C  
ENDROOT
BRANCH   2   4
HETATM    4  N   UNL     1     -11.048  12.442  65.525  1.00  0.00    -0.290 NA 
HETATM    5  N   UNL     1     -10.147  11.928  64.649  1.00  0.00    -0.268 NA 
HETATM    6  C   UNL     1      -9.281  11.283  65.421  1.00  0.00    -0.183 A  
HETATM    7  C   UNL     1      -9.578  11.425  66.785  1.00  0.00    -0.207 A  
HETATM    8  C   UNL     1     -10.677  12.269  66.853  1.00  0.00    -0.232 A  
BRANCH   8   9
HETATM    9  C   UNL     1     -11.282  12.966  67.993  1.00  0.00    -0.268 A  
HETATM   10  C   UNL     1     -11.782  12.380  69.162  1.00  0.00    -0.376 A  
HETATM   11  C   UNL     1     -11.586  15.105  68.868  1.00  0.00    -0.341 A  
HETATM   12  C   UNL     1     -12.215  13.247  70.187  1.00  0.00    -0.376 A  
HETATM   13  N   UNL     1     -11.178  14.317  67.852  1.00  0.00    -0.274 NA 
HETATM   14  C   UNL     1     -12.106  14.622  70.048  1.00  0.00    -0.383 A  
BRANCH  10  15
HETATM   15  C   UNL     1     -11.943  10.904  69.414  1.00  0.00    -0.322 C  
BRANCH  15  16
HETATM   16  O   UNL     1     -11.701  10.652  70.791  1.00  0.00    -0.328 OA 
BRANCH  16  17
HETATM   17  C   UNL     1     -10.970   9.561  71.168  1.00  0.00    -0.368 A  
HETATM   18  C   UNL     1      -9.614   9.381  70.861  1.00  0.00    -0.301 A  
HETATM   19  C   UNL     1      -8.906   8.281  71.355  1.00  0.00    -0.204 A  
HETATM   20  C   UNL     1      -9.545   7.328  72.140  1.00  0.00    -0.162 A  
HETATM   21  C   UNL     1     -10.901   7.476  72.430  1.00  0.00    -0.276 A  
HETATM   22  O   UNL     1     -11.528   6.515  73.177  1.00  0.00    -0.477 OA 
HETATM   23  C   UNL     1     -11.619   8.589  71.958  1.00  0.00    -0.432 A  
HETATM   24  C   UNL     1     -13.058   8.696  72.330  1.00  0.00    -0.372 C  
HETATM   25  H   UNL     1     -12.452   6.616  73.375  1.00  0.00     0.000 HD 
HETATM   26  O   UNL     1     -13.835   9.540  71.900  1.00  0.00    -0.340 OA 
ENDBRANCH  16  17
ENDBRANCH  15  16
ENDBRANCH  10  15
ENDBRANCH   8   9
ENDBRANCH   2   4
TORSDOF 5
ENDMDL
MODEL       66
REMARK 921   NORMALIZED FREE ENERGY PREDICTED BY IDOCK:   -6.13 KCAL/MOL
REMARK 922        TOTAL FREE ENERGY PREDICTED BY IDOCK:   -9.14 KCAL/MOL
REMARK 923 INTER-LIGAND FREE ENERGY PREDICTED BY IDOCK:   -8.05 KCAL/MOL
REMARK 924 INTRA-LIGAND FREE ENERGY PREDICTED BY IDOCK:   -1.08 KCAL/MOL
REMARK 927      BINDING AFFINITY PREDICTED BY RF-SCORE:    0.00 PKD
ROOT
HETATM    1  C   UNL     1      -9.899   8.891  66.359  1.00  0.00    -0.353 C  
HETATM    2  C   UNL     1     -10.369   8.584  67.783  1.00  0.00    -0.237 C  
HETATM    3  C   UNL     1     -10.591   7.075  67.957  1.00  0.00    -0.260 C  
ENDROOT
BRANCH   2   4
HETATM    4  N   UNL     1      -9.427   9.067  68.795  1.00  0.00    -0.147 NA 
HETATM    5  N   UNL     1      -8.156   9.329  68.396  1.00  0.00    -0.105 NA 
HETATM    6  C   UNL     1      -7.476   9.416  69.532  1.00  0.00    -0.083 A  
HETATM    7  C   UNL     1      -8.301   9.275  70.657  1.00  0.00    -0.245 A  
HETATM    8  C   UNL     1      -9.594   9.147  70.172  1.00  0.00    -0.206 A  
BRANCH   8   9
HETATM    9  C   UNL     1     -10.888   9.213  70.861  1.00  0.00    -0.278 A  
HETATM   10  C   UNL     1     -11.925  10.119  70.606  1.00  0.00    -0.423 A  
HETATM   11  C   UNL     1     -12.220   8.019  72.355  1.00  0.00    -0.287 A  
HETATM   12  C   UNL     1     -13.134   9.931  71.308  1.00  0.00    -0.487 A  
HETATM   13  N   UNL     1     -11.037   8.170  71.722  1.00  0.00    -0.256 NA 
HETATM   14  C   UNL     1     -13.292   8.866  72.182  1.00  0.00    -0.489 A  
BRANCH  10  15
HETATM   15  C   UNL     1     -11.859  11.304  69.680  1.00  0.00    -0.360 C  
BRANCH  15  16
HETATM   16  O   UNL     1     -12.531  12.395  70.295  1.00  0.00    -0.195 OA 
BRANCH  16  17
HETATM   17  C   UNL     1     -12.000  13.652  70.221  1.00  0.00    -0.327 A  
HETATM   18  C   UNL     1     -11.256  14.127  69.133  1.00  0.00    -0.307 A  
HETATM   19  C   UNL     1     -10.819  15.455  69.086  1.00  0.00    -0.249 A  
HETATM   20  C   UNL     1     -11.093  16.323  70.138  1.00  0.00    -0.346 A  
HETATM   21  C   UNL     1     -11.806  15.858  71.242  1.00  0.00    -0.449 A  
HETATM   22  O   UNL     1     -12.043  16.711  72.286  1.00  0.00    -0.569 OA 
HETATM   23  C   UNL     1     -12.270  14.532  71.291  1.00  0.00    -0.421 A  
HETATM   24  C   UNL     1     -13.050  14.112  72.489  1.00  0.00    -0.463 C  
HETATM   25  H   UNL     1     -12.529  16.395  73.039  1.00  0.00     0.000 HD 
HETATM   26  O   UNL     1     -13.416  12.967  72.725  1.00  0.00    -0.512 OA 
ENDBRANCH  16  17
ENDBRANCH  15  16
ENDBRANCH  10  15
ENDBRANCH   8   9
ENDBRANCH   2   4
TORSDOF 5
ENDMDL
MODEL       67
REMARK 921   NORMALIZED FREE ENERGY PREDICTED BY IDOCK:   -6.13 KCAL/MOL
REMARK 922        TOTAL FREE ENERGY PREDICTED BY IDOCK:   -9.13 KCAL/MOL
REMARK 923 INTER-LIGAND FREE ENERGY PREDICTED BY IDOCK:   -7.63 KCAL/MOL
REMARK 924 INTRA-LIGAND FREE ENERGY PREDICTED BY IDOCK:   -1.50 KCAL/MOL
REMARK 927      BINDING AFFINITY PREDICTED BY RF-SCORE:    0.00 PKD
ROOT
HETATM    1  C   UNL     1     -12.057  14.788  69.067  1.00  0.00    -0.256 C  
HETATM    2  C   UNL     1     -11.136  15.728  69.851  1.00  0.00    -0.331 C  
HETATM    3  C   UNL     1     -11.203  15.411  71.351  1.00  0.00    -0.402 C  
ENDROOT
BRANCH   2   4
HETATM    4  N   UNL     1      -9.748  15.658  69.390  1.00  0.00    -0.276 NA 
HETATM    5  N   UNL     1      -9.004  14.597  69.796  1.00  0.00     0.334 NA 
HETATM    6  C   UNL     1      -7.757  14.958  69.523  1.00  0.00    -0.121 A  
HETATM    7  C   UNL     1      -7.692  16.209  68.892  1.00  0.00    -0.207 A  
HETATM    8  C   UNL     1      -9.005  16.618  68.715  1.00  0.00    -0.253 A  
BRANCH   8   9
HETATM    9  C   UNL     1      -9.570  17.707  67.910  1.00  0.00    -0.282 A  
HETATM   10  C   UNL     1      -9.997  17.628  66.580  1.00  0.00    -0.332 A  
HETATM   11  C   UNL     1     -10.389  19.881  68.103  1.00  0.00    -0.397 A  
HETATM   12  C   UNL     1     -10.619  18.769  66.031  1.00  0.00    -0.442 A  
HETATM   13  N   UNL     1      -9.771  18.822  68.667  1.00  0.00    -0.373 NA 
HETATM   14  C   UNL     1     -10.831  19.903  66.800  1.00  0.00    -0.350 A  
BRANCH  10  15
HETATM   15  C   UNL     1      -9.819  16.449  65.661  1.00  0.00    -0.187 C  
BRANCH  15  16
HETATM   16  O   UNL     1     -10.852  15.509  65.925  1.00  0.00    -0.326 OA 
BRANCH  16  17
HETATM   17  C   UNL     1     -10.658  14.185  65.646  1.00  0.00    -0.310 A  
HETATM   18  C   UNL     1      -9.786  13.353  66.361  1.00  0.00    -0.299 A  
HETATM   19  C   UNL     1      -9.705  11.986  66.077  1.00  0.00    -0.256 A  
HETATM   20  C   UNL     1     -10.472  11.432  65.058  1.00  0.00    -0.361 A  
HETATM   21  C   UNL     1     -11.322  12.252  64.317  1.00  0.00    -0.352 A  
HETATM   22  O   UNL     1     -12.049  11.703  63.295  1.00  0.00    -0.851 OA 
HETATM   23  C   UNL     1     -11.430  13.623  64.608  1.00  0.00    -0.383 A  
HETATM   24  C   UNL     1     -12.380  14.433  63.794  1.00  0.00     0.076 C  
HETATM   25  H   UNL     1     -12.629  12.261  62.791  1.00  0.00     0.000 HD 
HETATM   26  O   UNL     1     -12.495  15.651  63.851  1.00  0.00    -0.693 OA 
ENDBRANCH  16  17
ENDBRANCH  15  16
ENDBRANCH  10  15
ENDBRANCH   8   9
ENDBRANCH   2   4
TORSDOF 5
ENDMDL
MODEL       68
REMARK 921   NORMALIZED FREE ENERGY PREDICTED BY IDOCK:   -6.12 KCAL/MOL
REMARK 922        TOTAL FREE ENERGY PREDICTED BY IDOCK:   -9.13 KCAL/MOL
REMARK 923 INTER-LIGAND FREE ENERGY PREDICTED BY IDOCK:   -7.89 KCAL/MOL
REMARK 924 INTRA-LIGAND FREE ENERGY PREDICTED BY IDOCK:   -1.23 KCAL/MOL
REMARK 927      BINDING AFFINITY PREDICTED BY RF-SCORE:    0.00 PKD
ROOT
HETATM    1  C   UNL     1     -12.670  13.881  70.560  1.00  0.00    -0.318 C  
HETATM    2  C   UNL     1     -11.895  13.886  69.239  1.00  0.00    -0.348 C  
HETATM    3  C   UNL     1     -10.695  14.839  69.329  1.00  0.00    -0.263 C  
ENDROOT
BRANCH   2   4
HETATM    4  N   UNL     1     -11.438  12.547  68.858  1.00  0.00    -0.285 NA 
HETATM    5  N   UNL     1     -11.302  11.626  69.846  1.00  0.00    -0.204 NA 
HETATM    6  C   UNL     1     -10.582  10.661  69.287  1.00  0.00    -0.233 A  
HETATM    7  C   UNL     1     -10.305  10.921  67.936  1.00  0.00    -0.216 A  
HETATM    8  C   UNL     1     -10.953  12.109  67.633  1.00  0.00    -0.243 A  
BRANCH   8   9
HETATM    9  C   UNL     1     -11.229  12.748  66.341  1.00  0.00    -0.299 A  
HETATM   10  C   UNL     1     -10.459  13.737  65.717  1.00  0.00    -0.303 A  
HETATM   11  C   UNL     1     -12.602  12.554  64.468  1.00  0.00    -0.421 A  
HETATM   12  C   UNL     1     -10.842  14.131  64.418  1.00  0.00    -0.218 A  
HETATM   13  N   UNL     1     -12.286  12.157  65.718  1.00  0.00    -0.532 NA 
HETATM   14  C   UNL     1     -11.915  13.528  63.779  1.00  0.00    -0.475 A  
BRANCH  10  15
HETATM   15  C   UNL     1      -9.279  14.453  66.319  1.00  0.00    -0.170 C  
BRANCH  15  16
HETATM   16  O   UNL     1      -9.316  15.812  65.905  1.00  0.00    -0.333 OA 
BRANCH  16  17
HETATM   17  C   UNL     1      -9.024  16.805  66.797  1.00  0.00    -0.240 A  
HETATM   18  C   UNL     1      -8.091  16.678  67.835  1.00  0.00    -0.177 A  
HETATM   19  C   UNL     1      -7.777  17.766  68.655  1.00  0.00    -0.283 A  
HETATM   20  C   UNL     1      -8.409  18.991  68.471  1.00  0.00    -0.387 A  
HETATM   21  C   UNL     1      -9.362  19.126  67.463  1.00  0.00    -0.303 A  
HETATM   22  O   UNL     1     -10.001  20.327  67.310  1.00  0.00    -0.415 OA 
HETATM   23  C   UNL     1      -9.669  18.046  66.617  1.00  0.00    -0.332 A  
HETATM   24  C   UNL     1     -10.677  18.271  65.542  1.00  0.00     0.077 C  
HETATM   25  H   UNL     1     -10.650  20.420  66.623  1.00  0.00     0.000 HD 
HETATM   26  O   UNL     1     -11.131  17.401  64.809  1.00  0.00    -0.973 OA 
ENDBRANCH  16  17
ENDBRANCH  15  16
ENDBRANCH  10  15
ENDBRANCH   8   9
ENDBRANCH   2   4
TORSDOF 5
ENDMDL
MODEL       69
REMARK 921   NORMALIZED FREE ENERGY PREDICTED BY IDOCK:   -6.09 KCAL/MOL
REMARK 922        TOTAL FREE ENERGY PREDICTED BY IDOCK:   -9.08 KCAL/MOL
REMARK 923 INTER-LIGAND FREE ENERGY PREDICTED BY IDOCK:   -7.83 KCAL/MOL
REMARK 924 INTRA-LIGAND FREE ENERGY PREDICTED BY IDOCK:   -1.25 KCAL/MOL
REMARK 927      BINDING AFFINITY PREDICTED BY RF-SCORE:    0.00 PKD
ROOT
HETATM    1  C   UNL     1      -7.618   7.470  72.136  1.00  0.00    -0.086 C  
HETATM    2  C   UNL     1      -8.426   8.102  70.999  1.00  0.00    -0.132 C  
HETATM    3  C   UNL     1      -7.516   8.399  69.800  1.00  0.00    -0.072 C  
ENDROOT
BRANCH   2   4
HETATM    4  N   UNL     1      -9.544   7.255  70.576  1.00  0.00    -0.169 NA 
HETATM    5  N   UNL     1      -9.280   5.948  70.321  1.00  0.00    -0.152 NA 
HETATM    6  C   UNL     1     -10.352   5.528  69.660  1.00  0.00    -0.289 A  
HETATM    7  C   UNL     1     -11.327   6.530  69.540  1.00  0.00    -0.419 A  
HETATM    8  C   UNL     1     -10.835   7.629  70.229  1.00  0.00    -0.246 A  
BRANCH   8   9
HETATM    9  C   UNL     1     -11.497   8.868  70.654  1.00  0.00    -0.242 A  
HETATM   10  C   UNL     1     -11.370  10.129  70.059  1.00  0.00    -0.351 A  
HETATM   11  C   UNL     1     -13.168   9.645  72.080  1.00  0.00    -0.453 A  
HETATM   12  C   UNL     1     -12.188  11.165  70.558  1.00  0.00    -0.475 A  
HETATM   13  N   UNL     1     -12.393   8.628  71.650  1.00  0.00    -0.317 NA 
HETATM   14  C   UNL     1     -13.106  10.922  71.568  1.00  0.00    -0.503 A  
BRANCH  10  15
HETATM   15  C   UNL     1     -10.410  10.498  68.960  1.00  0.00    -0.213 C  
BRANCH  15  16
HETATM   16  O   UNL     1     -11.122  10.530  67.730  1.00  0.00    -0.290 OA 
BRANCH  16  17
HETATM   17  C   UNL     1     -11.171  11.684  67.000  1.00  0.00    -0.314 A  
HETATM   18  C   UNL     1     -11.768  12.870  67.447  1.00  0.00    -0.428 A  
HETATM   19  C   UNL     1     -11.702  14.040  66.683  1.00  0.00    -0.420 A  
HETATM   20  C   UNL     1     -11.064  14.037  65.447  1.00  0.00    -0.318 A  
HETATM   21  C   UNL     1     -10.491  12.858  64.973  1.00  0.00    -0.318 A  
HETATM   22  O   UNL     1      -9.893  12.858  63.742  1.00  0.00    -0.700 OA 
HETATM   23  C   UNL     1     -10.530  11.682  65.743  1.00  0.00    -0.308 A  
HETATM   24  C   UNL     1      -9.873  10.466  65.187  1.00  0.00    -0.313 C  
HETATM   25  H   UNL     1      -9.503  12.055  63.419  1.00  0.00     0.000 HD 
HETATM   26  O   UNL     1      -9.926   9.347  65.683  1.00  0.00    -0.304 OA 
ENDBRANCH  16  17
ENDBRANCH  15  16
ENDBRANCH  10  15
ENDBRANCH   8   9
ENDBRANCH   2   4
TORSDOF 5
ENDMDL
MODEL       70
REMARK 921   NORMALIZED FREE ENERGY PREDICTED BY IDOCK:   -6.08 KCAL/MOL
REMARK 922        TOTAL FREE ENERGY PREDICTED BY IDOCK:   -9.07 KCAL/MOL
REMARK 923 INTER-LIGAND FREE ENERGY PREDICTED BY IDOCK:   -7.90 KCAL/MOL
REMARK 924 INTRA-LIGAND FREE ENERGY PREDICTED BY IDOCK:   -1.17 KCAL/MOL
REMARK 927      BINDING AFFINITY PREDICTED BY RF-SCORE:    0.00 PKD
ROOT
HETATM    1  C   UNL     1     -11.137  16.420  69.852  1.00  0.00    -0.313 C  
HETATM    2  C   UNL     1     -10.565  16.799  68.484  1.00  0.00    -0.354 C  
HETATM    3  C   UNL     1     -10.262  18.302  68.430  1.00  0.00    -0.402 C  
ENDROOT
BRANCH   2   4
HETATM    4  N   UNL     1      -9.358  16.037  68.156  1.00  0.00    -0.198 NA 
HETATM    5  N   UNL     1      -8.201  16.402  68.765  1.00  0.00    -0.223 NA 
HETATM    6  C   UNL     1      -7.260  15.793  68.054  1.00  0.00    -0.130 A  
HETATM    7  C   UNL     1      -7.798  14.993  67.035  1.00  0.00    -0.164 A  
HETATM    8  C   UNL     1      -9.176  15.077  67.169  1.00  0.00    -0.216 A  
BRANCH   8   9
HETATM    9  C   UNL     1     -10.249  14.282  66.559  1.00  0.00    -0.276 A  
HETATM   10  C   UNL     1     -10.748  13.059  67.021  1.00  0.00    -0.270 A  
HETATM   11  C   UNL     1     -11.907  14.408  64.927  1.00  0.00    -0.417 A  
HETATM   12  C   UNL     1     -11.864  12.520  66.348  1.00  0.00    -0.445 A  
HETATM   13  N   UNL     1     -10.828  14.954  65.526  1.00  0.00    -0.335 NA 
HETATM   14  C   UNL     1     -12.461  13.204  65.299  1.00  0.00    -0.550 A  
BRANCH  10  15
HETATM   15  C   UNL     1     -10.178  12.238  68.147  1.00  0.00    -0.212 C  
BRANCH  15  16
HETATM   16  O   UNL     1     -11.097  12.259  69.231  1.00  0.00    -0.225 OA 
BRANCH  16  17
HETATM   17  C   UNL     1     -11.457  11.092  69.844  1.00  0.00    -0.320 A  
HETATM   18  C   UNL     1     -10.930   9.836  69.511  1.00  0.00    -0.256 A  
HETATM   19  C   UNL     1     -11.278   8.695  70.241  1.00  0.00    -0.196 A  
HETATM   20  C   UNL     1     -12.178   8.783  71.297  1.00  0.00    -0.332 A  
HETATM   21  C   UNL     1     -12.735  10.019  71.622  1.00  0.00    -0.435 A  
HETATM   22  O   UNL     1     -13.644  10.089  72.643  1.00  0.00    -0.623 OA 
HETATM   23  C   UNL     1     -12.376  11.177  70.911  1.00  0.00    -0.500 A  
HETATM   24  C   UNL     1     -12.988  12.469  71.332  1.00  0.00    -0.251 C  
HETATM   25  H   UNL     1     -14.023  10.931  72.865  1.00  0.00     0.000 HD 
HETATM   26  O   UNL     1     -12.864  13.533  70.739  1.00  0.00    -0.261 OA 
ENDBRANCH  16  17
ENDBRANCH  15  16
ENDBRANCH  10  15
ENDBRANCH   8   9
ENDBRANCH   2   4
TORSDOF 5
ENDMDL
MODEL       71
REMARK 921   NORMALIZED FREE ENERGY PREDICTED BY IDOCK:   -6.07 KCAL/MOL
REMARK 922        TOTAL FREE ENERGY PREDICTED BY IDOCK:   -9.05 KCAL/MOL
REMARK 923 INTER-LIGAND FREE ENERGY PREDICTED BY IDOCK:   -7.88 KCAL/MOL
REMARK 924 INTRA-LIGAND FREE ENERGY PREDICTED BY IDOCK:   -1.17 KCAL/MOL
REMARK 927      BINDING AFFINITY PREDICTED BY RF-SCORE:    0.00 PKD
ROOT
HETATM    1  C   UNL     1     -10.020  10.108  64.904  1.00  0.00    -0.358 C  
HETATM    2  C   UNL     1     -10.103  11.577  64.480  1.00  0.00    -0.278 C  
HETATM    3  C   UNL     1     -10.584  11.686  63.027  1.00  0.00    -0.224 C  
ENDROOT
BRANCH   2   4
HETATM    4  N   UNL     1     -10.980  12.359  65.354  1.00  0.00    -0.290 NA 
HETATM    5  N   UNL     1     -12.209  12.686  64.879  1.00  0.00    -0.449 NA 
HETATM    6  C   UNL     1     -12.629  13.637  65.705  1.00  0.00    -0.461 A  
HETATM    7  C   UNL     1     -11.713  13.884  66.739  1.00  0.00    -0.423 A  
HETATM    8  C   UNL     1     -10.681  12.974  66.563  1.00  0.00    -0.278 A  
BRANCH   8   9
HETATM    9  C   UNL     1      -9.579  12.590  67.453  1.00  0.00    -0.192 A  
HETATM   10  C   UNL     1      -9.535  11.472  68.293  1.00  0.00    -0.189 A  
HETATM   11  C   UNL     1      -7.358  13.110  67.932  1.00  0.00    -0.131 A  
HETATM   12  C   UNL     1      -8.327  11.226  68.980  1.00  0.00    -0.014 A  
HETATM   13  N   UNL     1      -8.498  13.397  67.269  1.00  0.00    -0.202 NA 
HETATM   14  C   UNL     1      -7.222  12.042  68.791  1.00  0.00    -0.108 A  
BRANCH  10  15
HETATM   15  C   UNL     1     -10.672  10.524  68.567  1.00  0.00    -0.224 C  
BRANCH  15  16
HETATM   16  O   UNL     1     -10.892  10.476  69.971  1.00  0.00    -0.279 OA 
BRANCH  16  17
HETATM   17  C   UNL     1     -11.494   9.385  70.530  1.00  0.00    -0.262 A  
HETATM   18  C   UNL     1     -11.130   8.060  70.253  1.00  0.00    -0.224 A  
HETATM   19  C   UNL     1     -11.730   6.994  70.931  1.00  0.00    -0.387 A  
HETATM   20  C   UNL     1     -12.723   7.230  71.875  1.00  0.00    -0.312 A  
HETATM   21  C   UNL     1     -13.118   8.540  72.141  1.00  0.00    -0.358 A  
HETATM   22  O   UNL     1     -14.119   8.760  73.049  1.00  0.00    -1.035 OA 
HETATM   23  C   UNL     1     -12.507   9.622  71.483  1.00  0.00    -0.476 A  
HETATM   24  C   UNL     1     -12.960  10.997  71.837  1.00  0.00    -0.380 C  
HETATM   25  H   UNL     1     -14.388   9.653  73.231  1.00  0.00     0.000 HD 
HETATM   26  O   UNL     1     -12.607  12.023  71.269  1.00  0.00    -0.347 OA 
ENDBRANCH  16  17
ENDBRANCH  15  16
ENDBRANCH  10  15
ENDBRANCH   8   9
ENDBRANCH   2   4
TORSDOF 5
ENDMDL
MODEL       72
REMARK 921   NORMALIZED FREE ENERGY PREDICTED BY IDOCK:   -6.06 KCAL/MOL
REMARK 922        TOTAL FREE ENERGY PREDICTED BY IDOCK:   -9.05 KCAL/MOL
REMARK 923 INTER-LIGAND FREE ENERGY PREDICTED BY IDOCK:   -7.61 KCAL/MOL
REMARK 924 INTRA-LIGAND FREE ENERGY PREDICTED BY IDOCK:   -1.44 KCAL/MOL
REMARK 927      BINDING AFFINITY PREDICTED BY RF-SCORE:    0.00 PKD
ROOT
HETATM    1  C   UNL     1      -9.787  10.710  69.976  1.00  0.00     0.334 C  
HETATM    2  C   UNL     1     -10.847  11.545  69.251  1.00  0.00    -0.167 C  
HETATM    3  C   UNL     1     -11.729  10.643  68.377  1.00  0.00    -0.168 C  
ENDROOT
BRANCH   2   4
HETATM    4  N   UNL     1     -11.683  12.309  70.179  1.00  0.00    -0.257 NA 
HETATM    5  N   UNL     1     -12.309  11.623  71.170  1.00  0.00    -0.299 NA 
HETATM    6  C   UNL     1     -13.221  12.476  71.622  1.00  0.00    -0.284 A  
HETATM    7  C   UNL     1     -13.150  13.719  70.977  1.00  0.00    -0.276 A  
HETATM    8  C   UNL     1     -12.075  13.639  70.104  1.00  0.00    -0.361 A  
BRANCH   8   9
HETATM    9  C   UNL     1     -11.371  14.684  69.352  1.00  0.00    -0.284 A  
HETATM   10  C   UNL     1     -11.429  14.901  67.970  1.00  0.00    -0.355 A  
HETATM   11  C   UNL     1     -10.127  16.629  69.664  1.00  0.00    -0.068 A  
HETATM   12  C   UNL     1     -10.763  16.037  67.465  1.00  0.00    -0.314 A  
HETATM   13  N   UNL     1     -10.732  15.544  70.191  1.00  0.00    -0.313 NA 
HETATM   14  C   UNL     1     -10.116  16.919  68.318  1.00  0.00    -0.302 A  
BRANCH  10  15
HETATM   15  C   UNL     1     -12.102  14.010  66.960  1.00  0.00    -0.420 C  
BRANCH  15  16
HETATM   16  O   UNL     1     -11.354  14.050  65.752  1.00  0.00    -0.304 OA 
BRANCH  16  17
HETATM   17  C   UNL     1     -10.634  12.957  65.359  1.00  0.00    -0.289 A  
HETATM   18  C   UNL     1      -9.630  12.360  66.133  1.00  0.00    -0.238 A  
HETATM   19  C   UNL     1      -8.995  11.189  65.705  1.00  0.00    -0.207 A  
HETATM   20  C   UNL     1      -9.333  10.611  64.486  1.00  0.00    -0.284 A  
HETATM   21  C   UNL     1     -10.309  11.209  63.690  1.00  0.00    -0.389 A  
HETATM   22  O   UNL     1     -10.611  10.650  62.478  1.00  0.00    -0.660 OA 
HETATM   23  C   UNL     1     -10.970  12.373  64.119  1.00  0.00    -0.416 A  
HETATM   24  C   UNL     1     -12.022  12.942  63.231  1.00  0.00    -0.440 C  
HETATM   25  H   UNL     1     -11.276  11.057  61.935  1.00  0.00     0.000 HD 
HETATM   26  O   UNL     1     -12.597  14.008  63.413  1.00  0.00    -0.845 OA 
ENDBRANCH  16  17
ENDBRANCH  15  16
ENDBRANCH  10  15
ENDBRANCH   8   9
ENDBRANCH   2   4
TORSDOF 5
ENDMDL
MODEL       73
REMARK 921   NORMALIZED FREE ENERGY PREDICTED BY IDOCK:   -6.04 KCAL/MOL
REMARK 922        TOTAL FREE ENERGY PREDICTED BY IDOCK:   -9.01 KCAL/MOL
REMARK 923 INTER-LIGAND FREE ENERGY PREDICTED BY IDOCK:   -7.84 KCAL/MOL
REMARK 924 INTRA-LIGAND FREE ENERGY PREDICTED BY IDOCK:   -1.17 KCAL/MOL
REMARK 927      BINDING AFFINITY PREDICTED BY RF-SCORE:    0.00 PKD
ROOT
HETATM    1  C   UNL     1      -9.487  10.710  63.841  1.00  0.00    -0.325 C  
HETATM    2  C   UNL     1      -9.670  10.569  65.354  1.00  0.00    -0.257 C  
HETATM    3  C   UNL     1      -9.736   9.087  65.747  1.00  0.00    -0.254 C  
ENDROOT
BRANCH   2   4
HETATM    4  N   UNL     1      -8.605  11.235  66.107  1.00  0.00    -0.175 NA 
HETATM    5  N   UNL     1      -7.331  10.811  65.902  1.00  0.00    -0.129 NA 
HETATM    6  C   UNL     1      -6.653  11.331  66.917  1.00  0.00    -0.130 A  
HETATM    7  C   UNL     1      -7.460  12.132  67.739  1.00  0.00    -0.122 A  
HETATM    8  C   UNL     1      -8.714  12.148  67.148  1.00  0.00    -0.190 A  
BRANCH   8   9
HETATM    9  C   UNL     1      -9.885  12.994  67.406  1.00  0.00    -0.215 A  
HETATM   10  C   UNL     1     -11.077  12.604  68.027  1.00  0.00    -0.288 A  
HETATM   11  C   UNL     1     -10.567  15.223  67.367  1.00  0.00    -0.282 A  
HETATM   12  C   UNL     1     -12.033  13.610  68.281  1.00  0.00    -0.385 A  
HETATM   13  N   UNL     1      -9.630  14.293  67.086  1.00  0.00    -0.238 NA 
HETATM   14  C   UNL     1     -11.775  14.934  67.962  1.00  0.00    -0.344 A  
BRANCH  10  15
HETATM   15  C   UNL     1     -11.456  11.200  68.414  1.00  0.00    -0.306 C  
BRANCH  15  16
HETATM   16  O   UNL     1     -11.239  11.042  69.810  1.00  0.00    -0.258 OA 
BRANCH  16  17
HETATM   17  C   UNL     1     -11.619   9.886  70.433  1.00  0.00    -0.282 A  
HETATM   18  C   UNL     1     -11.118   8.618  70.108  1.00  0.00    -0.199 A  
HETATM   19  C   UNL     1     -11.485   7.490  70.847  1.00  0.00    -0.303 A  
HETATM   20  C   UNL     1     -12.380   7.603  71.906  1.00  0.00    -0.337 A  
HETATM   21  C   UNL     1     -12.912   8.852  72.223  1.00  0.00    -0.419 A  
HETATM   22  O   UNL     1     -13.816   8.948  73.247  1.00  0.00    -1.163 OA 
HETATM   23  C   UNL     1     -12.533   9.998  71.502  1.00  0.00    -0.516 A  
HETATM   24  C   UNL     1     -13.119  11.304  71.914  1.00  0.00    -0.405 C  
HETATM   25  H   UNL     1     -14.178   9.799  73.463  1.00  0.00     0.000 HD 
HETATM   26  O   UNL     1     -12.976  12.361  71.313  1.00  0.00    -0.319 OA 
ENDBRANCH  16  17
ENDBRANCH  15  16
ENDBRANCH  10  15
ENDBRANCH   8   9
ENDBRANCH   2   4
TORSDOF 5
ENDMDL
MODEL       74
REMARK 921   NORMALIZED FREE ENERGY PREDICTED BY IDOCK:   -6.01 KCAL/MOL
REMARK 922        TOTAL FREE ENERGY PREDICTED BY IDOCK:   -8.98 KCAL/MOL
REMARK 923 INTER-LIGAND FREE ENERGY PREDICTED BY IDOCK:   -7.59 KCAL/MOL
REMARK 924 INTRA-LIGAND FREE ENERGY PREDICTED BY IDOCK:   -1.39 KCAL/MOL
REMARK 927      BINDING AFFINITY PREDICTED BY RF-SCORE:    0.00 PKD
ROOT
HETATM    1  C   UNL     1      -8.255   9.579  67.097  1.00  0.00    -0.113 C  
HETATM    2  C   UNL     1      -9.780   9.593  66.956  1.00  0.00    -0.181 C  
HETATM    3  C   UNL     1     -10.328   8.160  66.953  1.00  0.00    -0.401 C  
ENDROOT
BRANCH   2   4
HETATM    4  N   UNL     1     -10.429  10.371  68.014  1.00  0.00    -0.182 NA 
HETATM    5  N   UNL     1     -10.381   9.875  69.277  1.00  0.00    -0.205 NA 
HETATM    6  C   UNL     1     -11.298  10.577  69.931  1.00  0.00    -0.309 A  
HETATM    7  C   UNL     1     -11.892  11.558  69.123  1.00  0.00    -0.406 A  
HETATM    8  C   UNL     1     -11.248  11.486  67.897  1.00  0.00    -0.279 A  
BRANCH   8   9
HETATM    9  C   UNL     1     -11.263  12.403  66.751  1.00  0.00    -0.310 A  
HETATM   10  C   UNL     1     -10.229  13.258  66.352  1.00  0.00    -0.292 A  
HETATM   11  C   UNL     1     -12.503  12.920  64.847  1.00  0.00    -0.478 A  
HETATM   12  C   UNL     1     -10.408  13.973  65.148  1.00  0.00    -0.422 A  
HETATM   13  N   UNL     1     -12.386  12.231  66.001  1.00  0.00    -0.494 NA 
HETATM   14  C   UNL     1     -11.549  13.795  64.379  1.00  0.00    -0.418 A  
BRANCH  10  15
HETATM   15  C   UNL     1      -8.955  13.522  67.109  1.00  0.00    -0.227 C  
BRANCH  15  16
HETATM   16  O   UNL     1      -9.223  14.480  68.125  1.00  0.00    -0.183 OA 
BRANCH  16  17
HETATM   17  C   UNL     1      -8.957  15.802  67.904  1.00  0.00    -0.180 A  
HETATM   18  C   UNL     1      -8.041  16.269  66.951  1.00  0.00    -0.270 A  
HETATM   19  C   UNL     1      -7.884  17.639  66.717  1.00  0.00    -0.265 A  
HETATM   20  C   UNL     1      -8.619  18.566  67.449  1.00  0.00    -0.266 A  
HETATM   21  C   UNL     1      -9.512  18.119  68.421  1.00  0.00    -0.318 A  
HETATM   22  O   UNL     1     -10.207  19.040  69.158  1.00  0.00    -0.537 OA 
HETATM   23  C   UNL     1      -9.695  16.744  68.650  1.00  0.00    -0.259 A  
HETATM   24  C   UNL     1     -10.687  16.338  69.685  1.00  0.00    -0.338 C  
HETATM   25  H   UNL     1     -10.815  18.736  69.821  1.00  0.00     0.000 HD 
HETATM   26  O   UNL     1     -10.869  15.191  70.075  1.00  0.00    -0.253 OA 
ENDBRANCH  16  17
ENDBRANCH  15  16
ENDBRANCH  10  15
ENDBRANCH   8   9
ENDBRANCH   2   4
TORSDOF 5
ENDMDL
MODEL       75
REMARK 921   NORMALIZED FREE ENERGY PREDICTED BY IDOCK:   -6.00 KCAL/MOL
REMARK 922        TOTAL FREE ENERGY PREDICTED BY IDOCK:   -8.96 KCAL/MOL
REMARK 923 INTER-LIGAND FREE ENERGY PREDICTED BY IDOCK:   -7.66 KCAL/MOL
REMARK 924 INTRA-LIGAND FREE ENERGY PREDICTED BY IDOCK:   -1.30 KCAL/MOL
REMARK 927      BINDING AFFINITY PREDICTED BY RF-SCORE:    0.00 PKD
ROOT
HETATM    1  C   UNL     1      -9.949  10.008  65.538  1.00  0.00    -0.367 C  
HETATM    2  C   UNL     1      -9.634  11.264  64.720  1.00  0.00    -0.235 C  
HETATM    3  C   UNL     1      -9.043  10.879  63.358  1.00  0.00    -0.232 C  
ENDROOT
BRANCH   2   4
HETATM    4  N   UNL     1     -10.813  12.112  64.530  1.00  0.00    -0.295 NA 
HETATM    5  N   UNL     1     -11.725  11.720  63.603  1.00  0.00    -0.455 NA 
HETATM    6  C   UNL     1     -12.471  12.801  63.412  1.00  0.00    -0.339 A  
HETATM    7  C   UNL     1     -12.091  13.863  64.246  1.00  0.00    -0.477 A  
HETATM    8  C   UNL     1     -11.070  13.375  65.047  1.00  0.00    -0.319 A  
BRANCH   8   9
HETATM    9  C   UNL     1     -10.450  13.932  66.255  1.00  0.00    -0.287 A  
HETATM   10  C   UNL     1     -10.558  13.428  67.557  1.00  0.00    -0.255 A  
HETATM   11  C   UNL     1      -8.875  15.509  66.934  1.00  0.00    -0.255 A  
HETATM   12  C   UNL     1      -9.783  14.052  68.558  1.00  0.00    -0.215 A  
HETATM   13  N   UNL     1      -9.611  14.958  65.947  1.00  0.00    -0.323 NA 
HETATM   14  C   UNL     1      -8.923  15.094  68.246  1.00  0.00    -0.175 A  
BRANCH  10  15
HETATM   15  C   UNL     1     -11.456  12.305  68.002  1.00  0.00    -0.321 C  
BRANCH  15  16
HETATM   16  O   UNL     1     -10.705  11.423  68.824  1.00  0.00    -0.187 OA 
BRANCH  16  17
HETATM   17  C   UNL     1     -11.300  10.812  69.892  1.00  0.00    -0.311 A  
HETATM   18  C   UNL     1     -12.409  11.330  70.575  1.00  0.00    -0.446 A  
HETATM   19  C   UNL     1     -13.021  10.606  71.603  1.00  0.00    -0.582 A  
HETATM   20  C   UNL     1     -12.522   9.366  71.984  1.00  0.00    -0.440 A  
HETATM   21  C   UNL     1     -11.402   8.849  71.335  1.00  0.00    -0.309 A  
HETATM   22  O   UNL     1     -10.899   7.641  71.739  1.00  0.00    -0.224 OA 
HETATM   23  C   UNL     1     -10.790   9.556  70.285  1.00  0.00    -0.319 A  
HETATM   24  C   UNL     1      -9.614   8.931  69.618  1.00  0.00    -0.169 C  
HETATM   25  H   UNL     1     -10.136   7.289  71.297  1.00  0.00     0.000 HD 
HETATM   26  O   UNL     1      -8.911   9.474  68.775  1.00  0.00    -0.129 OA 
ENDBRANCH  16  17
ENDBRANCH  15  16
ENDBRANCH  10  15
ENDBRANCH   8   9
ENDBRANCH   2   4
TORSDOF 5
ENDMDL
MODEL       76
REMARK 921   NORMALIZED FREE ENERGY PREDICTED BY IDOCK:   -5.97 KCAL/MOL
REMARK 922        TOTAL FREE ENERGY PREDICTED BY IDOCK:   -8.93 KCAL/MOL
REMARK 923 INTER-LIGAND FREE ENERGY PREDICTED BY IDOCK:   -7.72 KCAL/MOL
REMARK 924 INTRA-LIGAND FREE ENERGY PREDICTED BY IDOCK:   -1.22 KCAL/MOL
REMARK 927      BINDING AFFINITY PREDICTED BY RF-SCORE:    0.00 PKD
ROOT
HETATM    1  C   UNL     1      -7.250  12.195  68.930  1.00  0.00    -0.079 C  
HETATM    2  C   UNL     1      -7.059  10.685  68.763  1.00  0.00    -0.076 C  
HETATM    3  C   UNL     1      -5.879  10.199  69.616  1.00  0.00    -0.042 C  
ENDROOT
BRANCH   2   4
HETATM    4  N   UNL     1      -8.265   9.930  69.108  1.00  0.00    -0.118 NA 
HETATM    5  N   UNL     1      -8.491   9.672  70.421  1.00  0.00    -0.188 NA 
HETATM    6  C   UNL     1      -9.423   8.727  70.407  1.00  0.00    -0.179 A  
HETATM    7  C   UNL     1      -9.844   8.418  69.105  1.00  0.00    -0.183 A  
HETATM    8  C   UNL     1      -9.156   9.279  68.264  1.00  0.00    -0.128 A  
BRANCH   8   9
HETATM    9  C   UNL     1      -9.352   9.592  66.843  1.00  0.00    -0.146 A  
HETATM   10  C   UNL     1     -10.208  10.565  66.313  1.00  0.00    -0.296 A  
HETATM   11  C   UNL     1      -8.449   9.158  64.740  1.00  0.00    -0.178 A  
HETATM   12  C   UNL     1     -10.157  10.781  64.920  1.00  0.00    -0.387 A  
HETATM   13  N   UNL     1      -8.476   8.901  66.064  1.00  0.00    -0.123 NA 
HETATM   14  C   UNL     1      -9.261  10.083  64.124  1.00  0.00    -0.319 A  
BRANCH  10  15
HETATM   15  C   UNL     1     -11.213  11.377  67.085  1.00  0.00    -0.296 C  
BRANCH  15  16
HETATM   16  O   UNL     1     -11.861  12.267  66.187  1.00  0.00    -0.507 OA 
BRANCH  16  17
HETATM   17  C   UNL     1     -11.521  13.591  66.174  1.00  0.00    -0.325 A  
HETATM   18  C   UNL     1     -10.914  14.255  67.248  1.00  0.00    -0.302 A  
HETATM   19  C   UNL     1     -10.512  15.590  67.132  1.00  0.00    -0.286 A  
HETATM   20  C   UNL     1     -10.734  16.291  65.951  1.00  0.00    -0.235 A  
HETATM   21  C   UNL     1     -11.364  15.654  64.884  1.00  0.00    -0.315 A  
HETATM   22  O   UNL     1     -11.607  16.362  63.738  1.00  0.00    -1.605 OA 
HETATM   23  C   UNL     1     -11.753  14.306  64.980  1.00  0.00    -0.383 A  
HETATM   24  C   UNL     1     -12.395  13.681  63.790  1.00  0.00    -0.296 C  
HETATM   25  H   UNL     1     -12.036  15.928  63.010  1.00  0.00     0.000 HD 
HETATM   26  O   UNL     1     -12.889  12.561  63.763  1.00  0.00    -0.721 OA 
ENDBRANCH  16  17
ENDBRANCH  15  16
ENDBRANCH  10  15
ENDBRANCH   8   9
ENDBRANCH   2   4
TORSDOF 5
ENDMDL
MODEL       77
REMARK 921   NORMALIZED FREE ENERGY PREDICTED BY IDOCK:   -5.97 KCAL/MOL
REMARK 922        TOTAL FREE ENERGY PREDICTED BY IDOCK:   -8.93 KCAL/MOL
REMARK 923 INTER-LIGAND FREE ENERGY PREDICTED BY IDOCK:   -8.35 KCAL/MOL
REMARK 924 INTRA-LIGAND FREE ENERGY PREDICTED BY IDOCK:   -0.58 KCAL/MOL
REMARK 927      BINDING AFFINITY PREDICTED BY RF-SCORE:    0.00 PKD
ROOT
HETATM    1  C   UNL     1     -12.398  12.991  63.107  1.00  0.00    -0.235 C  
HETATM    2  C   UNL     1     -11.760  13.491  64.405  1.00  0.00    -0.407 C  
HETATM    3  C   UNL     1     -12.823  13.624  65.504  1.00  0.00    -0.443 C  
ENDROOT
BRANCH   2   4
HETATM    4  N   UNL     1     -10.677  12.619  64.864  1.00  0.00    -0.288 NA 
HETATM    5  N   UNL     1     -10.180  11.716  63.980  1.00  0.00    -0.312 NA 
HETATM    6  C   UNL     1      -9.486  10.876  64.736  1.00  0.00    -0.238 A  
HETATM    7  C   UNL     1      -9.479  11.259  66.086  1.00  0.00    -0.232 A  
HETATM    8  C   UNL     1     -10.175  12.456  66.149  1.00  0.00    -0.242 A  
BRANCH   8   9
HETATM    9  C   UNL     1     -10.289  13.443  67.229  1.00  0.00    -0.244 A  
HETATM   10  C   UNL     1     -10.927  13.263  68.462  1.00  0.00    -0.291 A  
HETATM   11  C   UNL     1      -9.468  15.521  67.893  1.00  0.00    -0.201 A  
HETATM   12  C   UNL     1     -10.818  14.306  69.405  1.00  0.00    -0.197 A  
HETATM   13  N   UNL     1      -9.561  14.559  66.950  1.00  0.00    -0.240 NA 
HETATM   14  C   UNL     1     -10.072  15.441  69.127  1.00  0.00    -0.235 A  
BRANCH  10  15
HETATM   15  C   UNL     1     -11.757  12.073  68.864  1.00  0.00    -0.326 C  
BRANCH  15  16
HETATM   16  O   UNL     1     -11.366  11.669  70.169  1.00  0.00    -0.187 OA 
BRANCH  16  17
HETATM   17  C   UNL     1     -11.749  10.449  70.650  1.00  0.00    -0.351 A  
HETATM   18  C   UNL     1     -11.192   9.231  70.234  1.00  0.00    -0.267 A  
HETATM   19  C   UNL     1     -11.572   8.026  70.834  1.00  0.00    -0.284 A  
HETATM   20  C   UNL     1     -12.533   8.013  71.839  1.00  0.00    -0.364 A  
HETATM   21  C   UNL     1     -13.119   9.212  72.243  1.00  0.00    -0.438 A  
HETATM   22  O   UNL     1     -14.087   9.184  73.211  1.00  0.00    -1.165 OA 
HETATM   23  C   UNL     1     -12.730  10.432  71.664  1.00  0.00    -0.560 A  
HETATM   24  C   UNL     1     -13.378  11.677  72.164  1.00  0.00    -0.205 C  
HETATM   25  H   UNL     1     -14.487  10.000  73.486  1.00  0.00     0.000 HD 
HETATM   26  O   UNL     1     -13.230  12.792  71.680  1.00  0.00    -0.397 OA 
ENDBRANCH  16  17
ENDBRANCH  15  16
ENDBRANCH  10  15
ENDBRANCH   8   9
ENDBRANCH   2   4
TORSDOF 5
ENDMDL
MODEL       78
REMARK 921   NORMALIZED FREE ENERGY PREDICTED BY IDOCK:   -5.96 KCAL/MOL
REMARK 922        TOTAL FREE ENERGY PREDICTED BY IDOCK:   -8.92 KCAL/MOL
REMARK 923 INTER-LIGAND FREE ENERGY PREDICTED BY IDOCK:   -7.71 KCAL/MOL
REMARK 924 INTRA-LIGAND FREE ENERGY PREDICTED BY IDOCK:   -1.21 KCAL/MOL
REMARK 927      BINDING AFFINITY PREDICTED BY RF-SCORE:    0.00 PKD
ROOT
HETATM    1  C   UNL     1     -10.461   7.066  66.990  1.00  0.00    -0.386 C  
HETATM    2  C   UNL     1     -10.553   8.570  67.266  1.00  0.00    -0.245 C  
HETATM    3  C   UNL     1     -10.551   8.834  68.778  1.00  0.00    -0.174 C  
ENDROOT
BRANCH   2   4
HETATM    4  N   UNL     1      -9.469   9.319  66.629  1.00  0.00    -0.177 NA 
HETATM    5  N   UNL     1      -8.262   8.706  66.519  1.00  0.00    -0.106 NA 
HETATM    6  C   UNL     1      -7.426   9.695  66.230  1.00  0.00    -0.098 A  
HETATM    7  C   UNL     1      -8.086  10.925  66.094  1.00  0.00    -0.160 A  
HETATM    8  C   UNL     1      -9.436  10.657  66.257  1.00  0.00    -0.177 A  
BRANCH   8   9
HETATM    9  C   UNL     1     -10.618  11.484  65.986  1.00  0.00    -0.261 A  
HETATM   10  C   UNL     1     -11.300  12.291  66.903  1.00  0.00    -0.392 A  
HETATM   11  C   UNL     1     -11.910  12.295  64.224  1.00  0.00    -0.403 A  
HETATM   12  C   UNL     1     -12.345  13.097  66.404  1.00  0.00    -0.300 A  
HETATM   13  N   UNL     1     -10.916  11.491  64.657  1.00  0.00    -0.310 NA 
HETATM   14  C   UNL     1     -12.647  13.112  65.051  1.00  0.00    -0.499 A  
BRANCH  10  15
HETATM   15  C   UNL     1     -11.052  12.352  68.387  1.00  0.00    -0.250 C  
BRANCH  15  16
HETATM   16  O   UNL     1     -11.516  13.604  68.872  1.00  0.00    -0.261 OA 
BRANCH  16  17
HETATM   17  C   UNL     1     -12.120  13.681  70.096  1.00  0.00    -0.361 A  
HETATM   18  C   UNL     1     -12.780  12.609  70.713  1.00  0.00    -0.213 A  
HETATM   19  C   UNL     1     -13.299  12.734  72.006  1.00  0.00    -0.565 A  
HETATM   20  C   UNL     1     -13.191  13.938  72.693  1.00  0.00    -0.592 A  
HETATM   21  C   UNL     1     -12.565  15.023  72.082  1.00  0.00    -0.330 A  
HETATM   22  O   UNL     1     -12.493  16.213  72.755  1.00  0.00    -0.453 OA 
HETATM   23  C   UNL     1     -12.019  14.904  70.792  1.00  0.00    -0.372 A  
HETATM   24  C   UNL     1     -11.339  16.095  70.211  1.00  0.00    -0.353 C  
HETATM   25  H   UNL     1     -12.066  16.953  72.339  1.00  0.00     0.000 HD 
HETATM   26  O   UNL     1     -10.923  16.179  69.063  1.00  0.00    -0.271 OA 
ENDBRANCH  16  17
ENDBRANCH  15  16
ENDBRANCH  10  15
ENDBRANCH   8   9
ENDBRANCH   2   4
TORSDOF 5
ENDMDL
MODEL       79
REMARK 921   NORMALIZED FREE ENERGY PREDICTED BY IDOCK:   -5.95 KCAL/MOL
REMARK 922        TOTAL FREE ENERGY PREDICTED BY IDOCK:   -8.91 KCAL/MOL
REMARK 923 INTER-LIGAND FREE ENERGY PREDICTED BY IDOCK:   -7.81 KCAL/MOL
REMARK 924 INTRA-LIGAND FREE ENERGY PREDICTED BY IDOCK:   -1.09 KCAL/MOL
REMARK 927      BINDING AFFINITY PREDICTED BY RF-SCORE:    0.00 PKD
ROOT
HETATM    1  C   UNL     1     -10.417  11.575  68.680  1.00  0.00    -0.224 C  
HETATM    2  C   UNL     1     -11.849  11.835  69.156  1.00  0.00    -0.326 C  
HETATM    3  C   UNL     1     -12.296  10.734  70.127  1.00  0.00    -0.401 C  
ENDROOT
BRANCH   2   4
HETATM    4  N   UNL     1     -11.994  13.146  69.792  1.00  0.00    -0.323 NA 
HETATM    5  N   UNL     1     -12.303  13.173  71.114  1.00  0.00    -0.288 NA 
HETATM    6  C   UNL     1     -12.690  14.424  71.327  1.00  0.00    -0.344 A  
HETATM    7  C   UNL     1     -12.576  15.218  70.177  1.00  0.00    -0.334 A  
HETATM    8  C   UNL     1     -12.025  14.402  69.200  1.00  0.00    -0.322 A  
BRANCH   8   9
HETATM    9  C   UNL     1     -11.456  14.728  67.887  1.00  0.00    -0.342 A  
HETATM   10  C   UNL     1     -10.205  15.305  67.639  1.00  0.00    -0.242 A  
HETATM   11  C   UNL     1     -11.815  14.387  65.610  1.00  0.00    -0.355 A  
HETATM   12  C   UNL     1      -9.805  15.427  66.291  1.00  0.00    -0.320 A  
HETATM   13  N   UNL     1     -12.250  14.267  66.882  1.00  0.00    -0.411 NA 
HETATM   14  C   UNL     1     -10.608  14.953  65.265  1.00  0.00    -0.421 A  
BRANCH  10  15
HETATM   15  C   UNL     1      -9.259  15.849  68.675  1.00  0.00    -0.209 C  
BRANCH  15  16
HETATM   16  O   UNL     1      -9.291  17.269  68.616  1.00  0.00    -0.261 OA 
BRANCH  16  17
HETATM   17  C   UNL     1      -8.185  17.960  68.210  1.00  0.00    -0.290 A  
HETATM   18  C   UNL     1      -6.871  17.608  68.550  1.00  0.00    -0.223 A  
HETATM   19  C   UNL     1      -5.781  18.310  68.024  1.00  0.00    -0.161 A  
HETATM   20  C   UNL     1      -5.985  19.391  67.173  1.00  0.00    -0.180 A  
HETATM   21  C   UNL     1      -7.286  19.773  66.849  1.00  0.00    -0.217 A  
HETATM   22  O   UNL     1      -7.476  20.858  66.036  1.00  0.00    -0.490 OA 
HETATM   23  C   UNL     1      -8.389  19.062  67.352  1.00  0.00    -0.299 A  
HETATM   24  C   UNL     1      -9.750  19.508  66.942  1.00  0.00    -0.356 C  
HETATM   25  H   UNL     1      -8.362  21.118  65.815  1.00  0.00     0.000 HD 
HETATM   26  O   UNL     1     -10.801  19.066  67.388  1.00  0.00    -0.473 OA 
ENDBRANCH  16  17
ENDBRANCH  15  16
ENDBRANCH  10  15
ENDBRANCH   8   9
ENDBRANCH   2   4
TORSDOF 5
ENDMDL
MODEL       80
REMARK 921   NORMALIZED FREE ENERGY PREDICTED BY IDOCK:   -5.94 KCAL/MOL
REMARK 922        TOTAL FREE ENERGY PREDICTED BY IDOCK:   -8.90 KCAL/MOL
REMARK 923 INTER-LIGAND FREE ENERGY PREDICTED BY IDOCK:   -7.47 KCAL/MOL
REMARK 924 INTRA-LIGAND FREE ENERGY PREDICTED BY IDOCK:   -1.43 KCAL/MOL
REMARK 927      BINDING AFFINITY PREDICTED BY RF-SCORE:    0.00 PKD
ROOT
HETATM    1  C   UNL     1      -7.523  11.180  69.177  1.00  0.00    -0.109 C  
HETATM    2  C   UNL     1      -8.609  11.373  68.115  1.00  0.00    -0.153 C  
HETATM    3  C   UNL     1      -8.085  12.249  66.969  1.00  0.00    -0.141 C  
ENDROOT
BRANCH   2   4
HETATM    4  N   UNL     1      -9.099  10.100  67.583  1.00  0.00    -0.137 NA 
HETATM    5  N   UNL     1      -8.676   9.732  66.346  1.00  0.00    -0.130 NA 
HETATM    6  C   UNL     1      -9.507   8.756  66.001  1.00  0.00    -0.233 A  
HETATM    7  C   UNL     1     -10.420   8.451  67.021  1.00  0.00    -0.375 A  
HETATM    8  C   UNL     1     -10.084   9.264  68.093  1.00  0.00    -0.187 A  
BRANCH   8   9
HETATM    9  C   UNL     1     -10.513   9.227  69.496  1.00  0.00    -0.220 A  
HETATM   10  C   UNL     1     -11.523   9.999  70.081  1.00  0.00    -0.344 A  
HETATM   11  C   UNL     1     -10.256   7.980  71.448  1.00  0.00    -0.196 A  
HETATM   12  C   UNL     1     -11.855   9.721  71.424  1.00  0.00    -0.488 A  
HETATM   13  N   UNL     1      -9.890   8.222  70.172  1.00  0.00    -0.183 NA 
HETATM   14  C   UNL     1     -11.227   8.694  72.114  1.00  0.00    -0.438 A  
BRANCH  10  15
HETATM   15  C   UNL     1     -12.266  11.132  69.424  1.00  0.00    -0.259 C  
BRANCH  15  16
HETATM   16  O   UNL     1     -12.554  12.115  70.409  1.00  0.00    -0.159 OA 
BRANCH  16  17
HETATM   17  C   UNL     1     -11.987  13.356  70.321  1.00  0.00    -0.308 A  
HETATM   18  C   UNL     1     -11.071  13.731  69.329  1.00  0.00    -0.253 A  
HETATM   19  C   UNL     1     -10.599  15.045  69.247  1.00  0.00    -0.249 A  
HETATM   20  C   UNL     1     -11.013  15.999  70.170  1.00  0.00    -0.369 A  
HETATM   21  C   UNL     1     -11.901  15.636  71.181  1.00  0.00    -0.408 A  
HETATM   22  O   UNL     1     -12.278  16.575  72.103  1.00  0.00    -0.574 OA 
HETATM   23  C   UNL     1     -12.400  14.324  71.261  1.00  0.00    -0.439 A  
HETATM   24  C   UNL     1     -13.368  14.013  72.350  1.00  0.00    -0.518 C  
HETATM   25  H   UNL     1     -12.883  16.328  72.792  1.00  0.00     0.000 HD 
HETATM   26  O   UNL     1     -13.794  12.896  72.616  1.00  0.00    -0.596 OA 
ENDBRANCH  16  17
ENDBRANCH  15  16
ENDBRANCH  10  15
ENDBRANCH   8   9
ENDBRANCH   2   4
TORSDOF 5
ENDMDL
MODEL       81
REMARK 921   NORMALIZED FREE ENERGY PREDICTED BY IDOCK:   -5.92 KCAL/MOL
REMARK 922        TOTAL FREE ENERGY PREDICTED BY IDOCK:   -8.86 KCAL/MOL
REMARK 923 INTER-LIGAND FREE ENERGY PREDICTED BY IDOCK:   -7.64 KCAL/MOL
REMARK 924 INTRA-LIGAND FREE ENERGY PREDICTED BY IDOCK:   -1.22 KCAL/MOL
REMARK 927      BINDING AFFINITY PREDICTED BY RF-SCORE:    0.00 PKD
ROOT
HETATM    1  C   UNL     1      -9.100   7.594  70.174  1.00  0.00    -0.150 C  
HETATM    2  C   UNL     1      -9.468   8.774  69.271  1.00  0.00    -0.161 C  
HETATM    3  C   UNL     1     -10.716   9.488  69.810  1.00  0.00    -0.259 C  
ENDROOT
BRANCH   2   4
HETATM    4  N   UNL     1      -8.369   9.732  69.133  1.00  0.00    -0.127 NA 
HETATM    5  N   UNL     1      -7.561   9.920  70.208  1.00  0.00    -0.176 NA 
HETATM    6  C   UNL     1      -6.902  11.036  69.921  1.00  0.00    -0.095 A  
HETATM    7  C   UNL     1      -7.230  11.535  68.652  1.00  0.00    -0.102 A  
HETATM    8  C   UNL     1      -8.115  10.622  68.098  1.00  0.00    -0.114 A  
BRANCH   8   9
HETATM    9  C   UNL     1      -8.607  10.477  66.723  1.00  0.00    -0.126 A  
HETATM   10  C   UNL     1      -9.865  10.857  66.241  1.00  0.00    -0.261 A  
HETATM   11  C   UNL     1      -7.876   9.958  64.572  1.00  0.00    -0.142 A  
HETATM   12  C   UNL     1     -10.091  10.734  64.854  1.00  0.00    -0.387 A  
HETATM   13  N   UNL     1      -7.620  10.039  65.894  1.00  0.00    -0.108 NA 
HETATM   14  C   UNL     1      -9.086  10.293  64.006  1.00  0.00    -0.283 A  
BRANCH  10  15
HETATM   15  C   UNL     1     -11.021  11.347  67.072  1.00  0.00    -0.292 C  
BRANCH  15  16
HETATM   16  O   UNL     1     -11.727  12.331  66.328  1.00  0.00    -0.426 OA 
BRANCH  16  17
HETATM   17  C   UNL     1     -11.291  13.626  66.322  1.00  0.00    -0.312 A  
HETATM   18  C   UNL     1     -10.607  14.227  67.387  1.00  0.00    -0.276 A  
HETATM   19  C   UNL     1     -10.111  15.531  67.277  1.00  0.00    -0.250 A  
HETATM   20  C   UNL     1     -10.314  16.264  66.113  1.00  0.00    -0.352 A  
HETATM   21  C   UNL     1     -11.019  15.692  65.056  1.00  0.00    -0.431 A  
HETATM   22  O   UNL     1     -11.240  16.433  63.927  1.00  0.00    -1.383 OA 
HETATM   23  C   UNL     1     -11.502  14.374  65.145  1.00  0.00    -0.362 A  
HETATM   24  C   UNL     1     -12.222  13.817  63.966  1.00  0.00    -0.380 C  
HETATM   25  H   UNL     1     -11.720  16.043  63.206  1.00  0.00     0.000 HD 
HETATM   26  O   UNL     1     -12.797  12.736  63.938  1.00  0.00    -0.687 OA 
ENDBRANCH  16  17
ENDBRANCH  15  16
ENDBRANCH  10  15
ENDBRANCH   8   9
ENDBRANCH   2   4
TORSDOF 5
ENDMDL
MODEL       82
REMARK 921   NORMALIZED FREE ENERGY PREDICTED BY IDOCK:   -5.92 KCAL/MOL
REMARK 922        TOTAL FREE ENERGY PREDICTED BY IDOCK:   -8.86 KCAL/MOL
REMARK 923 INTER-LIGAND FREE ENERGY PREDICTED BY IDOCK:   -7.88 KCAL/MOL
REMARK 924 INTRA-LIGAND FREE ENERGY PREDICTED BY IDOCK:   -0.98 KCAL/MOL
REMARK 927      BINDING AFFINITY PREDICTED BY RF-SCORE:    0.00 PKD
ROOT
HETATM    1  C   UNL     1      -9.175   6.582  72.483  1.00  0.00    -0.138 C  
HETATM    2  C   UNL     1     -10.027   5.389  72.042  1.00  0.00    -0.184 C  
HETATM    3  C   UNL     1     -11.206   5.192  73.004  1.00  0.00    -0.390 C  
ENDROOT
BRANCH   2   4
HETATM    4  N   UNL     1     -10.523   5.538  70.672  1.00  0.00    -0.266 NA 
HETATM    5  N   UNL     1     -10.015   4.705  69.727  1.00  0.00    -0.230 NA 
HETATM    6  C   UNL     1     -10.373   5.269  68.579  1.00  0.00    -0.112 A  
HETATM    7  C   UNL     1     -11.154   6.418  68.773  1.00  0.00    -0.404 A  
HETATM    8  C   UNL     1     -11.335   6.533  70.143  1.00  0.00    -0.402 A  
BRANCH   8   9
HETATM    9  C   UNL     1     -12.247   7.378  70.922  1.00  0.00    -0.231 A  
HETATM   10  C   UNL     1     -12.070   8.730  71.236  1.00  0.00    -0.344 A  
HETATM   11  C   UNL     1     -14.397   7.391  71.823  1.00  0.00    -0.436 A  
HETATM   12  C   UNL     1     -13.129   9.385  71.899  1.00  0.00    -0.505 A  
HETATM   13  N   UNL     1     -13.403   6.717  71.207  1.00  0.00    -0.129 NA 
HETATM   14  C   UNL     1     -14.310   8.716  72.185  1.00  0.00    -0.518 A  
BRANCH  10  15
HETATM   15  C   UNL     1     -10.834   9.547  70.971  1.00  0.00    -0.353 C  
BRANCH  15  16
HETATM   16  O   UNL     1     -11.231  10.831  70.509  1.00  0.00    -0.282 OA 
BRANCH  16  17
HETATM   17  C   UNL     1     -11.167  11.127  69.176  1.00  0.00    -0.264 A  
HETATM   18  C   UNL     1     -10.653  10.258  68.204  1.00  0.00    -0.258 A  
HETATM   19  C   UNL     1     -10.701  10.591  66.846  1.00  0.00    -0.281 A  
HETATM   20  C   UNL     1     -11.238  11.807  66.439  1.00  0.00    -0.382 A  
HETATM   21  C   UNL     1     -11.727  12.696  67.395  1.00  0.00    -0.369 A  
HETATM   22  O   UNL     1     -12.225  13.904  66.986  1.00  0.00    -0.421 OA 
HETATM   23  C   UNL     1     -11.705  12.363  68.761  1.00  0.00    -0.379 A  
HETATM   24  C   UNL     1     -12.270  13.349  69.725  1.00  0.00    -0.245 C  
HETATM   25  H   UNL     1     -12.558  14.509  67.638  1.00  0.00     0.000 HD 
HETATM   26  O   UNL     1     -12.215  13.252  70.945  1.00  0.00    -0.356 OA 
ENDBRANCH  16  17
ENDBRANCH  15  16
ENDBRANCH  10  15
ENDBRANCH   8   9
ENDBRANCH   2   4
TORSDOF 5
ENDMDL
MODEL       83
REMARK 921   NORMALIZED FREE ENERGY PREDICTED BY IDOCK:   -5.90 KCAL/MOL
REMARK 922        TOTAL FREE ENERGY PREDICTED BY IDOCK:   -8.84 KCAL/MOL
REMARK 923 INTER-LIGAND FREE ENERGY PREDICTED BY IDOCK:   -8.52 KCAL/MOL
REMARK 924 INTRA-LIGAND FREE ENERGY PREDICTED BY IDOCK:   -0.32 KCAL/MOL
REMARK 927      BINDING AFFINITY PREDICTED BY RF-SCORE:    0.00 PKD
ROOT
HETATM    1  C   UNL     1     -14.311  15.845  72.640  1.00  0.00    -0.102 C  
HETATM    2  C   UNL     1     -12.895  15.349  72.333  1.00  0.00    -0.383 C  
HETATM    3  C   UNL     1     -12.056  15.304  73.617  1.00  0.00    -0.624 C  
ENDROOT
BRANCH   2   4
HETATM    4  N   UNL     1     -12.895  14.032  71.693  1.00  0.00    -0.338 NA 
HETATM    5  N   UNL     1     -13.556  13.027  72.322  1.00  0.00    -0.573 NA 
HETATM    6  C   UNL     1     -13.118  11.929  71.720  1.00  0.00    -0.360 A  
HETATM    7  C   UNL     1     -12.231  12.216  70.673  1.00  0.00    -0.392 A  
HETATM    8  C   UNL     1     -12.165  13.599  70.593  1.00  0.00    -0.360 A  
BRANCH   8   9
HETATM    9  C   UNL     1     -11.604  14.474  69.557  1.00  0.00    -0.307 A  
HETATM   10  C   UNL     1     -11.624  14.253  68.175  1.00  0.00    -0.365 A  
HETATM   11  C   UNL     1     -10.716  16.608  69.260  1.00  0.00    -0.337 A  
HETATM   12  C   UNL     1     -11.129  15.282  67.347  1.00  0.00    -0.326 A  
HETATM   13  N   UNL     1     -11.160  15.645  70.093  1.00  0.00    -0.305 NA 
HETATM   14  C   UNL     1     -10.682  16.478  67.890  1.00  0.00    -0.337 A  
BRANCH  10  15
HETATM   15  C   UNL     1     -12.088  12.997  67.486  1.00  0.00    -0.224 C  
BRANCH  15  16
HETATM   16  O   UNL     1     -10.950  12.199  67.187  1.00  0.00    -0.243 OA 
BRANCH  16  17
HETATM   17  C   UNL     1     -10.681  11.852  65.893  1.00  0.00    -0.284 A  
HETATM   18  C   UNL     1     -10.956  12.669  64.788  1.00  0.00    -0.334 A  
HETATM   19  C   UNL     1     -10.572  12.286  63.499  1.00  0.00    -0.488 A  
HETATM   20  C   UNL     1      -9.932  11.069  63.288  1.00  0.00    -0.414 A  
HETATM   21  C   UNL     1      -9.679  10.230  64.372  1.00  0.00    -0.315 A  
HETATM   22  O   UNL     1      -9.078   9.021  64.150  1.00  0.00    -0.426 OA 
HETATM   23  C   UNL     1     -10.039  10.614  65.676  1.00  0.00    -0.335 A  
HETATM   24  C   UNL     1      -9.712   9.681  66.791  1.00  0.00    -0.197 C  
HETATM   25  H   UNL     1      -8.904   8.449  64.888  1.00  0.00     0.000 HD 
HETATM   26  O   UNL     1     -10.066   9.823  67.955  1.00  0.00    -0.157 OA 
ENDBRANCH  16  17
ENDBRANCH  15  16
ENDBRANCH  10  15
ENDBRANCH   8   9
ENDBRANCH   2   4
TORSDOF 5
ENDMDL
MODEL       84
REMARK 921   NORMALIZED FREE ENERGY PREDICTED BY IDOCK:   -5.90 KCAL/MOL
REMARK 922        TOTAL FREE ENERGY PREDICTED BY IDOCK:   -8.84 KCAL/MOL
REMARK 923 INTER-LIGAND FREE ENERGY PREDICTED BY IDOCK:   -7.32 KCAL/MOL
REMARK 924 INTRA-LIGAND FREE ENERGY PREDICTED BY IDOCK:   -1.52 KCAL/MOL
REMARK 927      BINDING AFFINITY PREDICTED BY RF-SCORE:    0.00 PKD
ROOT
HETATM    1  C   UNL     1     -10.487  17.390  67.439  1.00  0.00    -0.336 C  
HETATM    2  C   UNL     1     -10.313  15.918  67.052  1.00  0.00    -0.297 C  
HETATM    3  C   UNL     1      -8.845  15.497  67.205  1.00  0.00    -0.218 C  
ENDROOT
BRANCH   2   4
HETATM    4  N   UNL     1     -11.170  15.031  67.842  1.00  0.00    -0.311 NA 
HETATM    5  N   UNL     1     -11.705  15.530  68.986  1.00  0.00    -0.367 NA 
HETATM    6  C   UNL     1     -12.131  14.453  69.635  1.00  0.00    -0.334 A  
HETATM    7  C   UNL     1     -11.933  13.276  68.899  1.00  0.00    -0.336 A  
HETATM    8  C   UNL     1     -11.395  13.670  67.682  1.00  0.00    -0.300 A  
BRANCH   8   9
HETATM    9  C   UNL     1     -11.207  12.926  66.431  1.00  0.00    -0.300 A  
HETATM   10  C   UNL     1     -10.232  11.954  66.176  1.00  0.00    -0.258 A  
HETATM   11  C   UNL     1     -12.245  12.504  64.388  1.00  0.00    -0.449 A  
HETATM   12  C   UNL     1     -10.302  11.277  64.941  1.00  0.00    -0.362 A  
HETATM   13  N   UNL     1     -12.208  13.193  65.548  1.00  0.00    -0.437 NA 
HETATM   14  C   UNL     1     -11.324  11.542  64.041  1.00  0.00    -0.380 A  
BRANCH  10  15
HETATM   15  C   UNL     1      -9.086  11.590  67.081  1.00  0.00    -0.167 C  
BRANCH  15  16
HETATM   16  O   UNL     1      -9.073  10.178  67.249  1.00  0.00    -0.137 OA 
BRANCH  16  17
HETATM   17  C   UNL     1      -9.676   9.615  68.338  1.00  0.00    -0.150 A  
HETATM   18  C   UNL     1      -9.830  10.262  69.571  1.00  0.00    -0.244 A  
HETATM   19  C   UNL     1     -10.537   9.657  70.616  1.00  0.00    -0.386 A  
HETATM   20  C   UNL     1     -11.078   8.386  70.455  1.00  0.00    -0.267 A  
HETATM   21  C   UNL     1     -10.908   7.716  69.245  1.00  0.00    -0.099 A  
HETATM   22  O   UNL     1     -11.417   6.452  69.108  1.00  0.00    -0.577 OA 
HETATM   23  C   UNL     1     -10.219   8.322  68.180  1.00  0.00    -0.255 A  
HETATM   24  C   UNL     1     -10.100   7.559  66.905  1.00  0.00    -0.266 C  
HETATM   25  H   UNL     1     -11.301   5.996  68.283  1.00  0.00     0.000 HD 
HETATM   26  O   UNL     1      -9.433   7.904  65.938  1.00  0.00    -0.080 OA 
ENDBRANCH  16  17
ENDBRANCH  15  16
ENDBRANCH  10  15
ENDBRANCH   8   9
ENDBRANCH   2   4
TORSDOF 5
ENDMDL
MODEL       85
REMARK 921   NORMALIZED FREE ENERGY PREDICTED BY IDOCK:   -5.89 KCAL/MOL
REMARK 922        TOTAL FREE ENERGY PREDICTED BY IDOCK:   -8.83 KCAL/MOL
REMARK 923 INTER-LIGAND FREE ENERGY PREDICTED BY IDOCK:   -7.59 KCAL/MOL
REMARK 924 INTRA-LIGAND FREE ENERGY PREDICTED BY IDOCK:   -1.24 KCAL/MOL
REMARK 927      BINDING AFFINITY PREDICTED BY RF-SCORE:    0.00 PKD
ROOT
HETATM    1  C   UNL     1     -11.492  16.045  68.539  1.00  0.00    -0.357 C  
HETATM    2  C   UNL     1     -11.261  14.533  68.602  1.00  0.00    -0.261 C  
HETATM    3  C   UNL     1     -12.209  13.892  69.625  1.00  0.00    -0.374 C  
ENDROOT
BRANCH   2   4
HETATM    4  N   UNL     1     -11.431  13.890  67.297  1.00  0.00    -0.326 NA 
HETATM    5  N   UNL     1     -12.369  14.405  66.461  1.00  0.00    -0.353 NA 
HETATM    6  C   UNL     1     -12.532  13.460  65.543  1.00  0.00    -0.483 A  
HETATM    7  C   UNL     1     -11.669  12.372  65.742  1.00  0.00    -0.470 A  
HETATM    8  C   UNL     1     -10.879  12.703  66.833  1.00  0.00    -0.254 A  
BRANCH   8   9
HETATM    9  C   UNL     1      -9.656  12.083  67.354  1.00  0.00    -0.176 A  
HETATM   10  C   UNL     1      -9.555  10.839  67.988  1.00  0.00    -0.172 A  
HETATM   11  C   UNL     1      -7.338  12.324  67.330  1.00  0.00    -0.151 A  
HETATM   12  C   UNL     1      -8.260  10.379  68.308  1.00  0.00    -0.114 A  
HETATM   13  N   UNL     1      -8.557  12.814  67.022  1.00  0.00    -0.197 NA 
HETATM   14  C   UNL     1      -7.138  11.119  67.966  1.00  0.00    -0.073 A  
BRANCH  10  15
HETATM   15  C   UNL     1     -10.704   9.959  68.401  1.00  0.00    -0.232 C  
BRANCH  15  16
HETATM   16  O   UNL     1     -10.459   9.484  69.718  1.00  0.00    -0.204 OA 
BRANCH  16  17
HETATM   17  C   UNL     1     -11.489   9.387  70.611  1.00  0.00    -0.284 A  
HETATM   18  C   UNL     1     -12.198  10.487  71.114  1.00  0.00    -0.496 A  
HETATM   19  C   UNL     1     -13.299  10.307  71.957  1.00  0.00    -0.466 A  
HETATM   20  C   UNL     1     -13.696   9.028  72.333  1.00  0.00    -0.539 A  
HETATM   21  C   UNL     1     -12.984   7.925  71.866  1.00  0.00    -0.298 A  
HETATM   22  O   UNL     1     -13.362   6.672  72.268  1.00  0.00    -0.540 OA 
HETATM   23  C   UNL     1     -11.888   8.091  71.000  1.00  0.00    -0.280 A  
HETATM   24  C   UNL     1     -11.192   6.866  70.518  1.00  0.00    -0.307 C  
HETATM   25  H   UNL     1     -12.877   5.920  71.950  1.00  0.00     0.000 HD 
HETATM   26  O   UNL     1     -10.159   6.855  69.860  1.00  0.00    -0.184 OA 
ENDBRANCH  16  17
ENDBRANCH  15  16
ENDBRANCH  10  15
ENDBRANCH   8   9
ENDBRANCH   2   4
TORSDOF 5
ENDMDL
MODEL       86
REMARK 921   NORMALIZED FREE ENERGY PREDICTED BY IDOCK:   -5.89 KCAL/MOL
REMARK 922        TOTAL FREE ENERGY PREDICTED BY IDOCK:   -8.83 KCAL/MOL
REMARK 923 INTER-LIGAND FREE ENERGY PREDICTED BY IDOCK:   -8.14 KCAL/MOL
REMARK 924 INTRA-LIGAND FREE ENERGY PREDICTED BY IDOCK:   -0.69 KCAL/MOL
REMARK 927      BINDING AFFINITY PREDICTED BY RF-SCORE:    0.00 PKD
ROOT
HETATM    1  C   UNL     1      -7.970   7.754  69.453  1.00  0.00    -0.124 C  
HETATM    2  C   UNL     1      -8.140   9.124  70.116  1.00  0.00    -0.140 C  
HETATM    3  C   UNL     1      -7.499  10.218  69.251  1.00  0.00    -0.112 C  
ENDROOT
BRANCH   2   4
HETATM    4  N   UNL     1      -9.546   9.449  70.367  1.00  0.00    -0.249 NA 
HETATM    5  N   UNL     1      -9.969   9.448  71.657  1.00  0.00    -0.162 NA 
HETATM    6  C   UNL     1     -11.293   9.438  71.559  1.00  0.00    -0.394 A  
HETATM    7  C   UNL     1     -11.727   9.493  70.227  1.00  0.00    -0.168 A  
HETATM    8  C   UNL     1     -10.580   9.602  69.454  1.00  0.00    -0.225 A  
BRANCH   8   9
HETATM    9  C   UNL     1     -10.409   9.938  68.035  1.00  0.00    -0.203 A  
HETATM   10  C   UNL     1     -10.387  11.221  67.478  1.00  0.00    -0.224 A  
HETATM   11  C   UNL     1      -9.827   8.977  65.993  1.00  0.00    -0.242 A  
HETATM   12  C   UNL     1     -10.091  11.324  66.102  1.00  0.00    -0.279 A  
HETATM   13  N   UNL     1     -10.124   8.827  67.301  1.00  0.00    -0.214 NA 
HETATM   14  C   UNL     1      -9.796  10.195  65.352  1.00  0.00    -0.375 A  
BRANCH  10  15
HETATM   15  C   UNL     1     -10.690  12.507  68.200  1.00  0.00    -0.227 C  
BRANCH  15  16
HETATM   16  O   UNL     1     -11.588  13.270  67.405  1.00  0.00    -0.312 OA 
BRANCH  16  17
HETATM   17  C   UNL     1     -11.212  14.499  66.941  1.00  0.00    -0.336 A  
HETATM   18  C   UNL     1     -10.444  15.414  67.675  1.00  0.00    -0.272 A  
HETATM   19  C   UNL     1     -10.021  16.618  67.103  1.00  0.00    -0.268 A  
HETATM   20  C   UNL     1     -10.380  16.941  65.799  1.00  0.00    -0.298 A  
HETATM   21  C   UNL     1     -11.168  16.057  65.065  1.00  0.00    -0.261 A  
HETATM   22  O   UNL     1     -11.542  16.399  63.794  1.00  0.00    -1.605 OA 
HETATM   23  C   UNL     1     -11.581  14.833  65.621  1.00  0.00    -0.290 A  
HETATM   24  C   UNL     1     -12.399  13.923  64.769  1.00  0.00    -0.400 C  
HETATM   25  H   UNL     1     -12.080  15.796  63.293  1.00  0.00     0.000 HD 
HETATM   26  O   UNL     1     -12.926  12.886  65.151  1.00  0.00    -0.758 OA 
ENDBRANCH  16  17
ENDBRANCH  15  16
ENDBRANCH  10  15
ENDBRANCH   8   9
ENDBRANCH   2   4
TORSDOF 5
ENDMDL
MODEL       87
REMARK 921   NORMALIZED FREE ENERGY PREDICTED BY IDOCK:   -5.89 KCAL/MOL
REMARK 922        TOTAL FREE ENERGY PREDICTED BY IDOCK:   -8.82 KCAL/MOL
REMARK 923 INTER-LIGAND FREE ENERGY PREDICTED BY IDOCK:   -7.43 KCAL/MOL
REMARK 924 INTRA-LIGAND FREE ENERGY PREDICTED BY IDOCK:   -1.38 KCAL/MOL
REMARK 927      BINDING AFFINITY PREDICTED BY RF-SCORE:    0.00 PKD
ROOT
HETATM    1  C   UNL     1      -7.562  16.095  69.167  1.00  0.00    -0.230 C  
HETATM    2  C   UNL     1      -8.185  15.517  67.893  1.00  0.00    -0.143 C  
HETATM    3  C   UNL     1      -7.681  16.278  66.660  1.00  0.00    -0.286 C  
ENDROOT
BRANCH   2   4
HETATM    4  N   UNL     1      -7.910  14.086  67.741  1.00  0.00    -0.154 NA 
HETATM    5  N   UNL     1      -6.754  13.609  68.270  1.00  0.00    -0.094 NA 
HETATM    6  C   UNL     1      -6.615  12.414  67.709  1.00  0.00    -0.113 A  
HETATM    7  C   UNL     1      -7.695  12.091  66.873  1.00  0.00    -0.078 A  
HETATM    8  C   UNL     1      -8.589  13.146  66.976  1.00  0.00    -0.162 A  
BRANCH   8   9
HETATM    9  C   UNL     1      -9.984  13.267  66.536  1.00  0.00    -0.280 A  
HETATM   10  C   UNL     1     -11.127  13.022  67.306  1.00  0.00    -0.303 A  
HETATM   11  C   UNL     1     -11.275  14.079  64.774  1.00  0.00    -0.375 A  
HETATM   12  C   UNL     1     -12.377  13.313  66.720  1.00  0.00    -0.239 A  
HETATM   13  N   UNL     1     -10.058  13.798  65.285  1.00  0.00    -0.314 NA 
HETATM   14  C   UNL     1     -12.456  13.859  65.448  1.00  0.00    -0.528 A  
BRANCH  10  15
HETATM   15  C   UNL     1     -11.153  12.435  68.692  1.00  0.00    -0.257 C  
BRANCH  15  16
HETATM   16  O   UNL     1     -12.275  12.962  69.386  1.00  0.00    -0.221 OA 
BRANCH  16  17
HETATM   17  C   UNL     1     -12.115  14.013  70.245  1.00  0.00    -0.355 A  
HETATM   18  C   UNL     1     -11.534  15.237  69.886  1.00  0.00    -0.325 A  
HETATM   19  C   UNL     1     -11.483  16.301  70.793  1.00  0.00    -0.327 A  
HETATM   20  C   UNL     1     -11.987  16.152  72.081  1.00  0.00    -0.623 A  
HETATM   21  C   UNL     1     -12.541  14.931  72.463  1.00  0.00    -0.357 A  
HETATM   22  O   UNL     1     -13.006  14.784  73.743  1.00  0.00    -0.508 OA 
HETATM   23  C   UNL     1     -12.619  13.862  71.554  1.00  0.00    -0.419 A  
HETATM   24  C   UNL     1     -13.250  12.596  72.022  1.00  0.00    -0.427 C  
HETATM   25  H   UNL     1     -13.384  13.953  74.003  1.00  0.00     0.000 HD 
HETATM   26  O   UNL     1     -13.283  11.549  71.387  1.00  0.00    -0.314 OA 
ENDBRANCH  16  17
ENDBRANCH  15  16
ENDBRANCH  10  15
ENDBRANCH   8   9
ENDBRANCH   2   4
TORSDOF 5
ENDMDL
MODEL       88
REMARK 921   NORMALIZED FREE ENERGY PREDICTED BY IDOCK:   -5.83 KCAL/MOL
REMARK 922        TOTAL FREE ENERGY PREDICTED BY IDOCK:   -8.75 KCAL/MOL
REMARK 923 INTER-LIGAND FREE ENERGY PREDICTED BY IDOCK:   -7.64 KCAL/MOL
REMARK 924 INTRA-LIGAND FREE ENERGY PREDICTED BY IDOCK:   -1.12 KCAL/MOL
REMARK 927      BINDING AFFINITY PREDICTED BY RF-SCORE:    0.00 PKD
ROOT
HETATM    1  C   UNL     1      -8.978   8.865  71.010  1.00  0.00    -0.298 C  
HETATM    2  C   UNL     1      -8.821   8.853  69.487  1.00  0.00    -0.144 C  
HETATM    3  C   UNL     1      -7.430   8.333  69.099  1.00  0.00    -0.086 C  
ENDROOT
BRANCH   2   4
HETATM    4  N   UNL     1      -9.853   8.049  68.828  1.00  0.00    -0.167 NA 
HETATM    5  N   UNL     1     -10.256   6.912  69.450  1.00  0.00    -0.177 NA 
HETATM    6  C   UNL     1     -10.912   6.247  68.508  1.00  0.00    -0.340 A  
HETATM    7  C   UNL     1     -10.989   6.966  67.306  1.00  0.00    -0.406 A  
HETATM    8  C   UNL     1     -10.381   8.189  67.551  1.00  0.00    -0.261 A  
BRANCH   8   9
HETATM    9  C   UNL     1     -10.372   9.429  66.767  1.00  0.00    -0.233 A  
HETATM   10  C   UNL     1     -10.928  10.658  67.141  1.00  0.00    -0.312 A  
HETATM   11  C   UNL     1      -9.410  10.377  64.867  1.00  0.00    -0.243 A  
HETATM   12  C   UNL     1     -10.704  11.757  66.285  1.00  0.00    -0.312 A  
HETATM   13  N   UNL     1      -9.614   9.292  65.644  1.00  0.00    -0.271 NA 
HETATM   14  C   UNL     1      -9.927  11.622  65.143  1.00  0.00    -0.297 A  
BRANCH  10  15
HETATM   15  C   UNL     1     -11.782  10.911  68.354  1.00  0.00    -0.218 C  
BRANCH  15  16
HETATM   16  O   UNL     1     -11.444  12.185  68.886  1.00  0.00    -0.249 OA 
BRANCH  16  17
HETATM   17  C   UNL     1     -12.154  12.696  69.937  1.00  0.00    -0.252 A  
HETATM   18  C   UNL     1     -12.666  11.922  70.987  1.00  0.00    -0.354 A  
HETATM   19  C   UNL     1     -13.306  12.523  72.076  1.00  0.00    -0.528 A  
HETATM   20  C   UNL     1     -13.469  13.904  72.121  1.00  0.00    -0.578 A  
HETATM   21  C   UNL     1     -12.992  14.685  71.070  1.00  0.00    -0.356 A  
HETATM   22  O   UNL     1     -13.187  16.040  71.109  1.00  0.00    -0.556 OA 
HETATM   23  C   UNL     1     -12.327  14.095  69.981  1.00  0.00    -0.403 A  
HETATM   24  C   UNL     1     -11.819  14.994  68.907  1.00  0.00    -0.307 C  
HETATM   25  H   UNL     1     -12.862  16.573  70.393  1.00  0.00     0.000 HD 
HETATM   26  O   UNL     1     -11.329  14.620  67.849  1.00  0.00    -0.287 OA 
ENDBRANCH  16  17
ENDBRANCH  15  16
ENDBRANCH  10  15
ENDBRANCH   8   9
ENDBRANCH   2   4
TORSDOF 5
ENDMDL
MODEL       89
REMARK 921   NORMALIZED FREE ENERGY PREDICTED BY IDOCK:   -5.82 KCAL/MOL
REMARK 922        TOTAL FREE ENERGY PREDICTED BY IDOCK:   -8.73 KCAL/MOL
REMARK 923 INTER-LIGAND FREE ENERGY PREDICTED BY IDOCK:   -7.21 KCAL/MOL
REMARK 924 INTRA-LIGAND FREE ENERGY PREDICTED BY IDOCK:   -1.52 KCAL/MOL
REMARK 927      BINDING AFFINITY PREDICTED BY RF-SCORE:    0.00 PKD
ROOT
HETATM    1  C   UNL     1      -6.741  15.843  67.023  1.00  0.00    -0.083 C  
HETATM    2  C   UNL     1      -7.625  16.406  68.140  1.00  0.00    -0.155 C  
HETATM    3  C   UNL     1      -6.759  17.038  69.238  1.00  0.00    -0.234 C  
ENDROOT
BRANCH   2   4
HETATM    4  N   UNL     1      -8.591  17.389  67.642  1.00  0.00    -0.215 NA 
HETATM    5  N   UNL     1      -8.117  18.398  66.867  1.00  0.00    -0.238 NA 
HETATM    6  C   UNL     1      -9.108  19.280  66.848  1.00  0.00    -0.316 A  
HETATM    7  C   UNL     1     -10.235  18.826  67.550  1.00  0.00    -0.444 A  
HETATM    8  C   UNL     1      -9.928  17.545  67.982  1.00  0.00    -0.310 A  
BRANCH   8   9
HETATM    9  C   UNL     1     -10.782  16.492  68.544  1.00  0.00    -0.336 A  
HETATM   10  C   UNL     1     -11.317  15.396  67.858  1.00  0.00    -0.328 A  
HETATM   11  C   UNL     1     -11.558  15.669  70.582  1.00  0.00    -0.367 A  
HETATM   12  C   UNL     1     -12.019  14.436  68.618  1.00  0.00    -0.332 A  
HETATM   13  N   UNL     1     -10.896  16.623  69.894  1.00  0.00    -0.295 NA 
HETATM   14  C   UNL     1     -12.132  14.563  69.994  1.00  0.00    -0.395 A  
BRANCH  10  15
HETATM   15  C   UNL     1     -11.252  15.162  66.372  1.00  0.00    -0.277 C  
BRANCH  15  16
HETATM   16  O   UNL     1     -10.106  14.370  66.090  1.00  0.00    -0.284 OA 
BRANCH  16  17
HETATM   17  C   UNL     1     -10.227  13.245  65.322  1.00  0.00    -0.290 A  
HETATM   18  C   UNL     1     -10.925  13.195  64.108  1.00  0.00    -0.418 A  
HETATM   19  C   UNL     1     -10.932  12.032  63.331  1.00  0.00    -0.475 A  
HETATM   20  C   UNL     1     -10.265  10.892  63.766  1.00  0.00    -0.407 A  
HETATM   21  C   UNL     1      -9.591  10.915  64.986  1.00  0.00    -0.251 A  
HETATM   22  O   UNL     1      -8.964   9.778  65.420  1.00  0.00    -0.164 OA 
HETATM   23  C   UNL     1      -9.557  12.085  65.765  1.00  0.00    -0.227 A  
HETATM   24  C   UNL     1      -8.794  12.046  67.044  1.00  0.00    -0.197 C  
HETATM   25  H   UNL     1      -8.505   9.793  66.251  1.00  0.00     0.000 HD 
HETATM   26  O   UNL     1      -8.772  12.942  67.879  1.00  0.00    -0.166 OA 
ENDBRANCH  16  17
ENDBRANCH  15  16
ENDBRANCH  10  15
ENDBRANCH   8   9
ENDBRANCH   2   4
TORSDOF 5
ENDMDL
MODEL       90
REMARK 921   NORMALIZED FREE ENERGY PREDICTED BY IDOCK:   -5.77 KCAL/MOL
REMARK 922        TOTAL FREE ENERGY PREDICTED BY IDOCK:   -8.67 KCAL/MOL
REMARK 923 INTER-LIGAND FREE ENERGY PREDICTED BY IDOCK:   -7.82 KCAL/MOL
REMARK 924 INTRA-LIGAND FREE ENERGY PREDICTED BY IDOCK:   -0.85 KCAL/MOL
REMARK 927      BINDING AFFINITY PREDICTED BY RF-SCORE:    0.00 PKD
ROOT
HETATM    1  C   UNL     1      -8.567  10.117  66.811  1.00  0.00    -0.129 C  
HETATM    2  C   UNL     1     -10.090  10.008  66.925  1.00  0.00    -0.229 C  
HETATM    3  C   UNL     1     -10.510   8.541  67.079  1.00  0.00    -0.362 C  
ENDROOT
BRANCH   2   4
HETATM    4  N   UNL     1     -10.621  10.797  68.038  1.00  0.00    -0.192 NA 
HETATM    5  N   UNL     1     -10.458  10.303  69.292  1.00  0.00    -0.213 NA 
HETATM    6  C   UNL     1     -11.297  11.020  70.030  1.00  0.00    -0.277 A  
HETATM    7  C   UNL     1     -11.953  12.007  69.281  1.00  0.00    -0.329 A  
HETATM    8  C   UNL     1     -11.433  11.924  67.998  1.00  0.00    -0.323 A  
BRANCH   8   9
HETATM    9  C   UNL     1     -11.547  12.839  66.856  1.00  0.00    -0.366 A  
HETATM   10  C   UNL     1     -10.879  14.058  66.692  1.00  0.00    -0.297 A  
HETATM   11  C   UNL     1     -12.413  12.958  64.695  1.00  0.00    -0.434 A  
HETATM   12  C   UNL     1     -11.045  14.727  65.461  1.00  0.00    -0.346 A  
HETATM   13  N   UNL     1     -12.301  12.291  65.863  1.00  0.00    -0.519 NA 
HETATM   14  C   UNL     1     -11.807  14.169  64.446  1.00  0.00    -0.447 A  
BRANCH  10  15
HETATM   15  C   UNL     1     -10.029  14.749  67.726  1.00  0.00    -0.223 C  
BRANCH  15  16
HETATM   16  O   UNL     1      -9.229  15.726  67.073  1.00  0.00    -0.203 OA 
BRANCH  16  17
HETATM   17  C   UNL     1      -9.394  17.050  67.368  1.00  0.00    -0.239 A  
HETATM   18  C   UNL     1     -10.534  17.792  67.034  1.00  0.00    -0.324 A  
HETATM   19  C   UNL     1     -10.672  19.122  67.446  1.00  0.00    -0.578 A  
HETATM   20  C   UNL     1      -9.662  19.740  68.175  1.00  0.00    -0.506 A  
HETATM   21  C   UNL     1      -8.508  19.025  68.490  1.00  0.00    -0.352 A  
HETATM   22  O   UNL     1      -7.506  19.653  69.181  1.00  0.00    -0.357 OA 
HETATM   23  C   UNL     1      -8.367  17.681  68.101  1.00  0.00    -0.259 A  
HETATM   24  C   UNL     1      -7.119  16.970  68.497  1.00  0.00    -0.202 C  
HETATM   25  H   UNL     1      -6.719  19.166  69.396  1.00  0.00     0.000 HD 
HETATM   26  O   UNL     1      -6.804  15.844  68.133  1.00  0.00    -0.112 OA 
ENDBRANCH  16  17
ENDBRANCH  15  16
ENDBRANCH  10  15
ENDBRANCH   8   9
ENDBRANCH   2   4
TORSDOF 5
ENDMDL
MODEL       91
REMARK 921   NORMALIZED FREE ENERGY PREDICTED BY IDOCK:   -5.75 KCAL/MOL
REMARK 922        TOTAL FREE ENERGY PREDICTED BY IDOCK:   -8.65 KCAL/MOL
REMARK 923 INTER-LIGAND FREE ENERGY PREDICTED BY IDOCK:   -7.47 KCAL/MOL
REMARK 924 INTRA-LIGAND FREE ENERGY PREDICTED BY IDOCK:   -1.18 KCAL/MOL
REMARK 927      BINDING AFFINITY PREDICTED BY RF-SCORE:    0.00 PKD
ROOT
HETATM    1  C   UNL     1     -11.202  16.520  69.835  1.00  0.00    -0.159 C  
HETATM    2  C   UNL     1     -10.440  16.975  68.587  1.00  0.00    -0.363 C  
HETATM    3  C   UNL     1     -10.003  18.438  68.734  1.00  0.00    -0.404 C  
ENDROOT
BRANCH   2   4
HETATM    4  N   UNL     1      -9.275  16.133  68.310  1.00  0.00    -0.194 NA 
HETATM    5  N   UNL     1      -8.129  16.404  68.986  1.00  0.00    -0.233 NA 
HETATM    6  C   UNL     1      -7.197  15.739  68.315  1.00  0.00    -0.116 A  
HETATM    7  C   UNL     1      -7.734  14.997  67.254  1.00  0.00    -0.233 A  
HETATM    8  C   UNL     1      -9.108  15.178  67.315  1.00  0.00    -0.198 A  
BRANCH   8   9
HETATM    9  C   UNL     1     -10.199  14.472  66.634  1.00  0.00    -0.275 A  
HETATM   10  C   UNL     1     -11.104  13.574  67.213  1.00  0.00    -0.302 A  
HETATM   11  C   UNL     1     -11.365  14.434  64.616  1.00  0.00    -0.371 A  
HETATM   12  C   UNL     1     -12.152  13.097  66.399  1.00  0.00    -0.447 A  
HETATM   13  N   UNL     1     -10.334  14.903  65.349  1.00  0.00    -0.359 NA 
HETATM   14  C   UNL     1     -12.296  13.538  65.092  1.00  0.00    -0.488 A  
BRANCH  10  15
HETATM   15  C   UNL     1     -11.040  13.034  68.616  1.00  0.00    -0.269 C  
BRANCH  15  16
HETATM   16  O   UNL     1     -11.037  11.614  68.554  1.00  0.00    -0.201 OA 
BRANCH  16  17
HETATM   17  C   UNL     1     -11.444  10.883  69.635  1.00  0.00    -0.305 A  
HETATM   18  C   UNL     1     -12.320  11.360  70.619  1.00  0.00    -0.466 A  
HETATM   19  C   UNL     1     -12.765  10.525  71.650  1.00  0.00    -0.550 A  
HETATM   20  C   UNL     1     -12.321   9.210  71.730  1.00  0.00    -0.444 A  
HETATM   21  C   UNL     1     -11.425   8.728  70.776  1.00  0.00    -0.270 A  
HETATM   22  O   UNL     1     -10.970   7.442  70.883  1.00  0.00    -0.244 OA 
HETATM   23  C   UNL     1     -10.989   9.550  69.723  1.00  0.00    -0.245 A  
HETATM   24  C   UNL     1     -10.054   8.961  68.723  1.00  0.00    -0.200 C  
HETATM   25  H   UNL     1     -10.360   7.113  70.233  1.00  0.00     0.000 HD 
HETATM   26  O   UNL     1      -9.500   9.582  67.825  1.00  0.00    -0.131 OA 
ENDBRANCH  16  17
ENDBRANCH  15  16
ENDBRANCH  10  15
ENDBRANCH   8   9
ENDBRANCH   2   4
TORSDOF 5
ENDMDL
MODEL       92
REMARK 921   NORMALIZED FREE ENERGY PREDICTED BY IDOCK:   -5.75 KCAL/MOL
REMARK 922        TOTAL FREE ENERGY PREDICTED BY IDOCK:   -8.65 KCAL/MOL
REMARK 923 INTER-LIGAND FREE ENERGY PREDICTED BY IDOCK:   -7.25 KCAL/MOL
REMARK 924 INTRA-LIGAND FREE ENERGY PREDICTED BY IDOCK:   -1.40 KCAL/MOL
REMARK 927      BINDING AFFINITY PREDICTED BY RF-SCORE:    0.00 PKD
ROOT
HETATM    1  C   UNL     1      -9.932  19.636  68.676  1.00  0.00    -0.553 C  
HETATM    2  C   UNL     1      -9.749  18.873  67.361  1.00  0.00    -0.312 C  
HETATM    3  C   UNL     1     -10.720  19.403  66.298  1.00  0.00    -0.508 C  
ENDROOT
BRANCH   2   4
HETATM    4  N   UNL     1      -8.375  18.949  66.862  1.00  0.00    -0.272 NA 
HETATM    5  N   UNL     1      -8.033  20.039  66.128  1.00  0.00    -0.317 NA 
HETATM    6  C   UNL     1      -6.890  19.690  65.550  1.00  0.00    -0.294 A  
HETATM    7  C   UNL     1      -6.462  18.415  65.947  1.00  0.00    -0.290 A  
HETATM    8  C   UNL     1      -7.385  17.975  66.884  1.00  0.00    -0.204 A  
BRANCH   8   9
HETATM    9  C   UNL     1      -7.340  16.842  67.816  1.00  0.00    -0.155 A  
HETATM   10  C   UNL     1      -7.973  15.604  67.658  1.00  0.00    -0.170 A  
HETATM   11  C   UNL     1      -6.224  16.093  69.720  1.00  0.00    -0.184 A  
HETATM   12  C   UNL     1      -7.701  14.610  68.622  1.00  0.00    -0.135 A  
HETATM   13  N   UNL     1      -6.468  17.081  68.834  1.00  0.00    -0.178 NA 
HETATM   14  C   UNL     1      -6.809  14.848  69.657  1.00  0.00    -0.181 A  
BRANCH  10  15
HETATM   15  C   UNL     1      -8.953  15.242  66.574  1.00  0.00    -0.305 C  
BRANCH  15  16
HETATM   16  O   UNL     1     -10.255  15.190  67.142  1.00  0.00    -0.242 OA 
BRANCH  16  17
HETATM   17  C   UNL     1     -10.777  13.992  67.544  1.00  0.00    -0.268 A  
HETATM   18  C   UNL     1     -10.858  12.858  66.724  1.00  0.00    -0.288 A  
HETATM   19  C   UNL     1     -11.322  11.639  67.230  1.00  0.00    -0.372 A  
HETATM   20  C   UNL     1     -11.739  11.539  68.553  1.00  0.00    -0.379 A  
HETATM   21  C   UNL     1     -11.693  12.666  69.373  1.00  0.00    -0.325 A  
HETATM   22  O   UNL     1     -12.134  12.565  70.665  1.00  0.00    -0.457 OA 
HETATM   23  C   UNL     1     -11.207  13.891  68.884  1.00  0.00    -0.304 A  
HETATM   24  C   UNL     1     -11.159  15.045  69.824  1.00  0.00    -0.276 C  
HETATM   25  H   UNL     1     -12.103  13.332  71.224  1.00  0.00     0.000 HD 
HETATM   26  O   UNL     1     -10.874  16.195  69.514  1.00  0.00    -0.280 OA 
ENDBRANCH  16  17
ENDBRANCH  15  16
ENDBRANCH  10  15
ENDBRANCH   8   9
ENDBRANCH   2   4
TORSDOF 5
ENDMDL
MODEL       93
REMARK 921   NORMALIZED FREE ENERGY PREDICTED BY IDOCK:   -5.75 KCAL/MOL
REMARK 922        TOTAL FREE ENERGY PREDICTED BY IDOCK:   -8.64 KCAL/MOL
REMARK 923 INTER-LIGAND FREE ENERGY PREDICTED BY IDOCK:   -7.92 KCAL/MOL
REMARK 924 INTRA-LIGAND FREE ENERGY PREDICTED BY IDOCK:   -0.72 KCAL/MOL
REMARK 927      BINDING AFFINITY PREDICTED BY RF-SCORE:    0.00 PKD
ROOT
HETATM    1  C   UNL     1     -11.494  16.248  64.546  1.00  0.00    -0.171 C  
HETATM    2  C   UNL     1     -10.561  16.221  65.759  1.00  0.00    -0.324 C  
HETATM    3  C   UNL     1      -9.320  15.369  65.458  1.00  0.00    -0.037 C  
ENDROOT
BRANCH   2   4
HETATM    4  N   UNL     1     -10.153  17.564  66.176  1.00  0.00    -0.452 NA 
HETATM    5  N   UNL     1     -10.770  18.619  65.585  1.00  0.00    -0.508 NA 
HETATM    6  C   UNL     1      -9.996  19.654  65.890  1.00  0.00    -0.346 A  
HETATM    7  C   UNL     1      -8.925  19.290  66.719  1.00  0.00    -0.360 A  
HETATM    8  C   UNL     1      -9.088  17.938  66.986  1.00  0.00    -0.253 A  
BRANCH   8   9
HETATM    9  C   UNL     1      -8.434  17.070  67.971  1.00  0.00    -0.216 A  
HETATM   10  C   UNL     1      -9.064  16.319  68.972  1.00  0.00    -0.255 A  
HETATM   11  C   UNL     1      -6.371  16.104  68.465  1.00  0.00    -0.116 A  
HETATM   12  C   UNL     1      -8.253  15.458  69.741  1.00  0.00    -0.018 A  
HETATM   13  N   UNL     1      -7.102  16.957  67.716  1.00  0.00    -0.138 NA 
HETATM   14  C   UNL     1      -6.897  15.336  69.480  1.00  0.00    -0.180 A  
BRANCH  10  15
HETATM   15  C   UNL     1     -10.523  16.375  69.335  1.00  0.00    -0.309 C  
BRANCH  15  16
HETATM   16  O   UNL     1     -10.895  15.127  69.905  1.00  0.00    -0.255 OA 
BRANCH  16  17
HETATM   17  C   UNL     1     -11.644  15.095  71.048  1.00  0.00    -0.347 A  
HETATM   18  C   UNL     1     -11.714  16.149  71.970  1.00  0.00    -0.574 A  
HETATM   19  C   UNL     1     -12.571  16.082  73.073  1.00  0.00    -0.605 A  
HETATM   20  C   UNL     1     -13.352  14.951  73.289  1.00  0.00    -0.379 A  
HETATM   21  C   UNL     1     -13.272  13.882  72.398  1.00  0.00    -0.488 A  
HETATM   22  O   UNL     1     -14.021  12.761  72.638  1.00  0.00    -0.702 OA 
HETATM   23  C   UNL     1     -12.431  13.946  71.273  1.00  0.00    -0.440 A  
HETATM   24  C   UNL     1     -12.417  12.778  70.348  1.00  0.00    -0.156 C  
HETATM   25  H   UNL     1     -13.967  12.033  72.031  1.00  0.00     0.000 HD 
HETATM   26  O   UNL     1     -11.656  12.640  69.399  1.00  0.00    -0.288 OA 
ENDBRANCH  16  17
ENDBRANCH  15  16
ENDBRANCH  10  15
ENDBRANCH   8   9
ENDBRANCH   2   4
TORSDOF 5
ENDMDL
MODEL       94
REMARK 921   NORMALIZED FREE ENERGY PREDICTED BY IDOCK:   -5.74 KCAL/MOL
REMARK 922        TOTAL FREE ENERGY PREDICTED BY IDOCK:   -8.63 KCAL/MOL
REMARK 923 INTER-LIGAND FREE ENERGY PREDICTED BY IDOCK:   -7.29 KCAL/MOL
REMARK 924 INTRA-LIGAND FREE ENERGY PREDICTED BY IDOCK:   -1.34 KCAL/MOL
REMARK 927      BINDING AFFINITY PREDICTED BY RF-SCORE:    0.00 PKD
ROOT
HETATM    1  C   UNL     1      -7.709   8.890  63.571  1.00  0.00    -0.128 C  
HETATM    2  C   UNL     1      -7.969   8.744  65.073  1.00  0.00    -0.132 C  
HETATM    3  C   UNL     1      -6.755   9.233  65.874  1.00  0.00    -0.080 C  
ENDROOT
BRANCH   2   4
HETATM    4  N   UNL     1      -9.170   9.464  65.501  1.00  0.00    -0.217 NA 
HETATM    5  N   UNL     1      -9.525  10.568  64.795  1.00  0.00    -0.234 NA 
HETATM    6  C   UNL     1     -10.405  11.180  65.578  1.00  0.00    -0.268 A  
HETATM    7  C   UNL     1     -10.666  10.455  66.750  1.00  0.00    -0.235 A  
HETATM    8  C   UNL     1      -9.931   9.283  66.649  1.00  0.00    -0.264 A  
BRANCH   8   9
HETATM    9  C   UNL     1      -9.985   8.046  67.436  1.00  0.00    -0.207 A  
HETATM   10  C   UNL     1      -9.671   7.905  68.793  1.00  0.00    -0.159 A  
HETATM   11  C   UNL     1     -10.752   5.848  67.327  1.00  0.00    -0.297 A  
HETATM   12  C   UNL     1      -9.904   6.646  69.384  1.00  0.00    -0.160 A  
HETATM   13  N   UNL     1     -10.527   7.028  66.713  1.00  0.00    -0.254 NA 
HETATM   14  C   UNL     1     -10.461   5.609  68.652  1.00  0.00    -0.277 A  
BRANCH  10  15
HETATM   15  C   UNL     1      -9.065   8.963  69.677  1.00  0.00    -0.151 C  
BRANCH  15  16
HETATM   16  O   UNL     1      -9.671   8.882  70.960  1.00  0.00    -0.206 OA 
BRANCH  16  17
HETATM   17  C   UNL     1     -10.890   9.460  71.176  1.00  0.00    -0.357 A  
HETATM   18  C   UNL     1     -11.352  10.596  70.496  1.00  0.00    -0.355 A  
HETATM   19  C   UNL     1     -12.647  11.081  70.705  1.00  0.00    -0.463 A  
HETATM   20  C   UNL     1     -13.493  10.457  71.617  1.00  0.00    -0.335 A  
HETATM   21  C   UNL     1     -13.039   9.345  72.324  1.00  0.00    -0.428 A  
HETATM   22  O   UNL     1     -13.868   8.758  73.241  1.00  0.00    -1.115 OA 
HETATM   23  C   UNL     1     -11.747   8.834  72.106  1.00  0.00    -0.433 A  
HETATM   24  C   UNL     1     -11.339   7.626  72.876  1.00  0.00    -0.341 C  
HETATM   25  H   UNL     1     -13.559   8.000  73.723  1.00  0.00     0.000 HD 
HETATM   26  O   UNL     1     -10.215   7.140  72.880  1.00  0.00    -0.193 OA 
ENDBRANCH  16  17
ENDBRANCH  15  16
ENDBRANCH  10  15
ENDBRANCH   8   9
ENDBRANCH   2   4
TORSDOF 5
ENDMDL
MODEL       95
REMARK 921   NORMALIZED FREE ENERGY PREDICTED BY IDOCK:   -5.73 KCAL/MOL
REMARK 922        TOTAL FREE ENERGY PREDICTED BY IDOCK:   -8.61 KCAL/MOL
REMARK 923 INTER-LIGAND FREE ENERGY PREDICTED BY IDOCK:   -7.34 KCAL/MOL
REMARK 924 INTRA-LIGAND FREE ENERGY PREDICTED BY IDOCK:   -1.28 KCAL/MOL
REMARK 927      BINDING AFFINITY PREDICTED BY RF-SCORE:    0.00 PKD
ROOT
HETATM    1  C   UNL     1      -9.386   8.393  67.183  1.00  0.00    -0.192 C  
HETATM    2  C   UNL     1     -10.360   7.869  68.243  1.00  0.00    -0.197 C  
HETATM    3  C   UNL     1     -10.995   6.552  67.779  1.00  0.00    -0.407 C  
ENDROOT
BRANCH   2   4
HETATM    4  N   UNL     1      -9.714   7.678  69.544  1.00  0.00    -0.167 NA 
HETATM    5  N   UNL     1      -8.373   7.463  69.553  1.00  0.00    -0.131 NA 
HETATM    6  C   UNL     1      -8.131   7.004  70.775  1.00  0.00    -0.113 A  
HETATM    7  C   UNL     1      -9.286   6.979  71.570  1.00  0.00    -0.154 A  
HETATM    8  C   UNL     1     -10.301   7.516  70.792  1.00  0.00    -0.203 A  
BRANCH   8   9
HETATM    9  C   UNL     1     -11.650   7.965  71.152  1.00  0.00    -0.280 A  
HETATM   10  C   UNL     1     -12.163   9.261  71.018  1.00  0.00    -0.322 A  
HETATM   11  C   UNL     1     -13.739   7.142  71.778  1.00  0.00    -0.258 A  
HETATM   12  C   UNL     1     -13.528   9.451  71.318  1.00  0.00    -0.331 A  
HETATM   13  N   UNL     1     -12.433   6.915  71.522  1.00  0.00    -0.372 NA 
HETATM   14  C   UNL     1     -14.330   8.382  71.689  1.00  0.00    -0.536 A  
BRANCH  10  15
HETATM   15  C   UNL     1     -11.383  10.486  70.622  1.00  0.00    -0.275 C  
BRANCH  15  16
HETATM   16  O   UNL     1     -12.280  11.430  70.054  1.00  0.00    -0.309 OA 
BRANCH  16  17
HETATM   17  C   UNL     1     -11.904  12.156  68.959  1.00  0.00    -0.306 A  
HETATM   18  C   UNL     1     -11.529  11.590  67.733  1.00  0.00    -0.357 A  
HETATM   19  C   UNL     1     -11.241  12.397  66.627  1.00  0.00    -0.366 A  
HETATM   20  C   UNL     1     -11.297  13.782  66.735  1.00  0.00    -0.345 A  
HETATM   21  C   UNL     1     -11.639  14.362  67.955  1.00  0.00    -0.327 A  
HETATM   22  O   UNL     1     -11.659  15.727  68.059  1.00  0.00    -0.321 OA 
HETATM   23  C   UNL     1     -11.952  13.562  69.068  1.00  0.00    -0.376 A  
HETATM   24  C   UNL     1     -12.337  14.249  70.332  1.00  0.00    -0.352 C  
HETATM   25  H   UNL     1     -11.892  16.123  68.890  1.00  0.00     0.000 HD 
HETATM   26  O   UNL     1     -12.521  13.694  71.408  1.00  0.00    -0.341 OA 
ENDBRANCH  16  17
ENDBRANCH  15  16
ENDBRANCH  10  15
ENDBRANCH   8   9
ENDBRANCH   2   4
TORSDOF 5
ENDMDL
MODEL       96
REMARK 921   NORMALIZED FREE ENERGY PREDICTED BY IDOCK:   -5.72 KCAL/MOL
REMARK 922        TOTAL FREE ENERGY PREDICTED BY IDOCK:   -8.61 KCAL/MOL
REMARK 923 INTER-LIGAND FREE ENERGY PREDICTED BY IDOCK:   -7.14 KCAL/MOL
REMARK 924 INTRA-LIGAND FREE ENERGY PREDICTED BY IDOCK:   -1.48 KCAL/MOL
REMARK 927      BINDING AFFINITY PREDICTED BY RF-SCORE:    0.00 PKD
ROOT
HETATM    1  C   UNL     1     -10.583  19.861  68.004  1.00  0.00    -0.406 C  
HETATM    2  C   UNL     1     -10.650  18.825  66.878  1.00  0.00    -0.409 C  
HETATM    3  C   UNL     1     -10.712  19.523  65.513  1.00  0.00    -0.300 C  
ENDROOT
BRANCH   2   4
HETATM    4  N   UNL     1      -9.517  17.897  66.910  1.00  0.00    -0.271 NA 
HETATM    5  N   UNL     1      -8.336  18.365  67.389  1.00  0.00    -0.250 NA 
HETATM    6  C   UNL     1      -7.450  17.458  66.998  1.00  0.00    -0.198 A  
HETATM    7  C   UNL     1      -8.051  16.383  66.326  1.00  0.00    -0.311 A  
HETATM    8  C   UNL     1      -9.417  16.626  66.360  1.00  0.00    -0.280 A  
BRANCH   8   9
HETATM    9  C   UNL     1     -10.553  15.754  66.042  1.00  0.00    -0.326 A  
HETATM   10  C   UNL     1     -11.376  15.088  66.959  1.00  0.00    -0.319 A  
HETATM   11  C   UNL     1     -11.910  15.103  64.263  1.00  0.00    -0.251 A  
HETATM   12  C   UNL     1     -12.488  14.391  66.441  1.00  0.00    -0.196 A  
HETATM   13  N   UNL     1     -10.823  15.767  64.708  1.00  0.00    -0.524 NA 
HETATM   14  C   UNL     1     -12.769  14.407  65.083  1.00  0.00    -0.262 A  
BRANCH  10  15
HETATM   15  C   UNL     1     -11.163  15.008  68.447  1.00  0.00    -0.293 C  
BRANCH  15  16
HETATM   16  O   UNL     1     -10.344  13.881  68.726  1.00  0.00    -0.237 OA 
BRANCH  16  17
HETATM   17  C   UNL     1     -10.916  12.696  69.094  1.00  0.00    -0.142 A  
HETATM   18  C   UNL     1     -11.764  12.544  70.199  1.00  0.00    -0.255 A  
HETATM   19  C   UNL     1     -12.386  11.319  70.464  1.00  0.00    -0.446 A  
HETATM   20  C   UNL     1     -12.150  10.219  69.646  1.00  0.00    -0.080 A  
HETATM   21  C   UNL     1     -11.285  10.346  68.559  1.00  0.00    -0.251 A  
HETATM   22  O   UNL     1     -11.035   9.249  67.779  1.00  0.00    -0.483 OA 
HETATM   23  C   UNL     1     -10.672  11.577  68.270  1.00  0.00    -0.247 A  
HETATM   24  C   UNL     1      -9.782  11.646  67.077  1.00  0.00    -0.186 C  
HETATM   25  H   UNL     1     -10.446   9.334  67.039  1.00  0.00     0.000 HD 
HETATM   26  O   UNL     1      -9.092  12.610  66.768  1.00  0.00    -0.216 OA 
ENDBRANCH  16  17
ENDBRANCH  15  16
ENDBRANCH  10  15
ENDBRANCH   8   9
ENDBRANCH   2   4
TORSDOF 5
ENDMDL
MODEL       97
REMARK 921   NORMALIZED FREE ENERGY PREDICTED BY IDOCK:   -5.72 KCAL/MOL
REMARK 922        TOTAL FREE ENERGY PREDICTED BY IDOCK:   -8.60 KCAL/MOL
REMARK 923 INTER-LIGAND FREE ENERGY PREDICTED BY IDOCK:   -7.04 KCAL/MOL
REMARK 924 INTRA-LIGAND FREE ENERGY PREDICTED BY IDOCK:   -1.56 KCAL/MOL
REMARK 927      BINDING AFFINITY PREDICTED BY RF-SCORE:    0.00 PKD
ROOT
HETATM    1  C   UNL     1      -8.120  13.629  67.299  1.00  0.00    -0.152 C  
HETATM    2  C   UNL     1      -9.144  14.763  67.200  1.00  0.00    -0.217 C  
HETATM    3  C   UNL     1      -8.493  16.020  66.608  1.00  0.00    -0.323 C  
ENDROOT
BRANCH   2   4
HETATM    4  N   UNL     1     -10.313  14.387  66.402  1.00  0.00    -0.281 NA 
HETATM    5  N   UNL     1     -10.293  14.687  65.078  1.00  0.00    -0.414 NA 
HETATM    6  C   UNL     1     -11.558  14.548  64.699  1.00  0.00    -0.408 A  
HETATM    7  C   UNL     1     -12.379  14.104  65.746  1.00  0.00    -0.481 A  
HETATM    8  C   UNL     1     -11.542  13.903  66.833  1.00  0.00    -0.378 A  
BRANCH   8   9
HETATM    9  C   UNL     1     -11.778  13.224  68.112  1.00  0.00    -0.362 A  
HETATM   10  C   UNL     1     -11.620  11.858  68.374  1.00  0.00    -0.376 A  
HETATM   11  C   UNL     1     -12.180  13.668  70.364  1.00  0.00    -0.363 A  
HETATM   12  C   UNL     1     -11.789  11.431  69.709  1.00  0.00    -0.435 A  
HETATM   13  N   UNL     1     -12.048  14.121  69.100  1.00  0.00    -0.344 NA 
HETATM   14  C   UNL     1     -12.058  12.343  70.718  1.00  0.00    -0.245 A  
BRANCH  10  15
HETATM   15  C   UNL     1     -11.327  10.788  67.357  1.00  0.00    -0.160 C  
BRANCH  15  16
HETATM   16  O   UNL     1      -9.986  10.943  66.911  1.00  0.00    -0.184 OA 
BRANCH  16  17
HETATM   17  C   UNL     1      -9.692  10.834  65.581  1.00  0.00    -0.237 A  
HETATM   18  C   UNL     1     -10.560  11.222  64.551  1.00  0.00    -0.401 A  
HETATM   19  C   UNL     1     -10.157  11.164  63.213  1.00  0.00    -0.426 A  
HETATM   20  C   UNL     1      -8.892  10.693  62.879  1.00  0.00    -0.252 A  
HETATM   21  C   UNL     1      -8.027  10.275  63.889  1.00  0.00    -0.126 A  
HETATM   22  O   UNL     1      -6.797   9.783  63.547  1.00  0.00    -0.107 OA 
HETATM   23  C   UNL     1      -8.412  10.349  65.239  1.00  0.00    -0.173 A  
HETATM   24  C   UNL     1      -7.426   9.912  66.267  1.00  0.00    -0.102 C  
HETATM   25  H   UNL     1      -6.207   9.498  64.235  1.00  0.00     0.000 HD 
HETATM   26  O   UNL     1      -7.657   9.809  67.466  1.00  0.00    -0.091 OA 
ENDBRANCH  16  17
ENDBRANCH  15  16
ENDBRANCH  10  15
ENDBRANCH   8   9
ENDBRANCH   2   4
TORSDOF 5
ENDMDL
MODEL       98
REMARK 921   NORMALIZED FREE ENERGY PREDICTED BY IDOCK:   -5.70 KCAL/MOL
REMARK 922        TOTAL FREE ENERGY PREDICTED BY IDOCK:   -8.58 KCAL/MOL
REMARK 923 INTER-LIGAND FREE ENERGY PREDICTED BY IDOCK:   -7.64 KCAL/MOL
REMARK 924 INTRA-LIGAND FREE ENERGY PREDICTED BY IDOCK:   -0.94 KCAL/MOL
REMARK 927      BINDING AFFINITY PREDICTED BY RF-SCORE:    0.00 PKD
ROOT
HETATM    1  C   UNL     1     -12.561  13.320  71.443  1.00  0.00    -0.365 C  
HETATM    2  C   UNL     1     -12.990  14.367  70.412  1.00  0.00    -0.155 C  
HETATM    3  C   UNL     1     -14.014  15.331  71.025  1.00  0.00    -0.368 C  
ENDROOT
BRANCH   2   4
HETATM    4  N   UNL     1     -11.853  15.121  69.880  1.00  0.00    -0.308 NA 
HETATM    5  N   UNL     1     -11.328  16.099  70.662  1.00  0.00    -0.392 NA 
HETATM    6  C   UNL     1     -10.574  16.806  69.829  1.00  0.00    -0.174 A  
HETATM    7  C   UNL     1     -10.560  16.261  68.536  1.00  0.00    -0.294 A  
HETATM    8  C   UNL     1     -11.317  15.102  68.599  1.00  0.00    -0.310 A  
BRANCH   8   9
HETATM    9  C   UNL     1     -11.461  13.997  67.643  1.00  0.00    -0.334 A  
HETATM   10  C   UNL     1     -11.176  12.647  67.879  1.00  0.00    -0.310 A  
HETATM   11  C   UNL     1     -12.363  13.502  65.552  1.00  0.00    -0.481 A  
HETATM   12  C   UNL     1     -11.497  11.730  66.855  1.00  0.00    -0.364 A  
HETATM   13  N   UNL     1     -12.055  14.419  66.493  1.00  0.00    -0.406 NA 
HETATM   14  C   UNL     1     -12.108  12.156  65.685  1.00  0.00    -0.180 A  
BRANCH  10  15
HETATM   15  C   UNL     1     -10.518  12.081  69.109  1.00  0.00     0.033 C  
BRANCH  15  16
HETATM   16  O   UNL     1     -11.202  10.892  69.481  1.00  0.00    -0.235 OA 
BRANCH  16  17
HETATM   17  C   UNL     1     -10.565   9.945  70.232  1.00  0.00    -0.301 A  
HETATM   18  C   UNL     1      -9.208   9.619  70.097  1.00  0.00    -0.287 A  
HETATM   19  C   UNL     1      -8.601   8.702  70.961  1.00  0.00    -0.211 A  
HETATM   20  C   UNL     1      -9.344   8.075  71.956  1.00  0.00    -0.237 A  
HETATM   21  C   UNL     1     -10.701   8.365  72.084  1.00  0.00    -0.337 A  
HETATM   22  O   UNL     1     -11.430   7.718  73.045  1.00  0.00    -0.564 OA 
HETATM   23  C   UNL     1     -11.318   9.302  71.236  1.00  0.00    -0.423 A  
HETATM   24  C   UNL     1     -12.766   9.583  71.449  1.00  0.00    -0.358 C  
HETATM   25  H   UNL     1     -12.355   7.915  73.133  1.00  0.00     0.000 HD 
HETATM   26  O   UNL     1     -13.462  10.280  70.721  1.00  0.00    -0.278 OA 
ENDBRANCH  16  17
ENDBRANCH  15  16
ENDBRANCH  10  15
ENDBRANCH   8   9
ENDBRANCH   2   4
TORSDOF 5
ENDMDL
MODEL       99
REMARK 921   NORMALIZED FREE ENERGY PREDICTED BY IDOCK:   -5.70 KCAL/MOL
REMARK 922        TOTAL FREE ENERGY PREDICTED BY IDOCK:   -8.57 KCAL/MOL
REMARK 923 INTER-LIGAND FREE ENERGY PREDICTED BY IDOCK:   -7.56 KCAL/MOL
REMARK 924 INTRA-LIGAND FREE ENERGY PREDICTED BY IDOCK:   -1.02 KCAL/MOL
REMARK 927      BINDING AFFINITY PREDICTED BY RF-SCORE:    0.00 PKD
ROOT
HETATM    1  C   UNL     1     -12.136  13.290  63.593  1.00  0.00    -0.551 C  
HETATM    2  C   UNL     1     -11.147  12.285  64.189  1.00  0.00    -0.366 C  
HETATM    3  C   UNL     1     -10.163  11.803  63.114  1.00  0.00    -0.376 C  
ENDROOT
BRANCH   2   4
HETATM    4  N   UNL     1     -10.408  12.840  65.325  1.00  0.00    -0.292 NA 
HETATM    5  N   UNL     1     -10.571  14.161  65.595  1.00  0.00    -0.296 NA 
HETATM    6  C   UNL     1      -9.569  14.445  66.418  1.00  0.00    -0.299 A  
HETATM    7  C   UNL     1      -8.801  13.313  66.730  1.00  0.00    -0.140 A  
HETATM    8  C   UNL     1      -9.415  12.245  66.092  1.00  0.00    -0.217 A  
BRANCH   8   9
HETATM    9  C   UNL     1      -9.219  10.799  66.241  1.00  0.00    -0.173 A  
HETATM   10  C   UNL     1     -10.053   9.909  66.928  1.00  0.00    -0.285 A  
HETATM   11  C   UNL     1      -7.917   9.043  65.432  1.00  0.00    -0.111 A  
HETATM   12  C   UNL     1      -9.740   8.536  66.849  1.00  0.00    -0.286 A  
HETATM   13  N   UNL     1      -8.165  10.368  65.495  1.00  0.00    -0.159 NA 
HETATM   14  C   UNL     1      -8.671   8.093  66.084  1.00  0.00    -0.179 A  
BRANCH  10  15
HETATM   15  C   UNL     1     -11.235  10.283  67.783  1.00  0.00    -0.190 C  
BRANCH  15  16
HETATM   16  O   UNL     1     -10.804  10.376  69.134  1.00  0.00    -0.207 OA 
BRANCH  16  17
HETATM   17  C   UNL     1     -11.634  10.910  70.079  1.00  0.00    -0.341 A  
HETATM   18  C   UNL     1     -11.946  12.274  70.169  1.00  0.00    -0.377 A  
HETATM   19  C   UNL     1     -12.874  12.738  71.108  1.00  0.00    -0.315 A  
HETATM   20  C   UNL     1     -13.485  11.853  71.989  1.00  0.00    -0.336 A  
HETATM   21  C   UNL     1     -13.164  10.497  71.933  1.00  0.00    -0.420 A  
HETATM   22  O   UNL     1     -13.747   9.639  72.826  1.00  0.00    -0.692 OA 
HETATM   23  C   UNL     1     -12.250  10.015  70.979  1.00  0.00    -0.462 A  
HETATM   24  C   UNL     1     -11.975   8.551  70.958  1.00  0.00    -0.231 C  
HETATM   25  H   UNL     1     -13.529   8.716  72.788  1.00  0.00     0.000 HD 
HETATM   26  O   UNL     1     -11.123   8.004  70.269  1.00  0.00    -0.257 OA 
ENDBRANCH  16  17
ENDBRANCH  15  16
ENDBRANCH  10  15
ENDBRANCH   8   9
ENDBRANCH   2   4
TORSDOF 5
ENDMDL
MODEL      100
REMARK 921   NORMALIZED FREE ENERGY PREDICTED BY IDOCK:   -5.68 KCAL/MOL
REMARK 922        TOTAL FREE ENERGY PREDICTED BY IDOCK:   -8.55 KCAL/MOL
REMARK 923 INTER-LIGAND FREE ENERGY PREDICTED BY IDOCK:   -7.30 KCAL/MOL
REMARK 924 INTRA-LIGAND FREE ENERGY PREDICTED BY IDOCK:   -1.25 KCAL/MOL
REMARK 927      BINDING AFFINITY PREDICTED BY RF-SCORE:    0.00 PKD
ROOT
HETATM    1  C   UNL     1      -9.438  14.998  65.986  1.00  0.00    -0.337 C  
HETATM    2  C   UNL     1     -10.024  13.598  66.182  1.00  0.00    -0.306 C  
HETATM    3  C   UNL     1     -10.978  13.583  67.385  1.00  0.00    -0.286 C  
ENDROOT
BRANCH   2   4
HETATM    4  N   UNL     1     -10.723  13.116  64.989  1.00  0.00    -0.309 NA 
HETATM    5  N   UNL     1     -11.565  13.978  64.363  1.00  0.00    -0.384 NA 
HETATM    6  C   UNL     1     -12.280  13.200  63.560  1.00  0.00    -0.476 A  
HETATM    7  C   UNL     1     -11.871  11.860  63.616  1.00  0.00    -0.573 A  
HETATM    8  C   UNL     1     -10.784  11.826  64.477  1.00  0.00    -0.315 A  
BRANCH   8   9
HETATM    9  C   UNL     1      -9.799  10.770  64.737  1.00  0.00    -0.300 A  
HETATM   10  C   UNL     1      -9.793   9.883  65.820  1.00  0.00    -0.356 A  
HETATM   11  C   UNL     1      -8.026   9.643  63.729  1.00  0.00    -0.143 A  
HETATM   12  C   UNL     1      -8.816   8.864  65.816  1.00  0.00    -0.223 A  
HETATM   13  N   UNL     1      -8.928  10.646  63.698  1.00  0.00    -0.195 NA 
HETATM   14  C   UNL     1      -7.931   8.731  64.757  1.00  0.00    -0.132 A  
BRANCH  10  15
HETATM   15  C   UNL     1     -10.705   9.937  67.016  1.00  0.00    -0.167 C  
BRANCH  15  16
HETATM   16  O   UNL     1     -10.610   8.703  67.714  1.00  0.00    -0.236 OA 
BRANCH  16  17
HETATM   17  C   UNL     1     -10.764   8.673  69.072  1.00  0.00    -0.101 A  
HETATM   18  C   UNL     1     -10.725   9.810  69.891  1.00  0.00    -0.303 A  
HETATM   19  C   UNL     1     -10.979   9.716  71.263  1.00  0.00    -0.399 A  
HETATM   20  C   UNL     1     -11.249   8.482  71.845  1.00  0.00    -0.397 A  
HETATM   21  C   UNL     1     -11.262   7.337  71.049  1.00  0.00    -0.266 A  
HETATM   22  O   UNL     1     -11.498   6.123  71.637  1.00  0.00    -0.286 OA 
HETATM   23  C   UNL     1     -11.031   7.422  69.665  1.00  0.00    -0.186 A  
HETATM   24  C   UNL     1     -11.088   6.161  68.873  1.00  0.00    -0.345 C  
HETATM   25  H   UNL     1     -11.507   5.343  71.096  1.00  0.00     0.000 HD 
HETATM   26  O   UNL     1     -10.794   6.060  67.688  1.00  0.00    -0.281 OA 
ENDBRANCH  16  17
ENDBRANCH  15  16
ENDBRANCH  10  15
ENDBRANCH   8   9
ENDBRANCH   2   4
TORSDOF 5
ENDMDL
MODEL      101
REMARK 921   NORMALIZED FREE ENERGY PREDICTED BY IDOCK:   -5.67 KCAL/MOL
REMARK 922        TOTAL FREE ENERGY PREDICTED BY IDOCK:   -8.54 KCAL/MOL
REMARK 923 INTER-LIGAND FREE ENERGY PREDICTED BY IDOCK:   -7.35 KCAL/MOL
REMARK 924 INTRA-LIGAND FREE ENERGY PREDICTED BY IDOCK:   -1.18 KCAL/MOL
REMARK 927      BINDING AFFINITY PREDICTED BY RF-SCORE:    0.00 PKD
ROOT
HETATM    1  C   UNL     1     -12.121  13.309  70.209  1.00  0.00    -0.405 C  
HETATM    2  C   UNL     1     -12.102  14.760  69.719  1.00  0.00    -0.319 C  
HETATM    3  C   UNL     1     -12.454  15.715  70.867  1.00  0.00    -0.497 C  
ENDROOT
BRANCH   2   4
HETATM    4  N   UNL     1     -10.810  15.133  69.140  1.00  0.00    -0.240 NA 
HETATM    5  N   UNL     1      -9.940  15.813  69.931  1.00  0.00    -0.254 NA 
HETATM    6  C   UNL     1      -9.042  16.294  69.080  1.00  0.00    -0.255 A  
HETATM    7  C   UNL     1      -9.288  15.883  67.761  1.00  0.00    -0.207 A  
HETATM    8  C   UNL     1     -10.388  15.041  67.819  1.00  0.00    -0.245 A  
BRANCH   8   9
HETATM    9  C   UNL     1     -10.953  14.130  66.817  1.00  0.00    -0.300 A  
HETATM   10  C   UNL     1     -10.880  12.732  66.824  1.00  0.00    -0.289 A  
HETATM   11  C   UNL     1     -12.388  14.103  64.981  1.00  0.00    -0.440 A  
HETATM   12  C   UNL     1     -11.594  12.042  65.822  1.00  0.00    -0.353 A  
HETATM   13  N   UNL     1     -11.705  14.808  65.908  1.00  0.00    -0.300 NA 
HETATM   14  C   UNL     1     -12.367  12.729  64.898  1.00  0.00    -0.551 A  
BRANCH  10  15
HETATM   15  C   UNL     1     -10.076  11.891  67.779  1.00  0.00    -0.191 C  
BRANCH  15  16
HETATM   16  O   UNL     1     -10.356  10.522  67.523  1.00  0.00    -0.198 OA 
BRANCH  16  17
HETATM   17  C   UNL     1     -10.513   9.651  68.564  1.00  0.00    -0.212 A  
HETATM   18  C   UNL     1     -10.820  10.041  69.874  1.00  0.00    -0.328 A  
HETATM   19  C   UNL     1     -11.054   9.089  70.871  1.00  0.00    -0.343 A  
HETATM   20  C   UNL     1     -10.958   7.731  70.583  1.00  0.00    -0.255 A  
HETATM   21  C   UNL     1     -10.623   7.326  69.292  1.00  0.00    -0.221 A  
HETATM   22  O   UNL     1     -10.500   5.989  69.027  1.00  0.00    -0.202 OA 
HETATM   23  C   UNL     1     -10.408   8.273  68.276  1.00  0.00    -0.242 A  
HETATM   24  C   UNL     1     -10.082   7.768  66.913  1.00  0.00    -0.286 C  
HETATM   25  H   UNL     1     -10.272   5.712  68.148  1.00  0.00     0.000 HD 
HETATM   26  O   UNL     1      -9.756   8.467  65.962  1.00  0.00    -0.222 OA 
ENDBRANCH  16  17
ENDBRANCH  15  16
ENDBRANCH  10  15
ENDBRANCH   8   9
ENDBRANCH   2   4
TORSDOF 5
ENDMDL
MODEL      102
REMARK 921   NORMALIZED FREE ENERGY PREDICTED BY IDOCK:   -5.67 KCAL/MOL
REMARK 922        TOTAL FREE ENERGY PREDICTED BY IDOCK:   -8.53 KCAL/MOL
REMARK 923 INTER-LIGAND FREE ENERGY PREDICTED BY IDOCK:   -7.19 KCAL/MOL
REMARK 924 INTRA-LIGAND FREE ENERGY PREDICTED BY IDOCK:   -1.34 KCAL/MOL
REMARK 927      BINDING AFFINITY PREDICTED BY RF-SCORE:    0.00 PKD
ROOT
HETATM    1  C   UNL     1      -9.197   8.703  71.916  1.00  0.00    -0.345 C  
HETATM    2  C   UNL     1      -9.125   8.915  70.401  1.00  0.00    -0.190 C  
HETATM    3  C   UNL     1      -7.702   8.647  69.892  1.00  0.00    -0.084 C  
ENDROOT
BRANCH   2   4
HETATM    4  N   UNL     1     -10.079   8.072  69.677  1.00  0.00    -0.194 NA 
HETATM    5  N   UNL     1     -10.681   7.069  70.367  1.00  0.00    -0.227 NA 
HETATM    6  C   UNL     1     -11.203   6.298  69.421  1.00  0.00    -0.420 A  
HETATM    7  C   UNL     1     -10.997   6.822  68.136  1.00  0.00    -0.277 A  
HETATM    8  C   UNL     1     -10.348   8.034  68.315  1.00  0.00    -0.197 A  
BRANCH   8   9
HETATM    9  C   UNL     1     -10.093   9.133  67.376  1.00  0.00    -0.230 A  
HETATM   10  C   UNL     1     -10.717  10.386  67.367  1.00  0.00    -0.338 A  
HETATM   11  C   UNL     1      -8.606   9.798  65.709  1.00  0.00    -0.135 A  
HETATM   12  C   UNL     1     -10.238  11.341  66.446  1.00  0.00    -0.273 A  
HETATM   13  N   UNL     1      -9.043   8.845  66.559  1.00  0.00    -0.155 NA 
HETATM   14  C   UNL     1      -9.164  11.053  65.617  1.00  0.00    -0.231 A  
BRANCH  10  15
HETATM   15  C   UNL     1     -11.885  10.801  68.222  1.00  0.00    -0.001 C  
BRANCH  15  16
HETATM   16  O   UNL     1     -11.392  11.223  69.486  1.00  0.00    -0.252 OA 
BRANCH  16  17
HETATM   17  C   UNL     1     -11.902  12.344  70.078  1.00  0.00    -0.288 A  
HETATM   18  C   UNL     1     -11.665  13.648  69.624  1.00  0.00    -0.383 A  
HETATM   19  C   UNL     1     -12.292  14.743  70.226  1.00  0.00    -0.400 A  
HETATM   20  C   UNL     1     -13.145  14.558  71.308  1.00  0.00    -0.417 A  
HETATM   21  C   UNL     1     -13.369  13.270  71.792  1.00  0.00    -0.393 A  
HETATM   22  O   UNL     1     -14.185  13.101  72.878  1.00  0.00    -0.610 OA 
HETATM   23  C   UNL     1     -12.762  12.158  71.182  1.00  0.00    -0.351 A  
HETATM   24  C   UNL     1     -13.068  10.809  71.734  1.00  0.00    -0.468 C  
HETATM   25  H   UNL     1     -14.337  12.224  73.208  1.00  0.00     0.000 HD 
HETATM   26  O   UNL     1     -12.528   9.766  71.386  1.00  0.00    -0.333 OA 
ENDBRANCH  16  17
ENDBRANCH  15  16
ENDBRANCH  10  15
ENDBRANCH   8   9
ENDBRANCH   2   4
TORSDOF 5
ENDMDL
MODEL      103
REMARK 921   NORMALIZED FREE ENERGY PREDICTED BY IDOCK:   -5.66 KCAL/MOL
REMARK 922        TOTAL FREE ENERGY PREDICTED BY IDOCK:   -8.52 KCAL/MOL
REMARK 923 INTER-LIGAND FREE ENERGY PREDICTED BY IDOCK:   -7.45 KCAL/MOL
REMARK 924 INTRA-LIGAND FREE ENERGY PREDICTED BY IDOCK:   -1.08 KCAL/MOL
REMARK 927      BINDING AFFINITY PREDICTED BY RF-SCORE:    0.00 PKD
ROOT
HETATM    1  C   UNL     1      -9.094   7.322  65.887  1.00  0.00    -0.064 C  
HETATM    2  C   UNL     1      -9.678   8.704  66.192  1.00  0.00    -0.222 C  
HETATM    3  C   UNL     1     -10.367   8.701  67.563  1.00  0.00    -0.336 C  
ENDROOT
BRANCH   2   4
HETATM    4  N   UNL     1      -8.662   9.759  66.148  1.00  0.00    -0.134 NA 
HETATM    5  N   UNL     1      -7.360   9.380  66.225  1.00  0.00    -0.095 NA 
HETATM    6  C   UNL     1      -6.714  10.507  66.495  1.00  0.00    -0.105 A  
HETATM    7  C   UNL     1      -7.574  11.615  66.534  1.00  0.00     0.016 A  
HETATM    8  C   UNL     1      -8.833  11.136  66.207  1.00  0.00    -0.185 A  
BRANCH   8   9
HETATM    9  C   UNL     1     -10.068  11.846  65.853  1.00  0.00    -0.234 A  
HETATM   10  C   UNL     1     -10.738  12.795  66.633  1.00  0.00    -0.279 A  
HETATM   11  C   UNL     1     -11.492  12.237  64.050  1.00  0.00    -0.409 A  
HETATM   12  C   UNL     1     -11.848  13.444  66.051  1.00  0.00    -0.423 A  
HETATM   13  N   UNL     1     -10.438  11.576  64.571  1.00  0.00    -0.293 NA 
HETATM   14  C   UNL     1     -12.223  13.175  64.744  1.00  0.00    -0.477 A  
BRANCH  10  15
HETATM   15  C   UNL     1     -10.413  13.161  68.057  1.00  0.00    -0.239 C  
BRANCH  15  16
HETATM   16  O   UNL     1     -11.370  12.548  68.911  1.00  0.00    -0.258 OA 
BRANCH  16  17
HETATM   17  C   UNL     1     -12.032  13.298  69.843  1.00  0.00    -0.330 A  
HETATM   18  C   UNL     1     -12.182  14.689  69.767  1.00  0.00    -0.347 A  
HETATM   19  C   UNL     1     -12.949  15.380  70.711  1.00  0.00    -0.510 A  
HETATM   20  C   UNL     1     -13.555  14.698  71.761  1.00  0.00    -0.481 A  
HETATM   21  C   UNL     1     -13.390  13.318  71.868  1.00  0.00    -0.451 A  
HETATM   22  O   UNL     1     -13.964  12.661  72.922  1.00  0.00    -0.575 OA 
HETATM   23  C   UNL     1     -12.641  12.609  70.913  1.00  0.00    -0.338 A  
HETATM   24  C   UNL     1     -12.530  11.131  71.073  1.00  0.00    -0.403 C  
HETATM   25  H   UNL     1     -13.852  11.720  72.995  1.00  0.00     0.000 HD 
HETATM   26  O   UNL     1     -11.820  10.400  70.394  1.00  0.00    -0.278 OA 
ENDBRANCH  16  17
ENDBRANCH  15  16
ENDBRANCH  10  15
ENDBRANCH   8   9
ENDBRANCH   2   4
TORSDOF 5
ENDMDL
MODEL      104
REMARK 921   NORMALIZED FREE ENERGY PREDICTED BY IDOCK:   -5.64 KCAL/MOL
REMARK 922        TOTAL FREE ENERGY PREDICTED BY IDOCK:   -8.51 KCAL/MOL
REMARK 923 INTER-LIGAND FREE ENERGY PREDICTED BY IDOCK:   -7.75 KCAL/MOL
REMARK 924 INTRA-LIGAND FREE ENERGY PREDICTED BY IDOCK:   -0.76 KCAL/MOL
REMARK 927      BINDING AFFINITY PREDICTED BY RF-SCORE:    0.00 PKD
ROOT
HETATM    1  C   UNL     1     -12.777   7.081  71.273  1.00  0.00    -0.400 C  
HETATM    2  C   UNL     1     -11.512   6.220  71.331  1.00  0.00    -0.293 C  
HETATM    3  C   UNL     1     -10.949   6.003  69.920  1.00  0.00    -0.458 C  
ENDROOT
BRANCH   2   4
HETATM    4  N   UNL     1     -10.481   6.805  72.192  1.00  0.00    -0.204 NA 
HETATM    5  N   UNL     1     -10.315   6.267  73.427  1.00  0.00    -0.223 NA 
HETATM    6  C   UNL     1      -9.591   7.170  74.076  1.00  0.00    -0.270 A  
HETATM    7  C   UNL     1      -9.239   8.254  73.258  1.00  0.00    -0.263 A  
HETATM    8  C   UNL     1      -9.738   7.962  71.997  1.00  0.00    -0.187 A  
BRANCH   8   9
HETATM    9  C   UNL     1      -9.481   8.589  70.695  1.00  0.00    -0.174 A  
HETATM   10  C   UNL     1     -10.196   9.646  70.121  1.00  0.00    -0.313 A  
HETATM   11  C   UNL     1      -7.897   8.656  68.987  1.00  0.00    -0.100 A  
HETATM   12  C   UNL     1      -9.706  10.175  68.908  1.00  0.00    -0.189 A  
HETATM   13  N   UNL     1      -8.338   8.104  70.136  1.00  0.00    -0.123 NA 
HETATM   14  C   UNL     1      -8.539   9.687  68.339  1.00  0.00    -0.119 A  
BRANCH  10  15
HETATM   15  C   UNL     1     -11.468  10.248  70.654  1.00  0.00    -0.349 C  
BRANCH  15  16
HETATM   16  O   UNL     1     -11.709  11.473  69.974  1.00  0.00    -0.311 OA 
BRANCH  16  17
HETATM   17  C   UNL     1     -12.366  12.488  70.609  1.00  0.00    -0.282 A  
HETATM   18  C   UNL     1     -12.980  12.362  71.863  1.00  0.00    -0.407 A  
HETATM   19  C   UNL     1     -13.559  13.469  72.494  1.00  0.00    -0.674 A  
HETATM   20  C   UNL     1     -13.558  14.712  71.872  1.00  0.00    -0.483 A  
HETATM   21  C   UNL     1     -12.979  14.849  70.611  1.00  0.00    -0.338 A  
HETATM   22  O   UNL     1     -13.012  16.070  69.994  1.00  0.00    -0.615 OA 
HETATM   23  C   UNL     1     -12.374  13.750  69.977  1.00  0.00    -0.364 A  
HETATM   24  C   UNL     1     -11.749  13.974  68.643  1.00  0.00    -0.354 C  
HETATM   25  H   UNL     1     -12.617  16.164  69.135  1.00  0.00     0.000 HD 
HETATM   26  O   UNL     1     -11.292  13.096  67.922  1.00  0.00    -0.255 OA 
ENDBRANCH  16  17
ENDBRANCH  15  16
ENDBRANCH  10  15
ENDBRANCH   8   9
ENDBRANCH   2   4
TORSDOF 5
ENDMDL
MODEL      105
REMARK 921   NORMALIZED FREE ENERGY PREDICTED BY IDOCK:   -5.63 KCAL/MOL
REMARK 922        TOTAL FREE ENERGY PREDICTED BY IDOCK:   -8.48 KCAL/MOL
REMARK 923 INTER-LIGAND FREE ENERGY PREDICTED BY IDOCK:   -7.33 KCAL/MOL
REMARK 924 INTRA-LIGAND FREE ENERGY PREDICTED BY IDOCK:   -1.15 KCAL/MOL
REMARK 927      BINDING AFFINITY PREDICTED BY RF-SCORE:    0.00 PKD
ROOT
HETATM    1  C   UNL     1      -7.914   6.936  72.600  1.00  0.00    -0.104 C  
HETATM    2  C   UNL     1      -8.665   6.906  71.266  1.00  0.00    -0.134 C  
HETATM    3  C   UNL     1      -8.225   5.694  70.434  1.00  0.00    -0.105 C  
ENDROOT
BRANCH   2   4
HETATM    4  N   UNL     1     -10.118   6.883  71.447  1.00  0.00    -0.186 NA 
HETATM    5  N   UNL     1     -10.598   6.390  72.618  1.00  0.00    -0.214 NA 
HETATM    6  C   UNL     1     -11.886   6.184  72.375  1.00  0.00    -0.238 A  
HETATM    7  C   UNL     1     -12.255   6.594  71.085  1.00  0.00    -0.357 A  
HETATM    8  C   UNL     1     -11.116   7.144  70.516  1.00  0.00    -0.271 A  
BRANCH   8   9
HETATM    9  C   UNL     1     -10.943   7.946  69.300  1.00  0.00     0.024 A  
HETATM   10  C   UNL     1     -10.871   9.342  69.223  1.00  0.00    -0.190 A  
HETATM   11  C   UNL     1     -10.423   7.738  67.037  1.00  0.00    -0.349 A  
HETATM   12  C   UNL     1     -10.585   9.907  67.962  1.00  0.00    -0.288 A  
HETATM   13  N   UNL     1     -10.714   7.152  68.218  1.00  0.00    -0.184 NA 
HETATM   14  C   UNL     1     -10.345   9.101  66.859  1.00  0.00    -0.321 A  
BRANCH  10  15
HETATM   15  C   UNL     1     -11.113  10.306  70.354  1.00  0.00    -0.319 C  
BRANCH  15  16
HETATM   16  O   UNL     1     -11.387  11.588  69.805  1.00  0.00    -0.266 OA 
BRANCH  16  17
HETATM   17  C   UNL     1     -12.179  12.467  70.488  1.00  0.00    -0.297 A  
HETATM   18  C   UNL     1     -12.935  12.127  71.618  1.00  0.00    -0.427 A  
HETATM   19  C   UNL     1     -13.654  13.100  72.320  1.00  0.00    -0.677 A  
HETATM   20  C   UNL     1     -13.652  14.423  71.891  1.00  0.00    -0.491 A  
HETATM   21  C   UNL     1     -12.930  14.772  70.751  1.00  0.00    -0.352 A  
HETATM   22  O   UNL     1     -12.960  16.071  70.318  1.00  0.00    -0.653 OA 
HETATM   23  C   UNL     1     -12.185  13.808  70.050  1.00  0.00    -0.407 A  
HETATM   24  C   UNL     1     -11.413  14.258  68.857  1.00  0.00    -0.286 C  
HETATM   25  H   UNL     1     -12.468  16.309  69.541  1.00  0.00     0.000 HD 
HETATM   26  O   UNL     1     -10.818  13.519  68.083  1.00  0.00    -0.241 OA 
ENDBRANCH  16  17
ENDBRANCH  15  16
ENDBRANCH  10  15
ENDBRANCH   8   9
ENDBRANCH   2   4
TORSDOF 5
ENDMDL
MODEL      106
REMARK 921   NORMALIZED FREE ENERGY PREDICTED BY IDOCK:   -5.62 KCAL/MOL
REMARK 922        TOTAL FREE ENERGY PREDICTED BY IDOCK:   -8.48 KCAL/MOL
REMARK 923 INTER-LIGAND FREE ENERGY PREDICTED BY IDOCK:   -6.93 KCAL/MOL
REMARK 924 INTRA-LIGAND FREE ENERGY PREDICTED BY IDOCK:   -1.55 KCAL/MOL
REMARK 927      BINDING AFFINITY PREDICTED BY RF-SCORE:    0.00 PKD
ROOT
HETATM    1  C   UNL     1      -8.227  13.458  67.351  1.00  0.00    -0.188 C  
HETATM    2  C   UNL     1      -9.211  14.621  67.198  1.00  0.00    -0.221 C  
HETATM    3  C   UNL     1      -8.558  15.774  66.424  1.00  0.00    -0.346 C  
ENDROOT
BRANCH   2   4
HETATM    4  N   UNL     1     -10.451  14.216  66.534  1.00  0.00    -0.277 NA 
HETATM    5  N   UNL     1     -10.405  14.004  65.193  1.00  0.00    -0.386 NA 
HETATM    6  C   UNL     1     -11.681  13.986  64.828  1.00  0.00    -0.394 A  
HETATM    7  C   UNL     1     -12.548  14.122  65.922  1.00  0.00    -0.447 A  
HETATM    8  C   UNL     1     -11.740  14.171  67.048  1.00  0.00    -0.405 A  
BRANCH   8   9
HETATM    9  C   UNL     1     -12.075  14.065  68.473  1.00  0.00    -0.294 A  
HETATM   10  C   UNL     1     -12.059  12.900  69.250  1.00  0.00    -0.234 A  
HETATM   11  C   UNL     1     -12.490  15.381  70.351  1.00  0.00    -0.404 A  
HETATM   12  C   UNL     1     -12.303  13.041  70.632  1.00  0.00    -0.391 A  
HETATM   13  N   UNL     1     -12.281  15.294  69.021  1.00  0.00    -0.189 NA 
HETATM   14  C   UNL     1     -12.508  14.292  71.194  1.00  0.00    -0.433 A  
BRANCH  10  15
HETATM   15  C   UNL     1     -11.846  11.499  68.742  1.00  0.00    -0.330 C  
BRANCH  15  16
HETATM   16  O   UNL     1     -10.449  11.257  68.655  1.00  0.00    -0.188 OA 
BRANCH  16  17
HETATM   17  C   UNL     1      -9.963  10.393  67.714  1.00  0.00    -0.175 A  
HETATM   18  C   UNL     1     -10.148  10.552  66.334  1.00  0.00    -0.285 A  
HETATM   19  C   UNL     1      -9.546   9.677  65.424  1.00  0.00    -0.361 A  
HETATM   20  C   UNL     1      -8.772   8.614  65.876  1.00  0.00    -0.201 A  
HETATM   21  C   UNL     1      -8.603   8.424  67.247  1.00  0.00    -0.123 A  
HETATM   22  O   UNL     1      -7.866   7.356  67.683  1.00  0.00    -0.109 OA 
HETATM   23  C   UNL     1      -9.184   9.309  68.172  1.00  0.00    -0.136 A  
HETATM   24  C   UNL     1      -8.938   9.062  69.620  1.00  0.00    -0.153 C  
HETATM   25  H   UNL     1      -7.751   7.226  68.617  1.00  0.00     0.000 HD 
HETATM   26  O   UNL     1      -9.469   9.672  70.539  1.00  0.00    -0.256 OA 
ENDBRANCH  16  17
ENDBRANCH  15  16
ENDBRANCH  10  15
ENDBRANCH   8   9
ENDBRANCH   2   4
TORSDOF 5
ENDMDL
MODEL      107
REMARK 921   NORMALIZED FREE ENERGY PREDICTED BY IDOCK:   -5.58 KCAL/MOL
REMARK 922        TOTAL FREE ENERGY PREDICTED BY IDOCK:   -8.42 KCAL/MOL
REMARK 923 INTER-LIGAND FREE ENERGY PREDICTED BY IDOCK:   -6.68 KCAL/MOL
REMARK 924 INTRA-LIGAND FREE ENERGY PREDICTED BY IDOCK:   -1.74 KCAL/MOL
REMARK 927      BINDING AFFINITY PREDICTED BY RF-SCORE:    0.00 PKD
ROOT
HETATM    1  C   UNL     1     -12.379  15.620  70.335  1.00  0.00    -0.427 C  
HETATM    2  C   UNL     1     -11.575  14.876  69.265  1.00  0.00    -0.306 C  
HETATM    3  C   UNL     1     -10.072  15.112  69.467  1.00  0.00    -0.222 C  
ENDROOT
BRANCH   2   4
HETATM    4  N   UNL     1     -11.857  13.439  69.259  1.00  0.00    -0.319 NA 
HETATM    5  N   UNL     1     -12.330  12.887  70.405  1.00  0.00    -0.299 NA 
HETATM    6  C   UNL     1     -12.174  11.582  70.220  1.00  0.00    -0.332 A  
HETATM    7  C   UNL     1     -11.664  11.283  68.948  1.00  0.00    -0.409 A  
HETATM    8  C   UNL     1     -11.552  12.496  68.285  1.00  0.00    -0.328 A  
BRANCH   8   9
HETATM    9  C   UNL     1     -11.313  12.796  66.868  1.00  0.00    -0.321 A  
HETATM   10  C   UNL     1     -10.079  12.785  66.209  1.00  0.00    -0.267 A  
HETATM   11  C   UNL     1     -12.448  13.135  64.861  1.00  0.00    -0.433 A  
HETATM   12  C   UNL     1     -10.089  12.990  64.813  1.00  0.00    -0.239 A  
HETATM   13  N   UNL     1     -12.487  12.963  66.199  1.00  0.00    -0.450 NA 
HETATM   14  C   UNL     1     -11.283  13.154  64.127  1.00  0.00    -0.433 A  
BRANCH  10  15
HETATM   15  C   UNL     1      -8.730  12.615  66.856  1.00  0.00    -0.175 C  
BRANCH  15  16
HETATM   16  O   UNL     1      -8.350  11.249  66.756  1.00  0.00    -0.145 OA 
BRANCH  16  17
HETATM   17  C   UNL     1      -8.350  10.457  67.870  1.00  0.00    -0.114 A  
HETATM   18  C   UNL     1      -7.668  10.769  69.054  1.00  0.00    -0.133 A  
HETATM   19  C   UNL     1      -7.785   9.956  70.185  1.00  0.00    -0.188 A  
HETATM   20  C   UNL     1      -8.562   8.803  70.145  1.00  0.00    -0.149 A  
HETATM   21  C   UNL     1      -9.223   8.462  68.966  1.00  0.00    -0.147 A  
HETATM   22  O   UNL     1      -9.959   7.309  68.928  1.00  0.00    -0.159 OA 
HETATM   23  C   UNL     1      -9.132   9.283  67.829  1.00  0.00    -0.135 A  
HETATM   24  C   UNL     1      -9.887   8.872  66.612  1.00  0.00    -0.262 C  
HETATM   25  H   UNL     1     -10.410   7.076  68.125  1.00  0.00     0.000 HD 
HETATM   26  O   UNL     1      -9.811   9.418  65.518  1.00  0.00    -0.290 OA 
ENDBRANCH  16  17
ENDBRANCH  15  16
ENDBRANCH  10  15
ENDBRANCH   8   9
ENDBRANCH   2   4
TORSDOF 5
ENDMDL
MODEL      108
REMARK 921   NORMALIZED FREE ENERGY PREDICTED BY IDOCK:   -5.57 KCAL/MOL
REMARK 922        TOTAL FREE ENERGY PREDICTED BY IDOCK:   -8.42 KCAL/MOL
REMARK 923 INTER-LIGAND FREE ENERGY PREDICTED BY IDOCK:   -7.09 KCAL/MOL
REMARK 924 INTRA-LIGAND FREE ENERGY PREDICTED BY IDOCK:   -1.32 KCAL/MOL
REMARK 927      BINDING AFFINITY PREDICTED BY RF-SCORE:    0.00 PKD
ROOT
HETATM    1  C   UNL     1     -11.605  15.282  69.459  1.00  0.00    -0.339 C  
HETATM    2  C   UNL     1     -10.709  15.928  68.398  1.00  0.00    -0.281 C  
HETATM    3  C   UNL     1     -10.570  17.433  68.663  1.00  0.00    -0.318 C  
ENDROOT
BRANCH   2   4
HETATM    4  N   UNL     1      -9.384  15.309  68.339  1.00  0.00    -0.190 NA 
HETATM    5  N   UNL     1      -8.411  15.831  69.129  1.00  0.00    -0.235 NA 
HETATM    6  C   UNL     1      -7.290  15.319  68.637  1.00  0.00    -0.120 A  
HETATM    7  C   UNL     1      -7.532  14.428  67.581  1.00  0.00    -0.191 A  
HETATM    8  C   UNL     1      -8.911  14.347  67.456  1.00  0.00    -0.193 A  
BRANCH   8   9
HETATM    9  C   UNL     1      -9.752  13.408  66.704  1.00  0.00    -0.275 A  
HETATM   10  C   UNL     1     -10.253  12.184  67.162  1.00  0.00    -0.226 A  
HETATM   11  C   UNL     1     -10.992  13.246  64.738  1.00  0.00    -0.350 A  
HETATM   12  C   UNL     1     -11.141  11.490  66.313  1.00  0.00    -0.321 A  
HETATM   13  N   UNL     1     -10.124  13.937  65.506  1.00  0.00    -0.312 NA 
HETATM   14  C   UNL     1     -11.527  12.028  65.095  1.00  0.00    -0.344 A  
BRANCH  10  15
HETATM   15  C   UNL     1      -9.901  11.513  68.463  1.00  0.00    -0.195 C  
BRANCH  15  16
HETATM   16  O   UNL     1     -10.901  10.549  68.760  1.00  0.00    -0.202 OA 
BRANCH  16  17
HETATM   17  C   UNL     1     -11.613  10.639  69.923  1.00  0.00    -0.316 A  
HETATM   18  C   UNL     1     -12.184  11.826  70.403  1.00  0.00    -0.416 A  
HETATM   19  C   UNL     1     -12.975  11.826  71.557  1.00  0.00    -0.446 A  
HETATM   20  C   UNL     1     -13.186  10.648  72.265  1.00  0.00    -0.211 A  
HETATM   21  C   UNL     1     -12.600   9.465  71.818  1.00  0.00    -0.387 A  
HETATM   22  O   UNL     1     -12.788   8.317  72.540  1.00  0.00    -0.552 OA 
HETATM   23  C   UNL     1     -11.822   9.447  70.648  1.00  0.00    -0.268 A  
HETATM   24  C   UNL     1     -11.250   8.141  70.213  1.00  0.00    -0.182 C  
HETATM   25  H   UNL     1     -12.389   7.510  72.236  1.00  0.00     0.000 HD 
HETATM   26  O   UNL     1     -10.462   7.990  69.288  1.00  0.00    -0.219 OA 
ENDBRANCH  16  17
ENDBRANCH  15  16
ENDBRANCH  10  15
ENDBRANCH   8   9
ENDBRANCH   2   4
TORSDOF 5
ENDMDL
MODEL      109
REMARK 921   NORMALIZED FREE ENERGY PREDICTED BY IDOCK:   -5.56 KCAL/MOL
REMARK 922        TOTAL FREE ENERGY PREDICTED BY IDOCK:   -8.40 KCAL/MOL
REMARK 923 INTER-LIGAND FREE ENERGY PREDICTED BY IDOCK:   -7.64 KCAL/MOL
REMARK 924 INTRA-LIGAND FREE ENERGY PREDICTED BY IDOCK:   -0.76 KCAL/MOL
REMARK 927      BINDING AFFINITY PREDICTED BY RF-SCORE:    0.00 PKD
ROOT
HETATM    1  C   UNL     1     -10.221   5.132  69.019  1.00  0.00    -0.241 C  
HETATM    2  C   UNL     1     -10.415   5.998  70.268  1.00  0.00    -0.242 C  
HETATM    3  C   UNL     1     -10.202   5.160  71.536  1.00  0.00    -0.274 C  
ENDROOT
BRANCH   2   4
HETATM    4  N   UNL     1      -9.522   7.158  70.282  1.00  0.00    -0.162 NA 
HETATM    5  N   UNL     1      -8.276   6.999  69.767  1.00  0.00    -0.129 NA 
HETATM    6  C   UNL     1      -7.610   8.060  70.205  1.00  0.00    -0.081 A  
HETATM    7  C   UNL     1      -8.425   8.930  70.945  1.00  0.00    -0.226 A  
HETATM    8  C   UNL     1      -9.701   8.386  70.907  1.00  0.00    -0.174 A  
BRANCH   8   9
HETATM    9  C   UNL     1     -10.998   8.958  71.285  1.00  0.00    -0.293 A  
HETATM   10  C   UNL     1     -11.675   9.996  70.633  1.00  0.00    -0.421 A  
HETATM   11  C   UNL     1     -12.816   8.581  72.694  1.00  0.00    -0.167 A  
HETATM   12  C   UNL     1     -12.970  10.314  71.095  1.00  0.00    -0.503 A  
HETATM   13  N   UNL     1     -11.567   8.253  72.301  1.00  0.00    -0.358 NA 
HETATM   14  C   UNL     1     -13.554   9.594  72.126  1.00  0.00    -0.471 A  
BRANCH  10  15
HETATM   15  C   UNL     1     -11.134  10.837  69.507  1.00  0.00    -0.278 C  
BRANCH  15  16
HETATM   16  O   UNL     1     -12.161  11.715  69.066  1.00  0.00    -0.313 OA 
BRANCH  16  17
HETATM   17  C   UNL     1     -11.975  13.067  69.128  1.00  0.00    -0.271 A  
HETATM   18  C   UNL     1     -12.044  13.816  70.311  1.00  0.00    -0.425 A  
HETATM   19  C   UNL     1     -11.755  15.184  70.313  1.00  0.00    -0.338 A  
HETATM   20  C   UNL     1     -11.418  15.833  69.130  1.00  0.00    -0.383 A  
HETATM   21  C   UNL     1     -11.374  15.110  67.939  1.00  0.00    -0.338 A  
HETATM   22  O   UNL     1     -11.073  15.765  66.776  1.00  0.00    -0.252 OA 
HETATM   23  C   UNL     1     -11.641  13.730  67.928  1.00  0.00    -0.376 A  
HETATM   24  C   UNL     1     -11.548  13.015  66.624  1.00  0.00    -0.359 C  
HETATM   25  H   UNL     1     -11.043  15.273  65.964  1.00  0.00     0.000 HD 
HETATM   26  O   UNL     1     -11.864  11.847  66.437  1.00  0.00    -0.561 OA 
ENDBRANCH  16  17
ENDBRANCH  15  16
ENDBRANCH  10  15
ENDBRANCH   8   9
ENDBRANCH   2   4
TORSDOF 5
ENDMDL
MODEL      110
REMARK 921   NORMALIZED FREE ENERGY PREDICTED BY IDOCK:   -5.55 KCAL/MOL
REMARK 922        TOTAL FREE ENERGY PREDICTED BY IDOCK:   -8.39 KCAL/MOL
REMARK 923 INTER-LIGAND FREE ENERGY PREDICTED BY IDOCK:   -7.08 KCAL/MOL
REMARK 924 INTRA-LIGAND FREE ENERGY PREDICTED BY IDOCK:   -1.30 KCAL/MOL
REMARK 927      BINDING AFFINITY PREDICTED BY RF-SCORE:    0.00 PKD
ROOT
HETATM    1  C   UNL     1     -10.155  19.685  68.734  1.00  0.00    -0.532 C  
HETATM    2  C   UNL     1      -9.495  19.223  67.431  1.00  0.00    -0.308 C  
HETATM    3  C   UNL     1     -10.299  19.719  66.222  1.00  0.00    -0.626 C  
ENDROOT
BRANCH   2   4
HETATM    4  N   UNL     1      -8.106  19.673  67.323  1.00  0.00    -0.273 NA 
HETATM    5  N   UNL     1      -7.887  20.929  66.855  1.00  0.00    -0.135 NA 
HETATM    6  C   UNL     1      -6.594  20.937  66.554  1.00  0.00    -0.265 A  
HETATM    7  C   UNL     1      -5.966  19.726  66.878  1.00  0.00    -0.177 A  
HETATM    8  C   UNL     1      -6.938  18.936  67.473  1.00  0.00    -0.202 A  
BRANCH   8   9
HETATM    9  C   UNL     1      -6.825  17.682  68.227  1.00  0.00    -0.213 A  
HETATM   10  C   UNL     1      -7.175  16.403  67.777  1.00  0.00    -0.155 A  
HETATM   11  C   UNL     1      -5.905  16.806  70.181  1.00  0.00    -0.178 A  
HETATM   12  C   UNL     1      -6.876  15.315  68.624  1.00  0.00    -0.109 A  
HETATM   13  N   UNL     1      -6.190  17.880  69.414  1.00  0.00    -0.243 NA 
HETATM   14  C   UNL     1      -6.223  15.512  69.832  1.00  0.00    -0.157 A  
BRANCH  10  15
HETATM   15  C   UNL     1      -7.882  16.080  66.488  1.00  0.00    -0.191 C  
BRANCH  15  16
HETATM   16  O   UNL     1      -8.771  14.995  66.720  1.00  0.00    -0.242 OA 
BRANCH  16  17
HETATM   17  C   UNL     1      -9.949  14.919  66.032  1.00  0.00    -0.313 A  
HETATM   18  C   UNL     1     -10.479  15.966  65.267  1.00  0.00    -0.403 A  
HETATM   19  C   UNL     1     -11.646  15.788  64.516  1.00  0.00    -0.247 A  
HETATM   20  C   UNL     1     -12.317  14.570  64.538  1.00  0.00    -0.434 A  
HETATM   21  C   UNL     1     -11.819  13.527  65.318  1.00  0.00    -0.352 A  
HETATM   22  O   UNL     1     -12.505  12.343  65.357  1.00  0.00    -0.637 OA 
HETATM   23  C   UNL     1     -10.635  13.686  66.059  1.00  0.00    -0.290 A  
HETATM   24  C   UNL     1     -10.146  12.520  66.847  1.00  0.00    -0.225 C  
HETATM   25  H   UNL     1     -12.166  11.632  65.888  1.00  0.00     0.000 HD 
HETATM   26  O   UNL     1      -9.203  12.544  67.627  1.00  0.00    -0.177 OA 
ENDBRANCH  16  17
ENDBRANCH  15  16
ENDBRANCH  10  15
ENDBRANCH   8   9
ENDBRANCH   2   4
TORSDOF 5
ENDMDL
MODEL      111
REMARK 921   NORMALIZED FREE ENERGY PREDICTED BY IDOCK:   -5.55 KCAL/MOL
REMARK 922        TOTAL FREE ENERGY PREDICTED BY IDOCK:   -8.38 KCAL/MOL
REMARK 923 INTER-LIGAND FREE ENERGY PREDICTED BY IDOCK:   -8.12 KCAL/MOL
REMARK 924 INTRA-LIGAND FREE ENERGY PREDICTED BY IDOCK:   -0.27 KCAL/MOL
REMARK 927      BINDING AFFINITY PREDICTED BY RF-SCORE:    0.00 PKD
ROOT
HETATM    1  C   UNL     1     -10.485  19.279  66.006  1.00  0.00    -0.573 C  
HETATM    2  C   UNL     1     -10.037  17.959  66.640  1.00  0.00    -0.362 C  
HETATM    3  C   UNL     1     -10.719  17.764  68.001  1.00  0.00    -0.317 C  
ENDROOT
BRANCH   2   4
HETATM    4  N   UNL     1     -10.311  16.808  65.778  1.00  0.00    -0.505 NA 
HETATM    5  N   UNL     1     -11.150  16.995  64.727  1.00  0.00    -0.906 NA 
HETATM    6  C   UNL     1     -11.467  15.764  64.346  1.00  0.00    -0.263 A  
HETATM    7  C   UNL     1     -10.797  14.787  65.098  1.00  0.00    -0.417 A  
HETATM    8  C   UNL     1      -9.964  15.476  65.967  1.00  0.00    -0.330 A  
BRANCH   8   9
HETATM    9  C   UNL     1      -8.861  15.006  66.813  1.00  0.00    -0.268 A  
HETATM   10  C   UNL     1      -8.662  13.700  67.277  1.00  0.00    -0.223 A  
HETATM   11  C   UNL     1      -6.798  15.682  67.661  1.00  0.00    -0.176 A  
HETATM   12  C   UNL     1      -7.469  13.439  67.983  1.00  0.00    -0.139 A  
HETATM   13  N   UNL     1      -7.933  15.985  66.997  1.00  0.00    -0.203 NA 
HETATM   14  C   UNL     1      -6.520  14.432  68.168  1.00  0.00    -0.139 A  
BRANCH  10  15
HETATM   15  C   UNL     1      -9.625  12.551  67.130  1.00  0.00    -0.208 C  
BRANCH  15  16
HETATM   16  O   UNL     1     -10.815  12.865  67.841  1.00  0.00    -0.217 OA 
BRANCH  16  17
HETATM   17  C   UNL     1     -11.210  12.082  68.889  1.00  0.00    -0.261 A  
HETATM   18  C   UNL     1     -10.853  10.735  69.040  1.00  0.00    -0.278 A  
HETATM   19  C   UNL     1     -11.221  10.019  70.184  1.00  0.00    -0.367 A  
HETATM   20  C   UNL     1     -11.973  10.627  71.183  1.00  0.00    -0.401 A  
HETATM   21  C   UNL     1     -12.362  11.957  71.035  1.00  0.00    -0.259 A  
HETATM   22  O   UNL     1     -13.129  12.537  72.009  1.00  0.00    -0.421 OA 
HETATM   23  C   UNL     1     -11.980  12.695  69.900  1.00  0.00    -0.365 A  
HETATM   24  C   UNL     1     -12.407  14.120  69.822  1.00  0.00    -0.299 C  
HETATM   25  H   UNL     1     -13.394  13.443  71.908  1.00  0.00     0.000 HD 
HETATM   26  O   UNL     1     -12.252  14.849  68.850  1.00  0.00    -0.219 OA 
ENDBRANCH  16  17
ENDBRANCH  15  16
ENDBRANCH  10  15
ENDBRANCH   8   9
ENDBRANCH   2   4
TORSDOF 5
ENDMDL
MODEL      112
REMARK 921   NORMALIZED FREE ENERGY PREDICTED BY IDOCK:   -5.53 KCAL/MOL
REMARK 922        TOTAL FREE ENERGY PREDICTED BY IDOCK:   -8.36 KCAL/MOL
REMARK 923 INTER-LIGAND FREE ENERGY PREDICTED BY IDOCK:   -7.01 KCAL/MOL
REMARK 924 INTRA-LIGAND FREE ENERGY PREDICTED BY IDOCK:   -1.35 KCAL/MOL
REMARK 927      BINDING AFFINITY PREDICTED BY RF-SCORE:    0.00 PKD
ROOT
HETATM    1  C   UNL     1     -10.274   8.180  66.790  1.00  0.00    -0.372 C  
HETATM    2  C   UNL     1     -10.534   9.338  67.758  1.00  0.00    -0.255 C  
HETATM    3  C   UNL     1     -10.748   8.805  69.181  1.00  0.00    -0.150 C  
ENDROOT
BRANCH   2   4
HETATM    4  N   UNL     1      -9.447  10.319  67.754  1.00  0.00    -0.147 NA 
HETATM    5  N   UNL     1      -8.737  10.476  68.901  1.00  0.00    -0.147 NA 
HETATM    6  C   UNL     1      -8.080  11.614  68.717  1.00  0.00    -0.072 A  
HETATM    7  C   UNL     1      -8.309  12.161  67.446  1.00  0.00    -0.174 A  
HETATM    8  C   UNL     1      -9.125  11.257  66.781  1.00  0.00    -0.174 A  
BRANCH   8   9
HETATM    9  C   UNL     1      -9.496  11.162  65.364  1.00  0.00    -0.222 A  
HETATM   10  C   UNL     1     -10.578  11.793  64.740  1.00  0.00    -0.351 A  
HETATM   11  C   UNL     1      -8.690  10.391  63.318  1.00  0.00    -0.201 A  
HETATM   12  C   UNL     1     -10.685  11.659  63.339  1.00  0.00    -0.460 A  
HETATM   13  N   UNL     1      -8.557  10.474  64.658  1.00  0.00    -0.177 NA 
HETATM   14  C   UNL     1      -9.727  10.963  62.616  1.00  0.00    -0.250 A  
BRANCH  10  15
HETATM   15  C   UNL     1     -11.668  12.570  65.428  1.00  0.00    -0.398 C  
BRANCH  15  16
HETATM   16  O   UNL     1     -11.110  13.770  65.946  1.00  0.00    -0.286 OA 
BRANCH  16  17
HETATM   17  C   UNL     1     -11.399  14.161  67.223  1.00  0.00    -0.332 A  
HETATM   18  C   UNL     1     -11.936  13.313  68.201  1.00  0.00    -0.340 A  
HETATM   19  C   UNL     1     -12.123  13.758  69.513  1.00  0.00    -0.386 A  
HETATM   20  C   UNL     1     -11.804  15.065  69.865  1.00  0.00    -0.362 A  
HETATM   21  C   UNL     1     -11.297  15.931  68.897  1.00  0.00    -0.377 A  
HETATM   22  O   UNL     1     -11.016  17.225  69.246  1.00  0.00    -0.300 OA 
HETATM   23  C   UNL     1     -11.083  15.489  67.580  1.00  0.00    -0.305 A  
HETATM   24  C   UNL     1     -10.513  16.461  66.605  1.00  0.00    -0.274 C  
HETATM   25  H   UNL     1     -10.671  17.815  68.587  1.00  0.00     0.000 HD 
HETATM   26  O   UNL     1     -10.381  16.259  65.404  1.00  0.00    -0.499 OA 
ENDBRANCH  16  17
ENDBRANCH  15  16
ENDBRANCH  10  15
ENDBRANCH   8   9
ENDBRANCH   2   4
TORSDOF 5
ENDMDL
MODEL      113
REMARK 921   NORMALIZED FREE ENERGY PREDICTED BY IDOCK:   -5.49 KCAL/MOL
REMARK 922        TOTAL FREE ENERGY PREDICTED BY IDOCK:   -8.30 KCAL/MOL
REMARK 923 INTER-LIGAND FREE ENERGY PREDICTED BY IDOCK:   -7.28 KCAL/MOL
REMARK 924 INTRA-LIGAND FREE ENERGY PREDICTED BY IDOCK:   -1.02 KCAL/MOL
REMARK 927      BINDING AFFINITY PREDICTED BY RF-SCORE:    0.00 PKD
ROOT
HETATM    1  C   UNL     1      -9.909   6.466  66.601  1.00  0.00    -0.203 C  
HETATM    2  C   UNL     1     -10.571   7.334  67.675  1.00  0.00    -0.246 C  
HETATM    3  C   UNL     1     -11.092   6.457  68.822  1.00  0.00    -0.404 C  
ENDROOT
BRANCH   2   4
HETATM    4  N   UNL     1      -9.662   8.354  68.203  1.00  0.00    -0.151 NA 
HETATM    5  N   UNL     1      -8.786   7.975  69.169  1.00  0.00    -0.144 NA 
HETATM    6  C   UNL     1      -8.351   9.123  69.673  1.00  0.00    -0.130 A  
HETATM    7  C   UNL     1      -8.887  10.234  69.006  1.00  0.00    -0.170 A  
HETATM    8  C   UNL     1      -9.667   9.725  67.979  1.00  0.00    -0.145 A  
BRANCH   8   9
HETATM    9  C   UNL     1     -10.272  10.385  66.816  1.00  0.00    -0.226 A  
HETATM   10  C   UNL     1     -11.208  11.426  66.840  1.00  0.00    -0.331 A  
HETATM   11  C   UNL     1     -10.067  10.545  64.500  1.00  0.00    -0.332 A  
HETATM   12  C   UNL     1     -11.573  11.996  65.602  1.00  0.00    -0.356 A  
HETATM   13  N   UNL     1      -9.702   9.954  65.657  1.00  0.00    -0.261 NA 
HETATM   14  C   UNL     1     -10.990  11.564  64.420  1.00  0.00    -0.390 A  
BRANCH  10  15
HETATM   15  C   UNL     1     -11.898  11.969  68.062  1.00  0.00    -0.269 C  
BRANCH  15  16
HETATM   16  O   UNL     1     -12.056  13.373  67.905  1.00  0.00    -0.338 OA 
BRANCH  16  17
HETATM   17  C   UNL     1     -11.935  14.199  68.988  1.00  0.00    -0.340 A  
HETATM   18  C   UNL     1     -12.368  13.867  70.279  1.00  0.00    -0.413 A  
HETATM   19  C   UNL     1     -12.131  14.726  71.358  1.00  0.00    -0.401 A  
HETATM   20  C   UNL     1     -11.483  15.940  71.161  1.00  0.00    -0.471 A  
HETATM   21  C   UNL     1     -11.072  16.298  69.878  1.00  0.00    -0.347 A  
HETATM   22  O   UNL     1     -10.464  17.510  69.690  1.00  0.00    -0.299 OA 
HETATM   23  C   UNL     1     -11.284  15.435  68.789  1.00  0.00    -0.305 A  
HETATM   24  C   UNL     1     -10.794  15.870  67.451  1.00  0.00    -0.291 C  
HETATM   25  H   UNL     1     -10.184  17.755  68.815  1.00  0.00     0.000 HD 
HETATM   26  O   UNL     1     -11.008  15.283  66.397  1.00  0.00    -0.320 OA 
ENDBRANCH  16  17
ENDBRANCH  15  16
ENDBRANCH  10  15
ENDBRANCH   8   9
ENDBRANCH   2   4
TORSDOF 5
ENDMDL
MODEL      114
REMARK 921   NORMALIZED FREE ENERGY PREDICTED BY IDOCK:   -5.48 KCAL/MOL
REMARK 922        TOTAL FREE ENERGY PREDICTED BY IDOCK:   -8.30 KCAL/MOL
REMARK 923 INTER-LIGAND FREE ENERGY PREDICTED BY IDOCK:   -6.99 KCAL/MOL
REMARK 924 INTRA-LIGAND FREE ENERGY PREDICTED BY IDOCK:   -1.31 KCAL/MOL
REMARK 927      BINDING AFFINITY PREDICTED BY RF-SCORE:    0.00 PKD
ROOT
HETATM    1  C   UNL     1     -11.279  14.025  69.253  1.00  0.00    -0.304 C  
HETATM    2  C   UNL     1     -11.056  15.454  68.750  1.00  0.00    -0.283 C  
HETATM    3  C   UNL     1     -11.085  16.443  69.923  1.00  0.00    -0.313 C  
ENDROOT
BRANCH   2   4
HETATM    4  N   UNL     1      -9.797  15.593  68.014  1.00  0.00    -0.209 NA 
HETATM    5  N   UNL     1      -8.770  16.222  68.640  1.00  0.00    -0.215 NA 
HETATM    6  C   UNL     1      -7.916  16.494  67.661  1.00  0.00    -0.163 A  
HETATM    7  C   UNL     1      -8.352  15.996  66.424  1.00  0.00    -0.344 A  
HETATM    8  C   UNL     1      -9.535  15.319  66.678  1.00  0.00    -0.259 A  
BRANCH   8   9
HETATM    9  C   UNL     1     -10.313  14.400  65.839  1.00  0.00    -0.314 A  
HETATM   10  C   UNL     1     -10.193  13.006  65.794  1.00  0.00    -0.297 A  
HETATM   11  C   UNL     1     -12.181  14.342  64.446  1.00  0.00    -0.447 A  
HETATM   12  C   UNL     1     -11.123  12.302  65.000  1.00  0.00    -0.359 A  
HETATM   13  N   UNL     1     -11.302  15.060  65.177  1.00  0.00    -0.372 NA 
HETATM   14  C   UNL     1     -12.135  12.971  64.329  1.00  0.00    -0.480 A  
BRANCH  10  15
HETATM   15  C   UNL     1      -9.136  12.185  66.483  1.00  0.00    -0.199 C  
BRANCH  15  16
HETATM   16  O   UNL     1      -9.719  10.959  66.903  1.00  0.00    -0.176 OA 
BRANCH  16  17
HETATM   17  C   UNL     1      -9.272  10.345  68.040  1.00  0.00    -0.140 A  
HETATM   18  C   UNL     1      -7.951   9.919  68.233  1.00  0.00    -0.100 A  
HETATM   19  C   UNL     1      -7.543   9.378  69.457  1.00  0.00    -0.086 A  
HETATM   20  C   UNL     1      -8.453   9.230  70.499  1.00  0.00    -0.251 A  
HETATM   21  C   UNL     1      -9.778   9.621  70.313  1.00  0.00    -0.259 A  
HETATM   22  O   UNL     1     -10.672   9.440  71.333  1.00  0.00    -0.332 OA 
HETATM   23  C   UNL     1     -10.195  10.186  69.095  1.00  0.00    -0.229 A  
HETATM   24  C   UNL     1     -11.619  10.608  68.976  1.00  0.00    -0.261 C  
HETATM   25  H   UNL     1     -11.575   9.707  71.207  1.00  0.00     0.000 HD 
HETATM   26  O   UNL     1     -12.153  11.004  67.948  1.00  0.00    -0.600 OA 
ENDBRANCH  16  17
ENDBRANCH  15  16
ENDBRANCH  10  15
ENDBRANCH   8   9
ENDBRANCH   2   4
TORSDOF 5
ENDMDL
MODEL      115
REMARK 921   NORMALIZED FREE ENERGY PREDICTED BY IDOCK:   -5.46 KCAL/MOL
REMARK 922        TOTAL FREE ENERGY PREDICTED BY IDOCK:   -8.27 KCAL/MOL
REMARK 923 INTER-LIGAND FREE ENERGY PREDICTED BY IDOCK:   -7.09 KCAL/MOL
REMARK 924 INTRA-LIGAND FREE ENERGY PREDICTED BY IDOCK:   -1.17 KCAL/MOL
REMARK 927      BINDING AFFINITY PREDICTED BY RF-SCORE:    0.00 PKD
ROOT
HETATM    1  C   UNL     1     -10.101   9.628  65.886  1.00  0.00    -0.304 C  
HETATM    2  C   UNL     1     -10.326   8.931  67.231  1.00  0.00    -0.280 C  
HETATM    3  C   UNL     1     -10.415   7.412  67.036  1.00  0.00    -0.404 C  
ENDROOT
BRANCH   2   4
HETATM    4  N   UNL     1      -9.276   9.247  68.203  1.00  0.00    -0.131 NA 
HETATM    5  N   UNL     1      -7.995   8.962  67.857  1.00  0.00    -0.102 NA 
HETATM    6  C   UNL     1      -7.331   9.031  69.004  1.00  0.00    -0.073 A  
HETATM    7  C   UNL     1      -8.155   9.415  70.072  1.00  0.00    -0.159 A  
HETATM    8  C   UNL     1      -9.407   9.653  69.524  1.00  0.00    -0.200 A  
BRANCH   8   9
HETATM    9  C   UNL     1     -10.594  10.303  70.092  1.00  0.00    -0.246 A  
HETATM   10  C   UNL     1     -11.187  11.492  69.650  1.00  0.00    -0.276 A  
HETATM   11  C   UNL     1     -12.333   9.928  71.597  1.00  0.00    -0.406 A  
HETATM   12  C   UNL     1     -12.395  11.880  70.267  1.00  0.00    -0.287 A  
HETATM   13  N   UNL     1     -11.166   9.525  71.052  1.00  0.00    -0.330 NA 
HETATM   14  C   UNL     1     -12.984  11.087  71.240  1.00  0.00    -0.472 A  
BRANCH  10  15
HETATM   15  C   UNL     1     -10.634  12.422  68.604  1.00  0.00    -0.218 C  
BRANCH  15  16
HETATM   16  O   UNL     1     -11.398  13.621  68.616  1.00  0.00    -0.250 OA 
BRANCH  16  17
HETATM   17  C   UNL     1     -11.010  14.684  67.850  1.00  0.00    -0.277 A  
HETATM   18  C   UNL     1     -10.798  14.619  66.466  1.00  0.00    -0.315 A  
HETATM   19  C   UNL     1     -10.489  15.769  65.733  1.00  0.00    -0.384 A  
HETATM   20  C   UNL     1     -10.360  16.998  66.371  1.00  0.00    -0.304 A  
HETATM   21  C   UNL     1     -10.538  17.075  67.752  1.00  0.00    -0.350 A  
HETATM   22  O   UNL     1     -10.377  18.283  68.375  1.00  0.00    -0.372 OA 
HETATM   23  C   UNL     1     -10.871  15.930  68.498  1.00  0.00    -0.298 A  
HETATM   24  C   UNL     1     -11.075  16.092  69.965  1.00  0.00    -0.362 C  
HETATM   25  H   UNL     1     -10.498  18.336  69.316  1.00  0.00     0.000 HD 
HETATM   26  O   UNL     1     -11.251  15.174  70.757  1.00  0.00    -0.293 OA 
ENDBRANCH  16  17
ENDBRANCH  15  16
ENDBRANCH  10  15
ENDBRANCH   8   9
ENDBRANCH   2   4
TORSDOF 5
ENDMDL
MODEL      116
REMARK 921   NORMALIZED FREE ENERGY PREDICTED BY IDOCK:   -5.46 KCAL/MOL
REMARK 922        TOTAL FREE ENERGY PREDICTED BY IDOCK:   -8.26 KCAL/MOL
REMARK 923 INTER-LIGAND FREE ENERGY PREDICTED BY IDOCK:   -7.78 KCAL/MOL
REMARK 924 INTRA-LIGAND FREE ENERGY PREDICTED BY IDOCK:   -0.49 KCAL/MOL
REMARK 927      BINDING AFFINITY PREDICTED BY RF-SCORE:    0.00 PKD
ROOT
HETATM    1  C   UNL     1     -10.984   6.357  72.727  1.00  0.00    -0.289 C  
HETATM    2  C   UNL     1     -11.043   7.201  71.450  1.00  0.00    -0.242 C  
HETATM    3  C   UNL     1     -11.729   6.416  70.324  1.00  0.00    -0.389 C  
ENDROOT
BRANCH   2   4
HETATM    4  N   UNL     1     -11.732   8.476  71.659  1.00  0.00    -0.287 NA 
HETATM    5  N   UNL     1     -12.734   8.506  72.575  1.00  0.00    -0.333 NA 
HETATM    6  C   UNL     1     -13.370   9.641  72.316  1.00  0.00    -0.408 A  
HETATM    7  C   UNL     1     -12.757  10.371  71.287  1.00  0.00    -0.536 A  
HETATM    8  C   UNL     1     -11.626   9.652  70.928  1.00  0.00    -0.344 A  
BRANCH   8   9
HETATM    9  C   UNL     1     -10.477  10.026  70.095  1.00  0.00    -0.284 A  
HETATM   10  C   UNL     1     -10.499  10.845  68.960  1.00  0.00    -0.244 A  
HETATM   11  C   UNL     1      -8.148   9.940  70.059  1.00  0.00    -0.177 A  
HETATM   12  C   UNL     1      -9.258  11.172  68.374  1.00  0.00    -0.175 A  
HETATM   13  N   UNL     1      -9.312   9.583  70.643  1.00  0.00    -0.245 NA 
HETATM   14  C   UNL     1      -8.069  10.728  68.933  1.00  0.00    -0.145 A  
BRANCH  10  15
HETATM   15  C   UNL     1     -11.729  11.379  68.277  1.00  0.00    -0.288 C  
BRANCH  15  16
HETATM   16  O   UNL     1     -11.494  12.734  67.917  1.00  0.00    -0.275 OA 
BRANCH  16  17
HETATM   17  C   UNL     1     -11.598  13.719  68.859  1.00  0.00    -0.319 A  
HETATM   18  C   UNL     1     -12.080  13.513  70.159  1.00  0.00    -0.425 A  
HETATM   19  C   UNL     1     -12.075  14.548  71.099  1.00  0.00    -0.408 A  
HETATM   20  C   UNL     1     -11.615  15.813  70.749  1.00  0.00    -0.429 A  
HETATM   21  C   UNL     1     -11.161  16.043  69.451  1.00  0.00    -0.331 A  
HETATM   22  O   UNL     1     -10.740  17.300  69.108  1.00  0.00    -0.331 OA 
HETATM   23  C   UNL     1     -11.139  15.005  68.504  1.00  0.00    -0.279 A  
HETATM   24  C   UNL     1     -10.614  15.315  67.145  1.00  0.00    -0.302 C  
HETATM   25  H   UNL     1     -10.430  17.457  68.224  1.00  0.00     0.000 HD 
HETATM   26  O   UNL     1     -10.642  14.551  66.188  1.00  0.00    -0.292 OA 
ENDBRANCH  16  17
ENDBRANCH  15  16
ENDBRANCH  10  15
ENDBRANCH   8   9
ENDBRANCH   2   4
TORSDOF 5
ENDMDL
MODEL      117
REMARK 921   NORMALIZED FREE ENERGY PREDICTED BY IDOCK:   -5.45 KCAL/MOL
REMARK 922        TOTAL FREE ENERGY PREDICTED BY IDOCK:   -8.26 KCAL/MOL
REMARK 923 INTER-LIGAND FREE ENERGY PREDICTED BY IDOCK:   -7.04 KCAL/MOL
REMARK 924 INTRA-LIGAND FREE ENERGY PREDICTED BY IDOCK:   -1.22 KCAL/MOL
REMARK 927      BINDING AFFINITY PREDICTED BY RF-SCORE:    0.00 PKD
ROOT
HETATM    1  C   UNL     1      -6.682   9.394  69.555  1.00  0.00    -0.048 C  
HETATM    2  C   UNL     1      -7.892  10.148  68.996  1.00  0.00    -0.107 C  
HETATM    3  C   UNL     1      -7.432  11.276  68.064  1.00  0.00    -0.095 C  
ENDROOT
BRANCH   2   4
HETATM    4  N   UNL     1      -8.818   9.263  68.286  1.00  0.00    -0.129 NA 
HETATM    5  N   UNL     1      -8.577   9.027  66.971  1.00  0.00    -0.116 NA 
HETATM    6  C   UNL     1      -9.711   8.498  66.528  1.00  0.00    -0.260 A  
HETATM    7  C   UNL     1     -10.656   8.335  67.552  1.00  0.00    -0.291 A  
HETATM    8  C   UNL     1     -10.031   8.744  68.720  1.00  0.00    -0.185 A  
BRANCH   8   9
HETATM    9  C   UNL     1     -10.422   8.579  70.125  1.00  0.00    -0.220 A  
HETATM   10  C   UNL     1     -11.441   9.266  70.795  1.00  0.00    -0.351 A  
HETATM   11  C   UNL     1     -10.074   7.187  71.962  1.00  0.00    -0.177 A  
HETATM   12  C   UNL     1     -11.728   8.868  72.118  1.00  0.00    -0.411 A  
HETATM   13  N   UNL     1      -9.750   7.544  70.702  1.00  0.00    -0.175 NA 
HETATM   14  C   UNL     1     -11.050   7.811  72.706  1.00  0.00    -0.457 A  
BRANCH  10  15
HETATM   15  C   UNL     1     -12.237  10.422  70.250  1.00  0.00    -0.269 C  
BRANCH  15  16
HETATM   16  O   UNL     1     -11.650  11.631  70.711  1.00  0.00    -0.015 OA 
BRANCH  16  17
HETATM   17  C   UNL     1     -12.442  12.708  70.996  1.00  0.00    -0.260 A  
HETATM   18  C   UNL     1     -13.435  12.713  71.984  1.00  0.00    -0.516 A  
HETATM   19  C   UNL     1     -14.147  13.879  72.282  1.00  0.00    -0.632 A  
HETATM   20  C   UNL     1     -13.898  15.053  71.579  1.00  0.00    -0.570 A  
HETATM   21  C   UNL     1     -12.934  15.059  70.572  1.00  0.00    -0.299 A  
HETATM   22  O   UNL     1     -12.719  16.211  69.865  1.00  0.00    -0.534 OA 
HETATM   23  C   UNL     1     -12.196  13.899  70.279  1.00  0.00    -0.428 A  
HETATM   24  C   UNL     1     -11.162  13.984  69.209  1.00  0.00    -0.261 C  
HETATM   25  H   UNL     1     -12.062  16.215  69.179  1.00  0.00     0.000 HD 
HETATM   26  O   UNL     1     -10.528  13.036  68.765  1.00  0.00    -0.235 OA 
ENDBRANCH  16  17
ENDBRANCH  15  16
ENDBRANCH  10  15
ENDBRANCH   8   9
ENDBRANCH   2   4
TORSDOF 5
ENDMDL
MODEL      118
REMARK 921   NORMALIZED FREE ENERGY PREDICTED BY IDOCK:   -5.44 KCAL/MOL
REMARK 922        TOTAL FREE ENERGY PREDICTED BY IDOCK:   -8.25 KCAL/MOL
REMARK 923 INTER-LIGAND FREE ENERGY PREDICTED BY IDOCK:   -7.07 KCAL/MOL
REMARK 924 INTRA-LIGAND FREE ENERGY PREDICTED BY IDOCK:   -1.18 KCAL/MOL
REMARK 927      BINDING AFFINITY PREDICTED BY RF-SCORE:    0.00 PKD
ROOT
HETATM    1  C   UNL     1     -10.881   6.109  66.925  1.00  0.00    -0.411 C  
HETATM    2  C   UNL     1     -10.679   6.636  68.349  1.00  0.00    -0.258 C  
HETATM    3  C   UNL     1     -10.648   5.472  69.349  1.00  0.00    -0.349 C  
ENDROOT
BRANCH   2   4
HETATM    4  N   UNL     1      -9.458   7.434  68.478  1.00  0.00    -0.144 NA 
HETATM    5  N   UNL     1      -8.289   6.859  68.098  1.00  0.00    -0.118 NA 
HETATM    6  C   UNL     1      -7.359   7.648  68.621  1.00  0.00    -0.091 A  
HETATM    7  C   UNL     1      -7.912   8.755  69.281  1.00  0.00    -0.108 A  
HETATM    8  C   UNL     1      -9.284   8.665  69.098  1.00  0.00    -0.152 A  
BRANCH   8   9
HETATM    9  C   UNL     1     -10.350   9.643  69.341  1.00  0.00    -0.213 A  
HETATM   10  C   UNL     1     -10.996  10.431  68.381  1.00  0.00    -0.312 A  
HETATM   11  C   UNL     1     -11.813  10.370  71.004  1.00  0.00    -0.361 A  
HETATM   12  C   UNL     1     -12.078  11.225  68.817  1.00  0.00    -0.258 A  
HETATM   13  N   UNL     1     -10.760   9.608  70.639  1.00  0.00    -0.299 NA 
HETATM   14  C   UNL     1     -12.502  11.187  70.137  1.00  0.00    -0.316 A  
BRANCH  10  15
HETATM   15  C   UNL     1     -10.619  10.544  66.928  1.00  0.00    -0.243 C  
BRANCH  15  16
HETATM   16  O   UNL     1     -10.119  11.853  66.691  1.00  0.00    -0.197 OA 
BRANCH  16  17
HETATM   17  C   UNL     1     -10.747  12.672  65.796  1.00  0.00    -0.268 A  
HETATM   18  C   UNL     1     -11.786  12.260  64.950  1.00  0.00    -0.409 A  
HETATM   19  C   UNL     1     -12.443  13.175  64.122  1.00  0.00    -0.348 A  
HETATM   20  C   UNL     1     -12.057  14.511  64.104  1.00  0.00    -0.377 A  
HETATM   21  C   UNL     1     -11.005  14.932  64.916  1.00  0.00    -0.408 A  
HETATM   22  O   UNL     1     -10.612  16.242  64.867  1.00  0.00    -0.650 OA 
HETATM   23  C   UNL     1     -10.351  14.026  65.770  1.00  0.00    -0.330 A  
HETATM   24  C   UNL     1      -9.255  14.551  66.632  1.00  0.00    -0.266 C  
HETATM   25  H   UNL     1      -9.895  16.529  65.421  1.00  0.00     0.000 HD 
HETATM   26  O   UNL     1      -8.522  13.866  67.334  1.00  0.00    -0.178 OA 
ENDBRANCH  16  17
ENDBRANCH  15  16
ENDBRANCH  10  15
ENDBRANCH   8   9
ENDBRANCH   2   4
TORSDOF 5
ENDMDL
MODEL      119
REMARK 921   NORMALIZED FREE ENERGY PREDICTED BY IDOCK:   -5.40 KCAL/MOL
REMARK 922        TOTAL FREE ENERGY PREDICTED BY IDOCK:   -8.19 KCAL/MOL
REMARK 923 INTER-LIGAND FREE ENERGY PREDICTED BY IDOCK:   -7.57 KCAL/MOL
REMARK 924 INTRA-LIGAND FREE ENERGY PREDICTED BY IDOCK:   -0.62 KCAL/MOL
REMARK 927      BINDING AFFINITY PREDICTED BY RF-SCORE:    0.00 PKD
ROOT
HETATM    1  C   UNL     1     -12.245  15.826  69.524  1.00  0.00    -0.178 C  
HETATM    2  C   UNL     1     -11.492  14.651  70.155  1.00  0.00    -0.259 C  
HETATM    3  C   UNL     1     -10.425  15.164  71.131  1.00  0.00     0.426 C  
ENDROOT
BRANCH   2   4
HETATM    4  N   UNL     1     -12.390  13.722  70.844  1.00  0.00    -0.367 NA 
HETATM    5  N   UNL     1     -13.361  14.253  71.631  1.00  0.00    -0.345 NA 
HETATM    6  C   UNL     1     -13.780  13.227  72.360  1.00  0.00    -0.578 A  
HETATM    7  C   UNL     1     -13.135  12.031  72.012  1.00  0.00    -0.456 A  
HETATM    8  C   UNL     1     -12.299  12.340  70.950  1.00  0.00    -0.267 A  
BRANCH   8   9
HETATM    9  C   UNL     1     -11.568  11.470  70.021  1.00  0.00    -0.282 A  
HETATM   10  C   UNL     1     -11.482  11.619  68.631  1.00  0.00    -0.349 A  
HETATM   11  C   UNL     1     -10.018   9.730  69.989  1.00  0.00    -0.254 A  
HETATM   12  C   UNL     1     -10.628  10.735  67.938  1.00  0.00    -0.258 A  
HETATM   13  N   UNL     1     -10.837  10.539  70.693  1.00  0.00    -0.043 NA 
HETATM   14  C   UNL     1      -9.877   9.789  68.621  1.00  0.00    -0.168 A  
BRANCH  10  15
HETATM   15  C   UNL     1     -12.249  12.609  67.796  1.00  0.00     0.122 C  
BRANCH  15  16
HETATM   16  O   UNL     1     -11.518  12.855  66.603  1.00  0.00    -0.308 OA 
BRANCH  16  17
HETATM   17  C   UNL     1     -11.053  14.112  66.334  1.00  0.00    -0.320 A  
HETATM   18  C   UNL     1     -10.144  14.802  67.149  1.00  0.00    -0.240 A  
HETATM   19  C   UNL     1      -9.642  16.050  66.766  1.00  0.00    -0.248 A  
HETATM   20  C   UNL     1     -10.059  16.642  65.579  1.00  0.00    -0.163 A  
HETATM   21  C   UNL     1     -10.985  15.982  64.772  1.00  0.00    -0.356 A  
HETATM   22  O   UNL     1     -11.413  16.588  63.621  1.00  0.00    -1.421 OA 
HETATM   23  C   UNL     1     -11.480  14.717  65.134  1.00  0.00    -0.371 A  
HETATM   24  C   UNL     1     -12.445  14.058  64.210  1.00  0.00    -0.262 C  
HETATM   25  H   UNL     1     -12.044  16.139  63.071  1.00  0.00     0.000 HD 
HETATM   26  O   UNL     1     -13.047  13.018  64.445  1.00  0.00    -0.624 OA 
ENDBRANCH  16  17
ENDBRANCH  15  16
ENDBRANCH  10  15
ENDBRANCH   8   9
ENDBRANCH   2   4
TORSDOF 5
ENDMDL
MODEL      120
REMARK 921   NORMALIZED FREE ENERGY PREDICTED BY IDOCK:   -5.38 KCAL/MOL
REMARK 922        TOTAL FREE ENERGY PREDICTED BY IDOCK:   -8.17 KCAL/MOL
REMARK 923 INTER-LIGAND FREE ENERGY PREDICTED BY IDOCK:   -7.00 KCAL/MOL
REMARK 924 INTRA-LIGAND FREE ENERGY PREDICTED BY IDOCK:   -1.17 KCAL/MOL
REMARK 927      BINDING AFFINITY PREDICTED BY RF-SCORE:    0.00 PKD
ROOT
HETATM    1  C   UNL     1      -6.351  17.794  65.869  1.00  0.00    -0.253 C  
HETATM    2  C   UNL     1      -7.386  17.375  66.917  1.00  0.00    -0.202 C  
HETATM    3  C   UNL     1      -6.736  17.295  68.305  1.00  0.00    -0.177 C  
ENDROOT
BRANCH   2   4
HETATM    4  N   UNL     1      -8.534  18.282  66.958  1.00  0.00    -0.244 NA 
HETATM    5  N   UNL     1      -8.308  19.564  67.344  1.00  0.00    -0.287 NA 
HETATM    6  C   UNL     1      -9.520  20.038  67.605  1.00  0.00    -0.376 A  
HETATM    7  C   UNL     1     -10.527  19.099  67.335  1.00  0.00    -0.552 A  
HETATM    8  C   UNL     1      -9.884  17.986  66.816  1.00  0.00    -0.335 A  
BRANCH   8   9
HETATM    9  C   UNL     1     -10.418  16.801  66.134  1.00  0.00    -0.277 A  
HETATM   10  C   UNL     1     -10.528  15.511  66.666  1.00  0.00    -0.299 A  
HETATM   11  C   UNL     1     -11.578  16.172  64.214  1.00  0.00    -0.062 A  
HETATM   12  C   UNL     1     -11.181  14.540  65.877  1.00  0.00    -0.331 A  
HETATM   13  N   UNL     1     -10.945  17.129  64.923  1.00  0.00    -0.819 NA 
HETATM   14  C   UNL     1     -11.724  14.872  64.645  1.00  0.00    -0.406 A  
BRANCH  10  15
HETATM   15  C   UNL     1      -9.978  15.046  67.987  1.00  0.00    -0.219 C  
BRANCH  15  16
HETATM   16  O   UNL     1     -10.201  13.648  68.104  1.00  0.00    -0.233 OA 
BRANCH  16  17
HETATM   17  C   UNL     1      -9.215  12.768  67.758  1.00  0.00    -0.199 A  
HETATM   18  C   UNL     1      -7.864  13.116  67.625  1.00  0.00    -0.169 A  
HETATM   19  C   UNL     1      -6.895  12.145  67.356  1.00  0.00    -0.147 A  
HETATM   20  C   UNL     1      -7.261  10.813  67.188  1.00  0.00    -0.100 A  
HETATM   21  C   UNL     1      -8.604  10.454  67.287  1.00  0.00    -0.126 A  
HETATM   22  O   UNL     1      -8.958   9.147  67.088  1.00  0.00    -0.122 OA 
HETATM   23  C   UNL     1      -9.585  11.418  67.580  1.00  0.00    -0.176 A  
HETATM   24  C   UNL     1     -10.997  10.958  67.699  1.00  0.00    -0.293 C  
HETATM   25  H   UNL     1      -9.873   8.902  67.156  1.00  0.00     0.000 HD 
HETATM   26  O   UNL     1     -11.968  11.692  67.833  1.00  0.00    -0.599 OA 
ENDBRANCH  16  17
ENDBRANCH  15  16
ENDBRANCH  10  15
ENDBRANCH   8   9
ENDBRANCH   2   4
TORSDOF 5
ENDMDL
MODEL      121
REMARK 921   NORMALIZED FREE ENERGY PREDICTED BY IDOCK:   -5.38 KCAL/MOL
REMARK 922        TOTAL FREE ENERGY PREDICTED BY IDOCK:   -8.17 KCAL/MOL
REMARK 923 INTER-LIGAND FREE ENERGY PREDICTED BY IDOCK:   -6.70 KCAL/MOL
REMARK 924 INTRA-LIGAND FREE ENERGY PREDICTED BY IDOCK:   -1.47 KCAL/MOL
REMARK 927      BINDING AFFINITY PREDICTED BY RF-SCORE:    0.00 PKD
ROOT
HETATM    1  C   UNL     1      -7.376   4.589  69.270  1.00  0.00    -0.052 C  
HETATM    2  C   UNL     1      -8.022   5.957  69.034  1.00  0.00    -0.099 C  
HETATM    3  C   UNL     1      -7.060   6.877  68.270  1.00  0.00    -0.086 C  
ENDROOT
BRANCH   2   4
HETATM    4  N   UNL     1      -9.291   5.855  68.309  1.00  0.00    -0.116 NA 
HETATM    5  N   UNL     1      -9.339   5.016  67.243  1.00  0.00    -0.121 NA 
HETATM    6  C   UNL     1     -10.449   5.369  66.607  1.00  0.00    -0.298 A  
HETATM    7  C   UNL     1     -11.148   6.381  67.282  1.00  0.00    -0.416 A  
HETATM    8  C   UNL     1     -10.438   6.626  68.448  1.00  0.00    -0.211 A  
BRANCH   8   9
HETATM    9  C   UNL     1     -10.800   7.388  69.649  1.00  0.00    -0.210 A  
HETATM   10  C   UNL     1     -10.681   8.771  69.828  1.00  0.00    -0.220 A  
HETATM   11  C   UNL     1     -11.916   7.163  71.682  1.00  0.00    -0.318 A  
HETATM   12  C   UNL     1     -11.198   9.316  71.022  1.00  0.00    -0.392 A  
HETATM   13  N   UNL     1     -11.418   6.593  70.565  1.00  0.00    -0.352 NA 
HETATM   14  C   UNL     1     -11.834   8.510  71.954  1.00  0.00    -0.407 A  
BRANCH  10  15
HETATM   15  C   UNL     1     -10.013   9.732  68.881  1.00  0.00    -0.176 C  
BRANCH  15  16
HETATM   16  O   UNL     1     -10.837   9.884  67.734  1.00  0.00    -0.268 OA 
BRANCH  16  17
HETATM   17  C   UNL     1     -10.269  10.032  66.500  1.00  0.00    -0.224 A  
HETATM   18  C   UNL     1      -9.368   9.119  65.937  1.00  0.00    -0.306 A  
HETATM   19  C   UNL     1      -8.894   9.289  64.632  1.00  0.00    -0.218 A  
HETATM   20  C   UNL     1      -9.291  10.388  63.878  1.00  0.00    -0.322 A  
HETATM   21  C   UNL     1     -10.164  11.323  64.434  1.00  0.00    -0.320 A  
HETATM   22  O   UNL     1     -10.523  12.417  63.695  1.00  0.00    -0.425 OA 
HETATM   23  C   UNL     1     -10.664  11.150  65.736  1.00  0.00    -0.252 A  
HETATM   24  C   UNL     1     -11.615  12.173  66.256  1.00  0.00    -0.360 C  
HETATM   25  H   UNL     1     -11.118  13.054  64.073  1.00  0.00     0.000 HD 
HETATM   26  O   UNL     1     -12.040  12.221  67.403  1.00  0.00    -0.533 OA 
ENDBRANCH  16  17
ENDBRANCH  15  16
ENDBRANCH  10  15
ENDBRANCH   8   9
ENDBRANCH   2   4
TORSDOF 5
ENDMDL
MODEL      122
REMARK 921   NORMALIZED FREE ENERGY PREDICTED BY IDOCK:   -5.38 KCAL/MOL
REMARK 922        TOTAL FREE ENERGY PREDICTED BY IDOCK:   -8.17 KCAL/MOL
REMARK 923 INTER-LIGAND FREE ENERGY PREDICTED BY IDOCK:   -6.81 KCAL/MOL
REMARK 924 INTRA-LIGAND FREE ENERGY PREDICTED BY IDOCK:   -1.35 KCAL/MOL
REMARK 927      BINDING AFFINITY PREDICTED BY RF-SCORE:    0.00 PKD
ROOT
HETATM    1  C   UNL     1     -10.319  17.654  66.783  1.00  0.00    -0.331 C  
HETATM    2  C   UNL     1      -9.714  16.569  67.680  1.00  0.00    -0.239 C  
HETATM    3  C   UNL     1      -8.664  17.178  68.618  1.00  0.00    -0.266 C  
ENDROOT
BRANCH   2   4
HETATM    4  N   UNL     1     -10.732  15.866  68.463  1.00  0.00    -0.260 NA 
HETATM    5  N   UNL     1     -11.103  16.415  69.648  1.00  0.00    -0.330 NA 
HETATM    6  C   UNL     1     -11.750  15.435  70.266  1.00  0.00    -0.327 A  
HETATM    7  C   UNL     1     -11.854  14.284  69.472  1.00  0.00    -0.378 A  
HETATM    8  C   UNL     1     -11.274  14.604  68.254  1.00  0.00    -0.285 A  
BRANCH   8   9
HETATM    9  C   UNL     1     -11.300  13.903  66.965  1.00  0.00    -0.326 A  
HETATM   10  C   UNL     1     -10.353  12.987  66.493  1.00  0.00    -0.278 A  
HETATM   11  C   UNL     1     -12.697  13.483  65.147  1.00  0.00    -0.399 A  
HETATM   12  C   UNL     1     -10.633  12.338  65.272  1.00  0.00    -0.322 A  
HETATM   13  N   UNL     1     -12.464  14.143  66.301  1.00  0.00    -0.439 NA 
HETATM   14  C   UNL     1     -11.820  12.576  64.596  1.00  0.00    -0.439 A  
BRANCH  10  15
HETATM   15  C   UNL     1      -9.038  12.656  67.147  1.00  0.00    -0.210 C  
BRANCH  15  16
HETATM   16  O   UNL     1      -9.245  11.590  68.064  1.00  0.00    -0.162 OA 
BRANCH  16  17
HETATM   17  C   UNL     1      -9.221  10.296  67.623  1.00  0.00    -0.144 A  
HETATM   18  C   UNL     1      -8.275   9.792  66.720  1.00  0.00    -0.120 A  
HETATM   19  C   UNL     1      -8.257   8.435  66.381  1.00  0.00    -0.109 A  
HETATM   20  C   UNL     1      -9.200   7.564  66.917  1.00  0.00    -0.181 A  
HETATM   21  C   UNL     1     -10.166   8.055  67.794  1.00  0.00    -0.222 A  
HETATM   22  O   UNL     1     -11.109   7.196  68.291  1.00  0.00    -0.458 OA 
HETATM   23  C   UNL     1     -10.181   9.412  68.160  1.00  0.00    -0.239 A  
HETATM   24  C   UNL     1     -11.225   9.861  69.123  1.00  0.00    -0.107 C  
HETATM   25  H   UNL     1     -11.768   7.529  68.889  1.00  0.00     0.000 HD 
HETATM   26  O   UNL     1     -11.435  11.025  69.442  1.00  0.00    -0.240 OA 
ENDBRANCH  16  17
ENDBRANCH  15  16
ENDBRANCH  10  15
ENDBRANCH   8   9
ENDBRANCH   2   4
TORSDOF 5
ENDMDL
MODEL      123
REMARK 921   NORMALIZED FREE ENERGY PREDICTED BY IDOCK:   -5.37 KCAL/MOL
REMARK 922        TOTAL FREE ENERGY PREDICTED BY IDOCK:   -8.16 KCAL/MOL
REMARK 923 INTER-LIGAND FREE ENERGY PREDICTED BY IDOCK:   -7.13 KCAL/MOL
REMARK 924 INTRA-LIGAND FREE ENERGY PREDICTED BY IDOCK:   -1.03 KCAL/MOL
REMARK 927      BINDING AFFINITY PREDICTED BY RF-SCORE:    0.00 PKD
ROOT
HETATM    1  C   UNL     1     -10.044   8.943  67.771  1.00  0.00    -0.263 C  
HETATM    2  C   UNL     1     -10.342  10.445  67.811  1.00  0.00    -0.206 C  
HETATM    3  C   UNL     1     -11.125  10.799  69.082  1.00  0.00    -0.304 C  
ENDROOT
BRANCH   2   4
HETATM    4  N   UNL     1      -9.125  11.255  67.734  1.00  0.00    -0.149 NA 
HETATM    5  N   UNL     1      -7.990  10.736  68.271  1.00  0.00    -0.113 NA 
HETATM    6  C   UNL     1      -7.173  11.777  68.360  1.00  0.00    -0.089 A  
HETATM    7  C   UNL     1      -7.742  12.946  67.833  1.00  0.00    -0.143 A  
HETATM    8  C   UNL     1      -8.982  12.576  67.333  1.00  0.00    -0.188 A  
BRANCH   8   9
HETATM    9  C   UNL     1      -9.918  13.297  66.462  1.00  0.00    -0.280 A  
HETATM   10  C   UNL     1     -10.438  14.579  66.675  1.00  0.00    -0.274 A  
HETATM   11  C   UNL     1     -10.884  13.194  64.343  1.00  0.00    -0.397 A  
HETATM   12  C   UNL     1     -11.234  15.133  65.649  1.00  0.00    -0.296 A  
HETATM   13  N   UNL     1     -10.133  12.615  65.303  1.00  0.00    -0.277 NA 
HETATM   14  C   UNL     1     -11.451  14.443  64.466  1.00  0.00    -0.352 A  
BRANCH  10  15
HETATM   15  C   UNL     1     -10.264  15.411  67.917  1.00  0.00    -0.239 C  
BRANCH  15  16
HETATM   16  O   UNL     1      -9.187  16.314  67.708  1.00  0.00    -0.202 OA 
BRANCH  16  17
HETATM   17  C   UNL     1      -9.440  17.606  67.340  1.00  0.00    -0.256 A  
HETATM   18  C   UNL     1     -10.658  18.262  67.567  1.00  0.00    -0.432 A  
HETATM   19  C   UNL     1     -10.817  19.613  67.243  1.00  0.00    -0.519 A  
HETATM   20  C   UNL     1      -9.773  20.324  66.662  1.00  0.00    -0.550 A  
HETATM   21  C   UNL     1      -8.565  19.679  66.401  1.00  0.00    -0.361 A  
HETATM   22  O   UNL     1      -7.554  20.380  65.799  1.00  0.00    -0.512 OA 
HETATM   23  C   UNL     1      -8.385  18.327  66.743  1.00  0.00    -0.269 A  
HETATM   24  C   UNL     1      -7.058  17.710  66.461  1.00  0.00    -0.247 C  
HETATM   25  H   UNL     1      -6.731  19.940  65.622  1.00  0.00     0.000 HD 
HETATM   26  O   UNL     1      -6.792  16.522  66.594  1.00  0.00    -0.211 OA 
ENDBRANCH  16  17
ENDBRANCH  15  16
ENDBRANCH  10  15
ENDBRANCH   8   9
ENDBRANCH   2   4
TORSDOF 5
ENDMDL
MODEL      124
REMARK 921   NORMALIZED FREE ENERGY PREDICTED BY IDOCK:   -5.37 KCAL/MOL
REMARK 922        TOTAL FREE ENERGY PREDICTED BY IDOCK:   -8.15 KCAL/MOL
REMARK 923 INTER-LIGAND FREE ENERGY PREDICTED BY IDOCK:   -7.71 KCAL/MOL
REMARK 924 INTRA-LIGAND FREE ENERGY PREDICTED BY IDOCK:   -0.45 KCAL/MOL
REMARK 927      BINDING AFFINITY PREDICTED BY RF-SCORE:    0.00 PKD
ROOT
HETATM    1  C   UNL     1     -11.040   9.758  71.054  1.00  0.00    -0.431 C  
HETATM    2  C   UNL     1     -12.377  10.374  70.633  1.00  0.00    -0.346 C  
HETATM    3  C   UNL     1     -13.514   9.831  71.509  1.00  0.00    -0.417 C  
ENDROOT
BRANCH   2   4
HETATM    4  N   UNL     1     -12.358  11.837  70.695  1.00  0.00    -0.356 NA 
HETATM    5  N   UNL     1     -12.813  12.424  71.832  1.00  0.00    -0.266 NA 
HETATM    6  C   UNL     1     -12.991  13.693  71.488  1.00  0.00    -0.360 A  
HETATM    7  C   UNL     1     -12.601  13.944  70.165  1.00  0.00    -0.285 A  
HETATM    8  C   UNL     1     -12.093  12.748  69.681  1.00  0.00    -0.222 A  
BRANCH   8   9
HETATM    9  C   UNL     1     -11.323  12.456  68.466  1.00  0.00    -0.293 A  
HETATM   10  C   UNL     1     -10.225  13.176  67.979  1.00  0.00    -0.233 A  
HETATM   11  C   UNL     1     -11.033  10.807  66.845  1.00  0.00    -0.190 A  
HETATM   12  C   UNL     1      -9.556  12.652  66.853  1.00  0.00    -0.232 A  
HETATM   13  N   UNL     1     -11.717  11.278  67.908  1.00  0.00    -0.592 NA 
HETATM   14  C   UNL     1      -9.952  11.450  66.286  1.00  0.00    -0.259 A  
BRANCH  10  15
HETATM   15  C   UNL     1      -9.714  14.485  68.519  1.00  0.00    -0.224 C  
BRANCH  15  16
HETATM   16  O   UNL     1      -9.357  15.317  67.424  1.00  0.00    -0.195 OA 
BRANCH  16  17
HETATM   17  C   UNL     1      -9.237  16.667  67.604  1.00  0.00    -0.208 A  
HETATM   18  C   UNL     1      -8.503  17.257  68.641  1.00  0.00    -0.260 A  
HETATM   19  C   UNL     1      -8.349  18.646  68.712  1.00  0.00    -0.295 A  
HETATM   20  C   UNL     1      -8.947  19.469  67.764  1.00  0.00    -0.375 A  
HETATM   21  C   UNL     1      -9.705  18.899  66.742  1.00  0.00    -0.327 A  
HETATM   22  O   UNL     1     -10.316  19.720  65.832  1.00  0.00    -0.486 OA 
HETATM   23  C   UNL     1      -9.849  17.504  66.647  1.00  0.00    -0.308 A  
HETATM   24  C   UNL     1     -10.650  16.963  65.513  1.00  0.00    -0.202 C  
HETATM   25  H   UNL     1     -10.833  19.332  65.136  1.00  0.00     0.000 HD 
HETATM   26  O   UNL     1     -10.959  15.787  65.366  1.00  0.00    -0.345 OA 
ENDBRANCH  16  17
ENDBRANCH  15  16
ENDBRANCH  10  15
ENDBRANCH   8   9
ENDBRANCH   2   4
TORSDOF 5
ENDMDL
MODEL      125
REMARK 921   NORMALIZED FREE ENERGY PREDICTED BY IDOCK:   -5.35 KCAL/MOL
REMARK 922        TOTAL FREE ENERGY PREDICTED BY IDOCK:   -8.12 KCAL/MOL
REMARK 923 INTER-LIGAND FREE ENERGY PREDICTED BY IDOCK:   -6.95 KCAL/MOL
REMARK 924 INTRA-LIGAND FREE ENERGY PREDICTED BY IDOCK:   -1.17 KCAL/MOL
REMARK 927      BINDING AFFINITY PREDICTED BY RF-SCORE:    0.00 PKD
ROOT
HETATM    1  C   UNL     1     -12.130  13.532  70.119  1.00  0.00    -0.425 C  
HETATM    2  C   UNL     1     -11.964  14.968  69.615  1.00  0.00    -0.321 C  
HETATM    3  C   UNL     1     -12.249  15.966  70.745  1.00  0.00    -0.373 C  
ENDROOT
BRANCH   2   4
HETATM    4  N   UNL     1     -10.630  15.211  69.062  1.00  0.00    -0.236 NA 
HETATM    5  N   UNL     1      -9.721  15.826  69.862  1.00  0.00    -0.188 NA 
HETATM    6  C   UNL     1      -8.763  16.206  69.026  1.00  0.00    -0.254 A  
HETATM    7  C   UNL     1      -9.013  15.792  67.709  1.00  0.00    -0.176 A  
HETATM    8  C   UNL     1     -10.187  15.054  67.755  1.00  0.00    -0.236 A  
BRANCH   8   9
HETATM    9  C   UNL     1     -10.807  14.176  66.756  1.00  0.00    -0.296 A  
HETATM   10  C   UNL     1     -10.844  12.777  66.781  1.00  0.00    -0.289 A  
HETATM   11  C   UNL     1     -12.217  14.238  64.901  1.00  0.00    -0.440 A  
HETATM   12  C   UNL     1     -11.596  12.132  65.777  1.00  0.00    -0.414 A  
HETATM   13  N   UNL     1     -11.494  14.899  65.829  1.00  0.00    -0.320 NA 
HETATM   14  C   UNL     1     -12.301  12.865  64.834  1.00  0.00    -0.532 A  
BRANCH  10  15
HETATM   15  C   UNL     1     -10.118  11.889  67.756  1.00  0.00    -0.191 C  
BRANCH  15  16
HETATM   16  O   UNL     1     -10.924  10.746  68.012  1.00  0.00    -0.237 OA 
BRANCH  16  17
HETATM   17  C   UNL     1     -10.424   9.495  67.787  1.00  0.00    -0.254 A  
HETATM   18  C   UNL     1      -9.964   9.046  66.541  1.00  0.00    -0.355 A  
HETATM   19  C   UNL     1      -9.382   7.782  66.404  1.00  0.00    -0.237 A  
HETATM   20  C   UNL     1      -9.275   6.934  67.501  1.00  0.00    -0.124 A  
HETATM   21  C   UNL     1      -9.755   7.352  68.741  1.00  0.00    -0.149 A  
HETATM   22  O   UNL     1      -9.674   6.498  69.807  1.00  0.00    -0.158 OA 
HETATM   23  C   UNL     1     -10.321   8.630  68.897  1.00  0.00    -0.228 A  
HETATM   24  C   UNL     1     -10.788   9.022  70.257  1.00  0.00    -0.238 C  
HETATM   25  H   UNL     1     -10.001   6.783  70.652  1.00  0.00     0.000 HD 
HETATM   26  O   UNL     1     -11.403  10.046  70.522  1.00  0.00    -0.284 OA 
ENDBRANCH  16  17
ENDBRANCH  15  16
ENDBRANCH  10  15
ENDBRANCH   8   9
ENDBRANCH   2   4
TORSDOF 5
ENDMDL
MODEL      126
REMARK 921   NORMALIZED FREE ENERGY PREDICTED BY IDOCK:   -5.34 KCAL/MOL
REMARK 922        TOTAL FREE ENERGY PREDICTED BY IDOCK:   -8.11 KCAL/MOL
REMARK 923 INTER-LIGAND FREE ENERGY PREDICTED BY IDOCK:   -6.81 KCAL/MOL
REMARK 924 INTRA-LIGAND FREE ENERGY PREDICTED BY IDOCK:   -1.30 KCAL/MOL
REMARK 927      BINDING AFFINITY PREDICTED BY RF-SCORE:    0.00 PKD
ROOT
HETATM    1  C   UNL     1     -11.663  12.569  69.304  1.00  0.00    -0.379 C  
HETATM    2  C   UNL     1     -11.974  14.051  69.077  1.00  0.00    -0.357 C  
HETATM    3  C   UNL     1     -12.606  14.661  70.335  1.00  0.00    -0.399 C  
ENDROOT
BRANCH   2   4
HETATM    4  N   UNL     1     -10.785  14.817  68.697  1.00  0.00    -0.245 NA 
HETATM    5  N   UNL     1     -10.105  15.452  69.685  1.00  0.00    -0.267 NA 
HETATM    6  C   UNL     1      -9.318  16.302  69.037  1.00  0.00    -0.254 A  
HETATM    7  C   UNL     1      -9.438  16.180  67.644  1.00  0.00    -0.220 A  
HETATM    8  C   UNL     1     -10.326  15.137  67.426  1.00  0.00    -0.244 A  
BRANCH   8   9
HETATM    9  C   UNL     1     -10.653  14.397  66.201  1.00  0.00    -0.298 A  
HETATM   10  C   UNL     1     -10.213  13.113  65.859  1.00  0.00    -0.294 A  
HETATM   11  C   UNL     1     -12.072  14.466  64.354  1.00  0.00    -0.470 A  
HETATM   12  C   UNL     1     -10.743  12.539  64.683  1.00  0.00    -0.341 A  
HETATM   13  N   UNL     1     -11.579  15.063  65.459  1.00  0.00    -0.267 NA 
HETATM   14  C   UNL     1     -11.691  13.213  63.928  1.00  0.00    -0.515 A  
BRANCH  10  15
HETATM   15  C   UNL     1      -9.192  12.297  66.606  1.00  0.00    -0.208 C  
BRANCH  15  16
HETATM   16  O   UNL     1      -8.990  11.076  65.907  1.00  0.00    -0.186 OA 
BRANCH  16  17
HETATM   17  C   UNL     1      -9.355   9.891  66.484  1.00  0.00    -0.164 A  
HETATM   18  C   UNL     1     -10.027   9.789  67.709  1.00  0.00    -0.206 A  
HETATM   19  C   UNL     1     -10.448   8.547  68.195  1.00  0.00    -0.236 A  
HETATM   20  C   UNL     1     -10.181   7.385  67.481  1.00  0.00    -0.289 A  
HETATM   21  C   UNL     1      -9.487   7.465  66.275  1.00  0.00    -0.081 A  
HETATM   22  O   UNL     1      -9.201   6.312  65.595  1.00  0.00    -0.360 OA 
HETATM   23  C   UNL     1      -9.078   8.710  65.764  1.00  0.00    -0.242 A  
HETATM   24  C   UNL     1      -8.365   8.724  64.456  1.00  0.00    -0.162 C  
HETATM   25  H   UNL     1      -8.728   6.367  64.773  1.00  0.00     0.000 HD 
HETATM   26  O   UNL     1      -7.849   9.710  63.945  1.00  0.00    -0.123 OA 
ENDBRANCH  16  17
ENDBRANCH  15  16
ENDBRANCH  10  15
ENDBRANCH   8   9
ENDBRANCH   2   4
TORSDOF 5
ENDMDL
MODEL      127
REMARK 921   NORMALIZED FREE ENERGY PREDICTED BY IDOCK:   -5.26 KCAL/MOL
REMARK 922        TOTAL FREE ENERGY PREDICTED BY IDOCK:   -8.01 KCAL/MOL
REMARK 923 INTER-LIGAND FREE ENERGY PREDICTED BY IDOCK:   -6.82 KCAL/MOL
REMARK 924 INTRA-LIGAND FREE ENERGY PREDICTED BY IDOCK:   -1.19 KCAL/MOL
REMARK 927      BINDING AFFINITY PREDICTED BY RF-SCORE:    0.00 PKD
ROOT
HETATM    1  C   UNL     1      -6.370   8.076  68.639  1.00  0.00    -0.052 C  
HETATM    2  C   UNL     1      -7.719   8.680  68.238  1.00  0.00    -0.101 C  
HETATM    3  C   UNL     1      -7.637   9.277  66.827  1.00  0.00    -0.090 C  
ENDROOT
BRANCH   2   4
HETATM    4  N   UNL     1      -8.806   7.701  68.301  1.00  0.00    -0.126 NA 
HETATM    5  N   UNL     1      -8.516   6.418  67.966  1.00  0.00    -0.118 NA 
HETATM    6  C   UNL     1      -9.706   5.856  67.792  1.00  0.00    -0.118 A  
HETATM    7  C   UNL     1     -10.757   6.743  68.068  1.00  0.00    -0.302 A  
HETATM    8  C   UNL     1     -10.163   7.920  68.498  1.00  0.00    -0.205 A  
BRANCH   8   9
HETATM    9  C   UNL     1     -10.740   9.102  69.149  1.00  0.00    -0.172 A  
HETATM   10  C   UNL     1     -11.103  10.304  68.527  1.00  0.00    -0.294 A  
HETATM   11  C   UNL     1     -11.665   9.802  71.170  1.00  0.00    -0.385 A  
HETATM   12  C   UNL     1     -11.750  11.273  69.322  1.00  0.00    -0.403 A  
HETATM   13  N   UNL     1     -11.025   8.852  70.456  1.00  0.00    -0.235 NA 
HETATM   14  C   UNL     1     -12.047  11.019  70.653  1.00  0.00    -0.471 A  
BRANCH  10  15
HETATM   15  C   UNL     1     -10.829  10.678  67.096  1.00  0.00    -0.270 C  
BRANCH  15  16
HETATM   16  O   UNL     1     -10.460  12.050  67.050  1.00  0.00    -0.216 OA 
BRANCH  16  17
HETATM   17  C   UNL     1     -10.972  12.862  66.077  1.00  0.00    -0.276 A  
HETATM   18  C   UNL     1     -11.947  12.462  65.154  1.00  0.00    -0.454 A  
HETATM   19  C   UNL     1     -12.489  13.373  64.242  1.00  0.00    -0.321 A  
HETATM   20  C   UNL     1     -12.047  14.692  64.218  1.00  0.00    -0.437 A  
HETATM   21  C   UNL     1     -11.056  15.099  65.109  1.00  0.00    -0.403 A  
HETATM   22  O   UNL     1     -10.605  16.391  65.056  1.00  0.00    -0.651 OA 
HETATM   23  C   UNL     1     -10.519  14.198  66.046  1.00  0.00    -0.308 A  
HETATM   24  C   UNL     1      -9.483  14.710  66.987  1.00  0.00    -0.241 C  
HETATM   25  H   UNL     1      -9.930  16.668  65.663  1.00  0.00     0.000 HD 
HETATM   26  O   UNL     1      -8.844  14.021  67.773  1.00  0.00    -0.169 OA 
ENDBRANCH  16  17
ENDBRANCH  15  16
ENDBRANCH  10  15
ENDBRANCH   8   9
ENDBRANCH   2   4
TORSDOF 5
ENDMDL
MODEL      128
REMARK 921   NORMALIZED FREE ENERGY PREDICTED BY IDOCK:   -5.26 KCAL/MOL
REMARK 922        TOTAL FREE ENERGY PREDICTED BY IDOCK:   -8.01 KCAL/MOL
REMARK 923 INTER-LIGAND FREE ENERGY PREDICTED BY IDOCK:   -6.83 KCAL/MOL
REMARK 924 INTRA-LIGAND FREE ENERGY PREDICTED BY IDOCK:   -1.18 KCAL/MOL
REMARK 927      BINDING AFFINITY PREDICTED BY RF-SCORE:    0.00 PKD
ROOT
HETATM    1  C   UNL     1     -12.557   7.538  71.351  1.00  0.00    -0.382 C  
HETATM    2  C   UNL     1     -11.048   7.680  71.129  1.00  0.00    -0.251 C  
HETATM    3  C   UNL     1     -10.276   7.040  72.290  1.00  0.00    -0.207 C  
ENDROOT
BRANCH   2   4
HETATM    4  N   UNL     1     -10.616   7.091  69.860  1.00  0.00    -0.221 NA 
HETATM    5  N   UNL     1     -11.329   6.039  69.381  1.00  0.00    -0.348 NA 
HETATM    6  C   UNL     1     -10.544   5.520  68.445  1.00  0.00    -0.140 A  
HETATM    7  C   UNL     1      -9.364   6.258  68.273  1.00  0.00    -0.112 A  
HETATM    8  C   UNL     1      -9.461   7.343  69.131  1.00  0.00    -0.149 A  
BRANCH   8   9
HETATM    9  C   UNL     1      -8.662   8.571  69.218  1.00  0.00    -0.133 A  
HETATM   10  C   UNL     1      -8.898   9.771  68.538  1.00  0.00    -0.121 A  
HETATM   11  C   UNL     1      -6.948   9.546  70.461  1.00  0.00    -0.123 A  
HETATM   12  C   UNL     1      -8.072  10.869  68.857  1.00  0.00    -0.144 A  
HETATM   13  N   UNL     1      -7.700   8.462  70.176  1.00  0.00    -0.080 NA 
HETATM   14  C   UNL     1      -7.095  10.763  69.836  1.00  0.00    -0.099 A  
BRANCH  10  15
HETATM   15  C   UNL     1      -9.928   9.993  67.463  1.00  0.00    -0.190 C  
BRANCH  15  16
HETATM   16  O   UNL     1      -9.806  11.326  66.987  1.00  0.00    -0.188 OA 
BRANCH  16  17
HETATM   17  C   UNL     1     -10.588  11.756  65.952  1.00  0.00    -0.271 A  
HETATM   18  C   UNL     1     -10.486  11.275  64.640  1.00  0.00    -0.387 A  
HETATM   19  C   UNL     1     -11.379  11.696  63.649  1.00  0.00    -0.485 A  
HETATM   20  C   UNL     1     -12.371  12.624  63.946  1.00  0.00    -0.546 A  
HETATM   21  C   UNL     1     -12.468  13.136  65.239  1.00  0.00    -0.495 A  
HETATM   22  O   UNL     1     -13.427  14.073  65.512  1.00  0.00    -0.705 OA 
HETATM   23  C   UNL     1     -11.590  12.704  66.249  1.00  0.00    -0.440 A  
HETATM   24  C   UNL     1     -11.769  13.272  67.615  1.00  0.00    -0.366 C  
HETATM   25  H   UNL     1     -13.493  14.422  66.393  1.00  0.00     0.000 HD 
HETATM   26  O   UNL     1     -11.015  13.082  68.561  1.00  0.00    -0.243 OA 
ENDBRANCH  16  17
ENDBRANCH  15  16
ENDBRANCH  10  15
ENDBRANCH   8   9
ENDBRANCH   2   4
TORSDOF 5
ENDMDL
MODEL      129
REMARK 921   NORMALIZED FREE ENERGY PREDICTED BY IDOCK:   -5.26 KCAL/MOL
REMARK 922        TOTAL FREE ENERGY PREDICTED BY IDOCK:   -8.00 KCAL/MOL
REMARK 923 INTER-LIGAND FREE ENERGY PREDICTED BY IDOCK:   -6.82 KCAL/MOL
REMARK 924 INTRA-LIGAND FREE ENERGY PREDICTED BY IDOCK:   -1.18 KCAL/MOL
REMARK 927      BINDING AFFINITY PREDICTED BY RF-SCORE:    0.00 PKD
ROOT
HETATM    1  C   UNL     1      -5.904   9.083  65.655  1.00  0.00    -0.050 C  
HETATM    2  C   UNL     1      -7.050   8.940  66.661  1.00  0.00    -0.084 C  
HETATM    3  C   UNL     1      -6.781   9.802  67.901  1.00  0.00    -0.065 C  
ENDROOT
BRANCH   2   4
HETATM    4  N   UNL     1      -8.346   9.295  66.080  1.00  0.00    -0.110 NA 
HETATM    5  N   UNL     1      -8.343   9.996  64.917  1.00  0.00    -0.149 NA 
HETATM    6  C   UNL     1      -9.585  10.451  64.813  1.00  0.00    -0.293 A  
HETATM    7  C   UNL     1     -10.403  10.004  65.861  1.00  0.00    -0.202 A  
HETATM    8  C   UNL     1      -9.614   9.165  66.633  1.00  0.00    -0.203 A  
BRANCH   8   9
HETATM    9  C   UNL     1      -9.973   8.226  67.702  1.00  0.00    -0.190 A  
HETATM   10  C   UNL     1     -10.364   8.554  69.006  1.00  0.00    -0.229 A  
HETATM   11  C   UNL     1     -10.444   5.972  68.066  1.00  0.00    -0.233 A  
HETATM   12  C   UNL     1     -10.779   7.496  69.842  1.00  0.00    -0.254 A  
HETATM   13  N   UNL     1     -10.019   6.948  67.236  1.00  0.00    -0.158 NA 
HETATM   14  C   UNL     1     -10.834   6.194  69.368  1.00  0.00    -0.420 A  
BRANCH  10  15
HETATM   15  C   UNL     1     -10.343   9.929  69.617  1.00  0.00    -0.241 C  
BRANCH  15  16
HETATM   16  O   UNL     1     -11.683  10.385  69.750  1.00  0.00    -0.253 OA 
BRANCH  16  17
HETATM   17  C   UNL     1     -11.931  11.676  70.122  1.00  0.00    -0.359 A  
HETATM   18  C   UNL     1     -11.473  12.797  69.418  1.00  0.00    -0.321 A  
HETATM   19  C   UNL     1     -11.840  14.089  69.808  1.00  0.00    -0.385 A  
HETATM   20  C   UNL     1     -12.649  14.285  70.922  1.00  0.00    -0.426 A  
HETATM   21  C   UNL     1     -13.088  13.181  71.652  1.00  0.00    -0.353 A  
HETATM   22  O   UNL     1     -13.857  13.386  72.766  1.00  0.00    -0.720 OA 
HETATM   23  C   UNL     1     -12.745  11.876  71.258  1.00  0.00    -0.401 A  
HETATM   24  C   UNL     1     -13.273  10.743  72.068  1.00  0.00    -0.361 C  
HETATM   25  H   UNL     1     -14.157  12.635  73.264  1.00  0.00     0.000 HD 
HETATM   26  O   UNL     1     -12.967   9.567  71.919  1.00  0.00    -0.362 OA 
ENDBRANCH  16  17
ENDBRANCH  15  16
ENDBRANCH  10  15
ENDBRANCH   8   9
ENDBRANCH   2   4
TORSDOF 5
ENDMDL
MODEL      130
REMARK 921   NORMALIZED FREE ENERGY PREDICTED BY IDOCK:   -5.25 KCAL/MOL
REMARK 922        TOTAL FREE ENERGY PREDICTED BY IDOCK:   -8.00 KCAL/MOL
REMARK 923 INTER-LIGAND FREE ENERGY PREDICTED BY IDOCK:   -6.90 KCAL/MOL
REMARK 924 INTRA-LIGAND FREE ENERGY PREDICTED BY IDOCK:   -1.09 KCAL/MOL
REMARK 927      BINDING AFFINITY PREDICTED BY RF-SCORE:    0.00 PKD
ROOT
HETATM    1  C   UNL     1      -9.931   4.595  70.660  1.00  0.00    -0.293 C  
HETATM    2  C   UNL     1     -10.568   5.777  71.397  1.00  0.00    -0.253 C  
HETATM    3  C   UNL     1     -11.468   5.274  72.533  1.00  0.00    -0.209 C  
ENDROOT
BRANCH   2   4
HETATM    4  N   UNL     1      -9.567   6.704  71.929  1.00  0.00    -0.151 NA 
HETATM    5  N   UNL     1      -8.364   6.190  72.291  1.00  0.00    -0.113 NA 
HETATM    6  C   UNL     1      -7.811   7.151  73.020  1.00  0.00    -0.097 A  
HETATM    7  C   UNL     1      -8.615   8.298  73.083  1.00  0.00    -0.278 A  
HETATM    8  C   UNL     1      -9.718   8.038  72.284  1.00  0.00    -0.229 A  
BRANCH   8   9
HETATM    9  C   UNL     1     -10.763   8.933  71.772  1.00  0.00    -0.362 A  
HETATM   10  C   UNL     1     -10.709   9.696  70.600  1.00  0.00    -0.388 A  
HETATM   11  C   UNL     1     -12.994   9.512  72.115  1.00  0.00    -0.412 A  
HETATM   12  C   UNL     1     -11.875  10.400  70.232  1.00  0.00    -0.399 A  
HETATM   13  N   UNL     1     -11.898   8.837  72.518  1.00  0.00    -0.289 NA 
HETATM   14  C   UNL     1     -13.034  10.300  70.986  1.00  0.00    -0.488 A  
BRANCH  10  15
HETATM   15  C   UNL     1      -9.507   9.871  69.711  1.00  0.00    -0.226 C  
BRANCH  15  16
HETATM   16  O   UNL     1      -9.744  10.968  68.840  1.00  0.00    -0.197 OA 
BRANCH  16  17
HETATM   17  C   UNL     1      -9.696  10.788  67.486  1.00  0.00    -0.166 A  
HETATM   18  C   UNL     1      -9.508   9.545  66.867  1.00  0.00    -0.204 A  
HETATM   19  C   UNL     1      -9.558   9.422  65.475  1.00  0.00    -0.328 A  
HETATM   20  C   UNL     1      -9.769  10.541  64.677  1.00  0.00    -0.369 A  
HETATM   21  C   UNL     1      -9.927  11.790  65.275  1.00  0.00    -0.253 A  
HETATM   22  O   UNL     1     -10.102  12.890  64.480  1.00  0.00    -0.514 OA 
HETATM   23  C   UNL     1      -9.901  11.924  66.675  1.00  0.00    -0.219 A  
HETATM   24  C   UNL     1     -10.106  13.284  67.247  1.00  0.00    -0.234 C  
HETATM   25  H   UNL     1     -10.210  13.741  64.887  1.00  0.00     0.000 HD 
HETATM   26  O   UNL     1      -9.994  13.574  68.431  1.00  0.00    -0.232 OA 
ENDBRANCH  16  17
ENDBRANCH  15  16
ENDBRANCH  10  15
ENDBRANCH   8   9
ENDBRANCH   2   4
TORSDOF 5
ENDMDL
MODEL      131
REMARK 921   NORMALIZED FREE ENERGY PREDICTED BY IDOCK:   -5.25 KCAL/MOL
REMARK 922        TOTAL FREE ENERGY PREDICTED BY IDOCK:   -7.99 KCAL/MOL
REMARK 923 INTER-LIGAND FREE ENERGY PREDICTED BY IDOCK:   -6.70 KCAL/MOL
REMARK 924 INTRA-LIGAND FREE ENERGY PREDICTED BY IDOCK:   -1.30 KCAL/MOL
REMARK 927      BINDING AFFINITY PREDICTED BY RF-SCORE:    0.00 PKD
ROOT
HETATM    1  C   UNL     1      -6.310  12.709  69.557  1.00  0.00    -0.111 C  
HETATM    2  C   UNL     1      -7.263  13.431  68.599  1.00  0.00    -0.107 C  
HETATM    3  C   UNL     1      -6.472  14.119  67.479  1.00  0.00    -0.066 C  
ENDROOT
BRANCH   2   4
HETATM    4  N   UNL     1      -8.259  12.527  68.021  1.00  0.00    -0.156 NA 
HETATM    5  N   UNL     1      -7.822  11.335  67.541  1.00  0.00    -0.118 NA 
HETATM    6  C   UNL     1      -8.835  10.895  66.805  1.00  0.00    -0.145 A  
HETATM    7  C   UNL     1      -9.940  11.758  66.854  1.00  0.00    -0.220 A  
HETATM    8  C   UNL     1      -9.595  12.775  67.732  1.00  0.00    -0.204 A  
BRANCH   8   9
HETATM    9  C   UNL     1     -10.414  13.816  68.363  1.00  0.00    -0.252 A  
HETATM   10  C   UNL     1     -10.548  15.144  67.940  1.00  0.00    -0.257 A  
HETATM   11  C   UNL     1     -12.066  14.103  69.981  1.00  0.00    -0.346 A  
HETATM   12  C   UNL     1     -11.482  15.949  68.626  1.00  0.00    -0.391 A  
HETATM   13  N   UNL     1     -11.172  13.299  69.369  1.00  0.00    -0.202 NA 
HETATM   14  C   UNL     1     -12.259  15.425  69.648  1.00  0.00    -0.312 A  
BRANCH  10  15
HETATM   15  C   UNL     1      -9.758  15.810  66.846  1.00  0.00    -0.230 C  
BRANCH  15  16
HETATM   16  O   UNL     1      -9.936  17.216  66.951  1.00  0.00    -0.268 OA 
BRANCH  16  17
HETATM   17  C   UNL     1      -8.938  17.993  67.468  1.00  0.00    -0.249 A  
HETATM   18  C   UNL     1      -8.037  17.562  68.451  1.00  0.00    -0.266 A  
HETATM   19  C   UNL     1      -6.985  18.383  68.870  1.00  0.00    -0.297 A  
HETATM   20  C   UNL     1      -6.830  19.656  68.333  1.00  0.00    -0.329 A  
HETATM   21  C   UNL     1      -7.735  20.112  67.376  1.00  0.00    -0.306 A  
HETATM   22  O   UNL     1      -7.592  21.379  66.877  1.00  0.00    -0.769 OA 
HETATM   23  C   UNL     1      -8.784  19.289  66.930  1.00  0.00    -0.323 A  
HETATM   24  C   UNL     1      -9.696  19.830  65.884  1.00  0.00    -0.281 C  
HETATM   25  H   UNL     1      -8.208  21.690  66.225  1.00  0.00     0.000 HD 
HETATM   26  O   UNL     1     -10.715  19.281  65.486  1.00  0.00    -0.489 OA 
ENDBRANCH  16  17
ENDBRANCH  15  16
ENDBRANCH  10  15
ENDBRANCH   8   9
ENDBRANCH   2   4
TORSDOF 5
ENDMDL
MODEL      132
REMARK 921   NORMALIZED FREE ENERGY PREDICTED BY IDOCK:   -5.21 KCAL/MOL
REMARK 922        TOTAL FREE ENERGY PREDICTED BY IDOCK:   -7.95 KCAL/MOL
REMARK 923 INTER-LIGAND FREE ENERGY PREDICTED BY IDOCK:   -8.49 KCAL/MOL
REMARK 924 INTRA-LIGAND FREE ENERGY PREDICTED BY IDOCK:    0.54 KCAL/MOL
REMARK 927      BINDING AFFINITY PREDICTED BY RF-SCORE:    0.00 PKD
ROOT
HETATM    1  C   UNL     1     -12.589  11.887  63.630  1.00  0.00    -0.555 C  
HETATM    2  C   UNL     1     -11.543  12.996  63.777  1.00  0.00    -0.457 C  
HETATM    3  C   UNL     1     -12.186  14.259  64.367  1.00  0.00    -0.471 C  
ENDROOT
BRANCH   2   4
HETATM    4  N   UNL     1     -10.408  12.583  64.605  1.00  0.00    -0.310 NA 
HETATM    5  N   UNL     1      -9.786  11.420  64.282  1.00  0.00    -0.238 NA 
HETATM    6  C   UNL     1      -9.054  11.141  65.354  1.00  0.00    -0.177 A  
HETATM    7  C   UNL     1      -9.150  12.137  66.336  1.00  0.00    -0.177 A  
HETATM    8  C   UNL     1      -9.958  13.129  65.800  1.00  0.00    -0.252 A  
BRANCH   8   9
HETATM    9  C   UNL     1     -10.217  14.501  66.250  1.00  0.00    -0.297 A  
HETATM   10  C   UNL     1     -11.076  14.894  67.283  1.00  0.00    -0.336 A  
HETATM   11  C   UNL     1      -9.429  16.680  66.000  1.00  0.00    -0.251 A  
HETATM   12  C   UNL     1     -11.089  16.261  67.630  1.00  0.00    -0.184 A  
HETATM   13  N   UNL     1      -9.397  15.386  65.619  1.00  0.00    -0.237 NA 
HETATM   14  C   UNL     1     -10.250  17.164  66.994  1.00  0.00    -0.313 A  
BRANCH  10  15
HETATM   15  C   UNL     1     -12.023  13.998  68.036  1.00  0.00    -0.350 C  
BRANCH  15  16
HETATM   16  O   UNL     1     -11.408  13.616  69.259  1.00  0.00    -0.260 OA 
BRANCH  16  17
HETATM   17  C   UNL     1     -12.010  12.692  70.067  1.00  0.00    -0.306 A  
HETATM   18  C   UNL     1     -11.788  11.311  69.980  1.00  0.00    -0.448 A  
HETATM   19  C   UNL     1     -12.370  10.432  70.898  1.00  0.00    -0.480 A  
HETATM   20  C   UNL     1     -13.206  10.913  71.901  1.00  0.00    -0.508 A  
HETATM   21  C   UNL     1     -13.461  12.280  71.983  1.00  0.00    -0.316 A  
HETATM   22  O   UNL     1     -14.310  12.740  72.953  1.00  0.00    -0.469 OA 
HETATM   23  C   UNL     1     -12.864  13.178  71.080  1.00  0.00    -0.295 A  
HETATM   24  C   UNL     1     -13.159  14.629  71.244  1.00  0.00    -0.359 C  
HETATM   25  H   UNL     1     -14.485  13.672  73.009  1.00  0.00     0.000 HD 
HETATM   26  O   UNL     1     -12.810  15.511  70.470  1.00  0.00    -0.443 OA 
ENDBRANCH  16  17
ENDBRANCH  15  16
ENDBRANCH  10  15
ENDBRANCH   8   9
ENDBRANCH   2   4
TORSDOF 5
ENDMDL
MODEL      133
REMARK 921   NORMALIZED FREE ENERGY PREDICTED BY IDOCK:   -5.20 KCAL/MOL
REMARK 922        TOTAL FREE ENERGY PREDICTED BY IDOCK:   -7.93 KCAL/MOL
REMARK 923 INTER-LIGAND FREE ENERGY PREDICTED BY IDOCK:   -7.23 KCAL/MOL
REMARK 924 INTRA-LIGAND FREE ENERGY PREDICTED BY IDOCK:   -0.70 KCAL/MOL
REMARK 927      BINDING AFFINITY PREDICTED BY RF-SCORE:    0.00 PKD
ROOT
HETATM    1  C   UNL     1     -11.391  15.517  71.527  1.00  0.00    -0.466 C  
HETATM    2  C   UNL     1     -12.202  14.279  71.133  1.00  0.00    -0.356 C  
HETATM    3  C   UNL     1     -13.703  14.554  71.287  1.00  0.00    -0.407 C  
ENDROOT
BRANCH   2   4
HETATM    4  N   UNL     1     -11.915  13.840  69.766  1.00  0.00    -0.325 NA 
HETATM    5  N   UNL     1     -11.660  14.798  68.839  1.00  0.00    -0.297 NA 
HETATM    6  C   UNL     1     -11.770  14.160  67.680  1.00  0.00    -0.387 A  
HETATM    7  C   UNL     1     -12.033  12.793  67.850  1.00  0.00    -0.320 A  
HETATM    8  C   UNL     1     -12.026  12.568  69.219  1.00  0.00    -0.250 A  
BRANCH   8   9
HETATM    9  C   UNL     1     -11.998  11.317  69.985  1.00  0.00    -0.368 A  
HETATM   10  C   UNL     1     -10.972  10.365  69.993  1.00  0.00    -0.370 A  
HETATM   11  C   UNL     1     -13.128  10.197  71.689  1.00  0.00    -0.447 A  
HETATM   12  C   UNL     1     -11.097   9.286  70.893  1.00  0.00    -0.374 A  
HETATM   13  N   UNL     1     -13.062  11.236  70.830  1.00  0.00    -0.124 NA 
HETATM   14  C   UNL     1     -12.176   9.204  71.760  1.00  0.00    -0.442 A  
BRANCH  10  15
HETATM   15  C   UNL     1      -9.761  10.360  69.098  1.00  0.00    -0.220 C  
BRANCH  15  16
HETATM   16  O   UNL     1      -9.912   9.321  68.139  1.00  0.00    -0.163 OA 
BRANCH  16  17
HETATM   17  C   UNL     1      -9.734   9.588  66.811  1.00  0.00    -0.197 A  
HETATM   18  C   UNL     1      -9.978  10.836  66.221  1.00  0.00    -0.272 A  
HETATM   19  C   UNL     1      -9.688  11.061  64.872  1.00  0.00    -0.303 A  
HETATM   20  C   UNL     1      -9.175  10.038  64.082  1.00  0.00    -0.319 A  
HETATM   21  C   UNL     1      -8.954   8.782  64.645  1.00  0.00     0.084 A  
HETATM   22  O   UNL     1      -8.479   7.773  63.852  1.00  0.00    -0.373 OA 
HETATM   23  C   UNL     1      -9.220   8.549  66.006  1.00  0.00    -0.262 A  
HETATM   24  C   UNL     1      -8.933   7.191  66.547  1.00  0.00    -0.151 C  
HETATM   25  H   UNL     1      -8.328   6.917  64.235  1.00  0.00     0.000 HD 
HETATM   26  O   UNL     1      -9.221   6.806  67.674  1.00  0.00    -0.120 OA 
ENDBRANCH  16  17
ENDBRANCH  15  16
ENDBRANCH  10  15
ENDBRANCH   8   9
ENDBRANCH   2   4
TORSDOF 5
ENDMDL
MODEL      134
REMARK 921   NORMALIZED FREE ENERGY PREDICTED BY IDOCK:   -5.19 KCAL/MOL
REMARK 922        TOTAL FREE ENERGY PREDICTED BY IDOCK:   -7.93 KCAL/MOL
REMARK 923 INTER-LIGAND FREE ENERGY PREDICTED BY IDOCK:   -7.14 KCAL/MOL
REMARK 924 INTRA-LIGAND FREE ENERGY PREDICTED BY IDOCK:   -0.78 KCAL/MOL
REMARK 927      BINDING AFFINITY PREDICTED BY RF-SCORE:    0.00 PKD
ROOT
HETATM    1  C   UNL     1     -11.799  12.387  65.718  1.00  0.00    -0.467 C  
HETATM    2  C   UNL     1     -10.366  12.875  65.488  1.00  0.00    -0.291 C  
HETATM    3  C   UNL     1     -10.325  14.409  65.452  1.00  0.00    -0.400 C  
ENDROOT
BRANCH   2   4
HETATM    4  N   UNL     1      -9.440  12.378  66.507  1.00  0.00    -0.238 NA 
HETATM    5  N   UNL     1      -8.339  11.706  66.081  1.00  0.00    -0.040 NA 
HETATM    6  C   UNL     1      -7.887  11.106  67.175  1.00  0.00    -0.139 A  
HETATM    7  C   UNL     1      -8.645  11.430  68.310  1.00  0.00    -0.156 A  
HETATM    8  C   UNL     1      -9.600  12.343  67.886  1.00  0.00    -0.205 A  
BRANCH   8   9
HETATM    9  C   UNL     1     -10.503  13.210  68.651  1.00  0.00    -0.227 A  
HETATM   10  C   UNL     1     -11.598  12.802  69.423  1.00  0.00    -0.361 A  
HETATM   11  C   UNL     1     -10.726  15.408  69.394  1.00  0.00    -0.258 A  
HETATM   12  C   UNL     1     -12.265  13.792  70.174  1.00  0.00    -0.425 A  
HETATM   13  N   UNL     1     -10.068  14.500  68.643  1.00  0.00    -0.239 NA 
HETATM   14  C   UNL     1     -11.821  15.106  70.172  1.00  0.00    -0.351 A  
BRANCH  10  15
HETATM   15  C   UNL     1     -12.159  11.407  69.497  1.00  0.00    -0.302 C  
BRANCH  15  16
HETATM   16  O   UNL     1     -11.823  10.851  70.761  1.00  0.00    -0.333 OA 
BRANCH  16  17
HETATM   17  C   UNL     1     -12.437   9.707  71.187  1.00  0.00    -0.332 A  
HETATM   18  C   UNL     1     -13.827   9.553  71.290  1.00  0.00    -0.159 A  
HETATM   19  C   UNL     1     -14.389   8.324  71.649  1.00  0.00    -0.561 A  
HETATM   20  C   UNL     1     -13.573   7.236  71.939  1.00  0.00    -0.303 A  
HETATM   21  C   UNL     1     -12.188   7.379  71.871  1.00  0.00    -0.310 A  
HETATM   22  O   UNL     1     -11.394   6.311  72.189  1.00  0.00    -0.267 OA 
HETATM   23  C   UNL     1     -11.611   8.603  71.489  1.00  0.00    -0.368 A  
HETATM   24  C   UNL     1     -10.125   8.677  71.410  1.00  0.00    -0.254 C  
HETATM   25  H   UNL     1     -10.450   6.408  72.143  1.00  0.00     0.000 HD 
HETATM   26  O   UNL     1      -9.480   9.698  71.208  1.00  0.00    -0.154 OA 
ENDBRANCH  16  17
ENDBRANCH  15  16
ENDBRANCH  10  15
ENDBRANCH   8   9
ENDBRANCH   2   4
TORSDOF 5
ENDMDL
MODEL      135
REMARK 921   NORMALIZED FREE ENERGY PREDICTED BY IDOCK:   -5.15 KCAL/MOL
REMARK 922        TOTAL FREE ENERGY PREDICTED BY IDOCK:   -7.87 KCAL/MOL
REMARK 923 INTER-LIGAND FREE ENERGY PREDICTED BY IDOCK:   -7.37 KCAL/MOL
REMARK 924 INTRA-LIGAND FREE ENERGY PREDICTED BY IDOCK:   -0.49 KCAL/MOL
REMARK 927      BINDING AFFINITY PREDICTED BY RF-SCORE:    0.00 PKD
ROOT
HETATM    1  C   UNL     1     -11.404   5.968  72.239  1.00  0.00    -0.353 C  
HETATM    2  C   UNL     1     -11.135   7.009  71.148  1.00  0.00    -0.258 C  
HETATM    3  C   UNL     1     -11.576   6.474  69.780  1.00  0.00    -0.392 C  
ENDROOT
BRANCH   2   4
HETATM    4  N   UNL     1     -11.802   8.284  71.421  1.00  0.00    -0.286 NA 
HETATM    5  N   UNL     1     -12.873   8.267  72.255  1.00  0.00    -0.307 NA 
HETATM    6  C   UNL     1     -13.454   9.444  72.055  1.00  0.00    -0.449 A  
HETATM    7  C   UNL     1     -12.738  10.241  71.150  1.00  0.00    -0.502 A  
HETATM    8  C   UNL     1     -11.603   9.518  70.814  1.00  0.00    -0.308 A  
BRANCH   8   9
HETATM    9  C   UNL     1     -10.380   9.924  70.113  1.00  0.00    -0.282 A  
HETATM   10  C   UNL     1     -10.273  10.906  69.120  1.00  0.00    -0.215 A  
HETATM   11  C   UNL     1      -8.065   9.665  70.187  1.00  0.00    -0.189 A  
HETATM   12  C   UNL     1      -8.978  11.221  68.659  1.00  0.00    -0.148 A  
HETATM   13  N   UNL     1      -9.285   9.315  70.646  1.00  0.00    -0.253 NA 
HETATM   14  C   UNL     1      -7.860  10.607  69.204  1.00  0.00    -0.142 A  
BRANCH  10  15
HETATM   15  C   UNL     1     -11.418  11.631  68.465  1.00  0.00    -0.298 C  
BRANCH  15  16
HETATM   16  O   UNL     1     -11.415  12.980  68.914  1.00  0.00    -0.260 OA 
BRANCH  16  17
HETATM   17  C   UNL     1     -11.092  13.987  68.049  1.00  0.00    -0.263 A  
HETATM   18  C   UNL     1     -10.828  13.795  66.685  1.00  0.00    -0.288 A  
HETATM   19  C   UNL     1     -10.591  14.884  65.840  1.00  0.00    -0.334 A  
HETATM   20  C   UNL     1     -10.586  16.179  66.346  1.00  0.00    -0.269 A  
HETATM   21  C   UNL     1     -10.816  16.385  67.706  1.00  0.00    -0.306 A  
HETATM   22  O   UNL     1     -10.777  17.661  68.199  1.00  0.00    -0.375 OA 
HETATM   23  C   UNL     1     -11.078  15.301  68.562  1.00  0.00    -0.284 A  
HETATM   24  C   UNL     1     -11.343  15.597  69.998  1.00  0.00    -0.334 C  
HETATM   25  H   UNL     1     -10.934  17.802  69.126  1.00  0.00     0.000 HD 
HETATM   26  O   UNL     1     -11.470  14.756  70.879  1.00  0.00    -0.278 OA 
ENDBRANCH  16  17
ENDBRANCH  15  16
ENDBRANCH  10  15
ENDBRANCH   8   9
ENDBRANCH   2   4
TORSDOF 5
ENDMDL
MODEL      136
REMARK 921   NORMALIZED FREE ENERGY PREDICTED BY IDOCK:   -5.15 KCAL/MOL
REMARK 922        TOTAL FREE ENERGY PREDICTED BY IDOCK:   -7.87 KCAL/MOL
REMARK 923 INTER-LIGAND FREE ENERGY PREDICTED BY IDOCK:   -6.81 KCAL/MOL
REMARK 924 INTRA-LIGAND FREE ENERGY PREDICTED BY IDOCK:   -1.05 KCAL/MOL
REMARK 927      BINDING AFFINITY PREDICTED BY RF-SCORE:    0.00 PKD
ROOT
HETATM    1  C   UNL     1      -8.765   6.768  65.763  1.00  0.00    -0.122 C  
HETATM    2  C   UNL     1      -9.477   8.114  65.925  1.00  0.00    -0.012 C  
HETATM    3  C   UNL     1     -10.360   8.101  67.181  1.00  0.00    -0.391 C  
ENDROOT
BRANCH   2   4
HETATM    4  N   UNL     1      -8.538   9.236  65.990  1.00  0.00    -0.138 NA 
HETATM    5  N   UNL     1      -7.217   8.942  66.101  1.00  0.00    -0.088 NA 
HETATM    6  C   UNL     1      -6.664  10.092  66.467  1.00  0.00    -0.085 A  
HETATM    7  C   UNL     1      -7.600  11.134  66.534  1.00  0.00    -0.135 A  
HETATM    8  C   UNL     1      -8.808  10.591  66.123  1.00  0.00    -0.159 A  
BRANCH   8   9
HETATM    9  C   UNL     1     -10.075  11.237  65.757  1.00  0.00    -0.247 A  
HETATM   10  C   UNL     1     -10.874  12.036  66.583  1.00  0.00    -0.311 A  
HETATM   11  C   UNL     1     -11.410  11.713  63.907  1.00  0.00    -0.371 A  
HETATM   12  C   UNL     1     -11.996  12.656  65.994  1.00  0.00    -0.478 A  
HETATM   13  N   UNL     1     -10.337  11.083  64.430  1.00  0.00    -0.339 NA 
HETATM   14  C   UNL     1     -12.263  12.507  64.641  1.00  0.00    -0.524 A  
BRANCH  10  15
HETATM   15  C   UNL     1     -10.673  12.265  68.057  1.00  0.00    -0.218 C  
BRANCH  15  16
HETATM   16  O   UNL     1     -10.320  11.028  68.663  1.00  0.00    -0.178 OA 
BRANCH  16  17
HETATM   17  C   UNL     1     -11.034  10.563  69.730  1.00  0.00    -0.294 A  
HETATM   18  C   UNL     1     -12.377  10.883  69.976  1.00  0.00    -0.385 A  
HETATM   19  C   UNL     1     -13.071  10.298  71.040  1.00  0.00    -0.458 A  
HETATM   20  C   UNL     1     -12.430   9.406  71.893  1.00  0.00    -0.468 A  
HETATM   21  C   UNL     1     -11.086   9.100  71.681  1.00  0.00    -0.375 A  
HETATM   22  O   UNL     1     -10.456   8.245  72.545  1.00  0.00    -0.311 OA 
HETATM   23  C   UNL     1     -10.384   9.663  70.601  1.00  0.00    -0.365 A  
HETATM   24  C   UNL     1      -8.958   9.269  70.419  1.00  0.00    -0.239 C  
HETATM   25  H   UNL     1      -9.541   8.037  72.401  1.00  0.00     0.000 HD 
HETATM   26  O   UNL     1      -8.191   9.762  69.601  1.00  0.00    -0.124 OA 
ENDBRANCH  16  17
ENDBRANCH  15  16
ENDBRANCH  10  15
ENDBRANCH   8   9
ENDBRANCH   2   4
TORSDOF 5
ENDMDL
MODEL      137
REMARK 921   NORMALIZED FREE ENERGY PREDICTED BY IDOCK:   -5.14 KCAL/MOL
REMARK 922        TOTAL FREE ENERGY PREDICTED BY IDOCK:   -7.86 KCAL/MOL
REMARK 923 INTER-LIGAND FREE ENERGY PREDICTED BY IDOCK:   -6.74 KCAL/MOL
REMARK 924 INTRA-LIGAND FREE ENERGY PREDICTED BY IDOCK:   -1.12 KCAL/MOL
REMARK 927      BINDING AFFINITY PREDICTED BY RF-SCORE:    0.00 PKD
ROOT
HETATM    1  C   UNL     1     -12.451  15.618  70.842  1.00  0.00    -0.497 C  
HETATM    2  C   UNL     1     -11.794  14.973  69.618  1.00  0.00    -0.324 C  
HETATM    3  C   UNL     1     -10.287  15.258  69.610  1.00  0.00    -0.271 C  
ENDROOT
BRANCH   2   4
HETATM    4  N   UNL     1     -12.027  13.528  69.560  1.00  0.00    -0.330 NA 
HETATM    5  N   UNL     1     -12.456  12.915  70.693  1.00  0.00    -0.297 NA 
HETATM    6  C   UNL     1     -12.260  11.625  70.453  1.00  0.00    -0.347 A  
HETATM    7  C   UNL     1     -11.768  11.395  69.160  1.00  0.00    -0.410 A  
HETATM    8  C   UNL     1     -11.713  12.636  68.543  1.00  0.00    -0.330 A  
BRANCH   8   9
HETATM    9  C   UNL     1     -11.516  12.999  67.135  1.00  0.00    -0.331 A  
HETATM   10  C   UNL     1     -10.399  12.703  66.345  1.00  0.00    -0.264 A  
HETATM   11  C   UNL     1     -12.665  13.852  65.296  1.00  0.00    -0.449 A  
HETATM   12  C   UNL     1     -10.465  13.046  64.978  1.00  0.00    -0.345 A  
HETATM   13  N   UNL     1     -12.640  13.561  66.613  1.00  0.00    -0.194 NA 
HETATM   14  C   UNL     1     -11.611  13.613  64.441  1.00  0.00    -0.421 A  
BRANCH  10  15
HETATM   15  C   UNL     1      -9.111  12.090  66.825  1.00  0.00    -0.197 C  
BRANCH  15  16
HETATM   16  O   UNL     1      -9.277  10.680  66.885  1.00  0.00    -0.154 OA 
BRANCH  16  17
HETATM   17  C   UNL     1      -8.703   9.884  65.934  1.00  0.00    -0.139 A  
HETATM   18  C   UNL     1      -7.714  10.318  65.040  1.00  0.00    -0.129 A  
HETATM   19  C   UNL     1      -7.107   9.424  64.152  1.00  0.00    -0.102 A  
HETATM   20  C   UNL     1      -7.495   8.089  64.122  1.00  0.00    -0.107 A  
HETATM   21  C   UNL     1      -8.498   7.647  64.984  1.00  0.00    -0.013 A  
HETATM   22  O   UNL     1      -8.894   6.338  64.925  1.00  0.00    -0.361 OA 
HETATM   23  C   UNL     1      -9.100   8.530  65.898  1.00  0.00    -0.237 A  
HETATM   24  C   UNL     1     -10.145   7.983  66.808  1.00  0.00    -0.287 C  
HETATM   25  H   UNL     1      -9.578   6.037  65.513  1.00  0.00     0.000 HD 
HETATM   26  O   UNL     1     -10.835   8.649  67.569  1.00  0.00    -0.202 OA 
ENDBRANCH  16  17
ENDBRANCH  15  16
ENDBRANCH  10  15
ENDBRANCH   8   9
ENDBRANCH   2   4
TORSDOF 5
ENDMDL
MODEL      138
REMARK 921   NORMALIZED FREE ENERGY PREDICTED BY IDOCK:   -5.10 KCAL/MOL
REMARK 922        TOTAL FREE ENERGY PREDICTED BY IDOCK:   -7.81 KCAL/MOL
REMARK 923 INTER-LIGAND FREE ENERGY PREDICTED BY IDOCK:   -6.56 KCAL/MOL
REMARK 924 INTRA-LIGAND FREE ENERGY PREDICTED BY IDOCK:   -1.25 KCAL/MOL
REMARK 927      BINDING AFFINITY PREDICTED BY RF-SCORE:    0.00 PKD
ROOT
HETATM    1  C   UNL     1     -12.667  15.678  70.925  1.00  0.00    -0.500 C  
HETATM    2  C   UNL     1     -11.925  15.121  69.707  1.00  0.00    -0.334 C  
HETATM    3  C   UNL     1     -10.435  15.479  69.782  1.00  0.00    -0.308 C  
ENDROOT
BRANCH   2   4
HETATM    4  N   UNL     1     -12.081  13.670  69.577  1.00  0.00    -0.326 NA 
HETATM    5  N   UNL     1     -12.509  12.985  70.669  1.00  0.00    -0.308 NA 
HETATM    6  C   UNL     1     -12.240  11.718  70.376  1.00  0.00    -0.330 A  
HETATM    7  C   UNL     1     -11.702  11.573  69.089  1.00  0.00    -0.395 A  
HETATM    8  C   UNL     1     -11.693  12.843  68.531  1.00  0.00    -0.339 A  
BRANCH   8   9
HETATM    9  C   UNL     1     -11.477  13.281  67.147  1.00  0.00    -0.341 A  
HETATM   10  C   UNL     1     -10.278  13.215  66.428  1.00  0.00    -0.286 A  
HETATM   11  C   UNL     1     -12.643  13.974  65.252  1.00  0.00    -0.470 A  
HETATM   12  C   UNL     1     -10.319  13.584  65.067  1.00  0.00    -0.379 A  
HETATM   13  N   UNL     1     -12.650  13.650  66.562  1.00  0.00    -0.275 NA 
HETATM   14  C   UNL     1     -11.513  13.955  64.466  1.00  0.00    -0.393 A  
BRANCH  10  15
HETATM   15  C   UNL     1      -8.933  12.826  66.981  1.00  0.00    -0.221 C  
BRANCH  15  16
HETATM   16  O   UNL     1      -8.344  11.873  66.107  1.00  0.00    -0.009 OA 
BRANCH  16  17
HETATM   17  C   UNL     1      -8.530  10.538  66.327  1.00  0.00    -0.150 A  
HETATM   18  C   UNL     1      -9.785   9.913  66.342  1.00  0.00    -0.270 A  
HETATM   19  C   UNL     1      -9.894   8.526  66.485  1.00  0.00    -0.342 A  
HETATM   20  C   UNL     1      -8.756   7.743  66.644  1.00  0.00    -0.151 A  
HETATM   21  C   UNL     1      -7.502   8.352  66.662  1.00  0.00    -0.082 A  
HETATM   22  O   UNL     1      -6.390   7.576  66.851  1.00  0.00    -0.046 OA 
HETATM   23  C   UNL     1      -7.377   9.742  66.496  1.00  0.00    -0.095 A  
HETATM   24  C   UNL     1      -6.004  10.322  66.498  1.00  0.00    -0.065 C  
HETATM   25  H   UNL     1      -5.536   7.991  66.863  1.00  0.00     0.000 HD 
HETATM   26  O   UNL     1      -5.745  11.519  66.482  1.00  0.00    -0.142 OA 
ENDBRANCH  16  17
ENDBRANCH  15  16
ENDBRANCH  10  15
ENDBRANCH   8   9
ENDBRANCH   2   4
TORSDOF 5
ENDMDL
MODEL      139
REMARK 921   NORMALIZED FREE ENERGY PREDICTED BY IDOCK:   -5.10 KCAL/MOL
REMARK 922        TOTAL FREE ENERGY PREDICTED BY IDOCK:   -7.80 KCAL/MOL
REMARK 923 INTER-LIGAND FREE ENERGY PREDICTED BY IDOCK:   -7.20 KCAL/MOL
REMARK 924 INTRA-LIGAND FREE ENERGY PREDICTED BY IDOCK:   -0.60 KCAL/MOL
REMARK 927      BINDING AFFINITY PREDICTED BY RF-SCORE:    0.00 PKD
ROOT
HETATM    1  C   UNL     1     -12.802   6.645  71.363  1.00  0.00    -0.163 C  
HETATM    2  C   UNL     1     -12.166   7.943  70.857  1.00  0.00    -0.121 C  
HETATM    3  C   UNL     1     -12.888   9.158  71.453  1.00  0.00    -0.376 C  
ENDROOT
BRANCH   2   4
HETATM    4  N   UNL     1     -10.735   8.015  71.162  1.00  0.00    -0.217 NA 
HETATM    5  N   UNL     1     -10.376   8.123  72.467  1.00  0.00    -0.308 NA 
HETATM    6  C   UNL     1      -9.104   8.497  72.419  1.00  0.00    -0.238 A  
HETATM    7  C   UNL     1      -8.622   8.573  71.104  1.00  0.00    -0.207 A  
HETATM    8  C   UNL     1      -9.665   8.159  70.289  1.00  0.00    -0.175 A  
BRANCH   8   9
HETATM    9  C   UNL     1      -9.685   7.800  68.866  1.00  0.00    -0.160 A  
HETATM   10  C   UNL     1     -10.202   8.570  67.817  1.00  0.00    -0.283 A  
HETATM   11  C   UNL     1      -8.823   6.235  67.369  1.00  0.00    -0.107 A  
HETATM   12  C   UNL     1     -10.013   8.086  66.506  1.00  0.00    -0.283 A  
HETATM   13  N   UNL     1      -8.996   6.647  68.642  1.00  0.00    -0.125 NA 
HETATM   14  C   UNL     1      -9.307   6.915  66.274  1.00  0.00    -0.144 A  
BRANCH  10  15
HETATM   15  C   UNL     1     -10.980   9.850  67.959  1.00  0.00    -0.213 C  
BRANCH  15  16
HETATM   16  O   UNL     1     -10.267  10.888  67.298  1.00  0.00    -0.191 OA 
BRANCH  16  17
HETATM   17  C   UNL     1     -10.766  11.434  66.149  1.00  0.00    -0.267 A  
HETATM   18  C   UNL     1     -10.476  10.956  64.864  1.00  0.00    -0.352 A  
HETATM   19  C   UNL     1     -11.093  11.509  63.737  1.00  0.00    -0.471 A  
HETATM   20  C   UNL     1     -11.988  12.565  63.872  1.00  0.00    -0.563 A  
HETATM   21  C   UNL     1     -12.264  13.072  65.140  1.00  0.00    -0.459 A  
HETATM   22  O   UNL     1     -13.122  14.133  65.259  1.00  0.00    -0.763 OA 
HETATM   23  C   UNL     1     -11.668  12.510  66.283  1.00  0.00    -0.462 A  
HETATM   24  C   UNL     1     -12.031  13.084  67.610  1.00  0.00    -0.301 C  
HETATM   25  H   UNL     1     -13.310  14.478  66.124  1.00  0.00     0.000 HD 
HETATM   26  O   UNL     1     -11.509  12.781  68.675  1.00  0.00    -0.257 OA 
ENDBRANCH  16  17
ENDBRANCH  15  16
ENDBRANCH  10  15
ENDBRANCH   8   9
ENDBRANCH   2   4
TORSDOF 5
ENDMDL
MODEL      140
REMARK 921   NORMALIZED FREE ENERGY PREDICTED BY IDOCK:   -5.06 KCAL/MOL
REMARK 922        TOTAL FREE ENERGY PREDICTED BY IDOCK:   -7.76 KCAL/MOL
REMARK 923 INTER-LIGAND FREE ENERGY PREDICTED BY IDOCK:   -7.97 KCAL/MOL
REMARK 924 INTRA-LIGAND FREE ENERGY PREDICTED BY IDOCK:    0.21 KCAL/MOL
REMARK 927      BINDING AFFINITY PREDICTED BY RF-SCORE:    0.00 PKD
ROOT
HETATM    1  C   UNL     1     -11.355   9.955  71.107  1.00  0.00    -0.443 C  
HETATM    2  C   UNL     1     -12.754  10.560  70.960  1.00  0.00    -0.408 C  
HETATM    3  C   UNL     1     -13.738   9.865  71.912  1.00  0.00    -0.297 C  
ENDROOT
BRANCH   2   4
HETATM    4  N   UNL     1     -12.763  12.004  71.204  1.00  0.00    -0.332 NA 
HETATM    5  N   UNL     1     -13.112  12.429  72.445  1.00  0.00    -0.253 NA 
HETATM    6  C   UNL     1     -13.354  13.724  72.284  1.00  0.00    -0.521 A  
HETATM    7  C   UNL     1     -13.107  14.150  70.970  1.00  0.00    -0.370 A  
HETATM    8  C   UNL     1     -12.624  13.041  70.291  1.00  0.00    -0.038 A  
BRANCH   8   9
HETATM    9  C   UNL     1     -11.976  12.928  68.979  1.00  0.00    -0.251 A  
HETATM   10  C   UNL     1     -11.269  13.932  68.308  1.00  0.00    -0.298 A  
HETATM   11  C   UNL     1     -11.369  11.348  67.377  1.00  0.00    -0.288 A  
HETATM   12  C   UNL     1     -10.623  13.574  67.105  1.00  0.00    -0.264 A  
HETATM   13  N   UNL     1     -12.019  11.646  68.521  1.00  0.00    -0.493 NA 
HETATM   14  C   UNL     1     -10.660  12.269  66.639  1.00  0.00    -0.257 A  
BRANCH  10  15
HETATM   15  C   UNL     1     -11.165  15.374  68.726  1.00  0.00    -0.301 C  
BRANCH  15  16
HETATM   16  O   UNL     1      -9.929  15.893  68.254  1.00  0.00    -0.218 OA 
BRANCH  16  17
HETATM   17  C   UNL     1      -9.814  17.224  67.962  1.00  0.00    -0.284 A  
HETATM   18  C   UNL     1     -10.821  17.981  67.347  1.00  0.00    -0.236 A  
HETATM   19  C   UNL     1     -10.669  19.358  67.159  1.00  0.00    -0.593 A  
HETATM   20  C   UNL     1      -9.500  19.998  67.557  1.00  0.00    -0.498 A  
HETATM   21  C   UNL     1      -8.477  19.254  68.142  1.00  0.00    -0.327 A  
HETATM   22  O   UNL     1      -7.317  19.888  68.501  1.00  0.00    -0.314 OA 
HETATM   23  C   UNL     1      -8.626  17.873  68.358  1.00  0.00    -0.296 A  
HETATM   24  C   UNL     1      -7.503  17.147  69.014  1.00  0.00    -0.203 C  
HETATM   25  H   UNL     1      -6.620  19.381  68.900  1.00  0.00     0.000 HD 
HETATM   26  O   UNL     1      -7.439  15.932  69.160  1.00  0.00    -0.183 OA 
ENDBRANCH  16  17
ENDBRANCH  15  16
ENDBRANCH  10  15
ENDBRANCH   8   9
ENDBRANCH   2   4
TORSDOF 5
ENDMDL
MODEL      141
REMARK 921   NORMALIZED FREE ENERGY PREDICTED BY IDOCK:   -5.06 KCAL/MOL
REMARK 922        TOTAL FREE ENERGY PREDICTED BY IDOCK:   -7.76 KCAL/MOL
REMARK 923 INTER-LIGAND FREE ENERGY PREDICTED BY IDOCK:   -6.96 KCAL/MOL
REMARK 924 INTRA-LIGAND FREE ENERGY PREDICTED BY IDOCK:   -0.79 KCAL/MOL
REMARK 927      BINDING AFFINITY PREDICTED BY RF-SCORE:    0.00 PKD
ROOT
HETATM    1  C   UNL     1      -9.215  14.962  68.292  1.00  0.00    -0.187 C  
HETATM    2  C   UNL     1      -9.082  14.158  66.995  1.00  0.00    -0.243 C  
HETATM    3  C   UNL     1      -8.460  12.785  67.281  1.00  0.00    -0.194 C  
ENDROOT
BRANCH   2   4
HETATM    4  N   UNL     1     -10.367  13.989  66.312  1.00  0.00    -0.286 NA 
HETATM    5  N   UNL     1     -10.358  13.968  64.955  1.00  0.00    -0.421 NA 
HETATM    6  C   UNL     1     -11.632  14.141  64.624  1.00  0.00    -0.406 A  
HETATM    7  C   UNL     1     -12.467  14.212  65.749  1.00  0.00    -0.490 A  
HETATM    8  C   UNL     1     -11.647  14.011  66.849  1.00  0.00    -0.386 A  
BRANCH   8   9
HETATM    9  C   UNL     1     -11.976  13.738  68.253  1.00  0.00    -0.357 A  
HETATM   10  C   UNL     1     -11.892  12.502  68.906  1.00  0.00    -0.346 A  
HETATM   11  C   UNL     1     -12.472  14.826  70.254  1.00  0.00    -0.340 A  
HETATM   12  C   UNL     1     -12.146  12.485  70.293  1.00  0.00    -0.373 A  
HETATM   13  N   UNL     1     -12.257  14.889  68.923  1.00  0.00    -0.170 NA 
HETATM   14  C   UNL     1     -12.426  13.657  70.980  1.00  0.00    -0.456 A  
BRANCH  10  15
HETATM   15  C   UNL     1     -11.595  11.177  68.258  1.00  0.00    -0.289 C  
BRANCH  15  16
HETATM   16  O   UNL     1     -11.368  10.215  69.279  1.00  0.00    -0.217 OA 
BRANCH  16  17
HETATM   17  C   UNL     1     -10.234   9.452  69.258  1.00  0.00    -0.202 A  
HETATM   18  C   UNL     1      -9.422   9.285  68.129  1.00  0.00    -0.150 A  
HETATM   19  C   UNL     1      -8.227   8.561  68.204  1.00  0.00    -0.120 A  
HETATM   20  C   UNL     1      -7.838   7.969  69.401  1.00  0.00    -0.113 A  
HETATM   21  C   UNL     1      -8.649   8.101  70.527  1.00  0.00    -0.130 A  
HETATM   22  O   UNL     1      -8.273   7.488  71.691  1.00  0.00    -0.100 OA 
HETATM   23  C   UNL     1      -9.841   8.845  70.470  1.00  0.00    -0.242 A  
HETATM   24  C   UNL     1     -10.645   8.967  71.718  1.00  0.00    -0.362 C  
HETATM   25  H   UNL     1      -8.826   7.577  72.459  1.00  0.00     0.000 HD 
HETATM   26  O   UNL     1     -11.754   9.479  71.795  1.00  0.00    -0.383 OA 
ENDBRANCH  16  17
ENDBRANCH  15  16
ENDBRANCH  10  15
ENDBRANCH   8   9
ENDBRANCH   2   4
TORSDOF 5
ENDMDL
MODEL      142
REMARK 921   NORMALIZED FREE ENERGY PREDICTED BY IDOCK:   -5.06 KCAL/MOL
REMARK 922        TOTAL FREE ENERGY PREDICTED BY IDOCK:   -7.75 KCAL/MOL
REMARK 923 INTER-LIGAND FREE ENERGY PREDICTED BY IDOCK:   -6.73 KCAL/MOL
REMARK 924 INTRA-LIGAND FREE ENERGY PREDICTED BY IDOCK:   -1.02 KCAL/MOL
REMARK 927      BINDING AFFINITY PREDICTED BY RF-SCORE:    0.00 PKD
ROOT
HETATM    1  C   UNL     1      -5.887  10.038  67.139  1.00  0.00    -0.050 C  
HETATM    2  C   UNL     1      -7.221  10.716  67.463  1.00  0.00    -0.090 C  
HETATM    3  C   UNL     1      -7.091  12.239  67.331  1.00  0.00    -0.151 C  
ENDROOT
BRANCH   2   4
HETATM    4  N   UNL     1      -8.310  10.235  66.611  1.00  0.00    -0.123 NA 
HETATM    5  N   UNL     1      -7.983   9.766  65.379  1.00  0.00    -0.120 NA 
HETATM    6  C   UNL     1      -9.143   9.723  64.735  1.00  0.00    -0.241 A  
HETATM    7  C   UNL     1     -10.218  10.100  65.552  1.00  0.00    -0.288 A  
HETATM    8  C   UNL     1      -9.681  10.337  66.809  1.00  0.00    -0.185 A  
BRANCH   8   9
HETATM    9  C   UNL     1     -10.332  10.520  68.111  1.00  0.00    -0.172 A  
HETATM   10  C   UNL     1     -11.329  11.452  68.423  1.00  0.00    -0.346 A  
HETATM   11  C   UNL     1     -10.539   9.514  70.203  1.00  0.00    -0.254 A  
HETATM   12  C   UNL     1     -11.902  11.380  69.710  1.00  0.00    -0.435 A  
HETATM   13  N   UNL     1      -9.947   9.555  68.991  1.00  0.00    -0.174 NA 
HETATM   14  C   UNL     1     -11.516  10.395  70.607  1.00  0.00    -0.438 A  
BRANCH  10  15
HETATM   15  C   UNL     1     -11.821  12.557  67.526  1.00  0.00    -0.323 C  
BRANCH  15  16
HETATM   16  O   UNL     1     -10.697  13.284  67.047  1.00  0.00    -0.258 OA 
BRANCH  16  17
HETATM   17  C   UNL     1     -10.500  14.576  67.445  1.00  0.00    -0.264 A  
HETATM   18  C   UNL     1     -10.246  14.958  68.769  1.00  0.00    -0.243 A  
HETATM   19  C   UNL     1      -9.965  16.290  69.090  1.00  0.00    -0.260 A  
HETATM   20  C   UNL     1      -9.960  17.267  68.100  1.00  0.00    -0.303 A  
HETATM   21  C   UNL     1     -10.240  16.908  66.782  1.00  0.00    -0.306 A  
HETATM   22  O   UNL     1     -10.264  17.882  65.820  1.00  0.00    -0.577 OA 
HETATM   23  C   UNL     1     -10.502  15.569  66.443  1.00  0.00    -0.310 A  
HETATM   24  C   UNL     1     -10.766  15.254  65.011  1.00  0.00    -0.439 C  
HETATM   25  H   UNL     1     -10.455  17.638  64.922  1.00  0.00     0.000 HD 
HETATM   26  O   UNL     1     -11.122  14.163  64.584  1.00  0.00    -0.374 OA 
ENDBRANCH  16  17
ENDBRANCH  15  16
ENDBRANCH  10  15
ENDBRANCH   8   9
ENDBRANCH   2   4
TORSDOF 5
ENDMDL
MODEL      143
REMARK 921   NORMALIZED FREE ENERGY PREDICTED BY IDOCK:   -5.05 KCAL/MOL
REMARK 922        TOTAL FREE ENERGY PREDICTED BY IDOCK:   -7.74 KCAL/MOL
REMARK 923 INTER-LIGAND FREE ENERGY PREDICTED BY IDOCK:   -6.74 KCAL/MOL
REMARK 924 INTRA-LIGAND FREE ENERGY PREDICTED BY IDOCK:   -1.00 KCAL/MOL
REMARK 927      BINDING AFFINITY PREDICTED BY RF-SCORE:    0.00 PKD
ROOT
HETATM    1  C   UNL     1     -10.394  17.588  68.196  1.00  0.00    -0.375 C  
HETATM    2  C   UNL     1     -10.027  16.120  68.432  1.00  0.00    -0.230 C  
HETATM    3  C   UNL     1      -8.697  16.019  69.191  1.00  0.00    -0.248 C  
ENDROOT
BRANCH   2   4
HETATM    4  N   UNL     1     -11.071  15.396  69.159  1.00  0.00    -0.249 NA 
HETATM    5  N   UNL     1     -11.377  15.825  70.410  1.00  0.00    -0.342 NA 
HETATM    6  C   UNL     1     -12.075  14.823  70.930  1.00  0.00    -0.324 A  
HETATM    7  C   UNL     1     -12.274  13.782  70.011  1.00  0.00    -0.407 A  
HETATM    8  C   UNL     1     -11.701  14.205  68.821  1.00  0.00    -0.345 A  
BRANCH   8   9
HETATM    9  C   UNL     1     -11.804  13.663  67.461  1.00  0.00    -0.381 A  
HETATM   10  C   UNL     1     -11.693  12.319  67.088  1.00  0.00    -0.396 A  
HETATM   11  C   UNL     1     -12.417  14.274  65.297  1.00  0.00    -0.421 A  
HETATM   12  C   UNL     1     -11.941  12.001  65.736  1.00  0.00    -0.140 A  
HETATM   13  N   UNL     1     -12.169  14.630  66.575  1.00  0.00    -0.240 NA 
HETATM   14  C   UNL     1     -12.320  12.982  64.832  1.00  0.00    -0.512 A  
BRANCH  10  15
HETATM   15  C   UNL     1     -11.292  11.179  67.986  1.00  0.00    -0.312 C  
BRANCH  15  16
HETATM   16  O   UNL     1      -9.876  11.178  68.110  1.00  0.00    -0.169 OA 
BRANCH  16  17
HETATM   17  C   UNL     1      -9.112  10.508  67.197  1.00  0.00    -0.143 A  
HETATM   18  C   UNL     1      -9.470   9.280  66.624  1.00  0.00    -0.246 A  
HETATM   19  C   UNL     1      -8.681   8.695  65.629  1.00  0.00    -0.214 A  
HETATM   20  C   UNL     1      -7.507   9.312  65.208  1.00  0.00    -0.098 A  
HETATM   21  C   UNL     1      -7.121  10.519  65.789  1.00  0.00    -0.124 A  
HETATM   22  O   UNL     1      -5.948  11.101  65.390  1.00  0.00    -0.373 OA 
HETATM   23  C   UNL     1      -7.917  11.129  66.774  1.00  0.00    -0.156 A  
HETATM   24  C   UNL     1      -7.457  12.432  67.331  1.00  0.00    -0.157 C  
HETATM   25  H   UNL     1      -5.684  11.924  65.786  1.00  0.00     0.000 HD 
HETATM   26  O   UNL     1      -7.979  13.020  68.270  1.00  0.00    -0.139 OA 
ENDBRANCH  16  17
ENDBRANCH  15  16
ENDBRANCH  10  15
ENDBRANCH   8   9
ENDBRANCH   2   4
TORSDOF 5
ENDMDL
MODEL      144
REMARK 921   NORMALIZED FREE ENERGY PREDICTED BY IDOCK:   -5.04 KCAL/MOL
REMARK 922        TOTAL FREE ENERGY PREDICTED BY IDOCK:   -7.73 KCAL/MOL
REMARK 923 INTER-LIGAND FREE ENERGY PREDICTED BY IDOCK:   -6.76 KCAL/MOL
REMARK 924 INTRA-LIGAND FREE ENERGY PREDICTED BY IDOCK:   -0.98 KCAL/MOL
REMARK 927      BINDING AFFINITY PREDICTED BY RF-SCORE:    0.00 PKD
ROOT
HETATM    1  C   UNL     1      -8.123  13.012  67.053  1.00  0.00    -0.043 C  
HETATM    2  C   UNL     1      -9.020  14.240  67.237  1.00  0.00    -0.213 C  
HETATM    3  C   UNL     1      -8.278  15.512  66.805  1.00  0.00    -0.277 C  
ENDROOT
BRANCH   2   4
HETATM    4  N   UNL     1     -10.279  14.123  66.497  1.00  0.00    -0.272 NA 
HETATM    5  N   UNL     1     -10.221  14.202  65.143  1.00  0.00    -0.391 NA 
HETATM    6  C   UNL     1     -11.482  14.401  64.780  1.00  0.00    -0.402 A  
HETATM    7  C   UNL     1     -12.358  14.389  65.876  1.00  0.00    -0.342 A  
HETATM    8  C   UNL     1     -11.578  14.107  66.987  1.00  0.00    -0.382 A  
BRANCH   8   9
HETATM    9  C   UNL     1     -11.958  13.731  68.354  1.00  0.00    -0.360 A  
HETATM   10  C   UNL     1     -12.006  12.435  68.881  1.00  0.00    -0.289 A  
HETATM   11  C   UNL     1     -12.381  14.660  70.449  1.00  0.00    -0.339 A  
HETATM   12  C   UNL     1     -12.286  12.306  70.258  1.00  0.00    -0.342 A  
HETATM   13  N   UNL     1     -12.137  14.833  69.133  1.00  0.00    -0.276 NA 
HETATM   14  C   UNL     1     -12.462  13.427  71.056  1.00  0.00    -0.437 A  
BRANCH  10  15
HETATM   15  C   UNL     1     -11.828  11.156  68.107  1.00  0.00    -0.164 C  
BRANCH  15  16
HETATM   16  O   UNL     1     -10.606  10.552  68.506  1.00  0.00    -0.182 OA 
BRANCH  16  17
HETATM   17  C   UNL     1     -10.544   9.201  68.702  1.00  0.00    -0.174 A  
HETATM   18  C   UNL     1     -10.848   8.570  69.916  1.00  0.00    -0.205 A  
HETATM   19  C   UNL     1     -10.850   7.175  70.019  1.00  0.00    -0.276 A  
HETATM   20  C   UNL     1     -10.522   6.388  68.921  1.00  0.00    -0.264 A  
HETATM   21  C   UNL     1     -10.187   7.000  67.714  1.00  0.00    -0.180 A  
HETATM   22  O   UNL     1      -9.834   6.218  66.648  1.00  0.00    -0.159 OA 
HETATM   23  C   UNL     1     -10.204   8.401  67.591  1.00  0.00    -0.298 A  
HETATM   24  C   UNL     1      -9.863   8.986  66.264  1.00  0.00    -0.291 C  
HETATM   25  H   UNL     1      -9.606   6.634  65.826  1.00  0.00     0.000 HD 
HETATM   26  O   UNL     1      -9.721  10.181  66.036  1.00  0.00    -0.197 OA 
ENDBRANCH  16  17
ENDBRANCH  15  16
ENDBRANCH  10  15
ENDBRANCH   8   9
ENDBRANCH   2   4
TORSDOF 5
ENDMDL
MODEL      145
REMARK 921   NORMALIZED FREE ENERGY PREDICTED BY IDOCK:   -5.03 KCAL/MOL
REMARK 922        TOTAL FREE ENERGY PREDICTED BY IDOCK:   -7.72 KCAL/MOL
REMARK 923 INTER-LIGAND FREE ENERGY PREDICTED BY IDOCK:   -6.43 KCAL/MOL
REMARK 924 INTRA-LIGAND FREE ENERGY PREDICTED BY IDOCK:   -1.28 KCAL/MOL
REMARK 927      BINDING AFFINITY PREDICTED BY RF-SCORE:    0.00 PKD
ROOT
HETATM    1  C   UNL     1      -7.818  13.858  68.367  1.00  0.00    -0.138 C  
HETATM    2  C   UNL     1      -7.279  12.685  67.542  1.00  0.00    -0.155 C  
HETATM    3  C   UNL     1      -5.746  12.649  67.608  1.00  0.00    -0.136 C  
ENDROOT
BRANCH   2   4
HETATM    4  N   UNL     1      -7.826  11.400  67.981  1.00  0.00    -0.115 NA 
HETATM    5  N   UNL     1      -7.393  10.906  69.169  1.00  0.00    -0.116 NA 
HETATM    6  C   UNL     1      -7.775   9.635  69.146  1.00  0.00    -0.087 A  
HETATM    7  C   UNL     1      -8.500   9.320  67.987  1.00  0.00    -0.120 A  
HETATM    8  C   UNL     1      -8.617  10.504  67.274  1.00  0.00    -0.122 A  
BRANCH   8   9
HETATM    9  C   UNL     1      -9.461  10.851  66.124  1.00  0.00    -0.200 A  
HETATM   10  C   UNL     1     -10.780  11.318  66.167  1.00  0.00    -0.307 A  
HETATM   11  C   UNL     1      -9.352  11.199  63.822  1.00  0.00    -0.188 A  
HETATM   12  C   UNL     1     -11.370  11.704  64.945  1.00  0.00    -0.252 A  
HETATM   13  N   UNL     1      -8.752  10.800  64.963  1.00  0.00    -0.180 NA 
HETATM   14  C   UNL     1     -10.648  11.658  63.761  1.00  0.00    -0.473 A  
BRANCH  10  15
HETATM   15  C   UNL     1     -11.649  11.409  67.393  1.00  0.00    -0.184 C  
BRANCH  15  16
HETATM   16  O   UNL     1     -11.124  12.418  68.245  1.00  0.00    -0.214 OA 
BRANCH  16  17
HETATM   17  C   UNL     1     -11.794  12.766  69.384  1.00  0.00    -0.300 A  
HETATM   18  C   UNL     1     -12.133  11.864  70.402  1.00  0.00    -0.421 A  
HETATM   19  C   UNL     1     -12.741  12.307  71.581  1.00  0.00    -0.309 A  
HETATM   20  C   UNL     1     -13.046  13.653  71.752  1.00  0.00    -0.468 A  
HETATM   21  C   UNL     1     -12.743  14.559  70.737  1.00  0.00    -0.360 A  
HETATM   22  O   UNL     1     -13.076  15.877  70.902  1.00  0.00    -0.591 OA 
HETATM   23  C   UNL     1     -12.111  14.130  69.557  1.00  0.00    -0.388 A  
HETATM   24  C   UNL     1     -11.792  15.157  68.526  1.00  0.00    -0.281 C  
HETATM   25  H   UNL     1     -12.870  16.494  70.211  1.00  0.00     0.000 HD 
HETATM   26  O   UNL     1     -11.353  14.921  67.408  1.00  0.00    -0.329 OA 
ENDBRANCH  16  17
ENDBRANCH  15  16
ENDBRANCH  10  15
ENDBRANCH   8   9
ENDBRANCH   2   4
TORSDOF 5
ENDMDL
MODEL      146
REMARK 921   NORMALIZED FREE ENERGY PREDICTED BY IDOCK:   -5.02 KCAL/MOL
REMARK 922        TOTAL FREE ENERGY PREDICTED BY IDOCK:   -7.70 KCAL/MOL
REMARK 923 INTER-LIGAND FREE ENERGY PREDICTED BY IDOCK:   -7.09 KCAL/MOL
REMARK 924 INTRA-LIGAND FREE ENERGY PREDICTED BY IDOCK:   -0.61 KCAL/MOL
REMARK 927      BINDING AFFINITY PREDICTED BY RF-SCORE:    0.00 PKD
ROOT
HETATM    1  C   UNL     1     -11.771  15.951  64.335  1.00  0.00    -0.179 C  
HETATM    2  C   UNL     1     -10.843  15.988  65.552  1.00  0.00    -0.292 C  
HETATM    3  C   UNL     1      -9.567  15.182  65.274  1.00  0.00    -0.013 C  
ENDROOT
BRANCH   2   4
HETATM    4  N   UNL     1     -10.491  17.356  65.941  1.00  0.00    -0.487 NA 
HETATM    5  N   UNL     1     -11.123  18.373  65.300  1.00  0.00    -0.242 NA 
HETATM    6  C   UNL     1     -10.393  19.441  65.598  1.00  0.00    -0.216 A  
HETATM    7  C   UNL     1      -9.337  19.136  66.469  1.00  0.00    -0.382 A  
HETATM    8  C   UNL     1      -9.465  17.788  66.771  1.00  0.00    -0.285 A  
BRANCH   8   9
HETATM    9  C   UNL     1      -8.814  16.970  67.801  1.00  0.00    -0.223 A  
HETATM   10  C   UNL     1      -9.447  16.277  68.840  1.00  0.00    -0.252 A  
HETATM   11  C   UNL     1      -6.755  16.024  68.345  1.00  0.00    -0.120 A  
HETATM   12  C   UNL     1      -8.640  15.454  69.653  1.00  0.00    -0.124 A  
HETATM   13  N   UNL     1      -7.482  16.839  67.553  1.00  0.00    -0.153 NA 
HETATM   14  C   UNL     1      -7.284  15.313  69.399  1.00  0.00    -0.201 A  
BRANCH  10  15
HETATM   15  C   UNL     1     -10.906  16.357  69.200  1.00  0.00    -0.329 C  
BRANCH  15  16
HETATM   16  O   UNL     1     -11.100  15.707  70.448  1.00  0.00    -0.296 OA 
BRANCH  16  17
HETATM   17  C   UNL     1     -11.699  14.479  70.492  1.00  0.00    -0.276 A  
HETATM   18  C   UNL     1     -11.563  13.504  69.494  1.00  0.00    -0.355 A  
HETATM   19  C   UNL     1     -12.132  12.236  69.648  1.00  0.00    -0.277 A  
HETATM   20  C   UNL     1     -12.868  11.928  70.787  1.00  0.00    -0.138 A  
HETATM   21  C   UNL     1     -13.038  12.896  71.776  1.00  0.00    -0.360 A  
HETATM   22  O   UNL     1     -13.791  12.594  72.878  1.00  0.00    -0.628 OA 
HETATM   23  C   UNL     1     -12.452  14.167  71.644  1.00  0.00    -0.395 A  
HETATM   24  C   UNL     1     -12.651  15.143  72.752  1.00  0.00    -0.390 C  
HETATM   25  H   UNL     1     -13.906  13.253  73.552  1.00  0.00     0.000 HD 
HETATM   26  O   UNL     1     -12.304  16.317  72.728  1.00  0.00    -0.482 OA 
ENDBRANCH  16  17
ENDBRANCH  15  16
ENDBRANCH  10  15
ENDBRANCH   8   9
ENDBRANCH   2   4
TORSDOF 5
ENDMDL
MODEL      147
REMARK 921   NORMALIZED FREE ENERGY PREDICTED BY IDOCK:   -5.02 KCAL/MOL
REMARK 922        TOTAL FREE ENERGY PREDICTED BY IDOCK:   -7.70 KCAL/MOL
REMARK 923 INTER-LIGAND FREE ENERGY PREDICTED BY IDOCK:   -6.45 KCAL/MOL
REMARK 924 INTRA-LIGAND FREE ENERGY PREDICTED BY IDOCK:   -1.25 KCAL/MOL
REMARK 927      BINDING AFFINITY PREDICTED BY RF-SCORE:    0.00 PKD
ROOT
HETATM    1  C   UNL     1      -6.949  15.856  67.222  1.00  0.00    -0.241 C  
HETATM    2  C   UNL     1      -7.772  16.618  68.264  1.00  0.00    -0.183 C  
HETATM    3  C   UNL     1      -6.879  17.600  69.034  1.00  0.00    -0.240 C  
ENDROOT
BRANCH   2   4
HETATM    4  N   UNL     1      -8.899  17.335  67.665  1.00  0.00    -0.218 NA 
HETATM    5  N   UNL     1      -8.624  18.223  66.675  1.00  0.00    -0.266 NA 
HETATM    6  C   UNL     1      -9.738  18.937  66.567  1.00  0.00    -0.358 A  
HETATM    7  C   UNL     1     -10.746  18.483  67.430  1.00  0.00    -0.424 A  
HETATM    8  C   UNL     1     -10.226  17.370  68.076  1.00  0.00    -0.345 A  
BRANCH   8   9
HETATM    9  C   UNL     1     -10.881  16.345  68.896  1.00  0.00    -0.334 A  
HETATM   10  C   UNL     1     -11.082  15.003  68.552  1.00  0.00    -0.279 A  
HETATM   11  C   UNL     1     -11.670  15.970  71.057  1.00  0.00    -0.417 A  
HETATM   12  C   UNL     1     -11.631  14.158  69.540  1.00  0.00    -0.349 A  
HETATM   13  N   UNL     1     -11.166  16.821  70.139  1.00  0.00    -0.014 NA 
HETATM   14  C   UNL     1     -11.917  14.638  70.809  1.00  0.00    -0.380 A  
BRANCH  10  15
HETATM   15  C   UNL     1     -10.806  14.381  67.210  1.00  0.00    -0.290 C  
BRANCH  15  16
HETATM   16  O   UNL     1     -10.832  12.967  67.352  1.00  0.00    -0.245 OA 
BRANCH  16  17
HETATM   17  C   UNL     1      -9.672  12.284  67.590  1.00  0.00    -0.194 A  
HETATM   18  C   UNL     1      -8.405  12.725  67.185  1.00  0.00    -0.164 A  
HETATM   19  C   UNL     1      -7.251  12.019  67.541  1.00  0.00    -0.127 A  
HETATM   20  C   UNL     1      -7.346  10.846  68.283  1.00  0.00    -0.087 A  
HETATM   21  C   UNL     1      -8.601  10.377  68.668  1.00  0.00    -0.133 A  
HETATM   22  O   UNL     1      -8.685   9.205  69.370  1.00  0.00    -0.131 OA 
HETATM   23  C   UNL     1      -9.766  11.090  68.336  1.00  0.00    -0.181 A  
HETATM   24  C   UNL     1     -11.071  10.546  68.805  1.00  0.00    -0.265 C  
HETATM   25  H   UNL     1      -9.540   8.886  69.633  1.00  0.00     0.000 HD 
HETATM   26  O   UNL     1     -12.171  10.988  68.496  1.00  0.00    -0.582 OA 
ENDBRANCH  16  17
ENDBRANCH  15  16
ENDBRANCH  10  15
ENDBRANCH   8   9
ENDBRANCH   2   4
TORSDOF 5
ENDMDL
MODEL      148
REMARK 921   NORMALIZED FREE ENERGY PREDICTED BY IDOCK:   -5.01 KCAL/MOL
REMARK 922        TOTAL FREE ENERGY PREDICTED BY IDOCK:   -7.68 KCAL/MOL
REMARK 923 INTER-LIGAND FREE ENERGY PREDICTED BY IDOCK:   -6.58 KCAL/MOL
REMARK 924 INTRA-LIGAND FREE ENERGY PREDICTED BY IDOCK:   -1.10 KCAL/MOL
REMARK 927      BINDING AFFINITY PREDICTED BY RF-SCORE:    0.00 PKD
ROOT
HETATM    1  C   UNL     1      -8.670   9.706  68.374  1.00  0.00    -0.120 C  
HETATM    2  C   UNL     1      -8.918  11.205  68.563  1.00  0.00    -0.168 C  
HETATM    3  C   UNL     1      -7.586  11.950  68.720  1.00  0.00    -0.090 C  
ENDROOT
BRANCH   2   4
HETATM    4  N   UNL     1      -9.685  11.785  67.459  1.00  0.00    -0.178 NA 
HETATM    5  N   UNL     1      -9.712  11.101  66.286  1.00  0.00    -0.204 NA 
HETATM    6  C   UNL     1     -10.170  11.987  65.410  1.00  0.00    -0.263 A  
HETATM    7  C   UNL     1     -10.496  13.211  66.013  1.00  0.00    -0.291 A  
HETATM    8  C   UNL     1     -10.271  13.041  67.371  1.00  0.00    -0.231 A  
BRANCH   8   9
HETATM    9  C   UNL     1     -10.656  13.872  68.518  1.00  0.00    -0.252 A  
HETATM   10  C   UNL     1     -10.029  15.049  68.944  1.00  0.00    -0.236 A  
HETATM   11  C   UNL     1     -12.374  14.158  70.067  1.00  0.00    -0.344 A  
HETATM   12  C   UNL     1     -10.634  15.757  70.003  1.00  0.00    -0.333 A  
HETATM   13  N   UNL     1     -11.821  13.436  69.070  1.00  0.00    -0.322 NA 
HETATM   14  C   UNL     1     -11.824  15.319  70.564  1.00  0.00    -0.363 A  
BRANCH  10  15
HETATM   15  C   UNL     1      -8.741  15.612  68.405  1.00  0.00    -0.178 C  
BRANCH  15  16
HETATM   16  O   UNL     1      -9.028  16.343  67.221  1.00  0.00    -0.192 OA 
BRANCH  16  17
HETATM   17  C   UNL     1      -9.108  17.707  67.263  1.00  0.00    -0.237 A  
HETATM   18  C   UNL     1     -10.243  18.413  67.684  1.00  0.00    -0.399 A  
HETATM   19  C   UNL     1     -10.223  19.808  67.787  1.00  0.00    -0.571 A  
HETATM   20  C   UNL     1      -9.080  20.522  67.445  1.00  0.00    -0.457 A  
HETATM   21  C   UNL     1      -7.952  19.837  66.995  1.00  0.00    -0.289 A  
HETATM   22  O   UNL     1      -6.843  20.552  66.631  1.00  0.00    -0.242 OA 
HETATM   23  C   UNL     1      -7.952  18.434  66.910  1.00  0.00    -0.249 A  
HETATM   24  C   UNL     1      -6.702  17.766  66.448  1.00  0.00    -0.246 C  
HETATM   25  H   UNL     1      -6.074  20.085  66.325  1.00  0.00     0.000 HD 
HETATM   26  O   UNL     1      -6.589  16.570  66.212  1.00  0.00    -0.130 OA 
ENDBRANCH  16  17
ENDBRANCH  15  16
ENDBRANCH  10  15
ENDBRANCH   8   9
ENDBRANCH   2   4
TORSDOF 5
ENDMDL
MODEL      149
REMARK 921   NORMALIZED FREE ENERGY PREDICTED BY IDOCK:   -5.01 KCAL/MOL
REMARK 922        TOTAL FREE ENERGY PREDICTED BY IDOCK:   -7.68 KCAL/MOL
REMARK 923 INTER-LIGAND FREE ENERGY PREDICTED BY IDOCK:   -6.86 KCAL/MOL
REMARK 924 INTRA-LIGAND FREE ENERGY PREDICTED BY IDOCK:   -0.83 KCAL/MOL
REMARK 927      BINDING AFFINITY PREDICTED BY RF-SCORE:    0.00 PKD
ROOT
HETATM    1  C   UNL     1     -10.190  17.678  67.280  1.00  0.00    -0.343 C  
HETATM    2  C   UNL     1      -9.841  16.252  67.717  1.00  0.00    -0.237 C  
HETATM    3  C   UNL     1      -8.613  16.262  68.636  1.00  0.00    -0.222 C  
ENDROOT
BRANCH   2   4
HETATM    4  N   UNL     1     -10.960  15.588  68.390  1.00  0.00    -0.282 NA 
HETATM    5  N   UNL     1     -11.335  16.067  69.604  1.00  0.00    -0.327 NA 
HETATM    6  C   UNL     1     -12.104  15.106  70.103  1.00  0.00    -0.343 A  
HETATM    7  C   UNL     1     -12.278  14.045  69.202  1.00  0.00    -0.299 A  
HETATM    8  C   UNL     1     -11.609  14.410  68.044  1.00  0.00    -0.327 A  
BRANCH   8   9
HETATM    9  C   UNL     1     -11.638  13.830  66.696  1.00  0.00    -0.369 A  
HETATM   10  C   UNL     1     -11.537  12.473  66.369  1.00  0.00    -0.449 A  
HETATM   11  C   UNL     1     -12.095  14.389  64.480  1.00  0.00    -0.481 A  
HETATM   12  C   UNL     1     -11.706  12.120  65.013  1.00  0.00    -0.371 A  
HETATM   13  N   UNL     1     -11.921  14.778  65.761  1.00  0.00    -0.224 NA 
HETATM   14  C   UNL     1     -12.001  13.082  64.059  1.00  0.00    -0.523 A  
BRANCH  10  15
HETATM   15  C   UNL     1     -11.223  11.352  67.324  1.00  0.00    -0.304 C  
BRANCH  15  16
HETATM   16  O   UNL     1      -9.878  11.493  67.759  1.00  0.00    -0.171 OA 
BRANCH  16  17
HETATM   17  C   UNL     1      -9.426  10.767  68.825  1.00  0.00    -0.182 A  
HETATM   18  C   UNL     1     -10.255  10.018  69.672  1.00  0.00    -0.267 A  
HETATM   19  C   UNL     1      -9.713   9.227  70.690  1.00  0.00    -0.334 A  
HETATM   20  C   UNL     1      -8.339   9.191  70.898  1.00  0.00    -0.231 A  
HETATM   21  C   UNL     1      -7.502   9.954  70.084  1.00  0.00    -0.170 A  
HETATM   22  O   UNL     1      -6.154   9.936  70.317  1.00  0.00    -0.056 OA 
HETATM   23  C   UNL     1      -8.032  10.735  69.042  1.00  0.00    -0.137 A  
HETATM   24  C   UNL     1      -7.078  11.503  68.194  1.00  0.00    -0.076 C  
HETATM   25  H   UNL     1      -5.583  10.456  69.762  1.00  0.00     0.000 HD 
HETATM   26  O   UNL     1      -7.395  12.312  67.332  1.00  0.00    -0.131 OA 
ENDBRANCH  16  17
ENDBRANCH  15  16
ENDBRANCH  10  15
ENDBRANCH   8   9
ENDBRANCH   2   4
TORSDOF 5
ENDMDL
MODEL      150
REMARK 921   NORMALIZED FREE ENERGY PREDICTED BY IDOCK:   -5.01 KCAL/MOL
REMARK 922        TOTAL FREE ENERGY PREDICTED BY IDOCK:   -7.68 KCAL/MOL
REMARK 923 INTER-LIGAND FREE ENERGY PREDICTED BY IDOCK:   -6.55 KCAL/MOL
REMARK 924 INTRA-LIGAND FREE ENERGY PREDICTED BY IDOCK:   -1.13 KCAL/MOL
REMARK 927      BINDING AFFINITY PREDICTED BY RF-SCORE:    0.00 PKD
ROOT
HETATM    1  C   UNL     1     -10.247   6.090  66.619  1.00  0.00    -0.246 C  
HETATM    2  C   UNL     1     -10.235   6.730  68.011  1.00  0.00    -0.171 C  
HETATM    3  C   UNL     1     -10.601   5.690  69.078  1.00  0.00    -0.316 C  
ENDROOT
BRANCH   2   4
HETATM    4  N   UNL     1      -8.941   7.337  68.331  1.00  0.00    -0.127 NA 
HETATM    5  N   UNL     1      -8.181   6.732  69.280  1.00  0.00    -0.123 NA 
HETATM    6  C   UNL     1      -7.271   7.645  69.592  1.00  0.00    -0.079 A  
HETATM    7  C   UNL     1      -7.397   8.807  68.815  1.00  0.00    -0.083 A  
HETATM    8  C   UNL     1      -8.429   8.561  67.921  1.00  0.00    -0.130 A  
BRANCH   8   9
HETATM    9  C   UNL     1      -8.852   9.292  66.722  1.00  0.00    -0.127 A  
HETATM   10  C   UNL     1      -9.991  10.097  66.593  1.00  0.00    -0.272 A  
HETATM   11  C   UNL     1      -8.095   9.925  64.610  1.00  0.00    -0.152 A  
HETATM   12  C   UNL     1     -10.149  10.804  65.382  1.00  0.00    -0.347 A  
HETATM   13  N   UNL     1      -7.911   9.213  65.742  1.00  0.00    -0.097 NA 
HETATM   14  C   UNL     1      -9.188  10.731  64.385  1.00  0.00    -0.250 A  
BRANCH  10  15
HETATM   15  C   UNL     1     -11.089  10.248  67.611  1.00  0.00    -0.251 C  
BRANCH  15  16
HETATM   16  O   UNL     1     -11.585  11.578  67.547  1.00  0.00    -0.477 OA 
BRANCH  16  17
HETATM   17  C   UNL     1     -11.900  12.245  68.697  1.00  0.00    -0.305 A  
HETATM   18  C   UNL     1     -12.086  11.622  69.939  1.00  0.00    -0.373 A  
HETATM   19  C   UNL     1     -12.319  12.378  71.093  1.00  0.00    -0.243 A  
HETATM   20  C   UNL     1     -12.398  13.764  71.022  1.00  0.00    -0.452 A  
HETATM   21  C   UNL     1     -12.245  14.398  69.790  1.00  0.00    -0.321 A  
HETATM   22  O   UNL     1     -12.356  15.761  69.726  1.00  0.00    -0.460 OA 
HETATM   23  C   UNL     1     -11.988  13.652  68.626  1.00  0.00    -0.395 A  
HETATM   24  C   UNL     1     -11.808  14.397  67.349  1.00  0.00    -0.400 C  
HETATM   25  H   UNL     1     -12.252  16.193  68.886  1.00  0.00     0.000 HD 
HETATM   26  O   UNL     1     -11.696  13.882  66.243  1.00  0.00    -0.349 OA 
ENDBRANCH  16  17
ENDBRANCH  15  16
ENDBRANCH  10  15
ENDBRANCH   8   9
ENDBRANCH   2   4
TORSDOF 5
ENDMDL
MODEL      151
REMARK 921   NORMALIZED FREE ENERGY PREDICTED BY IDOCK:   -4.99 KCAL/MOL
REMARK 922        TOTAL FREE ENERGY PREDICTED BY IDOCK:   -7.66 KCAL/MOL
REMARK 923 INTER-LIGAND FREE ENERGY PREDICTED BY IDOCK:   -6.88 KCAL/MOL
REMARK 924 INTRA-LIGAND FREE ENERGY PREDICTED BY IDOCK:   -0.78 KCAL/MOL
REMARK 927      BINDING AFFINITY PREDICTED BY RF-SCORE:    0.00 PKD
ROOT
HETATM    1  C   UNL     1     -10.647  12.587  64.867  1.00  0.00    -0.330 C  
HETATM    2  C   UNL     1     -11.050  14.029  65.192  1.00  0.00    -0.341 C  
HETATM    3  C   UNL     1     -12.472  14.068  65.767  1.00  0.00    -0.523 C  
ENDROOT
BRANCH   2   4
HETATM    4  N   UNL     1     -10.119  14.669  66.124  1.00  0.00    -0.286 NA 
HETATM    5  N   UNL     1      -9.266  15.597  65.621  1.00  0.00    -0.228 NA 
HETATM    6  C   UNL     1      -8.357  15.748  66.576  1.00  0.00    -0.278 A  
HETATM    7  C   UNL     1      -8.646  14.975  67.710  1.00  0.00    -0.165 A  
HETATM    8  C   UNL     1      -9.855  14.347  67.449  1.00  0.00    -0.224 A  
BRANCH   8   9
HETATM    9  C   UNL     1     -10.769  13.619  68.337  1.00  0.00    -0.258 A  
HETATM   10  C   UNL     1     -10.759  12.244  68.600  1.00  0.00    -0.261 A  
HETATM   11  C   UNL     1     -12.406  13.975  69.957  1.00  0.00    -0.337 A  
HETATM   12  C   UNL     1     -11.655  11.766  69.579  1.00  0.00    -0.398 A  
HETATM   13  N   UNL     1     -11.580  14.477  69.014  1.00  0.00    -0.281 NA 
HETATM   14  C   UNL     1     -12.479  12.638  70.275  1.00  0.00    -0.163 A  
BRANCH  10  15
HETATM   15  C   UNL     1      -9.907  11.215  67.906  1.00  0.00    -0.174 C  
BRANCH  15  16
HETATM   16  O   UNL     1      -9.758  10.095  68.768  1.00  0.00    -0.159 OA 
BRANCH  16  17
HETATM   17  C   UNL     1     -10.148   8.854  68.349  1.00  0.00    -0.189 A  
HETATM   18  C   UNL     1     -10.269   8.483  67.003  1.00  0.00    -0.371 A  
HETATM   19  C   UNL     1     -10.587   7.169  66.647  1.00  0.00    -0.164 A  
HETATM   20  C   UNL     1     -10.816   6.210  67.628  1.00  0.00    -0.421 A  
HETATM   21  C   UNL     1     -10.729   6.569  68.971  1.00  0.00    -0.278 A  
HETATM   22  O   UNL     1     -10.987   5.626  69.929  1.00  0.00    -0.339 OA 
HETATM   23  C   UNL     1     -10.388   7.882  69.343  1.00  0.00    -0.220 A  
HETATM   24  C   UNL     1     -10.285   8.188  70.797  1.00  0.00    -0.194 C  
HETATM   25  H   UNL     1     -10.927   5.870  70.845  1.00  0.00     0.000 HD 
HETATM   26  O   UNL     1     -10.114   9.304  71.271  1.00  0.00    -0.299 OA 
ENDBRANCH  16  17
ENDBRANCH  15  16
ENDBRANCH  10  15
ENDBRANCH   8   9
ENDBRANCH   2   4
TORSDOF 5
ENDMDL
MODEL      152
REMARK 921   NORMALIZED FREE ENERGY PREDICTED BY IDOCK:   -4.98 KCAL/MOL
REMARK 922        TOTAL FREE ENERGY PREDICTED BY IDOCK:   -7.65 KCAL/MOL
REMARK 923 INTER-LIGAND FREE ENERGY PREDICTED BY IDOCK:   -6.51 KCAL/MOL
REMARK 924 INTRA-LIGAND FREE ENERGY PREDICTED BY IDOCK:   -1.15 KCAL/MOL
REMARK 927      BINDING AFFINITY PREDICTED BY RF-SCORE:    0.00 PKD
ROOT
HETATM    1  C   UNL     1     -10.475   6.929  67.121  1.00  0.00    -0.373 C  
HETATM    2  C   UNL     1     -10.538   8.459  67.139  1.00  0.00    -0.256 C  
HETATM    3  C   UNL     1     -10.551   8.974  68.584  1.00  0.00    -0.194 C  
ENDROOT
BRANCH   2   4
HETATM    4  N   UNL     1      -9.428   9.069  66.404  1.00  0.00    -0.206 NA 
HETATM    5  N   UNL     1      -8.220   8.452  66.465  1.00  0.00    -0.103 NA 
HETATM    6  C   UNL     1      -7.371   9.366  66.013  1.00  0.00    -0.092 A  
HETATM    7  C   UNL     1      -8.022  10.540  65.606  1.00  0.00    -0.158 A  
HETATM    8  C   UNL     1      -9.378  10.303  65.769  1.00  0.00    -0.186 A  
BRANCH   8   9
HETATM    9  C   UNL     1     -10.547  11.053  65.293  1.00  0.00    -0.214 A  
HETATM   10  C   UNL     1     -11.398  11.852  66.064  1.00  0.00    -0.375 A  
HETATM   11  C   UNL     1     -11.601  11.727  63.327  1.00  0.00    -0.228 A  
HETATM   12  C   UNL     1     -12.396  12.580  65.383  1.00  0.00    -0.426 A  
HETATM   13  N   UNL     1     -10.643  10.997  63.936  1.00  0.00    -0.362 NA 
HETATM   14  C   UNL     1     -12.494  12.530  64.000  1.00  0.00    -0.527 A  
BRANCH  10  15
HETATM   15  C   UNL     1     -11.377  11.978  67.564  1.00  0.00    -0.319 C  
BRANCH  15  16
HETATM   16  O   UNL     1     -10.300  12.831  67.931  1.00  0.00    -0.215 OA 
BRANCH  16  17
HETATM   17  C   UNL     1     -10.557  14.060  68.469  1.00  0.00    -0.254 A  
HETATM   18  C   UNL     1     -11.765  14.410  69.087  1.00  0.00    -0.354 A  
HETATM   19  C   UNL     1     -11.926  15.659  69.696  1.00  0.00    -0.367 A  
HETATM   20  C   UNL     1     -10.893  16.590  69.674  1.00  0.00    -0.322 A  
HETATM   21  C   UNL     1      -9.694  16.269  69.037  1.00  0.00    -0.252 A  
HETATM   22  O   UNL     1      -8.696  17.204  68.994  1.00  0.00    -0.220 OA 
HETATM   23  C   UNL     1      -9.513  15.009  68.442  1.00  0.00    -0.201 A  
HETATM   24  C   UNL     1      -8.196  14.725  67.804  1.00  0.00    -0.159 C  
HETATM   25  H   UNL     1      -7.879  16.986  68.560  1.00  0.00     0.000 HD 
HETATM   26  O   UNL     1      -7.932  13.725  67.148  1.00  0.00    -0.145 OA 
ENDBRANCH  16  17
ENDBRANCH  15  16
ENDBRANCH  10  15
ENDBRANCH   8   9
ENDBRANCH   2   4
TORSDOF 5
ENDMDL
MODEL      153
REMARK 921   NORMALIZED FREE ENERGY PREDICTED BY IDOCK:   -4.97 KCAL/MOL
REMARK 922        TOTAL FREE ENERGY PREDICTED BY IDOCK:   -7.63 KCAL/MOL
REMARK 923 INTER-LIGAND FREE ENERGY PREDICTED BY IDOCK:   -5.73 KCAL/MOL
REMARK 924 INTRA-LIGAND FREE ENERGY PREDICTED BY IDOCK:   -1.90 KCAL/MOL
REMARK 927      BINDING AFFINITY PREDICTED BY RF-SCORE:    0.00 PKD
ROOT
HETATM    1  C   UNL     1      -6.944  12.311  68.436  1.00  0.00    -0.082 C  
HETATM    2  C   UNL     1      -8.440  12.539  68.202  1.00  0.00    -0.180 C  
HETATM    3  C   UNL     1      -8.680  13.937  67.615  1.00  0.00    -0.187 C  
ENDROOT
BRANCH   2   4
HETATM    4  N   UNL     1      -9.025  11.524  67.323  1.00  0.00    -0.159 NA 
HETATM    5  N   UNL     1      -8.456  11.345  66.104  1.00  0.00    -0.148 NA 
HETATM    6  C   UNL     1      -9.359  10.644  65.429  1.00  0.00    -0.210 A  
HETATM    7  C   UNL     1     -10.474  10.319  66.215  1.00  0.00    -0.214 A  
HETATM    8  C   UNL     1     -10.206  10.810  67.484  1.00  0.00    -0.196 A  
BRANCH   8   9
HETATM    9  C   UNL     1     -10.876  10.568  68.767  1.00  0.00    -0.231 A  
HETATM   10  C   UNL     1     -10.334   9.917  69.882  1.00  0.00    -0.298 A  
HETATM   11  C   UNL     1     -12.784  11.160  69.967  1.00  0.00    -0.059 A  
HETATM   12  C   UNL     1     -11.112   9.895  71.059  1.00  0.00    -0.401 A  
HETATM   13  N   UNL     1     -12.086  11.190  68.813  1.00  0.00    -0.552 NA 
HETATM   14  C   UNL     1     -12.343  10.532  71.110  1.00  0.00    -0.510 A  
BRANCH  10  15
HETATM   15  C   UNL     1      -9.013   9.197  69.933  1.00  0.00    -0.174 C  
BRANCH  15  16
HETATM   16  O   UNL     1      -9.233   7.827  69.625  1.00  0.00    -0.153 OA 
BRANCH  16  17
HETATM   17  C   UNL     1      -9.147   7.395  68.332  1.00  0.00    -0.132 A  
HETATM   18  C   UNL     1      -8.069   7.676  67.481  1.00  0.00    -0.120 A  
HETATM   19  C   UNL     1      -8.007   7.127  66.196  1.00  0.00    -0.112 A  
HETATM   20  C   UNL     1      -9.032   6.311  65.730  1.00  0.00    -0.083 A  
HETATM   21  C   UNL     1     -10.125   6.045  66.552  1.00  0.00    -0.137 A  
HETATM   22  O   UNL     1     -11.144   5.267  66.072  1.00  0.00    -0.762 OA 
HETATM   23  C   UNL     1     -10.189   6.573  67.854  1.00  0.00    -0.198 A  
HETATM   24  C   UNL     1     -11.374   6.225  68.687  1.00  0.00    -0.085 C  
HETATM   25  H   UNL     1     -11.889   5.086  66.632  1.00  0.00     0.000 HD 
HETATM   26  O   UNL     1     -11.625   6.700  69.788  1.00  0.00    -0.351 OA 
ENDBRANCH  16  17
ENDBRANCH  15  16
ENDBRANCH  10  15
ENDBRANCH   8   9
ENDBRANCH   2   4
TORSDOF 5
ENDMDL
MODEL      154
REMARK 921   NORMALIZED FREE ENERGY PREDICTED BY IDOCK:   -4.97 KCAL/MOL
REMARK 922        TOTAL FREE ENERGY PREDICTED BY IDOCK:   -7.63 KCAL/MOL
REMARK 923 INTER-LIGAND FREE ENERGY PREDICTED BY IDOCK:   -6.89 KCAL/MOL
REMARK 924 INTRA-LIGAND FREE ENERGY PREDICTED BY IDOCK:   -0.74 KCAL/MOL
REMARK 927      BINDING AFFINITY PREDICTED BY RF-SCORE:    0.00 PKD
ROOT
HETATM    1  C   UNL     1     -12.164  12.720  63.661  1.00  0.00    -0.597 C  
HETATM    2  C   UNL     1     -10.980  11.955  64.261  1.00  0.00    -0.353 C  
HETATM    3  C   UNL     1      -9.900  11.725  63.196  1.00  0.00    -0.363 C  
ENDROOT
BRANCH   2   4
HETATM    4  N   UNL     1     -10.401  12.646  65.415  1.00  0.00    -0.287 NA 
HETATM    5  N   UNL     1     -10.742  13.946  65.606  1.00  0.00    -0.283 NA 
HETATM    6  C   UNL     1      -9.846  14.388  66.479  1.00  0.00    -0.287 A  
HETATM    7  C   UNL     1      -8.971  13.375  66.899  1.00  0.00    -0.216 A  
HETATM    8  C   UNL     1      -9.401  12.213  66.277  1.00  0.00    -0.218 A  
BRANCH   8   9
HETATM    9  C   UNL     1      -9.041  10.810  66.512  1.00  0.00    -0.165 A  
HETATM   10  C   UNL     1      -9.821   9.845  67.159  1.00  0.00    -0.235 A  
HETATM   11  C   UNL     1      -7.457   9.210  65.911  1.00  0.00    -0.094 A  
HETATM   12  C   UNL     1      -9.332   8.521  67.174  1.00  0.00    -0.191 A  
HETATM   13  N   UNL     1      -7.873  10.493  65.887  1.00  0.00    -0.148 NA 
HETATM   14  C   UNL     1      -8.146   8.194  66.534  1.00  0.00    -0.106 A  
BRANCH  10  15
HETATM   15  C   UNL     1     -11.119  10.093  67.881  1.00  0.00    -0.238 C  
BRANCH  15  16
HETATM   16  O   UNL     1     -10.825  10.569  69.188  1.00  0.00    -0.205 OA 
BRANCH  16  17
HETATM   17  C   UNL     1     -10.664   9.683  70.216  1.00  0.00    -0.281 A  
HETATM   18  C   UNL     1      -9.461   9.022  70.500  1.00  0.00    -0.265 A  
HETATM   19  C   UNL     1      -9.344   8.196  71.623  1.00  0.00    -0.228 A  
HETATM   20  C   UNL     1     -10.432   7.996  72.466  1.00  0.00    -0.383 A  
HETATM   21  C   UNL     1     -11.644   8.623  72.181  1.00  0.00    -0.370 A  
HETATM   22  O   UNL     1     -12.717   8.394  72.999  1.00  0.00    -0.697 OA 
HETATM   23  C   UNL     1     -11.768   9.473  71.068  1.00  0.00    -0.419 A  
HETATM   24  C   UNL     1     -13.085  10.131  70.840  1.00  0.00    -0.335 C  
HETATM   25  H   UNL     1     -13.544   8.821  72.805  1.00  0.00     0.000 HD 
HETATM   26  O   UNL     1     -13.378  10.799  69.857  1.00  0.00     0.072 OA 
ENDBRANCH  16  17
ENDBRANCH  15  16
ENDBRANCH  10  15
ENDBRANCH   8   9
ENDBRANCH   2   4
TORSDOF 5
ENDMDL
MODEL      155
REMARK 921   NORMALIZED FREE ENERGY PREDICTED BY IDOCK:   -4.97 KCAL/MOL
REMARK 922        TOTAL FREE ENERGY PREDICTED BY IDOCK:   -7.63 KCAL/MOL
REMARK 923 INTER-LIGAND FREE ENERGY PREDICTED BY IDOCK:   -6.40 KCAL/MOL
REMARK 924 INTRA-LIGAND FREE ENERGY PREDICTED BY IDOCK:   -1.23 KCAL/MOL
REMARK 927      BINDING AFFINITY PREDICTED BY RF-SCORE:    0.00 PKD
ROOT
HETATM    1  C   UNL     1     -11.879  13.128  68.803  1.00  0.00    -0.361 C  
HETATM    2  C   UNL     1     -11.705  14.534  68.221  1.00  0.00    -0.335 C  
HETATM    3  C   UNL     1     -12.034  15.594  69.281  1.00  0.00    -0.338 C  
ENDROOT
BRANCH   2   4
HETATM    4  N   UNL     1     -10.355  14.755  67.699  1.00  0.00    -0.237 NA 
HETATM    5  N   UNL     1      -9.468  15.395  68.504  1.00  0.00    -0.196 NA 
HETATM    6  C   UNL     1      -8.485  15.744  67.682  1.00  0.00    -0.160 A  
HETATM    7  C   UNL     1      -8.698  15.286  66.374  1.00  0.00    -0.265 A  
HETATM    8  C   UNL     1      -9.875  14.552  66.412  1.00  0.00    -0.290 A  
BRANCH   8   9
HETATM    9  C   UNL     1     -10.469  13.642  65.425  1.00  0.00    -0.324 A  
HETATM   10  C   UNL     1     -10.138  12.297  65.225  1.00  0.00    -0.295 A  
HETATM   11  C   UNL     1     -12.247  13.489  63.926  1.00  0.00    -0.399 A  
HETATM   12  C   UNL     1     -10.917  11.570  64.299  1.00  0.00    -0.406 A  
HETATM   13  N   UNL     1     -11.518  14.230  64.787  1.00  0.00    -0.375 NA 
HETATM   14  C   UNL     1     -11.990  12.164  63.652  1.00  0.00    -0.628 A  
BRANCH  10  15
HETATM   15  C   UNL     1      -8.999  11.558  65.874  1.00  0.00    -0.147 C  
BRANCH  15  16
HETATM   16  O   UNL     1      -9.023  11.827  67.270  1.00  0.00    -0.163 OA 
BRANCH  16  17
HETATM   17  C   UNL     1      -9.181  10.802  68.159  1.00  0.00    -0.151 A  
HETATM   18  C   UNL     1     -10.240   9.884  68.119  1.00  0.00    -0.210 A  
HETATM   19  C   UNL     1     -10.290   8.806  69.009  1.00  0.00    -0.227 A  
HETATM   20  C   UNL     1      -9.299   8.641  69.970  1.00  0.00    -0.165 A  
HETATM   21  C   UNL     1      -8.254   9.562  70.044  1.00  0.00    -0.170 A  
HETATM   22  O   UNL     1      -7.301   9.408  71.014  1.00  0.00    -0.237 OA 
HETATM   23  C   UNL     1      -8.181  10.637  69.141  1.00  0.00    -0.142 A  
HETATM   24  C   UNL     1      -7.022  11.566  69.259  1.00  0.00    -0.098 C  
HETATM   25  H   UNL     1      -6.589  10.035  71.064  1.00  0.00     0.000 HD 
HETATM   26  O   UNL     1      -6.884  12.605  68.626  1.00  0.00    -0.080 OA 
ENDBRANCH  16  17
ENDBRANCH  15  16
ENDBRANCH  10  15
ENDBRANCH   8   9
ENDBRANCH   2   4
TORSDOF 5
ENDMDL
MODEL      156
REMARK 921   NORMALIZED FREE ENERGY PREDICTED BY IDOCK:   -4.96 KCAL/MOL
REMARK 922        TOTAL FREE ENERGY PREDICTED BY IDOCK:   -7.62 KCAL/MOL
REMARK 923 INTER-LIGAND FREE ENERGY PREDICTED BY IDOCK:   -7.01 KCAL/MOL
REMARK 924 INTRA-LIGAND FREE ENERGY PREDICTED BY IDOCK:   -0.61 KCAL/MOL
REMARK 927      BINDING AFFINITY PREDICTED BY RF-SCORE:    0.00 PKD
ROOT
HETATM    1  C   UNL     1     -10.349  16.739  66.097  1.00  0.00    -0.338 C  
HETATM    2  C   UNL     1      -9.640  17.872  66.843  1.00  0.00    -0.300 C  
HETATM    3  C   UNL     1     -10.668  18.827  67.464  1.00  0.00    -0.474 C  
ENDROOT
BRANCH   2   4
HETATM    4  N   UNL     1      -8.735  17.373  67.881  1.00  0.00    -0.232 NA 
HETATM    5  N   UNL     1      -7.516  17.963  67.988  1.00  0.00    -0.226 NA 
HETATM    6  C   UNL     1      -6.819  17.122  68.742  1.00  0.00    -0.209 A  
HETATM    7  C   UNL     1      -7.589  16.031  69.171  1.00  0.00    -0.225 A  
HETATM    8  C   UNL     1      -8.871  16.251  68.688  1.00  0.00    -0.226 A  
BRANCH   8   9
HETATM    9  C   UNL     1     -10.143  15.595  69.010  1.00  0.00    -0.227 A  
HETATM   10  C   UNL     1     -10.537  14.306  68.631  1.00  0.00    -0.254 A  
HETATM   11  C   UNL     1     -12.031  15.840  70.353  1.00  0.00    -0.359 A  
HETATM   12  C   UNL     1     -11.758  13.825  69.148  1.00  0.00    -0.379 A  
HETATM   13  N   UNL     1     -10.880  16.351  69.869  1.00  0.00    -0.352 NA 
HETATM   14  C   UNL     1     -12.509  14.590  70.028  1.00  0.00    -0.348 A  
BRANCH  10  15
HETATM   15  C   UNL     1      -9.799  13.395  67.687  1.00  0.00    -0.226 C  
BRANCH  15  16
HETATM   16  O   UNL     1     -10.683  12.364  67.269  1.00  0.00    -0.224 OA 
BRANCH  16  17
HETATM   17  C   UNL     1     -10.424  11.065  67.604  1.00  0.00    -0.204 A  
HETATM   18  C   UNL     1     -10.446  10.574  68.917  1.00  0.00    -0.226 A  
HETATM   19  C   UNL     1     -10.258   9.213  69.178  1.00  0.00    -0.215 A  
HETATM   20  C   UNL     1     -10.019   8.324  68.135  1.00  0.00    -0.224 A  
HETATM   21  C   UNL     1      -9.963   8.800  66.827  1.00  0.00    -0.268 A  
HETATM   22  O   UNL     1      -9.695   7.922  65.811  1.00  0.00    -0.417 OA 
HETATM   23  C   UNL     1     -10.173  10.163  66.549  1.00  0.00    -0.288 A  
HETATM   24  C   UNL     1     -10.128  10.597  65.125  1.00  0.00    -0.307 C  
HETATM   25  H   UNL     1      -9.657   8.246  64.919  1.00  0.00     0.000 HD 
HETATM   26  O   UNL     1     -10.174  11.759  64.741  1.00  0.00    -0.260 OA 
ENDBRANCH  16  17
ENDBRANCH  15  16
ENDBRANCH  10  15
ENDBRANCH   8   9
ENDBRANCH   2   4
TORSDOF 5
ENDMDL
MODEL      157
REMARK 921   NORMALIZED FREE ENERGY PREDICTED BY IDOCK:   -4.96 KCAL/MOL
REMARK 922        TOTAL FREE ENERGY PREDICTED BY IDOCK:   -7.62 KCAL/MOL
REMARK 923 INTER-LIGAND FREE ENERGY PREDICTED BY IDOCK:   -7.22 KCAL/MOL
REMARK 924 INTRA-LIGAND FREE ENERGY PREDICTED BY IDOCK:   -0.40 KCAL/MOL
REMARK 927      BINDING AFFINITY PREDICTED BY RF-SCORE:    0.00 PKD
ROOT
HETATM    1  C   UNL     1     -10.984   9.925  67.128  1.00  0.00    -0.147 C  
HETATM    2  C   UNL     1     -10.012  11.108  67.105  1.00  0.00    -0.186 C  
HETATM    3  C   UNL     1      -8.945  10.900  66.021  1.00  0.00    -0.200 C  
ENDROOT
BRANCH   2   4
HETATM    4  N   UNL     1     -10.696  12.385  66.890  1.00  0.00    -0.236 NA 
HETATM    5  N   UNL     1     -11.961  12.345  66.398  1.00  0.00    -0.607 NA 
HETATM    6  C   UNL     1     -12.190  13.591  66.003  1.00  0.00    -0.445 A  
HETATM    7  C   UNL     1     -11.114  14.445  66.288  1.00  0.00    -0.331 A  
HETATM    8  C   UNL     1     -10.179  13.672  66.960  1.00  0.00    -0.250 A  
BRANCH   8   9
HETATM    9  C   UNL     1      -8.979  14.058  67.712  1.00  0.00    -0.186 A  
HETATM   10  C   UNL     1      -8.942  14.783  68.909  1.00  0.00    -0.167 A  
HETATM   11  C   UNL     1      -6.685  13.662  67.813  1.00  0.00    -0.170 A  
HETATM   12  C   UNL     1      -7.684  14.946  69.528  1.00  0.00    -0.121 A  
HETATM   13  N   UNL     1      -7.862  13.497  67.174  1.00  0.00    -0.077 NA 
HETATM   14  C   UNL     1      -6.545  14.371  68.985  1.00  0.00    -0.103 A  
BRANCH  10  15
HETATM   15  C   UNL     1     -10.115  15.446  69.581  1.00  0.00    -0.269 C  
BRANCH  15  16
HETATM   16  O   UNL     1     -11.103  14.458  69.841  1.00  0.00    -0.216 OA 
BRANCH  16  17
HETATM   17  C   UNL     1     -11.968  14.617  70.887  1.00  0.00    -0.326 A  
HETATM   18  C   UNL     1     -12.255  15.851  71.487  1.00  0.00    -0.525 A  
HETATM   19  C   UNL     1     -13.218  15.951  72.496  1.00  0.00    -0.521 A  
HETATM   20  C   UNL     1     -13.892  14.819  72.941  1.00  0.00    -0.268 A  
HETATM   21  C   UNL     1     -13.597  13.579  72.376  1.00  0.00    -0.608 A  
HETATM   22  O   UNL     1     -14.242  12.466  72.843  1.00  0.00    -0.306 OA 
HETATM   23  C   UNL     1     -12.647  13.468  71.346  1.00  0.00    -0.398 A  
HETATM   24  C   UNL     1     -12.402  12.116  70.768  1.00  0.00    -0.297 C  
HETATM   25  H   UNL     1     -14.041  11.621  72.458  1.00  0.00     0.000 HD 
HETATM   26  O   UNL     1     -11.529  11.846  69.954  1.00  0.00    -0.265 OA 
ENDBRANCH  16  17
ENDBRANCH  15  16
ENDBRANCH  10  15
ENDBRANCH   8   9
ENDBRANCH   2   4
TORSDOF 5
ENDMDL
MODEL      158
REMARK 921   NORMALIZED FREE ENERGY PREDICTED BY IDOCK:   -4.94 KCAL/MOL
REMARK 922        TOTAL FREE ENERGY PREDICTED BY IDOCK:   -7.60 KCAL/MOL
REMARK 923 INTER-LIGAND FREE ENERGY PREDICTED BY IDOCK:   -7.00 KCAL/MOL
REMARK 924 INTRA-LIGAND FREE ENERGY PREDICTED BY IDOCK:   -0.60 KCAL/MOL
REMARK 927      BINDING AFFINITY PREDICTED BY RF-SCORE:    0.00 PKD
ROOT
HETATM    1  C   UNL     1      -9.893   9.444  65.755  1.00  0.00    -0.345 C  
HETATM    2  C   UNL     1      -9.293   9.657  67.148  1.00  0.00    -0.139 C  
HETATM    3  C   UNL     1      -7.926  10.346  67.039  1.00  0.00    -0.116 C  
ENDROOT
BRANCH   2   4
HETATM    4  N   UNL     1     -10.175  10.437  68.019  1.00  0.00    -0.162 NA 
HETATM    5  N   UNL     1     -10.198  10.116  69.338  1.00  0.00    -0.214 NA 
HETATM    6  C   UNL     1     -11.284  10.726  69.796  1.00  0.00    -0.297 A  
HETATM    7  C   UNL     1     -11.926  11.484  68.805  1.00  0.00    -0.335 A  
HETATM    8  C   UNL     1     -11.140  11.373  67.668  1.00  0.00    -0.268 A  
BRANCH   8   9
HETATM    9  C   UNL     1     -11.164  12.125  66.408  1.00  0.00    -0.331 A  
HETATM   10  C   UNL     1     -10.162  12.971  65.921  1.00  0.00    -0.298 A  
HETATM   11  C   UNL     1     -12.371  12.315  64.423  1.00  0.00    -0.404 A  
HETATM   12  C   UNL     1     -10.339  13.506  64.627  1.00  0.00    -0.406 A  
HETATM   13  N   UNL     1     -12.255  11.795  65.663  1.00  0.00    -0.140 NA 
HETATM   14  C   UNL     1     -11.446  13.168  63.863  1.00  0.00    -0.451 A  
BRANCH  10  15
HETATM   15  C   UNL     1      -8.925  13.400  66.664  1.00  0.00    -0.122 C  
BRANCH  15  16
HETATM   16  O   UNL     1      -8.947  14.814  66.799  1.00  0.00    -0.244 OA 
BRANCH  16  17
HETATM   17  C   UNL     1      -9.579  15.389  67.866  1.00  0.00    -0.206 A  
HETATM   18  C   UNL     1     -10.131  14.666  68.932  1.00  0.00    -0.234 A  
HETATM   19  C   UNL     1     -10.685  15.325  70.035  1.00  0.00    -0.297 A  
HETATM   20  C   UNL     1     -10.723  16.715  70.078  1.00  0.00    -0.157 A  
HETATM   21  C   UNL     1     -10.206  17.448  69.012  1.00  0.00    -0.317 A  
HETATM   22  O   UNL     1     -10.276  18.815  69.050  1.00  0.00    -0.491 OA 
HETATM   23  C   UNL     1      -9.625  16.798  67.908  1.00  0.00    -0.236 A  
HETATM   24  C   UNL     1      -9.067  17.646  66.817  1.00  0.00    -0.260 C  
HETATM   25  H   UNL     1      -9.924  19.315  68.323  1.00  0.00     0.000 HD 
HETATM   26  O   UNL     1      -8.640  17.227  65.748  1.00  0.00    -0.532 OA 
ENDBRANCH  16  17
ENDBRANCH  15  16
ENDBRANCH  10  15
ENDBRANCH   8   9
ENDBRANCH   2   4
TORSDOF 5
ENDMDL
MODEL      159
REMARK 921   NORMALIZED FREE ENERGY PREDICTED BY IDOCK:   -4.94 KCAL/MOL
REMARK 922        TOTAL FREE ENERGY PREDICTED BY IDOCK:   -7.60 KCAL/MOL
REMARK 923 INTER-LIGAND FREE ENERGY PREDICTED BY IDOCK:   -6.82 KCAL/MOL
REMARK 924 INTRA-LIGAND FREE ENERGY PREDICTED BY IDOCK:   -0.78 KCAL/MOL
REMARK 927      BINDING AFFINITY PREDICTED BY RF-SCORE:    0.00 PKD
ROOT
HETATM    1  C   UNL     1     -10.530  10.130  68.946  1.00  0.00    -0.230 C  
HETATM    2  C   UNL     1      -9.467   9.622  67.967  1.00  0.00    -0.132 C  
HETATM    3  C   UNL     1     -10.127   8.846  66.819  1.00  0.00    -0.350 C  
ENDROOT
BRANCH   2   4
HETATM    4  N   UNL     1      -8.646  10.707  67.426  1.00  0.00    -0.122 NA 
HETATM    5  N   UNL     1      -7.370  10.814  67.877  1.00  0.00    -0.087 NA 
HETATM    6  C   UNL     1      -6.996  12.028  67.494  1.00  0.00    -0.130 A  
HETATM    7  C   UNL     1      -7.991  12.680  66.751  1.00  0.00     0.115 A  
HETATM    8  C   UNL     1      -9.032  11.773  66.623  1.00  0.00    -0.195 A  
BRANCH   8   9
HETATM    9  C   UNL     1     -10.220  11.792  65.762  1.00  0.00    -0.239 A  
HETATM   10  C   UNL     1     -11.471  12.334  66.077  1.00  0.00    -0.434 A  
HETATM   11  C   UNL     1     -10.886  11.382  63.567  1.00  0.00    -0.353 A  
HETATM   12  C   UNL     1     -12.445  12.350  65.056  1.00  0.00    -0.393 A  
HETATM   13  N   UNL     1      -9.929  11.327  64.516  1.00  0.00    -0.264 NA 
HETATM   14  C   UNL     1     -12.150  11.882  63.785  1.00  0.00    -0.547 A  
BRANCH  10  15
HETATM   15  C   UNL     1     -11.893  12.867  67.420  1.00  0.00    -0.360 C  
BRANCH  15  16
HETATM   16  O   UNL     1     -12.317  14.214  67.259  1.00  0.00    -0.350 OA 
BRANCH  16  17
HETATM   17  C   UNL     1     -11.391  15.212  67.148  1.00  0.00    -0.290 A  
HETATM   18  C   UNL     1     -10.688  15.503  65.971  1.00  0.00    -0.331 A  
HETATM   19  C   UNL     1      -9.819  16.597  65.905  1.00  0.00    -0.301 A  
HETATM   20  C   UNL     1      -9.617  17.403  67.021  1.00  0.00    -0.273 A  
HETATM   21  C   UNL     1     -10.285  17.110  68.208  1.00  0.00    -0.334 A  
HETATM   22  O   UNL     1     -10.055  17.890  69.310  1.00  0.00    -0.281 OA 
HETATM   23  C   UNL     1     -11.178  16.026  68.281  1.00  0.00    -0.350 A  
HETATM   24  C   UNL     1     -11.879  15.789  69.574  1.00  0.00    -0.347 C  
HETATM   25  H   UNL     1     -10.510  17.690  70.119  1.00  0.00     0.000 HD 
HETATM   26  O   UNL     1     -12.590  14.823  69.823  1.00  0.00    -0.239 OA 
ENDBRANCH  16  17
ENDBRANCH  15  16
ENDBRANCH  10  15
ENDBRANCH   8   9
ENDBRANCH   2   4
TORSDOF 5
ENDMDL
MODEL      160
REMARK 921   NORMALIZED FREE ENERGY PREDICTED BY IDOCK:   -4.93 KCAL/MOL
REMARK 922        TOTAL FREE ENERGY PREDICTED BY IDOCK:   -7.58 KCAL/MOL
REMARK 923 INTER-LIGAND FREE ENERGY PREDICTED BY IDOCK:   -6.46 KCAL/MOL
REMARK 924 INTRA-LIGAND FREE ENERGY PREDICTED BY IDOCK:   -1.12 KCAL/MOL
REMARK 927      BINDING AFFINITY PREDICTED BY RF-SCORE:    0.00 PKD
ROOT
HETATM    1  C   UNL     1      -8.239  13.100  67.366  1.00  0.00    -0.187 C  
HETATM    2  C   UNL     1      -9.356  14.094  67.036  1.00  0.00    -0.246 C  
HETATM    3  C   UNL     1      -8.770  15.365  66.408  1.00  0.00    -0.307 C  
ENDROOT
BRANCH   2   4
HETATM    4  N   UNL     1     -10.365  13.518  66.144  1.00  0.00    -0.290 NA 
HETATM    5  N   UNL     1     -10.411  13.980  64.867  1.00  0.00    -0.416 NA 
HETATM    6  C   UNL     1     -11.583  13.551  64.414  1.00  0.00    -0.396 A  
HETATM    7  C   UNL     1     -12.263  12.769  65.360  1.00  0.00    -0.532 A  
HETATM    8  C   UNL     1     -11.417  12.666  66.454  1.00  0.00    -0.356 A  
BRANCH   8   9
HETATM    9  C   UNL     1     -11.473  11.791  67.630  1.00  0.00    -0.300 A  
HETATM   10  C   UNL     1     -10.963  10.491  67.728  1.00  0.00    -0.372 A  
HETATM   11  C   UNL     1     -11.990  11.821  69.902  1.00  0.00    -0.332 A  
HETATM   12  C   UNL     1     -11.020   9.867  68.992  1.00  0.00    -0.223 A  
HETATM   13  N   UNL     1     -11.975  12.452  68.709  1.00  0.00    -0.282 NA 
HETATM   14  C   UNL     1     -11.526  10.540  70.095  1.00  0.00    -0.405 A  
BRANCH  10  15
HETATM   15  C   UNL     1     -10.393   9.675  66.599  1.00  0.00    -0.208 C  
BRANCH  15  16
HETATM   16  O   UNL     1     -10.319   8.317  67.014  1.00  0.00    -0.280 OA 
BRANCH  16  17
HETATM   17  C   UNL     1      -9.404   7.478  66.444  1.00  0.00    -0.157 A  
HETATM   18  C   UNL     1      -8.454   7.881  65.496  1.00  0.00    -0.153 A  
HETATM   19  C   UNL     1      -7.490   6.986  65.021  1.00  0.00    -0.093 A  
HETATM   20  C   UNL     1      -7.475   5.668  65.464  1.00  0.00    -0.074 A  
HETATM   21  C   UNL     1      -8.432   5.243  66.384  1.00  0.00    -0.113 A  
HETATM   22  O   UNL     1      -8.428   3.935  66.789  1.00  0.00    -0.103 OA 
HETATM   23  C   UNL     1      -9.392   6.138  66.886  1.00  0.00    -0.143 A  
HETATM   24  C   UNL     1     -10.366   5.622  67.888  1.00  0.00    -0.205 C  
HETATM   25  H   UNL     1      -9.080   3.645  67.416  1.00  0.00     0.000 HD 
HETATM   26  O   UNL     1     -11.326   6.246  68.324  1.00  0.00    -0.289 OA 
ENDBRANCH  16  17
ENDBRANCH  15  16
ENDBRANCH  10  15
ENDBRANCH   8   9
ENDBRANCH   2   4
TORSDOF 5
ENDMDL
MODEL      161
REMARK 921   NORMALIZED FREE ENERGY PREDICTED BY IDOCK:   -4.92 KCAL/MOL
REMARK 922        TOTAL FREE ENERGY PREDICTED BY IDOCK:   -7.57 KCAL/MOL
REMARK 923 INTER-LIGAND FREE ENERGY PREDICTED BY IDOCK:   -7.06 KCAL/MOL
REMARK 924 INTRA-LIGAND FREE ENERGY PREDICTED BY IDOCK:   -0.51 KCAL/MOL
REMARK 927      BINDING AFFINITY PREDICTED BY RF-SCORE:    0.00 PKD
ROOT
HETATM    1  C   UNL     1      -6.987  20.218  65.378  1.00  0.00    -0.297 C  
HETATM    2  C   UNL     1      -7.413  19.591  66.709  1.00  0.00    -0.241 C  
HETATM    3  C   UNL     1      -7.248  20.602  67.852  1.00  0.00    -0.254 C  
ENDROOT
BRANCH   2   4
HETATM    4  N   UNL     1      -8.793  19.100  66.675  1.00  0.00    -0.311 NA 
HETATM    5  N   UNL     1      -9.705  19.840  65.994  1.00  0.00    -0.396 NA 
HETATM    6  C   UNL     1     -10.874  19.361  66.403  1.00  0.00    -0.322 A  
HETATM    7  C   UNL     1     -10.726  18.285  67.291  1.00  0.00    -0.366 A  
HETATM    8  C   UNL     1      -9.362  18.053  67.388  1.00  0.00    -0.254 A  
BRANCH   8   9
HETATM    9  C   UNL     1      -8.620  16.924  67.963  1.00  0.00    -0.214 A  
HETATM   10  C   UNL     1      -8.887  15.564  67.768  1.00  0.00    -0.173 A  
HETATM   11  C   UNL     1      -6.658  16.434  69.121  1.00  0.00    -0.195 A  
HETATM   12  C   UNL     1      -7.975  14.641  68.323  1.00  0.00    -0.133 A  
HETATM   13  N   UNL     1      -7.512  17.354  68.627  1.00  0.00    -0.254 NA 
HETATM   14  C   UNL     1      -6.842  15.075  68.994  1.00  0.00    -0.118 A  
BRANCH  10  15
HETATM   15  C   UNL     1     -10.082  14.988  67.057  1.00  0.00    -0.244 C  
BRANCH  15  16
HETATM   16  O   UNL     1     -11.152  14.879  67.986  1.00  0.00    -0.272 OA 
BRANCH  16  17
HETATM   17  C   UNL     1     -11.484  13.660  68.504  1.00  0.00    -0.312 A  
HETATM   18  C   UNL     1     -11.223  12.439  67.867  1.00  0.00    -0.316 A  
HETATM   19  C   UNL     1     -11.511  11.224  68.498  1.00  0.00    -0.372 A  
HETATM   20  C   UNL     1     -12.090  11.208  69.763  1.00  0.00    -0.414 A  
HETATM   21  C   UNL     1     -12.384  12.413  70.398  1.00  0.00    -0.227 A  
HETATM   22  O   UNL     1     -12.982  12.387  71.629  1.00  0.00    -0.385 OA 
HETATM   23  C   UNL     1     -12.078  13.641  69.784  1.00  0.00    -0.396 A  
HETATM   24  C   UNL     1     -12.394  14.890  70.533  1.00  0.00    -0.342 C  
HETATM   25  H   UNL     1     -13.182  13.208  72.062  1.00  0.00     0.000 HD 
HETATM   26  O   UNL     1     -12.295  16.025  70.084  1.00  0.00    -0.256 OA 
ENDBRANCH  16  17
ENDBRANCH  15  16
ENDBRANCH  10  15
ENDBRANCH   8   9
ENDBRANCH   2   4
TORSDOF 5
ENDMDL
MODEL      162
REMARK 921   NORMALIZED FREE ENERGY PREDICTED BY IDOCK:   -4.90 KCAL/MOL
REMARK 922        TOTAL FREE ENERGY PREDICTED BY IDOCK:   -7.55 KCAL/MOL
REMARK 923 INTER-LIGAND FREE ENERGY PREDICTED BY IDOCK:   -5.95 KCAL/MOL
REMARK 924 INTRA-LIGAND FREE ENERGY PREDICTED BY IDOCK:   -1.60 KCAL/MOL
REMARK 927      BINDING AFFINITY PREDICTED BY RF-SCORE:    0.00 PKD
ROOT
HETATM    1  C   UNL     1      -7.042   4.754  69.465  1.00  0.00    -0.054 C  
HETATM    2  C   UNL     1      -7.570   6.117  69.008  1.00  0.00    -0.091 C  
HETATM    3  C   UNL     1      -6.806   6.595  67.766  1.00  0.00    -0.080 C  
ENDROOT
BRANCH   2   4
HETATM    4  N   UNL     1      -9.007   6.090  68.728  1.00  0.00    -0.119 NA 
HETATM    5  N   UNL     1      -9.401   5.639  67.509  1.00  0.00    -0.109 NA 
HETATM    6  C   UNL     1     -10.665   6.032  67.416  1.00  0.00    -0.310 A  
HETATM    7  C   UNL     1     -11.108   6.675  68.581  1.00  0.00    -0.288 A  
HETATM    8  C   UNL     1     -10.050   6.622  69.475  1.00  0.00    -0.177 A  
BRANCH   8   9
HETATM    9  C   UNL     1      -9.996   6.905  70.914  1.00  0.00    -0.189 A  
HETATM   10  C   UNL     1      -9.650   8.122  71.514  1.00  0.00    -0.226 A  
HETATM   11  C   UNL     1     -10.591   5.993  72.975  1.00  0.00    -0.240 A  
HETATM   12  C   UNL     1      -9.776   8.211  72.916  1.00  0.00    -0.340 A  
HETATM   13  N   UNL     1     -10.469   5.853  71.638  1.00  0.00    -0.225 NA 
HETATM   14  C   UNL     1     -10.263   7.144  73.656  1.00  0.00    -0.402 A  
BRANCH  10  15
HETATM   15  C   UNL     1      -9.114   9.338  70.806  1.00  0.00    -0.244 C  
BRANCH  15  16
HETATM   16  O   UNL     1     -10.211  10.078  70.287  1.00  0.00    -0.268 OA 
BRANCH  16  17
HETATM   17  C   UNL     1     -10.244  10.410  68.962  1.00  0.00    -0.217 A  
HETATM   18  C   UNL     1      -9.421   9.830  67.987  1.00  0.00    -0.144 A  
HETATM   19  C   UNL     1      -9.571  10.154  66.635  1.00  0.00    -0.230 A  
HETATM   20  C   UNL     1     -10.528  11.082  66.236  1.00  0.00    -0.310 A  
HETATM   21  C   UNL     1     -11.335  11.690  67.196  1.00  0.00    -0.306 A  
HETATM   22  O   UNL     1     -12.252  12.625  66.797  1.00  0.00    -0.506 OA 
HETATM   23  C   UNL     1     -11.209  11.356  68.556  1.00  0.00    -0.309 A  
HETATM   24  C   UNL     1     -12.124  12.025  69.523  1.00  0.00    -0.212 C  
HETATM   25  H   UNL     1     -12.802  13.040  67.450  1.00  0.00     0.000 HD 
HETATM   26  O   UNL     1     -12.055  11.925  70.742  1.00  0.00    -0.357 OA 
ENDBRANCH  16  17
ENDBRANCH  15  16
ENDBRANCH  10  15
ENDBRANCH   8   9
ENDBRANCH   2   4
TORSDOF 5
ENDMDL
MODEL      163
REMARK 921   NORMALIZED FREE ENERGY PREDICTED BY IDOCK:   -4.90 KCAL/MOL
REMARK 922        TOTAL FREE ENERGY PREDICTED BY IDOCK:   -7.55 KCAL/MOL
REMARK 923 INTER-LIGAND FREE ENERGY PREDICTED BY IDOCK:   -6.88 KCAL/MOL
REMARK 924 INTRA-LIGAND FREE ENERGY PREDICTED BY IDOCK:   -0.66 KCAL/MOL
REMARK 927      BINDING AFFINITY PREDICTED BY RF-SCORE:    0.00 PKD
ROOT
HETATM    1  C   UNL     1      -7.859  10.025  70.043  1.00  0.00    -0.172 C  
HETATM    2  C   UNL     1      -7.664   8.671  69.354  1.00  0.00    -0.091 C  
HETATM    3  C   UNL     1      -7.688   7.539  70.389  1.00  0.00    -0.091 C  
ENDROOT
BRANCH   2   4
HETATM    4  N   UNL     1      -8.674   8.423  68.323  1.00  0.00    -0.142 NA 
HETATM    5  N   UNL     1      -8.255   8.378  67.032  1.00  0.00    -0.106 NA 
HETATM    6  C   UNL     1      -9.375   8.478  66.328  1.00  0.00    -0.224 A  
HETATM    7  C   UNL     1     -10.513   8.526  67.146  1.00  0.00    -0.370 A  
HETATM    8  C   UNL     1     -10.057   8.388  68.448  1.00  0.00    -0.198 A  
BRANCH   8   9
HETATM    9  C   UNL     1     -10.782   8.123  69.696  1.00  0.00    -0.195 A  
HETATM   10  C   UNL     1     -11.301   9.078  70.579  1.00  0.00    -0.282 A  
HETATM   11  C   UNL     1     -11.786   6.390  70.888  1.00  0.00    -0.303 A  
HETATM   12  C   UNL     1     -12.069   8.605  71.664  1.00  0.00    -0.385 A  
HETATM   13  N   UNL     1     -11.029   6.793  69.846  1.00  0.00    -0.270 NA 
HETATM   14  C   UNL     1     -12.327   7.251  71.817  1.00  0.00    -0.375 A  
BRANCH  10  15
HETATM   15  C   UNL     1     -11.083  10.565  70.504  1.00  0.00    -0.187 C  
BRANCH  15  16
HETATM   16  O   UNL     1     -12.159  11.144  69.778  1.00  0.00    -0.315 OA 
BRANCH  16  17
HETATM   17  C   UNL     1     -11.910  12.109  68.843  1.00  0.00    -0.304 A  
HETATM   18  C   UNL     1     -11.479  11.841  67.536  1.00  0.00    -0.373 A  
HETATM   19  C   UNL     1     -11.330  12.873  66.604  1.00  0.00    -0.361 A  
HETATM   20  C   UNL     1     -11.582  14.192  66.968  1.00  0.00    -0.404 A  
HETATM   21  C   UNL     1     -11.982  14.478  68.272  1.00  0.00    -0.268 A  
HETATM   22  O   UNL     1     -12.197  15.782  68.629  1.00  0.00    -0.536 OA 
HETATM   23  C   UNL     1     -12.158  13.447  69.212  1.00  0.00    -0.312 A  
HETATM   24  C   UNL     1     -12.615  13.824  70.579  1.00  0.00    -0.291 C  
HETATM   25  H   UNL     1     -12.470  15.978  69.518  1.00  0.00     0.000 HD 
HETATM   26  O   UNL     1     -12.698  13.057  71.530  1.00  0.00    -0.330 OA 
ENDBRANCH  16  17
ENDBRANCH  15  16
ENDBRANCH  10  15
ENDBRANCH   8   9
ENDBRANCH   2   4
TORSDOF 5
ENDMDL
MODEL      164
REMARK 921   NORMALIZED FREE ENERGY PREDICTED BY IDOCK:   -4.89 KCAL/MOL
REMARK 922        TOTAL FREE ENERGY PREDICTED BY IDOCK:   -7.53 KCAL/MOL
REMARK 923 INTER-LIGAND FREE ENERGY PREDICTED BY IDOCK:   -7.37 KCAL/MOL
REMARK 924 INTRA-LIGAND FREE ENERGY PREDICTED BY IDOCK:   -0.17 KCAL/MOL
REMARK 927      BINDING AFFINITY PREDICTED BY RF-SCORE:    0.00 PKD
ROOT
HETATM    1  C   UNL     1     -11.710  16.267  68.999  1.00  0.00    -0.165 C  
HETATM    2  C   UNL     1     -11.471  15.007  69.835  1.00  0.00    -0.289 C  
HETATM    3  C   UNL     1     -10.292  15.219  70.794  1.00  0.00     0.198 C  
ENDROOT
BRANCH   2   4
HETATM    4  N   UNL     1     -12.661  14.607  70.590  1.00  0.00    -0.339 NA 
HETATM    5  N   UNL     1     -13.516  15.588  70.978  1.00  0.00    -0.549 NA 
HETATM    6  C   UNL     1     -14.281  15.002  71.891  1.00  0.00    -0.555 A  
HETATM    7  C   UNL     1     -13.969  13.644  72.053  1.00  0.00    -0.518 A  
HETATM    8  C   UNL     1     -12.975  13.366  71.126  1.00  0.00    -0.236 A  
BRANCH   8   9
HETATM    9  C   UNL     1     -12.429  12.085  70.662  1.00  0.00    -0.247 A  
HETATM   10  C   UNL     1     -11.964  11.794  69.374  1.00  0.00    -0.361 A  
HETATM   11  C   UNL     1     -11.696  10.021  71.457  1.00  0.00    -0.280 A  
HETATM   12  C   UNL     1     -11.370  10.530  69.172  1.00  0.00    -0.319 A  
HETATM   13  N   UNL     1     -12.290  11.209  71.694  1.00  0.00    -0.153 NA 
HETATM   14  C   UNL     1     -11.221   9.637  70.223  1.00  0.00    -0.324 A  
BRANCH  10  15
HETATM   15  C   UNL     1     -12.074  12.688  68.168  1.00  0.00    -0.075 C  
BRANCH  15  16
HETATM   16  O   UNL     1     -10.889  12.553  67.396  1.00  0.00    -0.230 OA 
BRANCH  16  17
HETATM   17  C   UNL     1     -10.968  12.461  66.034  1.00  0.00    -0.289 A  
HETATM   18  C   UNL     1     -12.043  12.947  65.277  1.00  0.00    -0.496 A  
HETATM   19  C   UNL     1     -12.016  12.898  63.879  1.00  0.00    -0.550 A  
HETATM   20  C   UNL     1     -10.929  12.339  63.216  1.00  0.00    -0.373 A  
HETATM   21  C   UNL     1      -9.865  11.824  63.955  1.00  0.00    -0.240 A  
HETATM   22  O   UNL     1      -8.814  11.248  63.294  1.00  0.00    -0.428 OA 
HETATM   23  C   UNL     1      -9.870  11.888  65.360  1.00  0.00    -0.258 A  
HETATM   24  C   UNL     1      -8.687  11.343  66.084  1.00  0.00    -0.153 C  
HETATM   25  H   UNL     1      -8.089  10.897  63.797  1.00  0.00     0.000 HD 
HETATM   26  O   UNL     1      -8.600  11.223  67.300  1.00  0.00    -0.137 OA 
ENDBRANCH  16  17
ENDBRANCH  15  16
ENDBRANCH  10  15
ENDBRANCH   8   9
ENDBRANCH   2   4
TORSDOF 5
ENDMDL
MODEL      165
REMARK 921   NORMALIZED FREE ENERGY PREDICTED BY IDOCK:   -4.89 KCAL/MOL
REMARK 922        TOTAL FREE ENERGY PREDICTED BY IDOCK:   -7.53 KCAL/MOL
REMARK 923 INTER-LIGAND FREE ENERGY PREDICTED BY IDOCK:   -6.32 KCAL/MOL
REMARK 924 INTRA-LIGAND FREE ENERGY PREDICTED BY IDOCK:   -1.21 KCAL/MOL
REMARK 927      BINDING AFFINITY PREDICTED BY RF-SCORE:    0.00 PKD
ROOT
HETATM    1  C   UNL     1      -6.448  17.787  65.713  1.00  0.00    -0.220 C  
HETATM    2  C   UNL     1      -7.312  16.890  66.604  1.00  0.00    -0.263 C  
HETATM    3  C   UNL     1      -6.496  16.385  67.802  1.00  0.00    -0.158 C  
ENDROOT
BRANCH   2   4
HETATM    4  N   UNL     1      -8.517  17.574  67.077  1.00  0.00    -0.227 NA 
HETATM    5  N   UNL     1      -8.352  18.714  67.796  1.00  0.00    -0.263 NA 
HETATM    6  C   UNL     1      -9.539  18.914  68.355  1.00  0.00    -0.369 A  
HETATM    7  C   UNL     1     -10.482  17.955  67.957  1.00  0.00    -0.390 A  
HETATM    8  C   UNL     1      -9.836  17.138  67.042  1.00  0.00    -0.276 A  
BRANCH   8   9
HETATM    9  C   UNL     1     -10.364  16.130  66.116  1.00  0.00    -0.339 A  
HETATM   10  C   UNL     1     -10.315  14.740  66.277  1.00  0.00    -0.305 A  
HETATM   11  C   UNL     1     -11.707  15.920  64.223  1.00  0.00    -0.132 A  
HETATM   12  C   UNL     1     -10.990  13.953  65.320  1.00  0.00    -0.331 A  
HETATM   13  N   UNL     1     -11.060  16.713  65.102  1.00  0.00    -0.357 NA 
HETATM   14  C   UNL     1     -11.704  14.545  64.289  1.00  0.00    -0.312 A  
BRANCH  10  15
HETATM   15  C   UNL     1      -9.572  13.999  67.357  1.00  0.00    -0.227 C  
BRANCH  15  16
HETATM   16  O   UNL     1      -9.684  12.605  67.107  1.00  0.00    -0.203 OA 
BRANCH  16  17
HETATM   17  C   UNL     1     -10.000  11.752  68.127  1.00  0.00    -0.194 A  
HETATM   18  C   UNL     1     -11.230  11.755  68.800  1.00  0.00    -0.308 A  
HETATM   19  C   UNL     1     -11.517  10.794  69.774  1.00  0.00    -0.386 A  
HETATM   20  C   UNL     1     -10.573   9.831  70.113  1.00  0.00    -0.337 A  
HETATM   21  C   UNL     1      -9.333   9.832  69.475  1.00  0.00    -0.213 A  
HETATM   22  O   UNL     1      -8.399   8.900  69.838  1.00  0.00    -0.115 OA 
HETATM   23  C   UNL     1      -9.040  10.779  68.477  1.00  0.00    -0.170 A  
HETATM   24  C   UNL     1      -7.707  10.703  67.818  1.00  0.00    -0.100 C  
HETATM   25  H   UNL     1      -7.555   8.900  69.404  1.00  0.00     0.000 HD 
HETATM   26  O   UNL     1      -7.267  11.523  67.022  1.00  0.00    -0.130 OA 
ENDBRANCH  16  17
ENDBRANCH  15  16
ENDBRANCH  10  15
ENDBRANCH   8   9
ENDBRANCH   2   4
TORSDOF 5
ENDMDL
MODEL      166
REMARK 921   NORMALIZED FREE ENERGY PREDICTED BY IDOCK:   -4.88 KCAL/MOL
REMARK 922        TOTAL FREE ENERGY PREDICTED BY IDOCK:   -7.52 KCAL/MOL
REMARK 923 INTER-LIGAND FREE ENERGY PREDICTED BY IDOCK:   -6.55 KCAL/MOL
REMARK 924 INTRA-LIGAND FREE ENERGY PREDICTED BY IDOCK:   -0.97 KCAL/MOL
REMARK 927      BINDING AFFINITY PREDICTED BY RF-SCORE:    0.00 PKD
ROOT
HETATM    1  C   UNL     1     -10.125   4.651  70.585  1.00  0.00    -0.261 C  
HETATM    2  C   UNL     1     -10.629   5.881  71.345  1.00  0.00    -0.252 C  
HETATM    3  C   UNL     1     -11.370   5.454  72.619  1.00  0.00    -0.327 C  
ENDROOT
BRANCH   2   4
HETATM    4  N   UNL     1      -9.546   6.805  71.686  1.00  0.00    -0.162 NA 
HETATM    5  N   UNL     1      -8.318   6.275  71.921  1.00  0.00    -0.117 NA 
HETATM    6  C   UNL     1      -7.652   7.258  72.513  1.00  0.00    -0.084 A  
HETATM    7  C   UNL     1      -8.413   8.433  72.608  1.00  0.00    -0.223 A  
HETATM    8  C   UNL     1      -9.617   8.162  71.975  1.00  0.00    -0.219 A  
BRANCH   8   9
HETATM    9  C   UNL     1     -10.698   9.058  71.548  1.00  0.00    -0.351 A  
HETATM   10  C   UNL     1     -10.716   9.856  70.398  1.00  0.00    -0.379 A  
HETATM   11  C   UNL     1     -12.913   9.600  72.029  1.00  0.00    -0.428 A  
HETATM   12  C   UNL     1     -11.908  10.556  70.115  1.00  0.00    -0.404 A  
HETATM   13  N   UNL     1     -11.789   8.926  72.351  1.00  0.00    -0.295 NA 
HETATM   14  C   UNL     1     -13.023  10.420  70.928  1.00  0.00    -0.475 A  
BRANCH  10  15
HETATM   15  C   UNL     1      -9.567  10.072  69.451  1.00  0.00    -0.222 C  
BRANCH  15  16
HETATM   16  O   UNL     1     -10.016  10.878  68.370  1.00  0.00    -0.166 OA 
BRANCH  16  17
HETATM   17  C   UNL     1      -9.452  12.104  68.153  1.00  0.00    -0.205 A  
HETATM   18  C   UNL     1      -8.206  12.496  68.662  1.00  0.00     0.001 A  
HETATM   19  C   UNL     1      -7.650  13.734  68.325  1.00  0.00    -0.129 A  
HETATM   20  C   UNL     1      -8.339  14.612  67.496  1.00  0.00    -0.203 A  
HETATM   21  C   UNL     1      -9.592  14.250  67.004  1.00  0.00    -0.257 A  
HETATM   22  O   UNL     1     -10.276  15.135  66.215  1.00  0.00    -0.264 OA 
HETATM   23  C   UNL     1     -10.152  13.000  67.318  1.00  0.00    -0.235 A  
HETATM   24  C   UNL     1     -11.483  12.668  66.734  1.00  0.00    -0.351 C  
HETATM   25  H   UNL     1     -11.130  14.889  65.880  1.00  0.00     0.000 HD 
HETATM   26  O   UNL     1     -12.145  11.675  67.009  1.00  0.00    -0.547 OA 
ENDBRANCH  16  17
ENDBRANCH  15  16
ENDBRANCH  10  15
ENDBRANCH   8   9
ENDBRANCH   2   4
TORSDOF 5
ENDMDL
MODEL      167
REMARK 921   NORMALIZED FREE ENERGY PREDICTED BY IDOCK:   -4.87 KCAL/MOL
REMARK 922        TOTAL FREE ENERGY PREDICTED BY IDOCK:   -7.51 KCAL/MOL
REMARK 923 INTER-LIGAND FREE ENERGY PREDICTED BY IDOCK:   -6.28 KCAL/MOL
REMARK 924 INTRA-LIGAND FREE ENERGY PREDICTED BY IDOCK:   -1.23 KCAL/MOL
REMARK 927      BINDING AFFINITY PREDICTED BY RF-SCORE:    0.00 PKD
ROOT
HETATM    1  C   UNL     1      -8.327   7.953  65.212  1.00  0.00    -0.140 C  
HETATM    2  C   UNL     1      -7.982   9.339  64.660  1.00  0.00    -0.125 C  
HETATM    3  C   UNL     1      -7.593   9.241  63.179  1.00  0.00    -0.108 C  
ENDROOT
BRANCH   2   4
HETATM    4  N   UNL     1      -9.082  10.292  64.823  1.00  0.00    -0.199 NA 
HETATM    5  N   UNL     1      -9.980  10.393  63.809  1.00  0.00    -0.253 NA 
HETATM    6  C   UNL     1     -10.632  11.520  64.071  1.00  0.00    -0.379 A  
HETATM    7  C   UNL     1     -10.208  12.112  65.269  1.00  0.00    -0.304 A  
HETATM    8  C   UNL     1      -9.263  11.252  65.810  1.00  0.00    -0.219 A  
BRANCH   8   9
HETATM    9  C   UNL     1      -8.656  11.212  67.145  1.00  0.00    -0.139 A  
HETATM   10  C   UNL     1      -9.074  10.432  68.230  1.00  0.00    -0.145 A  
HETATM   11  C   UNL     1      -6.766  11.922  68.309  1.00  0.00    -0.063 A  
HETATM   12  C   UNL     1      -8.275  10.459  69.392  1.00  0.00    -0.158 A  
HETATM   13  N   UNL     1      -7.509  11.944  67.183  1.00  0.00    -0.147 NA 
HETATM   14  C   UNL     1      -7.102  11.199  69.432  1.00  0.00    -0.110 A  
BRANCH  10  15
HETATM   15  C   UNL     1     -10.324   9.596  68.290  1.00  0.00    -0.204 C  
BRANCH  15  16
HETATM   16  O   UNL     1     -10.292   8.821  69.481  1.00  0.00    -0.204 OA 
BRANCH  16  17
HETATM   17  C   UNL     1     -11.310   8.921  70.388  1.00  0.00    -0.202 A  
HETATM   18  C   UNL     1     -11.791  10.136  70.895  1.00  0.00    -0.468 A  
HETATM   19  C   UNL     1     -12.895  10.168  71.753  1.00  0.00    -0.554 A  
HETATM   20  C   UNL     1     -13.520   8.988  72.141  1.00  0.00    -0.514 A  
HETATM   21  C   UNL     1     -13.035   7.769  71.669  1.00  0.00    -0.345 A  
HETATM   22  O   UNL     1     -13.637   6.611  72.082  1.00  0.00    -0.520 OA 
HETATM   23  C   UNL     1     -11.940   7.724  70.788  1.00  0.00    -0.168 A  
HETATM   24  C   UNL     1     -11.493   6.389  70.302  1.00  0.00    -0.402 C  
HETATM   25  H   UNL     1     -13.307   5.780  71.761  1.00  0.00     0.000 HD 
HETATM   26  O   UNL     1     -10.490   6.183  69.630  1.00  0.00    -0.205 OA 
ENDBRANCH  16  17
ENDBRANCH  15  16
ENDBRANCH  10  15
ENDBRANCH   8   9
ENDBRANCH   2   4
TORSDOF 5
ENDMDL
MODEL      168
REMARK 921   NORMALIZED FREE ENERGY PREDICTED BY IDOCK:   -4.86 KCAL/MOL
REMARK 922        TOTAL FREE ENERGY PREDICTED BY IDOCK:   -7.50 KCAL/MOL
REMARK 923 INTER-LIGAND FREE ENERGY PREDICTED BY IDOCK:   -6.81 KCAL/MOL
REMARK 924 INTRA-LIGAND FREE ENERGY PREDICTED BY IDOCK:   -0.68 KCAL/MOL
REMARK 927      BINDING AFFINITY PREDICTED BY RF-SCORE:    0.00 PKD
ROOT
HETATM    1  C   UNL     1     -11.265   6.080  70.695  1.00  0.00    -0.347 C  
HETATM    2  C   UNL     1     -10.187   6.408  69.658  1.00  0.00    -0.189 C  
HETATM    3  C   UNL     1     -10.828   6.970  68.382  1.00  0.00    -0.191 C  
ENDROOT
BRANCH   2   4
HETATM    4  N   UNL     1      -9.192   7.351  70.171  1.00  0.00    -0.152 NA 
HETATM    5  N   UNL     1      -7.882   7.034  70.004  1.00  0.00    -0.111 NA 
HETATM    6  C   UNL     1      -7.246   7.858  70.829  1.00  0.00    -0.053 A  
HETATM    7  C   UNL     1      -8.122   8.740  71.478  1.00  0.00    -0.174 A  
HETATM    8  C   UNL     1      -9.384   8.472  70.969  1.00  0.00    -0.185 A  
BRANCH   8   9
HETATM    9  C   UNL     1     -10.642   9.220  71.080  1.00  0.00    -0.332 A  
HETATM   10  C   UNL     1     -11.138  10.160  70.170  1.00  0.00    -0.378 A  
HETATM   11  C   UNL     1     -12.613   9.296  72.321  1.00  0.00    -0.332 A  
HETATM   12  C   UNL     1     -12.427  10.678  70.412  1.00  0.00    -0.421 A  
HETATM   13  N   UNL     1     -11.376   8.787  72.142  1.00  0.00    -0.360 NA 
HETATM   14  C   UNL     1     -13.181  10.235  71.489  1.00  0.00    -0.484 A  
BRANCH  10  15
HETATM   15  C   UNL     1     -10.406  10.706  68.973  1.00  0.00    -0.218 C  
BRANCH  15  16
HETATM   16  O   UNL     1     -11.001  11.944  68.605  1.00  0.00    -0.204 OA 
BRANCH  16  17
HETATM   17  C   UNL     1     -10.910  12.388  67.316  1.00  0.00    -0.243 A  
HETATM   18  C   UNL     1     -11.001  11.556  66.191  1.00  0.00    -0.320 A  
HETATM   19  C   UNL     1     -10.989  12.092  64.899  1.00  0.00    -0.356 A  
HETATM   20  C   UNL     1     -10.859  13.463  64.708  1.00  0.00    -0.387 A  
HETATM   21  C   UNL     1     -10.738  14.302  65.815  1.00  0.00    -0.305 A  
HETATM   22  O   UNL     1     -10.579  15.646  65.614  1.00  0.00    -0.334 OA 
HETATM   23  C   UNL     1     -10.771  13.778  67.119  1.00  0.00    -0.283 A  
HETATM   24  C   UNL     1     -10.665  14.736  68.255  1.00  0.00    -0.242 C  
HETATM   25  H   UNL     1     -10.496  16.218  66.368  1.00  0.00     0.000 HD 
HETATM   26  O   UNL     1     -10.562  14.421  69.434  1.00  0.00    -0.212 OA 
ENDBRANCH  16  17
ENDBRANCH  15  16
ENDBRANCH  10  15
ENDBRANCH   8   9
ENDBRANCH   2   4
TORSDOF 5
ENDMDL
MODEL      169
REMARK 921   NORMALIZED FREE ENERGY PREDICTED BY IDOCK:   -4.86 KCAL/MOL
REMARK 922        TOTAL FREE ENERGY PREDICTED BY IDOCK:   -7.50 KCAL/MOL
REMARK 923 INTER-LIGAND FREE ENERGY PREDICTED BY IDOCK:   -6.40 KCAL/MOL
REMARK 924 INTRA-LIGAND FREE ENERGY PREDICTED BY IDOCK:   -1.10 KCAL/MOL
REMARK 927      BINDING AFFINITY PREDICTED BY RF-SCORE:    0.00 PKD
ROOT
HETATM    1  C   UNL     1      -6.542   5.067  68.946  1.00  0.00    -0.048 C  
HETATM    2  C   UNL     1      -7.709   5.937  69.422  1.00  0.00    -0.093 C  
HETATM    3  C   UNL     1      -7.243   7.383  69.638  1.00  0.00    -0.078 C  
ENDROOT
BRANCH   2   4
HETATM    4  N   UNL     1      -8.837   5.913  68.489  1.00  0.00    -0.112 NA 
HETATM    5  N   UNL     1      -8.689   5.198  67.344  1.00  0.00    -0.104 NA 
HETATM    6  C   UNL     1      -9.686   5.617  66.574  1.00  0.00    -0.160 A  
HETATM    7  C   UNL     1     -10.508   6.546  67.229  1.00  0.00    -0.337 A  
HETATM    8  C   UNL     1     -10.007   6.660  68.517  1.00  0.00    -0.150 A  
BRANCH   8   9
HETATM    9  C   UNL     1     -10.580   7.282  69.717  1.00  0.00    -0.235 A  
HETATM   10  C   UNL     1     -10.671   8.654  69.984  1.00  0.00    -0.233 A  
HETATM   11  C   UNL     1     -11.835   6.771  71.613  1.00  0.00    -0.326 A  
HETATM   12  C   UNL     1     -11.366   9.041  71.149  1.00  0.00    -0.375 A  
HETATM   13  N   UNL     1     -11.163   6.351  70.520  1.00  0.00    -0.326 NA 
HETATM   14  C   UNL     1     -11.966   8.095  71.967  1.00  0.00    -0.390 A  
BRANCH  10  15
HETATM   15  C   UNL     1     -10.059   9.759  69.165  1.00  0.00    -0.192 C  
BRANCH  15  16
HETATM   16  O   UNL     1     -10.956  10.091  68.114  1.00  0.00    -0.255 OA 
BRANCH  16  17
HETATM   17  C   UNL     1     -11.103  11.394  67.729  1.00  0.00    -0.265 A  
HETATM   18  C   UNL     1     -11.717  12.380  68.514  1.00  0.00    -0.373 A  
HETATM   19  C   UNL     1     -11.753  13.713  68.094  1.00  0.00    -0.392 A  
HETATM   20  C   UNL     1     -11.201  14.081  66.872  1.00  0.00    -0.323 A  
HETATM   21  C   UNL     1     -10.612  13.108  66.065  1.00  0.00    -0.281 A  
HETATM   22  O   UNL     1     -10.099  13.475  64.850  1.00  0.00    -0.528 OA 
HETATM   23  C   UNL     1     -10.549  11.768  66.486  1.00  0.00    -0.289 A  
HETATM   24  C   UNL     1      -9.880  10.787  65.586  1.00  0.00    -0.245 C  
HETATM   25  H   UNL     1      -9.698  12.813  64.300  1.00  0.00     0.000 HD 
HETATM   26  O   UNL     1      -9.853   9.576  65.761  1.00  0.00    -0.285 OA 
ENDBRANCH  16  17
ENDBRANCH  15  16
ENDBRANCH  10  15
ENDBRANCH   8   9
ENDBRANCH   2   4
TORSDOF 5
ENDMDL
MODEL      170
REMARK 921   NORMALIZED FREE ENERGY PREDICTED BY IDOCK:   -4.84 KCAL/MOL
REMARK 922        TOTAL FREE ENERGY PREDICTED BY IDOCK:   -7.47 KCAL/MOL
REMARK 923 INTER-LIGAND FREE ENERGY PREDICTED BY IDOCK:   -6.79 KCAL/MOL
REMARK 924 INTRA-LIGAND FREE ENERGY PREDICTED BY IDOCK:   -0.68 KCAL/MOL
REMARK 927      BINDING AFFINITY PREDICTED BY RF-SCORE:    0.00 PKD
ROOT
HETATM    1  C   UNL     1     -10.897   7.960  69.766  1.00  0.00    -0.202 C  
HETATM    2  C   UNL     1      -9.643   7.650  68.945  1.00  0.00    -0.150 C  
HETATM    3  C   UNL     1     -10.005   7.470  67.465  1.00  0.00    -0.228 C  
ENDROOT
BRANCH   2   4
HETATM    4  N   UNL     1      -8.618   8.687  69.083  1.00  0.00    -0.128 NA 
HETATM    5  N   UNL     1      -7.590   8.445  69.937  1.00  0.00    -0.074 NA 
HETATM    6  C   UNL     1      -7.030   9.636  70.110  1.00  0.00    -0.105 A  
HETATM    7  C   UNL     1      -7.645  10.629  69.333  1.00  0.00    -0.135 A  
HETATM    8  C   UNL     1      -8.619   9.984  68.586  1.00  0.00    -0.123 A  
BRANCH   8   9
HETATM    9  C   UNL     1      -9.408  10.444  67.437  1.00  0.00    -0.145 A  
HETATM   10  C   UNL     1     -10.714  10.947  67.468  1.00  0.00    -0.299 A  
HETATM   11  C   UNL     1      -9.200  10.963  65.175  1.00  0.00    -0.214 A  
HETATM   12  C   UNL     1     -11.245  11.444  66.259  1.00  0.00    -0.228 A  
HETATM   13  N   UNL     1      -8.656  10.459  66.302  1.00  0.00    -0.138 NA 
HETATM   14  C   UNL     1     -10.480  11.466  65.103  1.00  0.00    -0.351 A  
BRANCH  10  15
HETATM   15  C   UNL     1     -11.626  10.971  68.666  1.00  0.00    -0.316 C  
BRANCH  15  16
HETATM   16  O   UNL     1     -11.212  12.023  69.528  1.00  0.00    -0.226 OA 
BRANCH  16  17
HETATM   17  C   UNL     1     -12.117  12.618  70.361  1.00  0.00    -0.300 A  
HETATM   18  C   UNL     1     -12.809  11.944  71.377  1.00  0.00    -0.411 A  
HETATM   19  C   UNL     1     -13.654  12.636  72.251  1.00  0.00    -0.508 A  
HETATM   20  C   UNL     1     -13.845  14.006  72.108  1.00  0.00    -0.627 A  
HETATM   21  C   UNL     1     -13.188  14.686  71.084  1.00  0.00    -0.372 A  
HETATM   22  O   UNL     1     -13.406  16.029  70.932  1.00  0.00    -0.546 OA 
HETATM   23  C   UNL     1     -12.317  14.006  70.213  1.00  0.00    -0.425 A  
HETATM   24  C   UNL     1     -11.627  14.802  69.159  1.00  0.00    -0.303 C  
HETATM   25  H   UNL     1     -12.959  16.493  70.234  1.00  0.00     0.000 HD 
HETATM   26  O   UNL     1     -10.937  14.334  68.262  1.00  0.00    -0.236 OA 
ENDBRANCH  16  17
ENDBRANCH  15  16
ENDBRANCH  10  15
ENDBRANCH   8   9
ENDBRANCH   2   4
TORSDOF 5
ENDMDL
MODEL      171
REMARK 921   NORMALIZED FREE ENERGY PREDICTED BY IDOCK:   -4.84 KCAL/MOL
REMARK 922        TOTAL FREE ENERGY PREDICTED BY IDOCK:   -7.47 KCAL/MOL
REMARK 923 INTER-LIGAND FREE ENERGY PREDICTED BY IDOCK:   -6.57 KCAL/MOL
REMARK 924 INTRA-LIGAND FREE ENERGY PREDICTED BY IDOCK:   -0.90 KCAL/MOL
REMARK 927      BINDING AFFINITY PREDICTED BY RF-SCORE:    0.00 PKD
ROOT
HETATM    1  C   UNL     1     -10.719  13.170  64.330  1.00  0.00    -0.431 C  
HETATM    2  C   UNL     1     -11.512  14.387  64.817  1.00  0.00    -0.402 C  
HETATM    3  C   UNL     1     -12.783  13.937  65.549  1.00  0.00    -0.536 C  
ENDROOT
BRANCH   2   4
HETATM    4  N   UNL     1     -10.717  15.254  65.689  1.00  0.00    -0.344 NA 
HETATM    5  N   UNL     1     -10.258  16.420  65.166  1.00  0.00    -0.567 NA 
HETATM    6  C   UNL     1      -9.330  16.815  66.029  1.00  0.00    -0.210 A  
HETATM    7  C   UNL     1      -9.228  15.952  67.130  1.00  0.00    -0.222 A  
HETATM    8  C   UNL     1     -10.207  14.986  66.953  1.00  0.00    -0.258 A  
BRANCH   8   9
HETATM    9  C   UNL     1     -10.738  13.979  67.878  1.00  0.00    -0.240 A  
HETATM   10  C   UNL     1     -10.279  12.665  68.036  1.00  0.00    -0.230 A  
HETATM   11  C   UNL     1     -12.188  13.750  69.689  1.00  0.00    -0.305 A  
HETATM   12  C   UNL     1     -10.858  11.898  69.068  1.00  0.00    -0.235 A  
HETATM   13  N   UNL     1     -11.679  14.517  68.702  1.00  0.00    -0.317 NA 
HETATM   14  C   UNL     1     -11.812  12.445  69.913  1.00  0.00    -0.376 A  
BRANCH  10  15
HETATM   15  C   UNL     1      -9.251  11.977  67.178  1.00  0.00    -0.190 C  
BRANCH  15  16
HETATM   16  O   UNL     1      -9.734  10.682  66.845  1.00  0.00    -0.171 OA 
BRANCH  16  17
HETATM   17  C   UNL     1      -9.067   9.920  65.928  1.00  0.00    -0.162 A  
HETATM   18  C   UNL     1      -8.219  10.443  64.942  1.00  0.00    -0.145 A  
HETATM   19  C   UNL     1      -7.499   9.597  64.093  1.00  0.00    -0.128 A  
HETATM   20  C   UNL     1      -7.634   8.216  64.194  1.00  0.00    -0.128 A  
HETATM   21  C   UNL     1      -8.497   7.681  65.149  1.00  0.00    -0.043 A  
HETATM   22  O   UNL     1      -8.648   6.322  65.220  1.00  0.00    -0.240 OA 
HETATM   23  C   UNL     1      -9.209   8.520  66.024  1.00  0.00    -0.262 A  
HETATM   24  C   UNL     1     -10.092   7.878  67.039  1.00  0.00    -0.277 C  
HETATM   25  H   UNL     1      -9.236   5.957  65.871  1.00  0.00     0.000 HD 
HETATM   26  O   UNL     1     -10.858   8.475  67.785  1.00  0.00    -0.148 OA 
ENDBRANCH  16  17
ENDBRANCH  15  16
ENDBRANCH  10  15
ENDBRANCH   8   9
ENDBRANCH   2   4
TORSDOF 5
ENDMDL
MODEL      172
REMARK 921   NORMALIZED FREE ENERGY PREDICTED BY IDOCK:   -4.84 KCAL/MOL
REMARK 922        TOTAL FREE ENERGY PREDICTED BY IDOCK:   -7.47 KCAL/MOL
REMARK 923 INTER-LIGAND FREE ENERGY PREDICTED BY IDOCK:   -7.49 KCAL/MOL
REMARK 924 INTRA-LIGAND FREE ENERGY PREDICTED BY IDOCK:    0.02 KCAL/MOL
REMARK 927      BINDING AFFINITY PREDICTED BY RF-SCORE:    0.00 PKD
ROOT
HETATM    1  C   UNL     1     -12.414  15.275  73.928  1.00  0.00    -0.752 C  
HETATM    2  C   UNL     1     -13.045  14.782  72.622  1.00  0.00    -0.441 C  
HETATM    3  C   UNL     1     -14.335  15.560  72.328  1.00  0.00    -0.556 C  
ENDROOT
BRANCH   2   4
HETATM    4  N   UNL     1     -12.128  14.892  71.486  1.00  0.00    -0.330 NA 
HETATM    5  N   UNL     1     -11.500  16.081  71.298  1.00  0.00    -0.425 NA 
HETATM    6  C   UNL     1     -11.024  16.001  70.062  1.00  0.00    -0.365 A  
HETATM    7  C   UNL     1     -11.285  14.754  69.474  1.00  0.00    -0.305 A  
HETATM    8  C   UNL     1     -11.920  13.996  70.446  1.00  0.00    -0.328 A  
BRANCH   8   9
HETATM    9  C   UNL     1     -12.211  12.559  70.502  1.00  0.00    -0.297 A  
HETATM   10  C   UNL     1     -11.714  11.571  69.643  1.00  0.00    -0.419 A  
HETATM   11  C   UNL     1     -13.201  10.952  71.869  1.00  0.00    -0.403 A  
HETATM   12  C   UNL     1     -12.031  10.230  69.947  1.00  0.00    -0.222 A  
HETATM   13  N   UNL     1     -12.942  12.250  71.609  1.00  0.00    -0.367 NA 
HETATM   14  C   UNL     1     -12.770   9.912  71.077  1.00  0.00    -0.425 A  
BRANCH  10  15
HETATM   15  C   UNL     1     -10.905  11.807  68.396  1.00  0.00    -0.223 C  
BRANCH  15  16
HETATM   16  O   UNL     1      -9.606  11.264  68.591  1.00  0.00    -0.196 OA 
BRANCH  16  17
HETATM   17  C   UNL     1      -9.056  10.453  67.639  1.00  0.00    -0.138 A  
HETATM   18  C   UNL     1      -9.494   9.148  67.371  1.00  0.00    -0.177 A  
HETATM   19  C   UNL     1      -8.943   8.407  66.322  1.00  0.00    -0.213 A  
HETATM   20  C   UNL     1      -7.927   8.944  65.539  1.00  0.00    -0.107 A  
HETATM   21  C   UNL     1      -7.458  10.229  65.810  1.00  0.00    -0.144 A  
HETATM   22  O   UNL     1      -6.436  10.736  65.054  1.00  0.00    -0.354 OA 
HETATM   23  C   UNL     1      -8.020  10.993  66.848  1.00  0.00    -0.143 A  
HETATM   24  C   UNL     1      -7.489  12.368  67.063  1.00  0.00    -0.034 C  
HETATM   25  H   UNL     1      -6.117  11.611  65.239  1.00  0.00     0.000 HD 
HETATM   26  O   UNL     1      -7.794  13.103  67.995  1.00  0.00    -0.122 OA 
ENDBRANCH  16  17
ENDBRANCH  15  16
ENDBRANCH  10  15
ENDBRANCH   8   9
ENDBRANCH   2   4
TORSDOF 5
ENDMDL
MODEL      173
REMARK 921   NORMALIZED FREE ENERGY PREDICTED BY IDOCK:   -4.83 KCAL/MOL
REMARK 922        TOTAL FREE ENERGY PREDICTED BY IDOCK:   -7.45 KCAL/MOL
REMARK 923 INTER-LIGAND FREE ENERGY PREDICTED BY IDOCK:   -6.69 KCAL/MOL
REMARK 924 INTRA-LIGAND FREE ENERGY PREDICTED BY IDOCK:   -0.76 KCAL/MOL
REMARK 927      BINDING AFFINITY PREDICTED BY RF-SCORE:    0.00 PKD
ROOT
HETATM    1  C   UNL     1      -9.757  15.920  67.875  1.00  0.00    -0.216 C  
HETATM    2  C   UNL     1      -9.451  14.949  66.731  1.00  0.00    -0.252 C  
HETATM    3  C   UNL     1      -8.701  13.720  67.262  1.00  0.00    -0.226 C  
ENDROOT
BRANCH   2   4
HETATM    4  N   UNL     1     -10.661  14.526  66.023  1.00  0.00    -0.297 NA 
HETATM    5  N   UNL     1     -10.795  14.907  64.727  1.00  0.00    -0.392 NA 
HETATM    6  C   UNL     1     -12.077  14.686  64.460  1.00  0.00    -0.475 A  
HETATM    7  C   UNL     1     -12.754  14.114  65.546  1.00  0.00    -0.468 A  
HETATM    8  C   UNL     1     -11.800  13.918  66.534  1.00  0.00    -0.414 A  
BRANCH   8   9
HETATM    9  C   UNL     1     -11.856  13.146  67.780  1.00  0.00    -0.348 A  
HETATM   10  C   UNL     1     -11.590  11.779  67.929  1.00  0.00    -0.377 A  
HETATM   11  C   UNL     1     -12.037  13.421  70.088  1.00  0.00    -0.344 A  
HETATM   12  C   UNL     1     -11.588  11.260  69.241  1.00  0.00    -0.390 A  
HETATM   13  N   UNL     1     -12.070  13.959  68.851  1.00  0.00    -0.353 NA 
HETATM   14  C   UNL     1     -11.800  12.087  70.334  1.00  0.00    -0.302 A  
BRANCH  10  15
HETATM   15  C   UNL     1     -11.347  10.797  66.815  1.00  0.00     0.176 C  
BRANCH  15  16
HETATM   16  O   UNL     1     -10.156  11.171  66.135  1.00  0.00    -0.222 OA 
BRANCH  16  17
HETATM   17  C   UNL     1      -9.262  10.212  65.749  1.00  0.00    -0.178 A  
HETATM   18  C   UNL     1      -8.488   9.457  66.640  1.00  0.00    -0.130 A  
HETATM   19  C   UNL     1      -7.658   8.430  66.177  1.00  0.00    -0.089 A  
HETATM   20  C   UNL     1      -7.566   8.159  64.816  1.00  0.00    -0.101 A  
HETATM   21  C   UNL     1      -8.306   8.921  63.914  1.00  0.00    -0.159 A  
HETATM   22  O   UNL     1      -8.185   8.667  62.574  1.00  0.00    -0.173 OA 
HETATM   23  C   UNL     1      -9.161   9.941  64.368  1.00  0.00    -0.317 A  
HETATM   24  C   UNL     1      -9.944  10.696  63.349  1.00  0.00    -0.268 C  
HETATM   25  H   UNL     1      -8.689   9.186  61.959  1.00  0.00     0.000 HD 
HETATM   26  O   UNL     1     -10.635  11.681  63.580  1.00  0.00    -0.372 OA 
ENDBRANCH  16  17
ENDBRANCH  15  16
ENDBRANCH  10  15
ENDBRANCH   8   9
ENDBRANCH   2   4
TORSDOF 5
ENDMDL
MODEL      174
REMARK 921   NORMALIZED FREE ENERGY PREDICTED BY IDOCK:   -4.82 KCAL/MOL
REMARK 922        TOTAL FREE ENERGY PREDICTED BY IDOCK:   -7.45 KCAL/MOL
REMARK 923 INTER-LIGAND FREE ENERGY PREDICTED BY IDOCK:   -6.39 KCAL/MOL
REMARK 924 INTRA-LIGAND FREE ENERGY PREDICTED BY IDOCK:   -1.05 KCAL/MOL
REMARK 927      BINDING AFFINITY PREDICTED BY RF-SCORE:    0.00 PKD
ROOT
HETATM    1  C   UNL     1      -7.938   8.177  73.911  1.00  0.00    -0.277 C  
HETATM    2  C   UNL     1      -8.476   8.088  72.480  1.00  0.00    -0.162 C  
HETATM    3  C   UNL     1      -7.349   7.715  71.509  1.00  0.00    -0.071 C  
ENDROOT
BRANCH   2   4
HETATM    4  N   UNL     1      -9.575   7.128  72.358  1.00  0.00    -0.145 NA 
HETATM    5  N   UNL     1      -9.344   5.855  72.769  1.00  0.00    -0.146 NA 
HETATM    6  C   UNL     1     -10.350   5.163  72.247  1.00  0.00    -0.211 A  
HETATM    7  C   UNL     1     -11.257   5.983  71.559  1.00  0.00    -0.326 A  
HETATM    8  C   UNL     1     -10.799   7.282  71.720  1.00  0.00    -0.224 A  
BRANCH   8   9
HETATM    9  C   UNL     1     -11.447   8.569  71.441  1.00  0.00    -0.287 A  
HETATM   10  C   UNL     1     -11.208   9.404  70.344  1.00  0.00    -0.309 A  
HETATM   11  C   UNL     1     -13.222   9.906  72.145  1.00  0.00    -0.415 A  
HETATM   12  C   UNL     1     -12.028  10.544  70.208  1.00  0.00    -0.411 A  
HETATM   13  N   UNL     1     -12.450   8.814  72.329  1.00  0.00    -0.387 NA 
HETATM   14  C   UNL     1     -13.054  10.794  71.107  1.00  0.00    -0.381 A  
BRANCH  10  15
HETATM   15  C   UNL     1     -10.126   9.225  69.313  1.00  0.00    -0.200 C  
BRANCH  15  16
HETATM   16  O   UNL     1     -10.737   9.059  68.041  1.00  0.00    -0.208 OA 
BRANCH  16  17
HETATM   17  C   UNL     1      -9.961   8.953  66.920  1.00  0.00    -0.247 A  
HETATM   18  C   UNL     1      -9.086   7.888  66.670  1.00  0.00    -0.199 A  
HETATM   19  C   UNL     1      -8.390   7.800  65.460  1.00  0.00    -0.151 A  
HETATM   20  C   UNL     1      -8.535   8.788  64.492  1.00  0.00    -0.158 A  
HETATM   21  C   UNL     1      -9.378   9.870  64.737  1.00  0.00    -0.278 A  
HETATM   22  O   UNL     1      -9.489  10.853  63.791  1.00  0.00    -0.231 OA 
HETATM   23  C   UNL     1     -10.101   9.958  65.940  1.00  0.00    -0.316 A  
HETATM   24  C   UNL     1     -11.006  11.128  66.123  1.00  0.00    -0.138 C  
HETATM   25  H   UNL     1     -10.064  11.591  63.958  1.00  0.00     0.000 HD 
HETATM   26  O   UNL     1     -11.604  11.401  67.156  1.00  0.00    -0.519 OA 
ENDBRANCH  16  17
ENDBRANCH  15  16
ENDBRANCH  10  15
ENDBRANCH   8   9
ENDBRANCH   2   4
TORSDOF 5
ENDMDL
MODEL      175
REMARK 921   NORMALIZED FREE ENERGY PREDICTED BY IDOCK:   -4.81 KCAL/MOL
REMARK 922        TOTAL FREE ENERGY PREDICTED BY IDOCK:   -7.43 KCAL/MOL
REMARK 923 INTER-LIGAND FREE ENERGY PREDICTED BY IDOCK:   -6.63 KCAL/MOL
REMARK 924 INTRA-LIGAND FREE ENERGY PREDICTED BY IDOCK:   -0.80 KCAL/MOL
REMARK 927      BINDING AFFINITY PREDICTED BY RF-SCORE:    0.00 PKD
ROOT
HETATM    1  C   UNL     1      -9.758  15.920  67.875  1.00  0.00    -0.216 C  
HETATM    2  C   UNL     1      -9.441  14.937  66.745  1.00  0.00    -0.252 C  
HETATM    3  C   UNL     1      -8.695  13.714  67.295  1.00  0.00    -0.223 C  
ENDROOT
BRANCH   2   4
HETATM    4  N   UNL     1     -10.644  14.505  66.031  1.00  0.00    -0.297 NA 
HETATM    5  N   UNL     1     -10.761  14.861  64.725  1.00  0.00    -0.390 NA 
HETATM    6  C   UNL     1     -12.040  14.641  64.448  1.00  0.00    -0.462 A  
HETATM    7  C   UNL     1     -12.733  14.092  65.537  1.00  0.00    -0.517 A  
HETATM    8  C   UNL     1     -11.792  13.911  66.539  1.00  0.00    -0.414 A  
BRANCH   8   9
HETATM    9  C   UNL     1     -11.865  13.163  67.800  1.00  0.00    -0.348 A  
HETATM   10  C   UNL     1     -11.595  11.802  67.980  1.00  0.00    -0.386 A  
HETATM   11  C   UNL     1     -12.089  13.483  70.097  1.00  0.00    -0.354 A  
HETATM   12  C   UNL     1     -11.613  11.308  69.302  1.00  0.00    -0.390 A  
HETATM   13  N   UNL     1     -12.103  13.997  68.850  1.00  0.00    -0.347 NA 
HETATM   14  C   UNL     1     -11.849  12.156  70.374  1.00  0.00    -0.277 A  
BRANCH  10  15
HETATM   15  C   UNL     1     -11.327  10.799  66.890  1.00  0.00     0.100 C  
BRANCH  15  16
HETATM   16  O   UNL     1     -10.079  10.172  67.150  1.00  0.00    -0.189 OA 
BRANCH  16  17
HETATM   17  C   UNL     1      -9.941   8.824  66.967  1.00  0.00    -0.240 A  
HETATM   18  C   UNL     1     -10.568   7.857  67.765  1.00  0.00    -0.244 A  
HETATM   19  C   UNL     1     -10.453   6.496  67.465  1.00  0.00    -0.297 A  
HETATM   20  C   UNL     1      -9.690   6.076  66.381  1.00  0.00    -0.158 A  
HETATM   21  C   UNL     1      -9.035   7.023  65.595  1.00  0.00     0.061 A  
HETATM   22  O   UNL     1      -8.261   6.598  64.550  1.00  0.00    -0.241 OA 
HETATM   23  C   UNL     1      -9.161   8.396  65.873  1.00  0.00    -0.225 A  
HETATM   24  C   UNL     1      -8.457   9.354  64.974  1.00  0.00    -0.159 C  
HETATM   25  H   UNL     1      -7.815   7.243  64.014  1.00  0.00     0.000 HD 
HETATM   26  O   UNL     1      -8.377  10.562  65.157  1.00  0.00    -0.164 OA 
ENDBRANCH  16  17
ENDBRANCH  15  16
ENDBRANCH  10  15
ENDBRANCH   8   9
ENDBRANCH   2   4
TORSDOF 5
ENDMDL
MODEL      176
REMARK 921   NORMALIZED FREE ENERGY PREDICTED BY IDOCK:   -4.79 KCAL/MOL
REMARK 922        TOTAL FREE ENERGY PREDICTED BY IDOCK:   -7.41 KCAL/MOL
REMARK 923 INTER-LIGAND FREE ENERGY PREDICTED BY IDOCK:   -7.02 KCAL/MOL
REMARK 924 INTRA-LIGAND FREE ENERGY PREDICTED BY IDOCK:   -0.39 KCAL/MOL
REMARK 927      BINDING AFFINITY PREDICTED BY RF-SCORE:    0.00 PKD
ROOT
HETATM    1  C   UNL     1      -7.145  14.137  68.008  1.00  0.00    -0.148 C  
HETATM    2  C   UNL     1      -8.536  14.234  68.642  1.00  0.00    -0.142 C  
HETATM    3  C   UNL     1      -8.500  15.159  69.865  1.00  0.00     0.198 C  
ENDROOT
BRANCH   2   4
HETATM    4  N   UNL     1      -9.547  14.705  67.693  1.00  0.00    -0.211 NA 
HETATM    5  N   UNL     1      -9.148  14.945  66.417  1.00  0.00    -0.278 NA 
HETATM    6  C   UNL     1     -10.144  15.652  65.898  1.00  0.00    -0.353 A  
HETATM    7  C   UNL     1     -11.204  15.819  66.801  1.00  0.00    -0.021 A  
HETATM    8  C   UNL     1     -10.852  15.111  67.941  1.00  0.00    -0.291 A  
BRANCH   8   9
HETATM    9  C   UNL     1     -11.648  14.719  69.110  1.00  0.00    -0.303 A  
HETATM   10  C   UNL     1     -11.902  13.414  69.547  1.00  0.00    -0.391 A  
HETATM   11  C   UNL     1     -12.663  15.614  71.007  1.00  0.00    -0.460 A  
HETATM   12  C   UNL     1     -12.597  13.264  70.766  1.00  0.00    -0.357 A  
HETATM   13  N   UNL     1     -12.019  15.808  69.837  1.00  0.00    -0.353 NA 
HETATM   14  C   UNL     1     -12.971  14.371  71.512  1.00  0.00    -0.406 A  
BRANCH  10  15
HETATM   15  C   UNL     1     -11.540  12.148  68.817  1.00  0.00    -0.327 C  
BRANCH  15  16
HETATM   16  O   UNL     1     -11.320  12.463  67.449  1.00  0.00    -0.280 OA 
BRANCH  16  17
HETATM   17  C   UNL     1     -10.586  11.618  66.664  1.00  0.00    -0.243 A  
HETATM   18  C   UNL     1      -9.542  10.813  67.141  1.00  0.00    -0.185 A  
HETATM   19  C   UNL     1      -8.893   9.906  66.297  1.00  0.00    -0.160 A  
HETATM   20  C   UNL     1      -9.255   9.808  64.958  1.00  0.00    -0.307 A  
HETATM   21  C   UNL     1     -10.270  10.623  64.461  1.00  0.00    -0.329 A  
HETATM   22  O   UNL     1     -10.598  10.541  63.134  1.00  0.00    -0.494 OA 
HETATM   23  C   UNL     1     -10.947  11.522  65.304  1.00  0.00    -0.291 A  
HETATM   24  C   UNL     1     -12.041  12.342  64.711  1.00  0.00    -0.416 C  
HETATM   25  H   UNL     1     -11.290  11.096  62.794  1.00  0.00     0.000 HD 
HETATM   26  O   UNL     1     -12.636  13.244  65.286  1.00  0.00    -0.472 OA 
ENDBRANCH  16  17
ENDBRANCH  15  16
ENDBRANCH  10  15
ENDBRANCH   8   9
ENDBRANCH   2   4
TORSDOF 5
ENDMDL
MODEL      177
REMARK 921   NORMALIZED FREE ENERGY PREDICTED BY IDOCK:   -4.79 KCAL/MOL
REMARK 922        TOTAL FREE ENERGY PREDICTED BY IDOCK:   -7.41 KCAL/MOL
REMARK 923 INTER-LIGAND FREE ENERGY PREDICTED BY IDOCK:   -6.80 KCAL/MOL
REMARK 924 INTRA-LIGAND FREE ENERGY PREDICTED BY IDOCK:   -0.60 KCAL/MOL
REMARK 927      BINDING AFFINITY PREDICTED BY RF-SCORE:    0.00 PKD
ROOT
HETATM    1  C   UNL     1      -8.197   9.618  66.931  1.00  0.00    -0.113 C  
HETATM    2  C   UNL     1      -8.436  10.853  67.804  1.00  0.00    -0.124 C  
HETATM    3  C   UNL     1      -7.925  12.114  67.095  1.00  0.00    -0.170 C  
ENDROOT
BRANCH   2   4
HETATM    4  N   UNL     1      -9.848  11.018  68.157  1.00  0.00    -0.170 NA 
HETATM    5  N   UNL     1     -10.187  10.891  69.466  1.00  0.00    -0.129 NA 
HETATM    6  C   UNL     1     -11.507  10.755  69.442  1.00  0.00    -0.295 A  
HETATM    7  C   UNL     1     -12.028  10.853  68.143  1.00  0.00     0.038 A  
HETATM    8  C   UNL     1     -10.948  11.126  67.316  1.00  0.00    -0.296 A  
BRANCH   8   9
HETATM    9  C   UNL     1     -10.899  11.568  65.918  1.00  0.00    -0.260 A  
HETATM   10  C   UNL     1     -11.198  12.848  65.436  1.00  0.00    -0.314 A  
HETATM   11  C   UNL     1     -10.161  10.885  63.816  1.00  0.00    -0.353 A  
HETATM   12  C   UNL     1     -10.972  13.091  64.064  1.00  0.00    -0.422 A  
HETATM   13  N   UNL     1     -10.379  10.599  65.116  1.00  0.00    -0.289 NA 
HETATM   14  C   UNL     1     -10.437  12.108  63.246  1.00  0.00    -0.360 A  
BRANCH  10  15
HETATM   15  C   UNL     1     -11.779  13.983  66.235  1.00  0.00    -0.387 C  
BRANCH  15  16
HETATM   16  O   UNL     1     -10.839  14.362  67.231  1.00  0.00    -0.282 OA 
BRANCH  16  17
HETATM   17  C   UNL     1     -10.258  15.599  67.186  1.00  0.00    -0.270 A  
HETATM   18  C   UNL     1      -9.455  16.050  66.129  1.00  0.00    -0.371 A  
HETATM   19  C   UNL     1      -8.966  17.360  66.108  1.00  0.00    -0.174 A  
HETATM   20  C   UNL     1      -9.249  18.233  67.153  1.00  0.00    -0.264 A  
HETATM   21  C   UNL     1     -10.022  17.792  68.226  1.00  0.00    -0.355 A  
HETATM   22  O   UNL     1     -10.268  18.649  69.264  1.00  0.00    -0.475 OA 
HETATM   23  C   UNL     1     -10.538  16.484  68.248  1.00  0.00    -0.326 A  
HETATM   24  C   UNL     1     -11.379  16.089  69.413  1.00  0.00    -0.355 C  
HETATM   25  H   UNL     1     -10.794  18.349  69.995  1.00  0.00     0.000 HD 
HETATM   26  O   UNL     1     -11.797  14.958  69.628  1.00  0.00    -0.285 OA 
ENDBRANCH  16  17
ENDBRANCH  15  16
ENDBRANCH  10  15
ENDBRANCH   8   9
ENDBRANCH   2   4
TORSDOF 5
ENDMDL
MODEL      178
REMARK 921   NORMALIZED FREE ENERGY PREDICTED BY IDOCK:   -4.78 KCAL/MOL
REMARK 922        TOTAL FREE ENERGY PREDICTED BY IDOCK:   -7.39 KCAL/MOL
REMARK 923 INTER-LIGAND FREE ENERGY PREDICTED BY IDOCK:   -6.59 KCAL/MOL
REMARK 924 INTRA-LIGAND FREE ENERGY PREDICTED BY IDOCK:   -0.81 KCAL/MOL
REMARK 927      BINDING AFFINITY PREDICTED BY RF-SCORE:    0.00 PKD
ROOT
HETATM    1  C   UNL     1      -8.324   9.628  70.495  1.00  0.00    -0.134 C  
HETATM    2  C   UNL     1      -8.484   8.249  71.141  1.00  0.00    -0.141 C  
HETATM    3  C   UNL     1      -8.872   8.394  72.618  1.00  0.00    -0.288 C  
ENDROOT
BRANCH   2   4
HETATM    4  N   UNL     1      -9.473   7.422  70.446  1.00  0.00    -0.165 NA 
HETATM    5  N   UNL     1      -9.051   6.241  69.925  1.00  0.00    -0.143 NA 
HETATM    6  C   UNL     1     -10.028   5.888  69.100  1.00  0.00    -0.165 A  
HETATM    7  C   UNL     1     -11.100   6.792  69.128  1.00  0.00    -0.270 A  
HETATM    8  C   UNL     1     -10.776   7.742  70.085  1.00  0.00    -0.240 A  
BRANCH   8   9
HETATM    9  C   UNL     1     -11.596   8.779  70.722  1.00  0.00    -0.251 A  
HETATM   10  C   UNL     1     -11.876  10.052  70.213  1.00  0.00    -0.291 A  
HETATM   11  C   UNL     1     -13.073   9.100  72.496  1.00  0.00    -0.377 A  
HETATM   12  C   UNL     1     -12.784  10.853  70.937  1.00  0.00    -0.464 A  
HETATM   13  N   UNL     1     -12.195   8.305  71.850  1.00  0.00    -0.317 NA 
HETATM   14  C   UNL     1     -13.401  10.372  72.082  1.00  0.00    -0.374 A  
BRANCH  10  15
HETATM   15  C   UNL     1     -11.265  10.669  68.983  1.00  0.00    -0.265 C  
BRANCH  15  16
HETATM   16  O   UNL     1     -11.327  12.083  69.108  1.00  0.00    -0.246 OA 
BRANCH  16  17
HETATM   17  C   UNL     1     -10.880  12.878  68.090  1.00  0.00    -0.236 A  
HETATM   18  C   UNL     1     -10.211  12.399  66.956  1.00  0.00    -0.232 A  
HETATM   19  C   UNL     1      -9.861  13.260  65.911  1.00  0.00    -0.241 A  
HETATM   20  C   UNL     1     -10.149  14.619  65.993  1.00  0.00    -0.330 A  
HETATM   21  C   UNL     1     -10.787  15.117  67.128  1.00  0.00    -0.320 A  
HETATM   22  O   UNL     1     -11.036  16.460  67.213  1.00  0.00    -0.180 OA 
HETATM   23  C   UNL     1     -11.164  14.258  68.175  1.00  0.00    -0.295 A  
HETATM   24  C   UNL     1     -11.868  14.855  69.345  1.00  0.00    -0.324 C  
HETATM   25  H   UNL     1     -11.471  16.800  67.986  1.00  0.00     0.000 HD 
HETATM   26  O   UNL     1     -12.151  14.259  70.376  1.00  0.00    -0.296 OA 
ENDBRANCH  16  17
ENDBRANCH  15  16
ENDBRANCH  10  15
ENDBRANCH   8   9
ENDBRANCH   2   4
TORSDOF 5
ENDMDL
MODEL      179
REMARK 921   NORMALIZED FREE ENERGY PREDICTED BY IDOCK:   -4.78 KCAL/MOL
REMARK 922        TOTAL FREE ENERGY PREDICTED BY IDOCK:   -7.39 KCAL/MOL
REMARK 923 INTER-LIGAND FREE ENERGY PREDICTED BY IDOCK:   -6.31 KCAL/MOL
REMARK 924 INTRA-LIGAND FREE ENERGY PREDICTED BY IDOCK:   -1.08 KCAL/MOL
REMARK 927      BINDING AFFINITY PREDICTED BY RF-SCORE:    0.00 PKD
ROOT
HETATM    1  C   UNL     1     -14.053   7.420  71.595  1.00  0.00    -0.552 C  
HETATM    2  C   UNL     1     -12.958   8.459  71.335  1.00  0.00    -0.229 C  
HETATM    3  C   UNL     1     -13.263   9.756  72.096  1.00  0.00    -0.530 C  
ENDROOT
BRANCH   2   4
HETATM    4  N   UNL     1     -11.628   7.968  71.701  1.00  0.00    -0.264 NA 
HETATM    5  N   UNL     1     -11.323   7.910  73.023  1.00  0.00    -0.352 NA 
HETATM    6  C   UNL     1     -10.004   7.763  73.041  1.00  0.00    -0.293 A  
HETATM    7  C   UNL     1      -9.464   7.665  71.750  1.00  0.00    -0.178 A  
HETATM    8  C   UNL     1     -10.542   7.698  70.879  1.00  0.00    -0.213 A  
BRANCH   8   9
HETATM    9  C   UNL     1     -10.626   7.395  69.445  1.00  0.00    -0.226 A  
HETATM   10  C   UNL     1     -10.625   8.320  68.395  1.00  0.00    -0.148 A  
HETATM   11  C   UNL     1     -10.521   5.610  67.951  1.00  0.00    -0.211 A  
HETATM   12  C   UNL     1     -10.596   7.806  67.081  1.00  0.00    -0.401 A  
HETATM   13  N   UNL     1     -10.568   6.053  69.225  1.00  0.00    -0.264 NA 
HETATM   14  C   UNL     1     -10.530   6.440  66.853  1.00  0.00    -0.340 A  
BRANCH  10  15
HETATM   15  C   UNL     1     -10.693   9.817  68.532  1.00  0.00    -0.215 C  
BRANCH  15  16
HETATM   16  O   UNL     1     -10.101  10.404  67.381  1.00  0.00    -0.180 OA 
BRANCH  16  17
HETATM   17  C   UNL     1      -9.343  11.535  67.505  1.00  0.00    -0.166 A  
HETATM   18  C   UNL     1      -9.803  12.729  68.077  1.00  0.00    -0.226 A  
HETATM   19  C   UNL     1      -8.943  13.818  68.252  1.00  0.00    -0.186 A  
HETATM   20  C   UNL     1      -7.619  13.744  67.835  1.00  0.00    -0.157 A  
HETATM   21  C   UNL     1      -7.153  12.574  67.236  1.00  0.00    -0.112 A  
HETATM   22  O   UNL     1      -5.857  12.522  66.800  1.00  0.00    -0.486 OA 
HETATM   23  C   UNL     1      -8.001  11.464  67.075  1.00  0.00    -0.158 A  
HETATM   24  C   UNL     1      -7.428  10.237  66.453  1.00  0.00    -0.114 C  
HETATM   25  H   UNL     1      -5.539  11.725  66.392  1.00  0.00     0.000 HD 
HETATM   26  O   UNL     1      -8.068   9.240  66.143  1.00  0.00    -0.108 OA 
ENDBRANCH  16  17
ENDBRANCH  15  16
ENDBRANCH  10  15
ENDBRANCH   8   9
ENDBRANCH   2   4
TORSDOF 5
ENDMDL
MODEL      180
REMARK 921   NORMALIZED FREE ENERGY PREDICTED BY IDOCK:   -4.78 KCAL/MOL
REMARK 922        TOTAL FREE ENERGY PREDICTED BY IDOCK:   -7.39 KCAL/MOL
REMARK 923 INTER-LIGAND FREE ENERGY PREDICTED BY IDOCK:   -6.25 KCAL/MOL
REMARK 924 INTRA-LIGAND FREE ENERGY PREDICTED BY IDOCK:   -1.14 KCAL/MOL
REMARK 927      BINDING AFFINITY PREDICTED BY RF-SCORE:    0.00 PKD
ROOT
HETATM    1  C   UNL     1     -10.180   4.996  68.224  1.00  0.00    -0.143 C  
HETATM    2  C   UNL     1      -8.738   5.482  68.053  1.00  0.00    -0.106 C  
HETATM    3  C   UNL     1      -7.763   4.302  68.156  1.00  0.00    -0.075 C  
ENDROOT
BRANCH   2   4
HETATM    4  N   UNL     1      -8.536   6.184  66.784  1.00  0.00    -0.110 NA 
HETATM    5  N   UNL     1      -8.705   5.474  65.639  1.00  0.00    -0.151 NA 
HETATM    6  C   UNL     1      -8.149   6.236  64.705  1.00  0.00    -0.127 A  
HETATM    7  C   UNL     1      -7.679   7.452  65.223  1.00  0.00    -0.113 A  
HETATM    8  C   UNL     1      -8.025   7.457  66.566  1.00  0.00    -0.111 A  
BRANCH   8   9
HETATM    9  C   UNL     1      -8.018   8.543  67.553  1.00  0.00    -0.106 A  
HETATM   10  C   UNL     1      -9.024   9.495  67.755  1.00  0.00    -0.126 A  
HETATM   11  C   UNL     1      -6.847   9.300  69.420  1.00  0.00    -0.049 A  
HETATM   12  C   UNL     1      -8.866  10.382  68.840  1.00  0.00    -0.161 A  
HETATM   13  N   UNL     1      -6.943   8.442  68.383  1.00  0.00    -0.068 NA 
HETATM   14  C   UNL     1      -7.776  10.279  69.691  1.00  0.00    -0.166 A  
BRANCH  10  15
HETATM   15  C   UNL     1     -10.244   9.691  66.895  1.00  0.00    -0.237 C  
BRANCH  15  16
HETATM   16  O   UNL     1      -9.982  10.739  65.971  1.00  0.00    -0.223 OA 
BRANCH  16  17
HETATM   17  C   UNL     1     -10.842  11.797  65.877  1.00  0.00    -0.291 A  
HETATM   18  C   UNL     1     -11.406  12.450  66.981  1.00  0.00    -0.388 A  
HETATM   19  C   UNL     1     -12.208  13.583  66.813  1.00  0.00    -0.392 A  
HETATM   20  C   UNL     1     -12.483  14.066  65.538  1.00  0.00    -0.533 A  
HETATM   21  C   UNL     1     -11.954  13.411  64.427  1.00  0.00    -0.411 A  
HETATM   22  O   UNL     1     -12.257  13.876  63.176  1.00  0.00    -1.071 OA 
HETATM   23  C   UNL     1     -11.128  12.285  64.584  1.00  0.00    -0.358 A  
HETATM   24  C   UNL     1     -10.575  11.651  63.354  1.00  0.00    -0.409 C  
HETATM   25  H   UNL     1     -11.897  13.430  62.419  1.00  0.00     0.000 HD 
HETATM   26  O   UNL     1      -9.941  10.604  63.325  1.00  0.00    -0.321 OA 
ENDBRANCH  16  17
ENDBRANCH  15  16
ENDBRANCH  10  15
ENDBRANCH   8   9
ENDBRANCH   2   4
TORSDOF 5
ENDMDL
MODEL      181
REMARK 921   NORMALIZED FREE ENERGY PREDICTED BY IDOCK:   -4.75 KCAL/MOL
REMARK 922        TOTAL FREE ENERGY PREDICTED BY IDOCK:   -7.35 KCAL/MOL
REMARK 923 INTER-LIGAND FREE ENERGY PREDICTED BY IDOCK:   -6.39 KCAL/MOL
REMARK 924 INTRA-LIGAND FREE ENERGY PREDICTED BY IDOCK:   -0.96 KCAL/MOL
REMARK 927      BINDING AFFINITY PREDICTED BY RF-SCORE:    0.00 PKD
ROOT
HETATM    1  C   UNL     1      -6.830  19.491  65.390  1.00  0.00    -0.284 C  
HETATM    2  C   UNL     1      -7.119  19.613  66.889  1.00  0.00    -0.213 C  
HETATM    3  C   UNL     1      -7.136  21.089  67.310  1.00  0.00    -0.399 C  
ENDROOT
BRANCH   2   4
HETATM    4  N   UNL     1      -8.382  18.975  67.265  1.00  0.00    -0.273 NA 
HETATM    5  N   UNL     1      -9.526  19.495  66.750  1.00  0.00    -0.333 NA 
HETATM    6  C   UNL     1     -10.485  18.960  67.496  1.00  0.00    -0.450 A  
HETATM    7  C   UNL     1      -9.979  18.058  68.444  1.00  0.00    -0.382 A  
HETATM    8  C   UNL     1      -8.611  17.994  68.221  1.00  0.00    -0.287 A  
BRANCH   8   9
HETATM    9  C   UNL     1      -7.601  17.057  68.725  1.00  0.00    -0.243 A  
HETATM   10  C   UNL     1      -7.472  15.705  68.385  1.00  0.00    -0.120 A  
HETATM   11  C   UNL     1      -5.612  17.000  69.938  1.00  0.00    -0.216 A  
HETATM   12  C   UNL     1      -6.355  15.012  68.897  1.00  0.00    -0.090 A  
HETATM   13  N   UNL     1      -6.675  17.699  69.489  1.00  0.00    -0.169 NA 
HETATM   14  C   UNL     1      -5.407  15.665  69.671  1.00  0.00    -0.109 A  
BRANCH  10  15
HETATM   15  C   UNL     1      -8.439  14.904  67.555  1.00  0.00    -0.185 C  
BRANCH  15  16
HETATM   16  O   UNL     1      -9.269  14.150  68.429  1.00  0.00    -0.197 OA 
BRANCH  16  17
HETATM   17  C   UNL     1      -9.347  12.792  68.293  1.00  0.00    -0.194 A  
HETATM   18  C   UNL     1      -8.233  11.942  68.261  1.00  0.00    -0.157 A  
HETATM   19  C   UNL     1      -8.392  10.553  68.210  1.00  0.00    -0.122 A  
HETATM   20  C   UNL     1      -9.663   9.992  68.161  1.00  0.00    -0.156 A  
HETATM   21  C   UNL     1     -10.781  10.825  68.162  1.00  0.00    -0.214 A  
HETATM   22  O   UNL     1     -12.027  10.263  68.082  1.00  0.00    -0.692 OA 
HETATM   23  C   UNL     1     -10.635  12.221  68.236  1.00  0.00    -0.243 A  
HETATM   24  C   UNL     1     -11.874  13.048  68.261  1.00  0.00    -0.343 C  
HETATM   25  H   UNL     1     -12.789  10.830  68.082  1.00  0.00     0.000 HD 
HETATM   26  O   UNL     1     -11.906  14.271  68.206  1.00  0.00    -0.322 OA 
ENDBRANCH  16  17
ENDBRANCH  15  16
ENDBRANCH  10  15
ENDBRANCH   8   9
ENDBRANCH   2   4
TORSDOF 5
ENDMDL
MODEL      182
REMARK 921   NORMALIZED FREE ENERGY PREDICTED BY IDOCK:   -4.75 KCAL/MOL
REMARK 922        TOTAL FREE ENERGY PREDICTED BY IDOCK:   -7.35 KCAL/MOL
REMARK 923 INTER-LIGAND FREE ENERGY PREDICTED BY IDOCK:   -6.78 KCAL/MOL
REMARK 924 INTRA-LIGAND FREE ENERGY PREDICTED BY IDOCK:   -0.57 KCAL/MOL
REMARK 927      BINDING AFFINITY PREDICTED BY RF-SCORE:    0.00 PKD
ROOT
HETATM    1  C   UNL     1     -11.336  10.401  67.632  1.00  0.00    -0.162 C  
HETATM    2  C   UNL     1     -10.611  11.390  66.714  1.00  0.00    -0.255 C  
HETATM    3  C   UNL     1     -10.028  10.659  65.497  1.00  0.00    -0.333 C  
ENDROOT
BRANCH   2   4
HETATM    4  N   UNL     1     -11.486  12.477  66.268  1.00  0.00    -0.348 NA 
HETATM    5  N   UNL     1     -12.320  12.225  65.226  1.00  0.00    -0.553 NA 
HETATM    6  C   UNL     1     -12.722  13.429  64.840  1.00  0.00    -0.304 A  
HETATM    7  C   UNL     1     -12.207  14.448  65.655  1.00  0.00    -0.352 A  
HETATM    8  C   UNL     1     -11.480  13.812  66.651  1.00  0.00    -0.345 A  
BRANCH   8   9
HETATM    9  C   UNL     1     -10.924  14.325  67.908  1.00  0.00    -0.267 A  
HETATM   10  C   UNL     1      -9.584  14.639  68.163  1.00  0.00    -0.213 A  
HETATM   11  C   UNL     1     -11.578  15.191  69.971  1.00  0.00    -0.294 A  
HETATM   12  C   UNL     1      -9.283  15.231  69.407  1.00  0.00    -0.233 A  
HETATM   13  N   UNL     1     -11.912  14.605  68.802  1.00  0.00    -0.293 NA 
HETATM   14  C   UNL     1     -10.288  15.523  70.317  1.00  0.00    -0.217 A  
BRANCH  10  15
HETATM   15  C   UNL     1      -8.421  14.366  67.247  1.00  0.00    -0.212 C  
BRANCH  15  16
HETATM   16  O   UNL     1      -7.449  15.386  67.434  1.00  0.00    -0.173 OA 
BRANCH  16  17
HETATM   17  C   UNL     1      -7.804  16.699  67.307  1.00  0.00    -0.166 A  
HETATM   18  C   UNL     1      -8.718  17.176  66.357  1.00  0.00    -0.291 A  
HETATM   19  C   UNL     1      -9.102  18.521  66.343  1.00  0.00    -0.276 A  
HETATM   20  C   UNL     1      -8.561  19.417  67.259  1.00  0.00    -0.329 A  
HETATM   21  C   UNL     1      -7.629  18.965  68.191  1.00  0.00    -0.277 A  
HETATM   22  O   UNL     1      -7.078  19.861  69.067  1.00  0.00    -0.325 OA 
HETATM   23  C   UNL     1      -7.251  17.611  68.231  1.00  0.00    -0.227 A  
HETATM   24  C   UNL     1      -6.271  17.193  69.272  1.00  0.00    -0.224 C  
HETATM   25  H   UNL     1      -6.443  19.554  69.703  1.00  0.00     0.000 HD 
HETATM   26  O   UNL     1      -5.762  16.082  69.355  1.00  0.00    -0.115 OA 
ENDBRANCH  16  17
ENDBRANCH  15  16
ENDBRANCH  10  15
ENDBRANCH   8   9
ENDBRANCH   2   4
TORSDOF 5
ENDMDL
MODEL      183
REMARK 921   NORMALIZED FREE ENERGY PREDICTED BY IDOCK:   -4.74 KCAL/MOL
REMARK 922        TOTAL FREE ENERGY PREDICTED BY IDOCK:   -7.34 KCAL/MOL
REMARK 923 INTER-LIGAND FREE ENERGY PREDICTED BY IDOCK:   -7.34 KCAL/MOL
REMARK 924 INTRA-LIGAND FREE ENERGY PREDICTED BY IDOCK:    0.00 KCAL/MOL
REMARK 927      BINDING AFFINITY PREDICTED BY RF-SCORE:    0.00 PKD
ROOT
HETATM    1  C   UNL     1     -10.653  10.011  70.224  1.00  0.00    -0.354 C  
HETATM    2  C   UNL     1     -11.943  10.705  69.779  1.00  0.00    -0.291 C  
HETATM    3  C   UNL     1     -13.034  10.537  70.844  1.00  0.00    -0.455 C  
ENDROOT
BRANCH   2   4
HETATM    4  N   UNL     1     -11.740  12.128  69.497  1.00  0.00    -0.321 NA 
HETATM    5  N   UNL     1     -11.850  12.996  70.535  1.00  0.00    -0.190 NA 
HETATM    6  C   UNL     1     -11.952  14.183  69.950  1.00  0.00    -0.338 A  
HETATM    7  C   UNL     1     -11.849  14.097  68.554  1.00  0.00    -0.390 A  
HETATM    8  C   UNL     1     -11.608  12.761  68.268  1.00  0.00    -0.334 A  
BRANCH   8   9
HETATM    9  C   UNL     1     -11.176  12.110  67.026  1.00  0.00    -0.314 A  
HETATM   10  C   UNL     1     -10.945  12.731  65.793  1.00  0.00    -0.306 A  
HETATM   11  C   UNL     1     -10.357  10.081  66.223  1.00  0.00    -0.165 A  
HETATM   12  C   UNL     1     -10.419  11.933  64.755  1.00  0.00    -0.333 A  
HETATM   13  N   UNL     1     -10.878  10.798  67.240  1.00  0.00    -0.278 NA 
HETATM   14  C   UNL     1     -10.109  10.599  64.971  1.00  0.00    -0.388 A  
BRANCH  10  15
HETATM   15  C   UNL     1     -11.244  14.167  65.455  1.00  0.00    -0.325 C  
BRANCH  15  16
HETATM   16  O   UNL     1     -10.014  14.872  65.351  1.00  0.00    -0.349 OA 
BRANCH  16  17
HETATM   17  C   UNL     1      -9.911  16.141  65.849  1.00  0.00    -0.356 A  
HETATM   18  C   UNL     1     -10.665  17.228  65.387  1.00  0.00    -0.074 A  
HETATM   19  C   UNL     1     -10.572  18.480  66.004  1.00  0.00    -0.368 A  
HETATM   20  C   UNL     1      -9.706  18.674  67.074  1.00  0.00    -0.328 A  
HETATM   21  C   UNL     1      -8.926  17.611  67.527  1.00  0.00    -0.235 A  
HETATM   22  O   UNL     1      -8.053  17.821  68.560  1.00  0.00    -0.284 OA 
HETATM   23  C   UNL     1      -9.027  16.342  66.930  1.00  0.00    -0.242 A  
HETATM   24  C   UNL     1      -8.185  15.244  67.484  1.00  0.00    -0.173 C  
HETATM   25  H   UNL     1      -7.522  17.096  68.869  1.00  0.00     0.000 HD 
HETATM   26  O   UNL     1      -8.078  14.125  66.999  1.00  0.00    -0.147 OA 
ENDBRANCH  16  17
ENDBRANCH  15  16
ENDBRANCH  10  15
ENDBRANCH   8   9
ENDBRANCH   2   4
TORSDOF 5
ENDMDL
MODEL      184
REMARK 921   NORMALIZED FREE ENERGY PREDICTED BY IDOCK:   -4.74 KCAL/MOL
REMARK 922        TOTAL FREE ENERGY PREDICTED BY IDOCK:   -7.34 KCAL/MOL
REMARK 923 INTER-LIGAND FREE ENERGY PREDICTED BY IDOCK:   -6.47 KCAL/MOL
REMARK 924 INTRA-LIGAND FREE ENERGY PREDICTED BY IDOCK:   -0.87 KCAL/MOL
REMARK 927      BINDING AFFINITY PREDICTED BY RF-SCORE:    0.00 PKD
ROOT
HETATM    1  C   UNL     1     -10.200  12.046  65.239  1.00  0.00    -0.304 C  
HETATM    2  C   UNL     1     -10.581  10.944  66.232  1.00  0.00    -0.214 C  
HETATM    3  C   UNL     1      -9.476   9.882  66.300  1.00  0.00    -0.245 C  
ENDROOT
BRANCH   2   4
HETATM    4  N   UNL     1     -10.847  11.471  67.572  1.00  0.00    -0.222 NA 
HETATM    5  N   UNL     1     -12.053  11.190  68.129  1.00  0.00    -0.610 NA 
HETATM    6  C   UNL     1     -12.142  12.040  69.145  1.00  0.00    -0.183 A  
HETATM    7  C   UNL     1     -10.986  12.821  69.285  1.00  0.00    -0.126 A  
HETATM    8  C   UNL     1     -10.101  12.375  68.316  1.00  0.00    -0.227 A  
BRANCH   8   9
HETATM    9  C   UNL     1      -8.668  12.636  68.132  1.00  0.00    -0.190 A  
HETATM   10  C   UNL     1      -8.094  13.775  67.555  1.00  0.00    -0.192 A  
HETATM   11  C   UNL     1      -6.574  11.823  68.752  1.00  0.00    -0.074 A  
HETATM   12  C   UNL     1      -6.687  13.875  67.584  1.00  0.00    -0.189 A  
HETATM   13  N   UNL     1      -7.915  11.673  68.731  1.00  0.00    -0.122 NA 
HETATM   14  C   UNL     1      -5.917  12.898  68.198  1.00  0.00    -0.087 A  
BRANCH  10  15
HETATM   15  C   UNL     1      -8.835  14.890  66.867  1.00  0.00    -0.258 C  
BRANCH  15  16
HETATM   16  O   UNL     1      -8.677  16.077  67.631  1.00  0.00    -0.171 OA 
BRANCH  16  17
HETATM   17  C   UNL     1      -8.224  17.219  67.032  1.00  0.00    -0.208 A  
HETATM   18  C   UNL     1      -6.938  17.364  66.492  1.00  0.00    -0.295 A  
HETATM   19  C   UNL     1      -6.572  18.531  65.814  1.00  0.00    -0.312 A  
HETATM   20  C   UNL     1      -7.473  19.583  65.687  1.00  0.00    -0.202 A  
HETATM   21  C   UNL     1      -8.746  19.467  66.244  1.00  0.00    -0.346 A  
HETATM   22  O   UNL     1      -9.614  20.520  66.142  1.00  0.00    -0.650 OA 
HETATM   23  C   UNL     1      -9.134  18.290  66.909  1.00  0.00    -0.282 A  
HETATM   24  C   UNL     1     -10.518  18.225  67.455  1.00  0.00    -0.411 C  
HETATM   25  H   UNL     1     -10.481  20.441  66.521  1.00  0.00     0.000 HD 
HETATM   26  O   UNL     1     -10.957  17.320  68.155  1.00  0.00    -0.347 OA 
ENDBRANCH  16  17
ENDBRANCH  15  16
ENDBRANCH  10  15
ENDBRANCH   8   9
ENDBRANCH   2   4
TORSDOF 5
ENDMDL
MODEL      185
REMARK 921   NORMALIZED FREE ENERGY PREDICTED BY IDOCK:   -4.73 KCAL/MOL
REMARK 922        TOTAL FREE ENERGY PREDICTED BY IDOCK:   -7.32 KCAL/MOL
REMARK 923 INTER-LIGAND FREE ENERGY PREDICTED BY IDOCK:   -6.46 KCAL/MOL
REMARK 924 INTRA-LIGAND FREE ENERGY PREDICTED BY IDOCK:   -0.86 KCAL/MOL
REMARK 927      BINDING AFFINITY PREDICTED BY RF-SCORE:    0.00 PKD
ROOT
HETATM    1  C   UNL     1     -10.385  17.446  67.301  1.00  0.00    -0.336 C  
HETATM    2  C   UNL     1      -9.911  16.049  67.713  1.00  0.00    -0.234 C  
HETATM    3  C   UNL     1      -8.719  16.152  68.673  1.00  0.00    -0.214 C  
ENDROOT
BRANCH   2   4
HETATM    4  N   UNL     1     -10.979  15.260  68.330  1.00  0.00    -0.265 NA 
HETATM    5  N   UNL     1     -11.368  15.602  69.585  1.00  0.00    -0.302 NA 
HETATM    6  C   UNL     1     -12.072  14.555  69.998  1.00  0.00    -0.339 A  
HETATM    7  C   UNL     1     -12.192  13.571  69.006  1.00  0.00    -0.224 A  
HETATM    8  C   UNL     1     -11.561  14.080  67.881  1.00  0.00    -0.343 A  
BRANCH   8   9
HETATM    9  C   UNL     1     -11.571  13.624  66.487  1.00  0.00    -0.366 A  
HETATM   10  C   UNL     1     -11.250  12.342  66.025  1.00  0.00    -0.374 A  
HETATM   11  C   UNL     1     -12.261  14.280  64.359  1.00  0.00    -0.447 A  
HETATM   12  C   UNL     1     -11.438  12.083  64.651  1.00  0.00    -0.371 A  
HETATM   13  N   UNL     1     -12.079  14.581  65.662  1.00  0.00    -0.331 NA 
HETATM   14  C   UNL     1     -11.961  13.054  63.809  1.00  0.00    -0.585 A  
BRANCH  10  15
HETATM   15  C   UNL     1     -10.679  11.220  66.850  1.00  0.00    -0.273 C  
BRANCH  15  16
HETATM   16  O   UNL     1      -9.638  10.598  66.110  1.00  0.00    -0.176 OA 
BRANCH  16  17
HETATM   17  C   UNL     1      -9.165   9.374  66.493  1.00  0.00    -0.159 A  
HETATM   18  C   UNL     1      -9.180   8.906  67.814  1.00  0.00    -0.153 A  
HETATM   19  C   UNL     1      -8.761   7.607  68.120  1.00  0.00    -0.122 A  
HETATM   20  C   UNL     1      -8.295   6.764  67.117  1.00  0.00    -0.121 A  
HETATM   21  C   UNL     1      -8.246   7.224  65.802  1.00  0.00    -0.135 A  
HETATM   22  O   UNL     1      -7.756   6.397  64.827  1.00  0.00    -0.091 OA 
HETATM   23  C   UNL     1      -8.685   8.520  65.478  1.00  0.00    -0.208 A  
HETATM   24  C   UNL     1      -8.630   8.935  64.048  1.00  0.00    -0.100 C  
HETATM   25  H   UNL     1      -7.722   6.710  63.931  1.00  0.00     0.000 HD 
HETATM   26  O   UNL     1      -8.866  10.063  63.632  1.00  0.00    -0.191 OA 
ENDBRANCH  16  17
ENDBRANCH  15  16
ENDBRANCH  10  15
ENDBRANCH   8   9
ENDBRANCH   2   4
TORSDOF 5
ENDMDL
MODEL      186
REMARK 921   NORMALIZED FREE ENERGY PREDICTED BY IDOCK:   -4.72 KCAL/MOL
REMARK 922        TOTAL FREE ENERGY PREDICTED BY IDOCK:   -7.32 KCAL/MOL
REMARK 923 INTER-LIGAND FREE ENERGY PREDICTED BY IDOCK:   -6.84 KCAL/MOL
REMARK 924 INTRA-LIGAND FREE ENERGY PREDICTED BY IDOCK:   -0.47 KCAL/MOL
REMARK 927      BINDING AFFINITY PREDICTED BY RF-SCORE:    0.00 PKD
ROOT
HETATM    1  C   UNL     1     -11.716  14.955  69.005  1.00  0.00    -0.347 C  
HETATM    2  C   UNL     1     -10.737  13.802  68.766  1.00  0.00    -0.249 C  
HETATM    3  C   UNL     1      -9.360  14.141  69.352  1.00  0.00     0.453 C  
ENDROOT
BRANCH   2   4
HETATM    4  N   UNL     1     -11.219  12.538  69.328  1.00  0.00    -0.225 NA 
HETATM    5  N   UNL     1     -12.334  12.580  70.102  1.00  0.00    -0.196 NA 
HETATM    6  C   UNL     1     -12.337  11.407  70.722  1.00  0.00    -0.386 A  
HETATM    7  C   UNL     1     -11.275  10.588  70.314  1.00  0.00    -0.391 A  
HETATM    8  C   UNL     1     -10.603  11.293  69.327  1.00  0.00    -0.148 A  
BRANCH   8   9
HETATM    9  C   UNL     1      -9.576  10.863  68.371  1.00  0.00    -0.177 A  
HETATM   10  C   UNL     1      -9.671  10.892  66.974  1.00  0.00    -0.203 A  
HETATM   11  C   UNL     1      -7.334  10.236  68.263  1.00  0.00    -0.085 A  
HETATM   12  C   UNL     1      -8.518  10.540  66.240  1.00  0.00    -0.150 A  
HETATM   13  N   UNL     1      -8.416  10.545  69.008  1.00  0.00    -0.151 NA 
HETATM   14  C   UNL     1      -7.334  10.221  66.887  1.00  0.00    -0.097 A  
BRANCH  10  15
HETATM   15  C   UNL     1     -10.903  11.224  66.176  1.00  0.00    -0.222 C  
BRANCH  15  16
HETATM   16  O   UNL     1     -10.521  12.022  65.065  1.00  0.00    -0.266 OA 
BRANCH  16  17
HETATM   17  C   UNL     1     -10.422  13.379  65.201  1.00  0.00    -0.347 A  
HETATM   18  C   UNL     1      -9.489  14.018  66.028  1.00  0.00    -0.164 A  
HETATM   19  C   UNL     1      -9.386  15.413  66.050  1.00  0.00    -0.364 A  
HETATM   20  C   UNL     1     -10.230  16.193  65.267  1.00  0.00    -0.202 A  
HETATM   21  C   UNL     1     -11.184  15.574  64.461  1.00  0.00    -0.315 A  
HETATM   22  O   UNL     1     -12.032  16.351  63.719  1.00  0.00    -1.363 OA 
HETATM   23  C   UNL     1     -11.283  14.172  64.413  1.00  0.00    -0.290 A  
HETATM   24  C   UNL     1     -12.307  13.578  63.508  1.00  0.00    -0.274 C  
HETATM   25  H   UNL     1     -12.682  15.930  63.170  1.00  0.00     0.000 HD 
HETATM   26  O   UNL     1     -12.588  12.387  63.448  1.00  0.00    -0.684 OA 
ENDBRANCH  16  17
ENDBRANCH  15  16
ENDBRANCH  10  15
ENDBRANCH   8   9
ENDBRANCH   2   4
TORSDOF 5
ENDMDL
MODEL      187
REMARK 921   NORMALIZED FREE ENERGY PREDICTED BY IDOCK:   -4.72 KCAL/MOL
REMARK 922        TOTAL FREE ENERGY PREDICTED BY IDOCK:   -7.31 KCAL/MOL
REMARK 923 INTER-LIGAND FREE ENERGY PREDICTED BY IDOCK:   -6.17 KCAL/MOL
REMARK 924 INTRA-LIGAND FREE ENERGY PREDICTED BY IDOCK:   -1.14 KCAL/MOL
REMARK 927      BINDING AFFINITY PREDICTED BY RF-SCORE:    0.00 PKD
ROOT
HETATM    1  C   UNL     1     -10.795  15.202  64.979  1.00  0.00    -0.457 C  
HETATM    2  C   UNL     1     -11.106  13.861  65.650  1.00  0.00    -0.298 C  
HETATM    3  C   UNL     1     -12.621  13.692  65.825  1.00  0.00    -0.511 C  
ENDROOT
BRANCH   2   4
HETATM    4  N   UNL     1     -10.562  12.726  64.901  1.00  0.00    -0.301 NA 
HETATM    5  N   UNL     1     -10.797  12.686  63.564  1.00  0.00    -0.400 NA 
HETATM    6  C   UNL     1     -10.499  11.438  63.225  1.00  0.00    -0.334 A  
HETATM    7  C   UNL     1     -10.019  10.692  64.312  1.00  0.00    -0.413 A  
HETATM    8  C   UNL     1      -9.967  11.569  65.385  1.00  0.00    -0.248 A  
BRANCH   8   9
HETATM    9  C   UNL     1      -9.330  11.437  66.701  1.00  0.00    -0.185 A  
HETATM   10  C   UNL     1      -9.697  10.551  67.721  1.00  0.00    -0.180 A  
HETATM   11  C   UNL     1      -7.442  12.113  67.888  1.00  0.00    -0.117 A  
HETATM   12  C   UNL     1      -8.874  10.507  68.866  1.00  0.00    -0.166 A  
HETATM   13  N   UNL     1      -8.209  12.205  66.781  1.00  0.00    -0.133 NA 
HETATM   14  C   UNL     1      -7.728  11.284  68.949  1.00  0.00    -0.125 A  
BRANCH  10  15
HETATM   15  C   UNL     1     -10.915   9.667  67.731  1.00  0.00    -0.139 C  
BRANCH  15  16
HETATM   16  O   UNL     1     -10.757   8.693  68.754  1.00  0.00    -0.174 OA 
BRANCH  16  17
HETATM   17  C   UNL     1     -10.565   7.381  68.423  1.00  0.00    -0.152 A  
HETATM   18  C   UNL     1     -10.725   6.866  67.129  1.00  0.00    -0.436 A  
HETATM   19  C   UNL     1     -10.425   5.530  66.846  1.00  0.00    -0.348 A  
HETATM   20  C   UNL     1      -9.986   4.678  67.854  1.00  0.00    -0.138 A  
HETATM   21  C   UNL     1      -9.850   5.166  69.153  1.00  0.00    -0.187 A  
HETATM   22  O   UNL     1      -9.449   4.312  70.144  1.00  0.00    -0.144 OA 
HETATM   23  C   UNL     1     -10.127   6.513  69.446  1.00  0.00    -0.198 A  
HETATM   24  C   UNL     1      -9.933   6.973  70.850  1.00  0.00    -0.193 C  
HETATM   25  H   UNL     1      -9.356   4.644  71.029  1.00  0.00     0.000 HD 
HETATM   26  O   UNL     1     -10.243   8.077  71.279  1.00  0.00    -0.189 OA 
ENDBRANCH  16  17
ENDBRANCH  15  16
ENDBRANCH  10  15
ENDBRANCH   8   9
ENDBRANCH   2   4
TORSDOF 5
ENDMDL
MODEL      188
REMARK 921   NORMALIZED FREE ENERGY PREDICTED BY IDOCK:   -4.71 KCAL/MOL
REMARK 922        TOTAL FREE ENERGY PREDICTED BY IDOCK:   -7.30 KCAL/MOL
REMARK 923 INTER-LIGAND FREE ENERGY PREDICTED BY IDOCK:   -6.10 KCAL/MOL
REMARK 924 INTRA-LIGAND FREE ENERGY PREDICTED BY IDOCK:   -1.19 KCAL/MOL
REMARK 927      BINDING AFFINITY PREDICTED BY RF-SCORE:    0.00 PKD
ROOT
HETATM    1  C   UNL     1     -10.544   7.549  71.336  1.00  0.00    -0.229 C  
HETATM    2  C   UNL     1      -9.572   8.359  70.474  1.00  0.00    -0.170 C  
HETATM    3  C   UNL     1      -8.163   7.755  70.547  1.00  0.00    -0.120 C  
ENDROOT
BRANCH   2   4
HETATM    4  N   UNL     1     -10.005   8.441  69.077  1.00  0.00    -0.185 NA 
HETATM    5  N   UNL     1     -10.951   7.561  68.660  1.00  0.00     0.014 NA 
HETATM    6  C   UNL     1     -10.899   7.639  67.336  1.00  0.00    -0.170 A  
HETATM    7  C   UNL     1      -9.976   8.599  66.897  1.00  0.00    -0.330 A  
HETATM    8  C   UNL     1      -9.466   9.194  68.041  1.00  0.00    -0.141 A  
BRANCH   8   9
HETATM    9  C   UNL     1      -8.661  10.409  68.214  1.00  0.00    -0.128 A  
HETATM   10  C   UNL     1      -9.140  11.697  68.479  1.00  0.00    -0.157 A  
HETATM   11  C   UNL     1      -6.455  11.111  68.484  1.00  0.00    -0.058 A  
HETATM   12  C   UNL     1      -8.184  12.705  68.725  1.00  0.00     0.119 A  
HETATM   13  N   UNL     1      -7.331  10.118  68.223  1.00  0.00    -0.080 NA 
HETATM   14  C   UNL     1      -6.829  12.411  68.741  1.00  0.00    -0.092 A  
BRANCH  10  15
HETATM   15  C   UNL     1     -10.584  12.122  68.487  1.00  0.00    -0.233 C  
BRANCH  15  16
HETATM   16  O   UNL     1     -10.690  13.376  67.828  1.00  0.00    -0.242 OA 
BRANCH  16  17
HETATM   17  C   UNL     1     -11.057  13.427  66.512  1.00  0.00    -0.297 A  
HETATM   18  C   UNL     1     -11.314  12.296  65.725  1.00  0.00    -0.400 A  
HETATM   19  C   UNL     1     -11.771  12.426  64.410  1.00  0.00    -0.435 A  
HETATM   20  C   UNL     1     -11.954  13.685  63.850  1.00  0.00    -0.455 A  
HETATM   21  C   UNL     1     -11.674  14.821  64.609  1.00  0.00    -0.422 A  
HETATM   22  O   UNL     1     -11.827  16.055  64.038  1.00  0.00    -1.140 OA 
HETATM   23  C   UNL     1     -11.236  14.704  65.940  1.00  0.00    -0.336 A  
HETATM   24  C   UNL     1     -10.983  15.960  66.701  1.00  0.00    -0.136 C  
HETATM   25  H   UNL     1     -11.637  16.829  64.555  1.00  0.00     0.000 HD 
HETATM   26  O   UNL     1     -10.490  16.018  67.820  1.00  0.00    -0.281 OA 
ENDBRANCH  16  17
ENDBRANCH  15  16
ENDBRANCH  10  15
ENDBRANCH   8   9
ENDBRANCH   2   4
TORSDOF 5
ENDMDL
MODEL      189
REMARK 921   NORMALIZED FREE ENERGY PREDICTED BY IDOCK:   -4.70 KCAL/MOL
REMARK 922        TOTAL FREE ENERGY PREDICTED BY IDOCK:   -7.28 KCAL/MOL
REMARK 923 INTER-LIGAND FREE ENERGY PREDICTED BY IDOCK:   -6.49 KCAL/MOL
REMARK 924 INTRA-LIGAND FREE ENERGY PREDICTED BY IDOCK:   -0.80 KCAL/MOL
REMARK 927      BINDING AFFINITY PREDICTED BY RF-SCORE:    0.00 PKD
ROOT
HETATM    1  C   UNL     1     -10.636  16.723  66.989  1.00  0.00    -0.234 C  
HETATM    2  C   UNL     1      -9.132  16.815  67.263  1.00  0.00    -0.220 C  
HETATM    3  C   UNL     1      -8.848  17.892  68.318  1.00  0.00    -0.277 C  
ENDROOT
BRANCH   2   4
HETATM    4  N   UNL     1      -8.567  15.535  67.695  1.00  0.00    -0.161 NA 
HETATM    5  N   UNL     1      -7.322  15.218  67.255  1.00  0.00    -0.208 NA 
HETATM    6  C   UNL     1      -7.214  13.920  67.509  1.00  0.00    -0.161 A  
HETATM    7  C   UNL     1      -8.347  13.410  68.160  1.00  0.00    -0.164 A  
HETATM    8  C   UNL     1      -9.188  14.493  68.370  1.00  0.00    -0.196 A  
BRANCH   8   9
HETATM    9  C   UNL     1     -10.388  14.627  69.205  1.00  0.00    -0.173 A  
HETATM   10  C   UNL     1     -11.568  13.881  69.098  1.00  0.00    -0.359 A  
HETATM   11  C   UNL     1     -11.144  15.653  71.156  1.00  0.00    -0.290 A  
HETATM   12  C   UNL     1     -12.558  14.093  70.080  1.00  0.00    -0.325 A  
HETATM   13  N   UNL     1     -10.176  15.499  70.229  1.00  0.00    -0.234 NA 
HETATM   14  C   UNL     1     -12.343  14.976  71.128  1.00  0.00    -0.391 A  
BRANCH  10  15
HETATM   15  C   UNL     1     -11.900  12.900  68.006  1.00  0.00    -0.343 C  
BRANCH  15  16
HETATM   16  O   UNL     1     -12.198  11.645  68.602  1.00  0.00    -0.455 OA 
BRANCH  16  17
HETATM   17  C   UNL     1     -11.189  10.768  68.887  1.00  0.00    -0.268 A  
HETATM   18  C   UNL     1     -10.208  10.375  67.967  1.00  0.00    -0.199 A  
HETATM   19  C   UNL     1      -9.153   9.542  68.355  1.00  0.00    -0.127 A  
HETATM   20  C   UNL     1      -9.075   9.066  69.659  1.00  0.00    -0.155 A  
HETATM   21  C   UNL     1     -10.060   9.423  70.579  1.00  0.00    -0.275 A  
HETATM   22  O   UNL     1      -9.992   8.924  71.852  1.00  0.00    -0.322 OA 
HETATM   23  C   UNL     1     -11.113  10.278  70.208  1.00  0.00    -0.388 A  
HETATM   24  C   UNL     1     -12.114  10.640  71.251  1.00  0.00    -0.299 C  
HETATM   25  H   UNL     1     -10.662   9.167  72.479  1.00  0.00     0.000 HD 
HETATM   26  O   UNL     1     -13.142  11.274  71.049  1.00  0.00    -0.263 OA 
ENDBRANCH  16  17
ENDBRANCH  15  16
ENDBRANCH  10  15
ENDBRANCH   8   9
ENDBRANCH   2   4
TORSDOF 5
ENDMDL
MODEL      190
REMARK 921   NORMALIZED FREE ENERGY PREDICTED BY IDOCK:   -4.69 KCAL/MOL
REMARK 922        TOTAL FREE ENERGY PREDICTED BY IDOCK:   -7.28 KCAL/MOL
REMARK 923 INTER-LIGAND FREE ENERGY PREDICTED BY IDOCK:   -6.64 KCAL/MOL
REMARK 924 INTRA-LIGAND FREE ENERGY PREDICTED BY IDOCK:   -0.64 KCAL/MOL
REMARK 927      BINDING AFFINITY PREDICTED BY RF-SCORE:    0.00 PKD
ROOT
HETATM    1  C   UNL     1      -9.956  11.438  64.833  1.00  0.00    -0.311 C  
HETATM    2  C   UNL     1      -9.377  11.159  66.223  1.00  0.00    -0.195 C  
HETATM    3  C   UNL     1      -8.008  11.837  66.375  1.00  0.00     0.065 C  
ENDROOT
BRANCH   2   4
HETATM    4  N   UNL     1     -10.271  11.598  67.296  1.00  0.00    -0.199 NA 
HETATM    5  N   UNL     1     -10.346  10.823  68.408  1.00  0.00    -0.171 NA 
HETATM    6  C   UNL     1     -11.434  11.259  69.030  1.00  0.00    -0.302 A  
HETATM    7  C   UNL     1     -12.026  12.344  68.366  1.00  0.00    -0.269 A  
HETATM    8  C   UNL     1     -11.204  12.627  67.285  1.00  0.00    -0.298 A  
BRANCH   8   9
HETATM    9  C   UNL     1     -11.170  13.785  66.384  1.00  0.00    -0.316 A  
HETATM   10  C   UNL     1     -10.201  14.794  66.356  1.00  0.00    -0.299 A  
HETATM   11  C   UNL     1     -12.189  14.632  64.466  1.00  0.00    -0.456 A  
HETATM   12  C   UNL     1     -10.297  15.756  65.328  1.00  0.00    -0.387 A  
HETATM   13  N   UNL     1     -12.151  13.701  65.443  1.00  0.00    -0.378 NA 
HETATM   14  C   UNL     1     -11.291  15.670  64.365  1.00  0.00    -0.272 A  
BRANCH  10  15
HETATM   15  C   UNL     1      -9.084  14.978  67.349  1.00  0.00    -0.186 C  
BRANCH  15  16
HETATM   16  O   UNL     1      -9.323  16.171  68.083  1.00  0.00    -0.198 OA 
BRANCH  16  17
HETATM   17  C   UNL     1      -8.272  16.936  68.503  1.00  0.00    -0.249 A  
HETATM   18  C   UNL     1      -7.143  16.426  69.159  1.00  0.00    -0.224 A  
HETATM   19  C   UNL     1      -6.064  17.255  69.481  1.00  0.00    -0.247 A  
HETATM   20  C   UNL     1      -6.104  18.612  69.177  1.00  0.00    -0.253 A  
HETATM   21  C   UNL     1      -7.231  19.141  68.551  1.00  0.00    -0.306 A  
HETATM   22  O   UNL     1      -7.274  20.484  68.286  1.00  0.00    -0.210 OA 
HETATM   23  C   UNL     1      -8.314  18.314  68.202  1.00  0.00    -0.296 A  
HETATM   24  C   UNL     1      -9.474  18.943  67.510  1.00  0.00    -0.302 C  
HETATM   25  H   UNL     1      -8.042  20.845  67.859  1.00  0.00     0.000 HD 
HETATM   26  O   UNL     1     -10.530  18.379  67.252  1.00  0.00    -0.377 OA 
ENDBRANCH  16  17
ENDBRANCH  15  16
ENDBRANCH  10  15
ENDBRANCH   8   9
ENDBRANCH   2   4
TORSDOF 5
ENDMDL
MODEL      191
REMARK 921   NORMALIZED FREE ENERGY PREDICTED BY IDOCK:   -4.69 KCAL/MOL
REMARK 922        TOTAL FREE ENERGY PREDICTED BY IDOCK:   -7.28 KCAL/MOL
REMARK 923 INTER-LIGAND FREE ENERGY PREDICTED BY IDOCK:   -6.03 KCAL/MOL
REMARK 924 INTRA-LIGAND FREE ENERGY PREDICTED BY IDOCK:   -1.25 KCAL/MOL
REMARK 927      BINDING AFFINITY PREDICTED BY RF-SCORE:    0.00 PKD
ROOT
HETATM    1  C   UNL     1      -6.962  12.915  67.785  1.00  0.00    -0.138 C  
HETATM    2  C   UNL     1      -7.717  11.596  67.599  1.00  0.00    -0.133 C  
HETATM    3  C   UNL     1      -8.288  11.115  68.940  1.00  0.00    -0.101 C  
ENDROOT
BRANCH   2   4
HETATM    4  N   UNL     1      -8.793  11.706  66.612  1.00  0.00    -0.184 NA 
HETATM    5  N   UNL     1      -9.276  12.947  66.346  1.00  0.00    -0.188 NA 
HETATM    6  C   UNL     1     -10.415  12.716  65.705  1.00  0.00    -0.277 A  
HETATM    7  C   UNL     1     -10.642  11.347  65.502  1.00  0.00    -0.328 A  
HETATM    8  C   UNL     1      -9.528  10.694  66.009  1.00  0.00    -0.193 A  
BRANCH   8   9
HETATM    9  C   UNL     1      -9.085   9.302  65.866  1.00  0.00    -0.197 A  
HETATM   10  C   UNL     1      -9.648   8.179  66.482  1.00  0.00    -0.303 A  
HETATM   11  C   UNL     1      -7.667   7.963  64.590  1.00  0.00    -0.120 A  
HETATM   12  C   UNL     1      -9.139   6.916  66.115  1.00  0.00    -0.144 A  
HETATM   13  N   UNL     1      -8.108   9.194  64.923  1.00  0.00    -0.126 NA 
HETATM   14  C   UNL     1      -8.148   6.801  65.151  1.00  0.00    -0.132 A  
BRANCH  10  15
HETATM   15  C   UNL     1     -10.724   8.192  67.535  1.00  0.00    -0.156 C  
BRANCH  15  16
HETATM   16  O   UNL     1     -10.108   8.075  68.811  1.00  0.00    -0.185 OA 
BRANCH  16  17
HETATM   17  C   UNL     1     -10.848   8.259  69.945  1.00  0.00    -0.213 A  
HETATM   18  C   UNL     1     -11.278   9.511  70.407  1.00  0.00    -0.323 A  
HETATM   19  C   UNL     1     -12.108   9.616  71.528  1.00  0.00    -0.482 A  
HETATM   20  C   UNL     1     -12.501   8.477  72.222  1.00  0.00    -0.448 A  
HETATM   21  C   UNL     1     -12.057   7.226  71.794  1.00  0.00    -0.319 A  
HETATM   22  O   UNL     1     -12.423   6.114  72.503  1.00  0.00    -0.552 OA 
HETATM   23  C   UNL     1     -11.241   7.105  70.655  1.00  0.00    -0.311 A  
HETATM   24  C   UNL     1     -10.828   5.735  70.239  1.00  0.00    -0.303 C  
HETATM   25  H   UNL     1     -12.122   5.262  72.211  1.00  0.00     0.000 HD 
HETATM   26  O   UNL     1     -10.029   5.482  69.346  1.00  0.00    -0.173 OA 
ENDBRANCH  16  17
ENDBRANCH  15  16
ENDBRANCH  10  15
ENDBRANCH   8   9
ENDBRANCH   2   4
TORSDOF 5
ENDMDL
MODEL      192
REMARK 921   NORMALIZED FREE ENERGY PREDICTED BY IDOCK:   -4.69 KCAL/MOL
REMARK 922        TOTAL FREE ENERGY PREDICTED BY IDOCK:   -7.27 KCAL/MOL
REMARK 923 INTER-LIGAND FREE ENERGY PREDICTED BY IDOCK:   -6.59 KCAL/MOL
REMARK 924 INTRA-LIGAND FREE ENERGY PREDICTED BY IDOCK:   -0.68 KCAL/MOL
REMARK 927      BINDING AFFINITY PREDICTED BY RF-SCORE:    0.00 PKD
ROOT
HETATM    1  C   UNL     1     -11.602  12.200  69.939  1.00  0.00    -0.297 C  
HETATM    2  C   UNL     1     -11.706  12.829  68.547  1.00  0.00    -0.333 C  
HETATM    3  C   UNL     1     -11.664  14.359  68.649  1.00  0.00    -0.367 C  
ENDROOT
BRANCH   2   4
HETATM    4  N   UNL     1     -10.651  12.361  67.645  1.00  0.00    -0.213 NA 
HETATM    5  N   UNL     1      -9.988  11.228  67.990  1.00  0.00    -0.174 NA 
HETATM    6  C   UNL     1      -8.914  11.235  67.210  1.00  0.00    -0.149 A  
HETATM    7  C   UNL     1      -8.908  12.325  66.327  1.00  0.00    -0.010 A  
HETATM    8  C   UNL     1     -10.097  13.004  66.546  1.00  0.00    -0.270 A  
BRANCH   8   9
HETATM    9  C   UNL     1     -10.754  14.062  65.770  1.00  0.00    -0.293 A  
HETATM   10  C   UNL     1     -10.221  15.317  65.451  1.00  0.00    -0.414 A  
HETATM   11  C   UNL     1     -12.615  14.445  64.420  1.00  0.00    -0.168 A  
HETATM   12  C   UNL     1     -10.979  16.142  64.593  1.00  0.00    -0.263 A  
HETATM   13  N   UNL     1     -11.936  13.628  65.253  1.00  0.00    -0.356 NA 
HETATM   14  C   UNL     1     -12.181  15.701  64.060  1.00  0.00     0.158 A  
BRANCH  10  15
HETATM   15  C   UNL     1      -8.931  15.891  65.972  1.00  0.00    -0.302 C  
BRANCH  15  16
HETATM   16  O   UNL     1      -8.956  17.300  65.789  1.00  0.00    -0.521 OA 
BRANCH  16  17
HETATM   17  C   UNL     1      -8.994  18.128  66.876  1.00  0.00    -0.271 A  
HETATM   18  C   UNL     1     -10.054  18.171  67.792  1.00  0.00    -0.371 A  
HETATM   19  C   UNL     1      -9.985  18.980  68.931  1.00  0.00    -0.460 A  
HETATM   20  C   UNL     1      -8.871  19.780  69.160  1.00  0.00     0.005 A  
HETATM   21  C   UNL     1      -7.821  19.771  68.243  1.00  0.00    -0.299 A  
HETATM   22  O   UNL     1      -6.743  20.586  68.461  1.00  0.00    -0.271 OA 
HETATM   23  C   UNL     1      -7.868  18.946  67.106  1.00  0.00    -0.252 A  
HETATM   24  C   UNL     1      -6.698  18.966  66.183  1.00  0.00    -0.227 C  
HETATM   25  H   UNL     1      -6.027  20.580  67.836  1.00  0.00     0.000 HD 
HETATM   26  O   UNL     1      -6.644  18.396  65.101  1.00  0.00    -0.471 OA 
ENDBRANCH  16  17
ENDBRANCH  15  16
ENDBRANCH  10  15
ENDBRANCH   8   9
ENDBRANCH   2   4
TORSDOF 5
ENDMDL
MODEL      193
REMARK 921   NORMALIZED FREE ENERGY PREDICTED BY IDOCK:   -4.69 KCAL/MOL
REMARK 922        TOTAL FREE ENERGY PREDICTED BY IDOCK:   -7.27 KCAL/MOL
REMARK 923 INTER-LIGAND FREE ENERGY PREDICTED BY IDOCK:   -5.94 KCAL/MOL
REMARK 924 INTRA-LIGAND FREE ENERGY PREDICTED BY IDOCK:   -1.33 KCAL/MOL
REMARK 927      BINDING AFFINITY PREDICTED BY RF-SCORE:    0.00 PKD
ROOT
HETATM    1  C   UNL     1      -7.747   8.225  74.027  1.00  0.00    -0.250 C  
HETATM    2  C   UNL     1      -8.366   7.998  72.645  1.00  0.00    -0.166 C  
HETATM    3  C   UNL     1      -7.309   7.466  71.669  1.00  0.00    -0.075 C  
ENDROOT
BRANCH   2   4
HETATM    4  N   UNL     1      -9.506   7.080  72.692  1.00  0.00    -0.141 NA 
HETATM    5  N   UNL     1      -9.291   5.837  73.193  1.00  0.00    -0.140 NA 
HETATM    6  C   UNL     1     -10.361   5.149  72.812  1.00  0.00    -0.197 A  
HETATM    7  C   UNL     1     -11.288   5.947  72.126  1.00  0.00    -0.344 A  
HETATM    8  C   UNL     1     -10.771   7.233  72.137  1.00  0.00    -0.219 A  
BRANCH   8   9
HETATM    9  C   UNL     1     -11.391   8.519  71.797  1.00  0.00    -0.307 A  
HETATM   10  C   UNL     1     -11.093   9.323  70.690  1.00  0.00    -0.335 A  
HETATM   11  C   UNL     1     -13.177   9.894  72.388  1.00  0.00    -0.225 A  
HETATM   12  C   UNL     1     -11.893  10.468  70.489  1.00  0.00    -0.442 A  
HETATM   13  N   UNL     1     -12.428   8.799  72.634  1.00  0.00    -0.303 NA 
HETATM   14  C   UNL     1     -12.954  10.753  71.335  1.00  0.00    -0.535 A  
BRANCH  10  15
HETATM   15  C   UNL     1      -9.970   9.104  69.712  1.00  0.00    -0.193 C  
BRANCH  15  16
HETATM   16  O   UNL     1     -10.529   8.765  68.450  1.00  0.00    -0.207 OA 
BRANCH  16  17
HETATM   17  C   UNL     1     -10.335   7.515  67.932  1.00  0.00    -0.210 A  
HETATM   18  C   UNL     1     -10.808   6.337  68.526  1.00  0.00    -0.394 A  
HETATM   19  C   UNL     1     -10.649   5.100  67.893  1.00  0.00    -0.027 A  
HETATM   20  C   UNL     1      -9.992   5.015  66.670  1.00  0.00    -0.246 A  
HETATM   21  C   UNL     1      -9.489   6.173  66.080  1.00  0.00    -0.010 A  
HETATM   22  O   UNL     1      -8.816   6.074  64.892  1.00  0.00    -0.362 OA 
HETATM   23  C   UNL     1      -9.662   7.426  66.695  1.00  0.00    -0.262 A  
HETATM   24  C   UNL     1      -9.123   8.625  65.993  1.00  0.00    -0.204 C  
HETATM   25  H   UNL     1      -8.473   6.863  64.489  1.00  0.00     0.000 HD 
HETATM   26  O   UNL     1      -9.094   9.758  66.457  1.00  0.00    -0.147 OA 
ENDBRANCH  16  17
ENDBRANCH  15  16
ENDBRANCH  10  15
ENDBRANCH   8   9
ENDBRANCH   2   4
TORSDOF 5
ENDMDL
MODEL      194
REMARK 921   NORMALIZED FREE ENERGY PREDICTED BY IDOCK:   -4.68 KCAL/MOL
REMARK 922        TOTAL FREE ENERGY PREDICTED BY IDOCK:   -7.26 KCAL/MOL
REMARK 923 INTER-LIGAND FREE ENERGY PREDICTED BY IDOCK:   -6.15 KCAL/MOL
REMARK 924 INTRA-LIGAND FREE ENERGY PREDICTED BY IDOCK:   -1.11 KCAL/MOL
REMARK 927      BINDING AFFINITY PREDICTED BY RF-SCORE:    0.00 PKD
ROOT
HETATM    1  C   UNL     1      -6.550   7.549  68.228  1.00  0.00    -0.050 C  
HETATM    2  C   UNL     1      -7.844   8.324  67.966  1.00  0.00    -0.118 C  
HETATM    3  C   UNL     1      -7.667   9.265  66.766  1.00  0.00    -0.094 C  
ENDROOT
BRANCH   2   4
HETATM    4  N   UNL     1      -8.986   7.437  67.738  1.00  0.00    -0.127 NA 
HETATM    5  N   UNL     1      -8.843   6.454  66.813  1.00  0.00    -0.121 NA 
HETATM    6  C   UNL     1     -10.085   6.047  66.583  1.00  0.00    -0.174 A  
HETATM    7  C   UNL     1     -11.020   6.713  67.390  1.00  0.00    -0.434 A  
HETATM    8  C   UNL     1     -10.285   7.550  68.216  1.00  0.00    -0.186 A  
BRANCH   8   9
HETATM    9  C   UNL     1     -10.679   8.300  69.415  1.00  0.00    -0.151 A  
HETATM   10  C   UNL     1     -11.186   9.604  69.455  1.00  0.00    -0.112 A  
HETATM   11  C   UNL     1     -11.062   8.019  71.696  1.00  0.00    -0.252 A  
HETATM   12  C   UNL     1     -11.612  10.094  70.708  1.00  0.00    -0.445 A  
HETATM   13  N   UNL     1     -10.624   7.513  70.525  1.00  0.00    -0.221 NA 
HETATM   14  C   UNL     1     -11.563   9.294  71.839  1.00  0.00    -0.405 A  
BRANCH  10  15
HETATM   15  C   UNL     1     -11.284  10.553  68.291  1.00  0.00    -0.291 C  
BRANCH  15  16
HETATM   16  O   UNL     1     -10.412  11.650  68.528  1.00  0.00    -0.203 OA 
BRANCH  16  17
HETATM   17  C   UNL     1     -10.919  12.915  68.633  1.00  0.00    -0.261 A  
HETATM   18  C   UNL     1     -11.722  13.352  69.696  1.00  0.00    -0.375 A  
HETATM   19  C   UNL     1     -12.132  14.686  69.784  1.00  0.00    -0.371 A  
HETATM   20  C   UNL     1     -11.771  15.599  68.799  1.00  0.00    -0.382 A  
HETATM   21  C   UNL     1     -10.998  15.174  67.720  1.00  0.00    -0.306 A  
HETATM   22  O   UNL     1     -10.676  16.074  66.739  1.00  0.00    -0.317 OA 
HETATM   23  C   UNL     1     -10.560  13.841  67.631  1.00  0.00    -0.244 A  
HETATM   24  C   UNL     1      -9.714  13.464  66.465  1.00  0.00    -0.282 C  
HETATM   25  H   UNL     1     -10.149  15.784  66.004  1.00  0.00     0.000 HD 
HETATM   26  O   UNL     1      -9.358  12.324  66.192  1.00  0.00    -0.230 OA 
ENDBRANCH  16  17
ENDBRANCH  15  16
ENDBRANCH  10  15
ENDBRANCH   8   9
ENDBRANCH   2   4
TORSDOF 5
ENDMDL
MODEL      195
REMARK 921   NORMALIZED FREE ENERGY PREDICTED BY IDOCK:   -4.66 KCAL/MOL
REMARK 922        TOTAL FREE ENERGY PREDICTED BY IDOCK:   -7.23 KCAL/MOL
REMARK 923 INTER-LIGAND FREE ENERGY PREDICTED BY IDOCK:   -6.10 KCAL/MOL
REMARK 924 INTRA-LIGAND FREE ENERGY PREDICTED BY IDOCK:   -1.13 KCAL/MOL
REMARK 927      BINDING AFFINITY PREDICTED BY RF-SCORE:    0.00 PKD
ROOT
HETATM    1  C   UNL     1      -9.830  14.911  66.380  1.00  0.00    -0.292 C  
HETATM    2  C   UNL     1      -9.909  13.490  66.945  1.00  0.00    -0.257 C  
HETATM    3  C   UNL     1     -11.112  13.358  67.889  1.00  0.00    -0.289 C  
ENDROOT
BRANCH   2   4
HETATM    4  N   UNL     1      -9.991  12.476  65.891  1.00  0.00    -0.256 NA 
HETATM    5  N   UNL     1     -10.726  12.774  64.789  1.00  0.00    -0.300 NA 
HETATM    6  C   UNL     1     -10.896  11.602  64.191  1.00  0.00    -0.372 A  
HETATM    7  C   UNL     1     -10.230  10.564  64.860  1.00  0.00    -0.371 A  
HETATM    8  C   UNL     1      -9.555  11.158  65.916  1.00  0.00    -0.218 A  
BRANCH   8   9
HETATM    9  C   UNL     1      -8.513  10.632  66.805  1.00  0.00    -0.134 A  
HETATM   10  C   UNL     1      -8.710   9.937  68.004  1.00  0.00    -0.125 A  
HETATM   11  C   UNL     1      -6.216  10.245  66.891  1.00  0.00    -0.068 A  
HETATM   12  C   UNL     1      -7.567   9.417  68.646  1.00  0.00    -0.080 A  
HETATM   13  N   UNL     1      -7.278  10.778  66.251  1.00  0.00    -0.136 NA 
HETATM   14  C   UNL     1      -6.308   9.558  68.081  1.00  0.00    -0.057 A  
BRANCH  10  15
HETATM   15  C   UNL     1     -10.028   9.726  68.699  1.00  0.00    -0.167 C  
BRANCH  15  16
HETATM   16  O   UNL     1      -9.806   9.734  70.103  1.00  0.00    -0.240 OA 
BRANCH  16  17
HETATM   17  C   UNL     1     -10.728   9.178  70.944  1.00  0.00    -0.275 A  
HETATM   18  C   UNL     1     -12.112   9.220  70.728  1.00  0.00    -0.231 A  
HETATM   19  C   UNL     1     -12.993   8.552  71.584  1.00  0.00    -0.369 A  
HETATM   20  C   UNL     1     -12.509   7.854  72.686  1.00  0.00    -0.042 A  
HETATM   21  C   UNL     1     -11.138   7.827  72.932  1.00  0.00    -0.398 A  
HETATM   22  O   UNL     1     -10.675   7.163  74.036  1.00  0.00    -0.493 OA 
HETATM   23  C   UNL     1     -10.240   8.475  72.066  1.00  0.00    -0.391 A  
HETATM   24  C   UNL     1      -8.785   8.381  72.374  1.00  0.00    -0.210 C  
HETATM   25  H   UNL     1      -9.740   7.145  74.204  1.00  0.00     0.000 HD 
HETATM   26  O   UNL     1      -7.899   8.986  71.784  1.00  0.00    -0.333 OA 
ENDBRANCH  16  17
ENDBRANCH  15  16
ENDBRANCH  10  15
ENDBRANCH   8   9
ENDBRANCH   2   4
TORSDOF 5
ENDMDL
MODEL      196
REMARK 921   NORMALIZED FREE ENERGY PREDICTED BY IDOCK:   -4.64 KCAL/MOL
REMARK 922        TOTAL FREE ENERGY PREDICTED BY IDOCK:   -7.21 KCAL/MOL
REMARK 923 INTER-LIGAND FREE ENERGY PREDICTED BY IDOCK:   -5.52 KCAL/MOL
REMARK 924 INTRA-LIGAND FREE ENERGY PREDICTED BY IDOCK:   -1.68 KCAL/MOL
REMARK 927      BINDING AFFINITY PREDICTED BY RF-SCORE:    0.00 PKD
ROOT
HETATM    1  C   UNL     1     -10.277   4.811  70.650  1.00  0.00    -0.250 C  
HETATM    2  C   UNL     1     -10.807   5.469  71.928  1.00  0.00    -0.223 C  
HETATM    3  C   UNL     1     -11.193   4.398  72.957  1.00  0.00    -0.240 C  
ENDROOT
BRANCH   2   4
HETATM    4  N   UNL     1      -9.840   6.397  72.516  1.00  0.00    -0.166 NA 
HETATM    5  N   UNL     1      -8.688   5.875  73.011  1.00  0.00    -0.124 NA 
HETATM    6  C   UNL     1      -8.184   6.854  73.752  1.00  0.00    -0.118 A  
HETATM    7  C   UNL     1      -8.964   8.019  73.692  1.00  0.00    -0.313 A  
HETATM    8  C   UNL     1      -9.992   7.748  72.802  1.00  0.00    -0.260 A  
BRANCH   8   9
HETATM    9  C   UNL     1     -10.963   8.640  72.158  1.00  0.00    -0.364 A  
HETATM   10  C   UNL     1     -10.770   9.374  70.982  1.00  0.00    -0.407 A  
HETATM   11  C   UNL     1     -13.210   9.251  72.240  1.00  0.00    -0.460 A  
HETATM   12  C   UNL     1     -11.880  10.081  70.472  1.00  0.00    -0.387 A  
HETATM   13  N   UNL     1     -12.174   8.575  72.777  1.00  0.00    -0.240 NA 
HETATM   14  C   UNL     1     -13.116  10.012  71.096  1.00  0.00    -0.472 A  
BRANCH  10  15
HETATM   15  C   UNL     1      -9.476   9.515  70.227  1.00  0.00    -0.259 C  
BRANCH  15  16
HETATM   16  O   UNL     1      -9.487   8.604  69.137  1.00  0.00    -0.156 OA 
BRANCH  16  17
HETATM   17  C   UNL     1      -8.502   7.663  69.023  1.00  0.00    -0.132 A  
HETATM   18  C   UNL     1      -7.349   7.634  69.820  1.00  0.00    -0.081 A  
HETATM   19  C   UNL     1      -6.425   6.590  69.709  1.00  0.00    -0.043 A  
HETATM   20  C   UNL     1      -6.623   5.572  68.782  1.00  0.00    -0.048 A  
HETATM   21  C   UNL     1      -7.749   5.601  67.961  1.00  0.00    -0.089 A  
HETATM   22  O   UNL     1      -7.917   4.612  67.030  1.00  0.00    -0.101 OA 
HETATM   23  C   UNL     1      -8.696   6.633  68.079  1.00  0.00    -0.117 A  
HETATM   24  C   UNL     1      -9.890   6.586  67.188  1.00  0.00    -0.148 C  
HETATM   25  H   UNL     1      -8.684   4.631  66.471  1.00  0.00     0.000 HD 
HETATM   26  O   UNL     1     -10.734   7.468  67.093  1.00  0.00    -0.326 OA 
ENDBRANCH  16  17
ENDBRANCH  15  16
ENDBRANCH  10  15
ENDBRANCH   8   9
ENDBRANCH   2   4
TORSDOF 5
ENDMDL
MODEL      197
REMARK 921   NORMALIZED FREE ENERGY PREDICTED BY IDOCK:   -4.62 KCAL/MOL
REMARK 922        TOTAL FREE ENERGY PREDICTED BY IDOCK:   -7.18 KCAL/MOL
REMARK 923 INTER-LIGAND FREE ENERGY PREDICTED BY IDOCK:   -5.99 KCAL/MOL
REMARK 924 INTRA-LIGAND FREE ENERGY PREDICTED BY IDOCK:   -1.19 KCAL/MOL
REMARK 927      BINDING AFFINITY PREDICTED BY RF-SCORE:    0.00 PKD
ROOT
HETATM    1  C   UNL     1      -6.569  14.543  70.204  1.00  0.00    -0.128 C  
HETATM    2  C   UNL     1      -6.901  13.601  69.043  1.00  0.00    -0.110 C  
HETATM    3  C   UNL     1      -6.229  14.088  67.753  1.00  0.00    -0.152 C  
ENDROOT
BRANCH   2   4
HETATM    4  N   UNL     1      -6.504  12.219  69.319  1.00  0.00    -0.104 NA 
HETATM    5  N   UNL     1      -5.526  12.018  70.238  1.00  0.00    -0.117 NA 
HETATM    6  C   UNL     1      -5.154  10.759  70.040  1.00  0.00    -0.044 A  
HETATM    7  C   UNL     1      -5.919  10.130  69.047  1.00  0.00    -0.037 A  
HETATM    8  C   UNL     1      -6.869  11.058  68.648  1.00  0.00    -0.064 A  
BRANCH   8   9
HETATM    9  C   UNL     1      -8.079  10.902  67.833  1.00  0.00    -0.113 A  
HETATM   10  C   UNL     1      -9.379  10.678  68.301  1.00  0.00    -0.156 A  
HETATM   11  C   UNL     1      -8.848  11.151  65.647  1.00  0.00    -0.157 A  
HETATM   12  C   UNL     1     -10.419  10.675  67.347  1.00  0.00    -0.280 A  
HETATM   13  N   UNL     1      -7.818  11.143  66.519  1.00  0.00    -0.154 NA 
HETATM   14  C   UNL     1     -10.157  10.926  66.009  1.00  0.00    -0.303 A  
BRANCH  10  15
HETATM   15  C   UNL     1      -9.771  10.397  69.727  1.00  0.00    -0.059 C  
BRANCH  15  16
HETATM   16  O   UNL     1     -11.189  10.325  69.800  1.00  0.00    -0.248 OA 
BRANCH  16  17
HETATM   17  C   UNL     1     -11.785   9.296  70.475  1.00  0.00    -0.176 A  
HETATM   18  C   UNL     1     -11.491   7.943  70.261  1.00  0.00    -0.097 A  
HETATM   19  C   UNL     1     -12.076   6.948  71.051  1.00  0.00    -0.429 A  
HETATM   20  C   UNL     1     -12.985   7.285  72.048  1.00  0.00    -0.196 A  
HETATM   21  C   UNL     1     -13.312   8.624  72.253  1.00  0.00    -0.375 A  
HETATM   22  O   UNL     1     -14.232   8.943  73.216  1.00  0.00    -1.197 OA 
HETATM   23  C   UNL     1     -12.713   9.636  71.482  1.00  0.00    -0.480 A  
HETATM   24  C   UNL     1     -13.088  11.048  71.775  1.00  0.00    -0.449 C  
HETATM   25  H   UNL     1     -14.454   9.856  73.357  1.00  0.00     0.000 HD 
HETATM   26  O   UNL     1     -12.743  12.020  71.116  1.00  0.00    -0.364 OA 
ENDBRANCH  16  17
ENDBRANCH  15  16
ENDBRANCH  10  15
ENDBRANCH   8   9
ENDBRANCH   2   4
TORSDOF 5
ENDMDL
MODEL      198
REMARK 921   NORMALIZED FREE ENERGY PREDICTED BY IDOCK:   -4.61 KCAL/MOL
REMARK 922        TOTAL FREE ENERGY PREDICTED BY IDOCK:   -7.18 KCAL/MOL
REMARK 923 INTER-LIGAND FREE ENERGY PREDICTED BY IDOCK:   -6.59 KCAL/MOL
REMARK 924 INTRA-LIGAND FREE ENERGY PREDICTED BY IDOCK:   -0.59 KCAL/MOL
REMARK 927      BINDING AFFINITY PREDICTED BY RF-SCORE:    0.00 PKD
ROOT
HETATM    1  C   UNL     1      -6.359  12.406  67.112  1.00  0.00    -0.093 C  
HETATM    2  C   UNL     1      -7.645  12.204  67.919  1.00  0.00    -0.123 C  
HETATM    3  C   UNL     1      -7.334  11.506  69.250  1.00  0.00    -0.009 C  
ENDROOT
BRANCH   2   4
HETATM    4  N   UNL     1      -8.346  13.464  68.171  1.00  0.00    -0.157 NA 
HETATM    5  N   UNL     1      -7.901  14.237  69.194  1.00  0.00    -0.044 NA 
HETATM    6  C   UNL     1      -8.888  15.102  69.395  1.00  0.00    -0.172 A  
HETATM    7  C   UNL     1      -9.935  14.935  68.477  1.00  0.00    -0.223 A  
HETATM    8  C   UNL     1      -9.531  13.927  67.614  1.00  0.00    -0.212 A  
BRANCH   8   9
HETATM    9  C   UNL     1     -10.086  13.487  66.328  1.00  0.00    -0.298 A  
HETATM   10  C   UNL     1     -10.568  14.308  65.302  1.00  0.00    -0.396 A  
HETATM   11  C   UNL     1     -10.312  11.589  64.995  1.00  0.00    -0.281 A  
HETATM   12  C   UNL     1     -10.950  13.681  64.097  1.00  0.00    -0.211 A  
HETATM   13  N   UNL     1      -9.953  12.141  66.173  1.00  0.00    -0.228 NA 
HETATM   14  C   UNL     1     -10.810  12.311  63.933  1.00  0.00    -0.464 A  
BRANCH  10  15
HETATM   15  C   UNL     1     -10.757  15.800  65.375  1.00  0.00    -0.404 C  
BRANCH  15  16
HETATM   16  O   UNL     1      -9.500  16.402  65.653  1.00  0.00    -0.486 OA 
BRANCH  16  17
HETATM   17  C   UNL     1      -9.449  17.661  66.182  1.00  0.00    -0.158 A  
HETATM   18  C   UNL     1     -10.508  18.579  66.128  1.00  0.00    -0.447 A  
HETATM   19  C   UNL     1     -10.417  19.819  66.768  1.00  0.00    -0.610 A  
HETATM   20  C   UNL     1      -9.258  20.174  67.450  1.00  0.00    -0.495 A  
HETATM   21  C   UNL     1      -8.184  19.286  67.489  1.00  0.00    -0.288 A  
HETATM   22  O   UNL     1      -7.037  19.659  68.135  1.00  0.00    -0.273 OA 
HETATM   23  C   UNL     1      -8.272  18.028  66.868  1.00  0.00    -0.259 A  
HETATM   24  C   UNL     1      -7.097  17.118  66.973  1.00  0.00    -0.190 C  
HETATM   25  H   UNL     1      -6.305  19.054  68.162  1.00  0.00     0.000 HD 
HETATM   26  O   UNL     1      -6.980  16.047  66.390  1.00  0.00    -0.070 OA 
ENDBRANCH  16  17
ENDBRANCH  15  16
ENDBRANCH  10  15
ENDBRANCH   8   9
ENDBRANCH   2   4
TORSDOF 5
ENDMDL
MODEL      199
REMARK 921   NORMALIZED FREE ENERGY PREDICTED BY IDOCK:   -4.58 KCAL/MOL
REMARK 922        TOTAL FREE ENERGY PREDICTED BY IDOCK:   -7.13 KCAL/MOL
REMARK 923 INTER-LIGAND FREE ENERGY PREDICTED BY IDOCK:   -6.25 KCAL/MOL
REMARK 924 INTRA-LIGAND FREE ENERGY PREDICTED BY IDOCK:   -0.89 KCAL/MOL
REMARK 927      BINDING AFFINITY PREDICTED BY RF-SCORE:    0.00 PKD
ROOT
HETATM    1  C   UNL     1     -12.469   6.933  70.464  1.00  0.00    -0.093 C  
HETATM    2  C   UNL     1     -11.129   6.272  70.800  1.00  0.00    -0.316 C  
HETATM    3  C   UNL     1     -10.575   5.537  69.572  1.00  0.00    -0.366 C  
ENDROOT
BRANCH   2   4
HETATM    4  N   UNL     1     -10.142   7.236  71.290  1.00  0.00    -0.189 NA 
HETATM    5  N   UNL     1      -9.651   7.050  72.542  1.00  0.00    -0.145 NA 
HETATM    6  C   UNL     1      -9.068   8.206  72.832  1.00  0.00    -0.267 A  
HETATM    7  C   UNL     1      -9.123   9.112  71.762  1.00  0.00     0.040 A  
HETATM    8  C   UNL     1      -9.739   8.436  70.719  1.00  0.00    -0.176 A  
BRANCH   8   9
HETATM    9  C   UNL     1      -9.855   8.772  69.295  1.00  0.00    -0.180 A  
HETATM   10  C   UNL     1     -10.760   9.672  68.721  1.00  0.00    -0.234 A  
HETATM   11  C   UNL     1      -8.753   8.492  67.261  1.00  0.00    -0.130 A  
HETATM   12  C   UNL     1     -10.623   9.936  67.342  1.00  0.00    -0.338 A  
HETATM   13  N   UNL     1      -8.857   8.193  68.572  1.00  0.00    -0.134 NA 
HETATM   14  C   UNL     1      -9.604   9.352  66.604  1.00  0.00    -0.250 A  
BRANCH  10  15
HETATM   15  C   UNL     1     -11.898  10.358  69.429  1.00  0.00    -0.118 C  
BRANCH  15  16
HETATM   16  O   UNL     1     -11.365  11.397  70.239  1.00  0.00    -0.223 OA 
BRANCH  16  17
HETATM   17  C   UNL     1     -11.493  12.701  69.849  1.00  0.00    -0.081 A  
HETATM   18  C   UNL     1     -10.788  13.273  68.782  1.00  0.00    -0.273 A  
HETATM   19  C   UNL     1     -11.036  14.591  68.382  1.00  0.00    -0.271 A  
HETATM   20  C   UNL     1     -11.972  15.366  69.058  1.00  0.00    -0.313 A  
HETATM   21  C   UNL     1     -12.660  14.822  70.141  1.00  0.00    -0.271 A  
HETATM   22  O   UNL     1     -13.556  15.604  70.819  1.00  0.00    -0.827 OA 
HETATM   23  C   UNL     1     -12.437  13.492  70.538  1.00  0.00    -0.373 A  
HETATM   24  C   UNL     1     -13.228  12.967  71.686  1.00  0.00    -0.336 C  
HETATM   25  H   UNL     1     -14.025  15.233  71.557  1.00  0.00     0.000 HD 
HETATM   26  O   UNL     1     -13.061  11.876  72.217  1.00  0.00    -0.385 OA 
ENDBRANCH  16  17
ENDBRANCH  15  16
ENDBRANCH  10  15
ENDBRANCH   8   9
ENDBRANCH   2   4
TORSDOF 5
ENDMDL
MODEL      200
REMARK 921   NORMALIZED FREE ENERGY PREDICTED BY IDOCK:   -4.58 KCAL/MOL
REMARK 922        TOTAL FREE ENERGY PREDICTED BY IDOCK:   -7.13 KCAL/MOL
REMARK 923 INTER-LIGAND FREE ENERGY PREDICTED BY IDOCK:   -6.11 KCAL/MOL
REMARK 924 INTRA-LIGAND FREE ENERGY PREDICTED BY IDOCK:   -1.02 KCAL/MOL
REMARK 927      BINDING AFFINITY PREDICTED BY RF-SCORE:    0.00 PKD
ROOT
HETATM    1  C   UNL     1     -12.002   5.525  72.580  1.00  0.00    -0.085 C  
HETATM    2  C   UNL     1     -11.875   6.531  71.431  1.00  0.00    -0.329 C  
HETATM    3  C   UNL     1     -13.102   7.451  71.391  1.00  0.00    -0.401 C  
ENDROOT
BRANCH   2   4
HETATM    4  N   UNL     1     -10.655   7.334  71.529  1.00  0.00    -0.204 NA 
HETATM    5  N   UNL     1     -10.174   7.597  72.771  1.00  0.00    -0.251 NA 
HETATM    6  C   UNL     1      -9.304   8.580  72.576  1.00  0.00    -0.246 A  
HETATM    7  C   UNL     1      -9.173   8.912  71.220  1.00  0.00    -0.328 A  
HETATM    8  C   UNL     1      -9.985   8.025  70.528  1.00  0.00    -0.190 A  
BRANCH   8   9
HETATM    9  C   UNL     1     -10.073   7.725  69.094  1.00  0.00    -0.196 A  
HETATM   10  C   UNL     1     -10.419   8.619  68.074  1.00  0.00    -0.254 A  
HETATM   11  C   UNL     1      -9.545   6.069  67.542  1.00  0.00    -0.113 A  
HETATM   12  C   UNL     1     -10.330   8.151  66.746  1.00  0.00    -0.361 A  
HETATM   13  N   UNL     1      -9.634   6.464  68.829  1.00  0.00    -0.126 NA 
HETATM   14  C   UNL     1      -9.876   6.869  66.472  1.00  0.00    -0.168 A  
BRANCH  10  15
HETATM   15  C   UNL     1     -10.920  10.026  68.260  1.00  0.00    -0.227 C  
BRANCH  15  16
HETATM   16  O   UNL     1     -10.008  10.918  67.633  1.00  0.00    -0.169 OA 
BRANCH  16  17
HETATM   17  C   UNL     1     -10.456  12.103  67.120  1.00  0.00    -0.219 A  
HETATM   18  C   UNL     1     -11.726  12.283  66.555  1.00  0.00    -0.420 A  
HETATM   19  C   UNL     1     -12.150  13.546  66.130  1.00  0.00    -0.482 A  
HETATM   20  C   UNL     1     -11.304  14.645  66.237  1.00  0.00    -0.347 A  
HETATM   21  C   UNL     1     -10.026  14.477  66.769  1.00  0.00    -0.264 A  
HETATM   22  O   UNL     1      -9.190  15.559  66.840  1.00  0.00    -0.212 OA 
HETATM   23  C   UNL     1      -9.596  13.217  67.220  1.00  0.00    -0.233 A  
HETATM   24  C   UNL     1      -8.229  13.117  67.803  1.00  0.00    -0.168 C  
HETATM   25  H   UNL     1      -8.319  15.445  67.203  1.00  0.00     0.000 HD 
HETATM   26  O   UNL     1      -7.676  12.073  68.128  1.00  0.00    -0.117 OA 
ENDBRANCH  16  17
ENDBRANCH  15  16
ENDBRANCH  10  15
ENDBRANCH   8   9
ENDBRANCH   2   4
TORSDOF 5
ENDMDL
MODEL      201
REMARK 921   NORMALIZED FREE ENERGY PREDICTED BY IDOCK:   -4.57 KCAL/MOL
REMARK 922        TOTAL FREE ENERGY PREDICTED BY IDOCK:   -7.12 KCAL/MOL
REMARK 923 INTER-LIGAND FREE ENERGY PREDICTED BY IDOCK:   -6.57 KCAL/MOL
REMARK 924 INTRA-LIGAND FREE ENERGY PREDICTED BY IDOCK:   -0.55 KCAL/MOL
REMARK 927      BINDING AFFINITY PREDICTED BY RF-SCORE:    0.00 PKD
ROOT
HETATM    1  C   UNL     1     -11.852  16.051  68.980  1.00  0.00    -0.258 C  
HETATM    2  C   UNL     1     -11.399  14.727  69.603  1.00  0.00    -0.283 C  
HETATM    3  C   UNL     1     -10.163  14.949  70.485  1.00  0.00     0.372 C  
ENDROOT
BRANCH   2   4
HETATM    4  N   UNL     1     -12.460  14.090  70.385  1.00  0.00    -0.351 NA 
HETATM    5  N   UNL     1     -13.399  14.895  70.943  1.00  0.00    -0.368 NA 
HETATM    6  C   UNL     1     -14.003  14.115  71.831  1.00  0.00    -0.470 A  
HETATM    7  C   UNL     1     -13.506  12.804  71.810  1.00  0.00    -0.343 A  
HETATM    8  C   UNL     1     -12.566  12.766  70.791  1.00  0.00    -0.225 A  
BRANCH   8   9
HETATM    9  C   UNL     1     -11.900  11.630  70.143  1.00  0.00    -0.344 A  
HETATM   10  C   UNL     1     -11.532  11.535  68.796  1.00  0.00    -0.349 A  
HETATM   11  C   UNL     1     -10.814   9.628  70.640  1.00  0.00    -0.320 A  
HETATM   12  C   UNL     1     -10.794  10.398  68.405  1.00  0.00    -0.289 A  
HETATM   13  N   UNL     1     -11.538  10.688  71.058  1.00  0.00    -0.240 NA 
HETATM   14  C   UNL     1     -10.419   9.440  69.335  1.00  0.00    -0.231 A  
BRANCH  10  15
HETATM   15  C   UNL     1     -11.886  12.516  67.710  1.00  0.00    -0.313 C  
BRANCH  15  16
HETATM   16  O   UNL     1     -10.758  12.674  66.859  1.00  0.00    -0.238 OA 
BRANCH  16  17
HETATM   17  C   UNL     1     -10.399  13.920  66.428  1.00  0.00    -0.289 A  
HETATM   18  C   UNL     1     -11.210  14.738  65.629  1.00  0.00    -0.343 A  
HETATM   19  C   UNL     1     -10.815  16.038  65.299  1.00  0.00    -0.376 A  
HETATM   20  C   UNL     1      -9.591  16.534  65.737  1.00  0.00    -0.191 A  
HETATM   21  C   UNL     1      -8.759  15.723  66.507  1.00  0.00    -0.319 A  
HETATM   22  O   UNL     1      -7.543  16.209  66.906  1.00  0.00    -0.203 OA 
HETATM   23  C   UNL     1      -9.155  14.422  66.865  1.00  0.00    -0.269 A  
HETATM   24  C   UNL     1      -8.227  13.622  67.713  1.00  0.00    -0.179 C  
HETATM   25  H   UNL     1      -6.975  15.656  67.430  1.00  0.00     0.000 HD 
HETATM   26  O   UNL     1      -8.380  12.442  68.004  1.00  0.00    -0.152 OA 
ENDBRANCH  16  17
ENDBRANCH  15  16
ENDBRANCH  10  15
ENDBRANCH   8   9
ENDBRANCH   2   4
TORSDOF 5
ENDMDL
MODEL      202
REMARK 921   NORMALIZED FREE ENERGY PREDICTED BY IDOCK:   -4.56 KCAL/MOL
REMARK 922        TOTAL FREE ENERGY PREDICTED BY IDOCK:   -7.10 KCAL/MOL
REMARK 923 INTER-LIGAND FREE ENERGY PREDICTED BY IDOCK:   -6.72 KCAL/MOL
REMARK 924 INTRA-LIGAND FREE ENERGY PREDICTED BY IDOCK:   -0.38 KCAL/MOL
REMARK 927      BINDING AFFINITY PREDICTED BY RF-SCORE:    0.00 PKD
ROOT
HETATM    1  C   UNL     1     -10.690   8.332  70.949  1.00  0.00    -0.250 C  
HETATM    2  C   UNL     1      -9.653   9.103  70.127  1.00  0.00    -0.206 C  
HETATM    3  C   UNL     1      -8.236   8.643  70.491  1.00  0.00    -0.127 C  
ENDROOT
BRANCH   2   4
HETATM    4  N   UNL     1      -9.868   8.958  68.685  1.00  0.00    -0.163 NA 
HETATM    5  N   UNL     1     -10.460   7.816  68.250  1.00  0.00    -0.193 NA 
HETATM    6  C   UNL     1     -10.224   7.811  66.944  1.00  0.00    -0.303 A  
HETATM    7  C   UNL     1      -9.542   8.962  66.524  1.00  0.00    -0.297 A  
HETATM    8  C   UNL     1      -9.400   9.758  67.651  1.00  0.00    -0.140 A  
BRANCH   8   9
HETATM    9  C   UNL     1      -8.996  11.162  67.789  1.00  0.00    -0.139 A  
HETATM   10  C   UNL     1      -9.843  12.261  67.969  1.00  0.00    -0.204 A  
HETATM   11  C   UNL     1      -7.108  12.492  68.103  1.00  0.00    -0.103 A  
HETATM   12  C   UNL     1      -9.237  13.515  68.196  1.00  0.00    -0.208 A  
HETATM   13  N   UNL     1      -7.641  11.276  67.862  1.00  0.00    -0.097 NA 
HETATM   14  C   UNL     1      -7.857  13.633  68.278  1.00  0.00    -0.141 A  
BRANCH  10  15
HETATM   15  C   UNL     1     -11.347  12.242  67.901  1.00  0.00    -0.298 C  
BRANCH  15  16
HETATM   16  O   UNL     1     -11.857  12.142  69.223  1.00  0.00    -0.304 OA 
BRANCH  16  17
HETATM   17  C   UNL     1     -11.999  13.266  69.987  1.00  0.00    -0.329 A  
HETATM   18  C   UNL     1     -11.605  14.547  69.578  1.00  0.00    -0.350 A  
HETATM   19  C   UNL     1     -11.861  15.667  70.376  1.00  0.00    -0.395 A  
HETATM   20  C   UNL     1     -12.491  15.523  71.608  1.00  0.00    -0.473 A  
HETATM   21  C   UNL     1     -12.862  14.252  72.044  1.00  0.00    -0.347 A  
HETATM   22  O   UNL     1     -13.452  14.117  73.271  1.00  0.00    -0.518 OA 
HETATM   23  C   UNL     1     -12.630  13.121  71.240  1.00  0.00    -0.382 A  
HETATM   24  C   UNL     1     -13.079  11.798  71.757  1.00  0.00    -0.375 C  
HETATM   25  H   UNL     1     -13.706  13.251  73.569  1.00  0.00     0.000 HD 
HETATM   26  O   UNL     1     -12.843  10.718  71.229  1.00  0.00    -0.378 OA 
ENDBRANCH  16  17
ENDBRANCH  15  16
ENDBRANCH  10  15
ENDBRANCH   8   9
ENDBRANCH   2   4
TORSDOF 5
ENDMDL
MODEL      203
REMARK 921   NORMALIZED FREE ENERGY PREDICTED BY IDOCK:   -4.55 KCAL/MOL
REMARK 922        TOTAL FREE ENERGY PREDICTED BY IDOCK:   -7.10 KCAL/MOL
REMARK 923 INTER-LIGAND FREE ENERGY PREDICTED BY IDOCK:   -6.73 KCAL/MOL
REMARK 924 INTRA-LIGAND FREE ENERGY PREDICTED BY IDOCK:   -0.36 KCAL/MOL
REMARK 927      BINDING AFFINITY PREDICTED BY RF-SCORE:    0.00 PKD
ROOT
HETATM    1  C   UNL     1     -10.482  19.285  66.001  1.00  0.00    -0.573 C  
HETATM    2  C   UNL     1      -9.991  17.968  66.609  1.00  0.00    -0.362 C  
HETATM    3  C   UNL     1     -10.670  17.720  67.962  1.00  0.00    -0.317 C  
ENDROOT
BRANCH   2   4
HETATM    4  N   UNL     1     -10.221  16.826  65.721  1.00  0.00    -0.530 NA 
HETATM    5  N   UNL     1     -11.075  17.002  64.680  1.00  0.00    -1.014 NA 
HETATM    6  C   UNL     1     -11.341  15.768  64.273  1.00  0.00    -0.179 A  
HETATM    7  C   UNL     1     -10.624  14.803  64.996  1.00  0.00    -0.452 A  
HETATM    8  C   UNL     1      -9.815  15.507  65.876  1.00  0.00    -0.353 A  
BRANCH   8   9
HETATM    9  C   UNL     1      -8.687  15.065  66.703  1.00  0.00    -0.254 A  
HETATM   10  C   UNL     1      -8.418  13.755  67.118  1.00  0.00    -0.189 A  
HETATM   11  C   UNL     1      -6.661  15.818  67.575  1.00  0.00    -0.183 A  
HETATM   12  C   UNL     1      -7.210  13.532  67.813  1.00  0.00    -0.157 A  
HETATM   13  N   UNL     1      -7.812  16.085  66.924  1.00  0.00    -0.228 NA 
HETATM   14  C   UNL     1      -6.315  14.567  68.034  1.00  0.00    -0.162 A  
BRANCH  10  15
HETATM   15  C   UNL     1      -9.317  12.563  66.929  1.00  0.00    -0.219 C  
BRANCH  15  16
HETATM   16  O   UNL     1      -8.518  11.448  66.555  1.00  0.00    -0.167 OA 
BRANCH  16  17
HETATM   17  C   UNL     1      -8.699  10.857  65.336  1.00  0.00    -0.155 A  
HETATM   18  C   UNL     1      -9.896  10.910  64.609  1.00  0.00    -0.350 A  
HETATM   19  C   UNL     1      -9.981  10.357  63.326  1.00  0.00    -0.118 A  
HETATM   20  C   UNL     1      -8.882   9.720  62.761  1.00  0.00    -0.250 A  
HETATM   21  C   UNL     1      -7.693   9.633  63.483  1.00  0.00    -0.130 A  
HETATM   22  O   UNL     1      -6.627   8.975  62.930  1.00  0.00    -0.094 OA 
HETATM   23  C   UNL     1      -7.587  10.204  64.764  1.00  0.00    -0.139 A  
HETATM   24  C   UNL     1      -6.278  10.097  65.466  1.00  0.00    -0.101 C  
HETATM   25  H   UNL     1      -5.816   8.916  63.422  1.00  0.00     0.000 HD 
HETATM   26  O   UNL     1      -6.070  10.440  66.624  1.00  0.00    -0.059 OA 
ENDBRANCH  16  17
ENDBRANCH  15  16
ENDBRANCH  10  15
ENDBRANCH   8   9
ENDBRANCH   2   4
TORSDOF 5
ENDMDL
MODEL      204
REMARK 921   NORMALIZED FREE ENERGY PREDICTED BY IDOCK:   -4.53 KCAL/MOL
REMARK 922        TOTAL FREE ENERGY PREDICTED BY IDOCK:   -7.07 KCAL/MOL
REMARK 923 INTER-LIGAND FREE ENERGY PREDICTED BY IDOCK:   -6.10 KCAL/MOL
REMARK 924 INTRA-LIGAND FREE ENERGY PREDICTED BY IDOCK:   -0.97 KCAL/MOL
REMARK 927      BINDING AFFINITY PREDICTED BY RF-SCORE:    0.00 PKD
ROOT
HETATM    1  C   UNL     1      -7.978   8.346  69.309  1.00  0.00    -0.113 C  
HETATM    2  C   UNL     1      -8.284   9.803  68.951  1.00  0.00    -0.117 C  
HETATM    3  C   UNL     1      -6.981  10.590  68.756  1.00  0.00    -0.070 C  
ENDROOT
BRANCH   2   4
HETATM    4  N   UNL     1      -9.117   9.918  67.752  1.00  0.00    -0.131 NA 
HETATM    5  N   UNL     1      -8.946   8.987  66.778  1.00  0.00    -0.132 NA 
HETATM    6  C   UNL     1      -9.555   9.513  65.722  1.00  0.00    -0.270 A  
HETATM    7  C   UNL     1     -10.166  10.740  66.019  1.00  0.00    -0.310 A  
HETATM    8  C   UNL     1      -9.963  10.952  67.375  1.00  0.00    -0.186 A  
BRANCH   8   9
HETATM    9  C   UNL     1     -10.567  11.924  68.294  1.00  0.00    -0.213 A  
HETATM   10  C   UNL     1     -10.346  13.306  68.311  1.00  0.00    -0.252 A  
HETATM   11  C   UNL     1     -12.240  12.113  69.905  1.00  0.00    -0.170 A  
HETATM   12  C   UNL     1     -11.120  14.074  69.207  1.00  0.00    -0.271 A  
HETATM   13  N   UNL     1     -11.510  11.335  69.079  1.00  0.00    -0.271 NA 
HETATM   14  C   UNL     1     -12.086  13.477  70.004  1.00  0.00    -0.411 A  
BRANCH  10  15
HETATM   15  C   UNL     1      -9.328  14.052  67.490  1.00  0.00    -0.209 C  
BRANCH  15  16
HETATM   16  O   UNL     1      -9.991  15.089  66.780  1.00  0.00    -0.239 OA 
BRANCH  16  17
HETATM   17  C   UNL     1      -9.782  16.394  67.126  1.00  0.00    -0.239 A  
HETATM   18  C   UNL     1      -9.092  16.800  68.276  1.00  0.00    -0.228 A  
HETATM   19  C   UNL     1      -8.838  18.154  68.520  1.00  0.00    -0.312 A  
HETATM   20  C   UNL     1      -9.292  19.126  67.635  1.00  0.00    -0.357 A  
HETATM   21  C   UNL     1     -10.006  18.741  66.502  1.00  0.00    -0.380 A  
HETATM   22  O   UNL     1     -10.476  19.707  65.654  1.00  0.00    -0.464 OA 
HETATM   23  C   UNL     1     -10.249  17.382  66.233  1.00  0.00    -0.344 A  
HETATM   24  C   UNL     1     -10.994  17.042  64.989  1.00  0.00     0.017 C  
HETATM   25  H   UNL     1     -10.963  19.445  64.881  1.00  0.00     0.000 HD 
HETATM   26  O   UNL     1     -11.380  15.921  64.683  1.00  0.00    -0.430 OA 
ENDBRANCH  16  17
ENDBRANCH  15  16
ENDBRANCH  10  15
ENDBRANCH   8   9
ENDBRANCH   2   4
TORSDOF 5
ENDMDL
MODEL      205
REMARK 921   NORMALIZED FREE ENERGY PREDICTED BY IDOCK:   -4.53 KCAL/MOL
REMARK 922        TOTAL FREE ENERGY PREDICTED BY IDOCK:   -7.07 KCAL/MOL
REMARK 923 INTER-LIGAND FREE ENERGY PREDICTED BY IDOCK:   -5.99 KCAL/MOL
REMARK 924 INTRA-LIGAND FREE ENERGY PREDICTED BY IDOCK:   -1.08 KCAL/MOL
REMARK 927      BINDING AFFINITY PREDICTED BY RF-SCORE:    0.00 PKD
ROOT
HETATM    1  C   UNL     1      -7.190   8.390  69.470  1.00  0.00    -0.061 C  
HETATM    2  C   UNL     1      -7.562   7.005  68.934  1.00  0.00    -0.104 C  
HETATM    3  C   UNL     1      -7.031   5.911  69.870  1.00  0.00    -0.066 C  
ENDROOT
BRANCH   2   4
HETATM    4  N   UNL     1      -9.008   6.848  68.757  1.00  0.00    -0.131 NA 
HETATM    5  N   UNL     1      -9.732   6.448  69.834  1.00  0.00    -0.165 NA 
HETATM    6  C   UNL     1     -10.897   6.078  69.316  1.00  0.00    -0.358 A  
HETATM    7  C   UNL     1     -10.953   6.291  67.931  1.00  0.00    -0.421 A  
HETATM    8  C   UNL     1      -9.751   6.889  67.585  1.00  0.00    -0.127 A  
BRANCH   8   9
HETATM    9  C   UNL     1      -9.334   7.556  66.346  1.00  0.00    -0.157 A  
HETATM   10  C   UNL     1      -9.486   8.913  66.037  1.00  0.00    -0.320 A  
HETATM   11  C   UNL     1      -8.075   7.198  64.418  1.00  0.00    -0.056 A  
HETATM   12  C   UNL     1      -8.907   9.371  64.834  1.00  0.00    -0.240 A  
HETATM   13  N   UNL     1      -8.629   6.709  65.547  1.00  0.00    -0.130 NA 
HETATM   14  C   UNL     1      -8.183   8.512  64.021  1.00  0.00    -0.132 A  
BRANCH  10  15
HETATM   15  C   UNL     1     -10.248   9.927  66.847  1.00  0.00    -0.240 C  
BRANCH  15  16
HETATM   16  O   UNL     1      -9.832  11.227  66.451  1.00  0.00    -0.201 OA 
BRANCH  16  17
HETATM   17  C   UNL     1     -10.758  12.145  66.041  1.00  0.00    -0.273 A  
HETATM   18  C   UNL     1     -11.397  12.112  64.794  1.00  0.00    -0.378 A  
HETATM   19  C   UNL     1     -12.400  13.033  64.477  1.00  0.00    -0.461 A  
HETATM   20  C   UNL     1     -12.764  14.018  65.389  1.00  0.00    -0.499 A  
HETATM   21  C   UNL     1     -12.118  14.083  66.622  1.00  0.00    -0.456 A  
HETATM   22  O   UNL     1     -12.462  15.077  67.499  1.00  0.00    -0.310 OA 
HETATM   23  C   UNL     1     -11.124  13.150  66.962  1.00  0.00    -0.305 A  
HETATM   24  C   UNL     1     -10.496  13.262  68.308  1.00  0.00    -0.250 C  
HETATM   25  H   UNL     1     -12.022  15.121  68.340  1.00  0.00     0.000 HD 
HETATM   26  O   UNL     1      -9.542  12.600  68.698  1.00  0.00    -0.146 OA 
ENDBRANCH  16  17
ENDBRANCH  15  16
ENDBRANCH  10  15
ENDBRANCH   8   9
ENDBRANCH   2   4
TORSDOF 5
ENDMDL
MODEL      206
REMARK 921   NORMALIZED FREE ENERGY PREDICTED BY IDOCK:   -4.52 KCAL/MOL
REMARK 922        TOTAL FREE ENERGY PREDICTED BY IDOCK:   -7.06 KCAL/MOL
REMARK 923 INTER-LIGAND FREE ENERGY PREDICTED BY IDOCK:   -5.93 KCAL/MOL
REMARK 924 INTRA-LIGAND FREE ENERGY PREDICTED BY IDOCK:   -1.13 KCAL/MOL
REMARK 927      BINDING AFFINITY PREDICTED BY RF-SCORE:    0.00 PKD
ROOT
HETATM    1  C   UNL     1     -12.024  15.625  69.044  1.00  0.00    -0.323 C  
HETATM    2  C   UNL     1     -10.861  14.667  69.315  1.00  0.00    -0.258 C  
HETATM    3  C   UNL     1     -11.318  13.212  69.144  1.00  0.00    -0.335 C  
ENDROOT
BRANCH   2   4
HETATM    4  N   UNL     1      -9.710  14.931  68.448  1.00  0.00    -0.204 NA 
HETATM    5  N   UNL     1      -8.597  15.454  69.024  1.00  0.00    -0.210 NA 
HETATM    6  C   UNL     1      -7.878  15.887  67.996  1.00  0.00    -0.136 A  
HETATM    7  C   UNL     1      -8.484  15.597  66.765  1.00  0.00    -0.307 A  
HETATM    8  C   UNL     1      -9.634  14.882  67.062  1.00  0.00    -0.238 A  
BRANCH   8   9
HETATM    9  C   UNL     1     -10.533  14.109  66.197  1.00  0.00    -0.296 A  
HETATM   10  C   UNL     1     -10.371  12.776  65.802  1.00  0.00    -0.297 A  
HETATM   11  C   UNL     1     -12.647  14.202  65.219  1.00  0.00    -0.442 A  
HETATM   12  C   UNL     1     -11.418  12.189  65.060  1.00  0.00    -0.377 A  
HETATM   13  N   UNL     1     -11.664  14.812  65.914  1.00  0.00    -0.300 NA 
HETATM   14  C   UNL     1     -12.573  12.901  64.775  1.00  0.00    -0.493 A  
BRANCH  10  15
HETATM   15  C   UNL     1      -9.162  11.917  66.059  1.00  0.00    -0.171 C  
BRANCH  15  16
HETATM   16  O   UNL     1      -9.122  11.595  67.443  1.00  0.00    -0.163 OA 
BRANCH  16  17
HETATM   17  C   UNL     1      -7.928  11.591  68.108  1.00  0.00    -0.136 A  
HETATM   18  C   UNL     1      -6.819  12.361  67.733  1.00  0.00    -0.113 A  
HETATM   19  C   UNL     1      -5.658  12.374  68.513  1.00  0.00    -0.054 A  
HETATM   20  C   UNL     1      -5.574  11.597  69.664  1.00  0.00    -0.076 A  
HETATM   21  C   UNL     1      -6.658  10.802  70.034  1.00  0.00    -0.159 A  
HETATM   22  O   UNL     1      -6.554  10.017  71.151  1.00  0.00    -0.325 OA 
HETATM   23  C   UNL     1      -7.839  10.798  69.271  1.00  0.00    -0.124 A  
HETATM   24  C   UNL     1      -8.967   9.945  69.742  1.00  0.00    -0.221 C  
HETATM   25  H   UNL     1      -7.292   9.475  71.403  1.00  0.00     0.000 HD 
HETATM   26  O   UNL     1     -10.006   9.749  69.125  1.00  0.00    -0.172 OA 
ENDBRANCH  16  17
ENDBRANCH  15  16
ENDBRANCH  10  15
ENDBRANCH   8   9
ENDBRANCH   2   4
TORSDOF 5
ENDMDL
MODEL      207
REMARK 921   NORMALIZED FREE ENERGY PREDICTED BY IDOCK:   -4.51 KCAL/MOL
REMARK 922        TOTAL FREE ENERGY PREDICTED BY IDOCK:   -7.04 KCAL/MOL
REMARK 923 INTER-LIGAND FREE ENERGY PREDICTED BY IDOCK:   -5.97 KCAL/MOL
REMARK 924 INTRA-LIGAND FREE ENERGY PREDICTED BY IDOCK:   -1.06 KCAL/MOL
REMARK 927      BINDING AFFINITY PREDICTED BY RF-SCORE:    0.00 PKD
ROOT
HETATM    1  C   UNL     1     -10.287   4.720  70.680  1.00  0.00    -0.184 C  
HETATM    2  C   UNL     1     -10.801   5.328  71.988  1.00  0.00    -0.163 C  
HETATM    3  C   UNL     1     -11.043   4.226  73.028  1.00  0.00    -0.232 C  
ENDROOT
BRANCH   2   4
HETATM    4  N   UNL     1      -9.885   6.332  72.532  1.00  0.00    -0.167 NA 
HETATM    5  N   UNL     1      -8.676   5.904  72.977  1.00  0.00    -0.124 NA 
HETATM    6  C   UNL     1      -8.219   6.924  73.693  1.00  0.00    -0.112 A  
HETATM    7  C   UNL     1      -9.089   8.024  73.665  1.00  0.00    -0.299 A  
HETATM    8  C   UNL     1     -10.131   7.668  72.821  1.00  0.00    -0.254 A  
BRANCH   8   9
HETATM    9  C   UNL     1     -11.195   8.479  72.218  1.00  0.00    -0.362 A  
HETATM   10  C   UNL     1     -11.100   9.250  71.054  1.00  0.00    -0.396 A  
HETATM   11  C   UNL     1     -13.487   8.875  72.362  1.00  0.00    -0.450 A  
HETATM   12  C   UNL     1     -12.282   9.861  70.584  1.00  0.00    -0.325 A  
HETATM   13  N   UNL     1     -12.380   8.288  72.862  1.00  0.00    -0.168 NA 
HETATM   14  C   UNL     1     -13.491   9.664  71.234  1.00  0.00    -0.359 A  
BRANCH  10  15
HETATM   15  C   UNL     1      -9.842   9.527  70.275  1.00  0.00    -0.261 C  
BRANCH  15  16
HETATM   16  O   UNL     1      -9.778   8.619  69.183  1.00  0.00    -0.168 OA 
BRANCH  16  17
HETATM   17  C   UNL     1      -9.773   9.092  67.901  1.00  0.00    -0.154 A  
HETATM   18  C   UNL     1     -10.191  10.380  67.539  1.00  0.00    -0.251 A  
HETATM   19  C   UNL     1     -10.075  10.828  66.219  1.00  0.00    -0.285 A  
HETATM   20  C   UNL     1      -9.566   9.988  65.234  1.00  0.00    -0.355 A  
HETATM   21  C   UNL     1      -9.173   8.694  65.572  1.00  0.00    -0.091 A  
HETATM   22  O   UNL     1      -8.703   7.865  64.589  1.00  0.00    -0.379 OA 
HETATM   23  C   UNL     1      -9.264   8.240  66.899  1.00  0.00    -0.197 A  
HETATM   24  C   UNL     1      -8.800   6.855  67.193  1.00  0.00    -0.120 C  
HETATM   25  H   UNL     1      -8.436   6.983  64.818  1.00  0.00     0.000 HD 
HETATM   26  O   UNL     1      -8.925   6.283  68.269  1.00  0.00    -0.117 OA 
ENDBRANCH  16  17
ENDBRANCH  15  16
ENDBRANCH  10  15
ENDBRANCH   8   9
ENDBRANCH   2   4
TORSDOF 5
ENDMDL
MODEL      208
REMARK 921   NORMALIZED FREE ENERGY PREDICTED BY IDOCK:   -4.51 KCAL/MOL
REMARK 922        TOTAL FREE ENERGY PREDICTED BY IDOCK:   -7.04 KCAL/MOL
REMARK 923 INTER-LIGAND FREE ENERGY PREDICTED BY IDOCK:   -5.90 KCAL/MOL
REMARK 924 INTRA-LIGAND FREE ENERGY PREDICTED BY IDOCK:   -1.14 KCAL/MOL
REMARK 927      BINDING AFFINITY PREDICTED BY RF-SCORE:    0.00 PKD
ROOT
HETATM    1  C   UNL     1     -10.639  10.273  69.361  1.00  0.00    -0.262 C  
HETATM    2  C   UNL     1     -11.907  11.041  68.978  1.00  0.00    -0.329 C  
HETATM    3  C   UNL     1     -13.031  10.747  69.981  1.00  0.00     0.042 C  
ENDROOT
BRANCH   2   4
HETATM    4  N   UNL     1     -11.678  12.485  68.897  1.00  0.00    -0.308 NA 
HETATM    5  N   UNL     1     -11.579  13.172  70.064  1.00  0.00    -0.194 NA 
HETATM    6  C   UNL     1     -11.712  14.442  69.701  1.00  0.00    -0.309 A  
HETATM    7  C   UNL     1     -11.834  14.586  68.311  1.00  0.00    -0.347 A  
HETATM    8  C   UNL     1     -11.710  13.310  67.780  1.00  0.00    -0.358 A  
BRANCH   8   9
HETATM    9  C   UNL     1     -11.513  12.863  66.397  1.00  0.00    -0.341 A  
HETATM   10  C   UNL     1     -10.377  12.230  65.878  1.00  0.00    -0.280 A  
HETATM   11  C   UNL     1     -12.675  12.542  64.402  1.00  0.00    -0.358 A  
HETATM   12  C   UNL     1     -10.443  11.777  64.543  1.00  0.00    -0.352 A  
HETATM   13  N   UNL     1     -12.653  13.010  65.667  1.00  0.00    -0.532 NA 
HETATM   14  C   UNL     1     -11.604  11.920  63.799  1.00  0.00    -0.555 A  
BRANCH  10  15
HETATM   15  C   UNL     1      -9.072  12.023  66.597  1.00  0.00    -0.205 C  
BRANCH  15  16
HETATM   16  O   UNL     1      -8.370  10.961  65.964  1.00  0.00    -0.164 OA 
BRANCH  16  17
HETATM   17  C   UNL     1      -8.382   9.711  66.516  1.00  0.00    -0.120 A  
HETATM   18  C   UNL     1      -9.377   8.754  66.270  1.00  0.00    -0.283 A  
HETATM   19  C   UNL     1      -9.278   7.463  66.799  1.00  0.00    -0.190 A  
HETATM   20  C   UNL     1      -8.199   7.114  67.604  1.00  0.00    -0.114 A  
HETATM   21  C   UNL     1      -7.216   8.062  67.883  1.00  0.00    -0.091 A  
HETATM   22  O   UNL     1      -6.175   7.718  68.702  1.00  0.00    -0.034 OA 
HETATM   23  C   UNL     1      -7.292   9.356  67.339  1.00  0.00    -0.087 A  
HETATM   24  C   UNL     1      -6.192  10.310  67.657  1.00  0.00    -0.057 C  
HETATM   25  H   UNL     1      -5.505   8.364  68.893  1.00  0.00     0.000 HD 
HETATM   26  O   UNL     1      -6.180  11.497  67.355  1.00  0.00    -0.069 OA 
ENDBRANCH  16  17
ENDBRANCH  15  16
ENDBRANCH  10  15
ENDBRANCH   8   9
ENDBRANCH   2   4
TORSDOF 5
ENDMDL
MODEL      209
REMARK 921   NORMALIZED FREE ENERGY PREDICTED BY IDOCK:   -4.50 KCAL/MOL
REMARK 922        TOTAL FREE ENERGY PREDICTED BY IDOCK:   -7.03 KCAL/MOL
REMARK 923 INTER-LIGAND FREE ENERGY PREDICTED BY IDOCK:   -6.82 KCAL/MOL
REMARK 924 INTRA-LIGAND FREE ENERGY PREDICTED BY IDOCK:   -0.22 KCAL/MOL
REMARK 927      BINDING AFFINITY PREDICTED BY RF-SCORE:    0.00 PKD
ROOT
HETATM    1  C   UNL     1     -11.504  16.164  64.220  1.00  0.00    -0.099 C  
HETATM    2  C   UNL     1     -10.748  16.178  65.552  1.00  0.00    -0.342 C  
HETATM    3  C   UNL     1      -9.427  15.410  65.422  1.00  0.00    -0.033 C  
ENDROOT
BRANCH   2   4
HETATM    4  N   UNL     1     -10.488  17.538  66.028  1.00  0.00    -0.424 NA 
HETATM    5  N   UNL     1     -11.073  18.562  65.355  1.00  0.00    -0.190 NA 
HETATM    6  C   UNL     1     -10.417  19.637  65.775  1.00  0.00    -0.444 A  
HETATM    7  C   UNL     1      -9.460  19.327  66.752  1.00  0.00    -0.386 A  
HETATM    8  C   UNL     1      -9.579  17.966  66.988  1.00  0.00    -0.286 A  
BRANCH   8   9
HETATM    9  C   UNL     1      -9.026  17.126  68.057  1.00  0.00    -0.233 A  
HETATM   10  C   UNL     1      -9.724  16.188  68.828  1.00  0.00    -0.233 A  
HETATM   11  C   UNL     1      -6.995  16.471  68.994  1.00  0.00    -0.208 A  
HETATM   12  C   UNL     1      -8.972  15.402  69.726  1.00  0.00    -0.035 A  
HETATM   13  N   UNL     1      -7.674  17.260  68.134  1.00  0.00    -0.210 NA 
HETATM   14  C   UNL     1      -7.594  15.532  69.804  1.00  0.00    -0.065 A  
BRANCH  10  15
HETATM   15  C   UNL     1     -11.213  15.967  68.820  1.00  0.00    -0.359 C  
BRANCH  15  16
HETATM   16  O   UNL     1     -11.507  14.844  69.640  1.00  0.00    -0.262 OA 
BRANCH  16  17
HETATM   17  C   UNL     1     -11.578  13.596  69.087  1.00  0.00    -0.309 A  
HETATM   18  C   UNL     1     -11.117  13.279  67.802  1.00  0.00    -0.289 A  
HETATM   19  C   UNL     1     -11.141  11.961  67.335  1.00  0.00    -0.336 A  
HETATM   20  C   UNL     1     -11.651  10.942  68.132  1.00  0.00    -0.317 A  
HETATM   21  C   UNL     1     -12.142  11.244  69.401  1.00  0.00    -0.315 A  
HETATM   22  O   UNL     1     -12.672  10.239  70.165  1.00  0.00    -0.542 OA 
HETATM   23  C   UNL     1     -12.103  12.562  69.891  1.00  0.00    -0.322 A  
HETATM   24  C   UNL     1     -12.619  12.807  71.267  1.00  0.00    -0.250 C  
HETATM   25  H   UNL     1     -13.006  10.445  71.030  1.00  0.00     0.000 HD 
HETATM   26  O   UNL     1     -12.757  13.910  71.781  1.00  0.00    -0.329 OA 
ENDBRANCH  16  17
ENDBRANCH  15  16
ENDBRANCH  10  15
ENDBRANCH   8   9
ENDBRANCH   2   4
TORSDOF 5
ENDMDL
MODEL      210
REMARK 921   NORMALIZED FREE ENERGY PREDICTED BY IDOCK:   -4.50 KCAL/MOL
REMARK 922        TOTAL FREE ENERGY PREDICTED BY IDOCK:   -7.03 KCAL/MOL
REMARK 923 INTER-LIGAND FREE ENERGY PREDICTED BY IDOCK:   -6.52 KCAL/MOL
REMARK 924 INTRA-LIGAND FREE ENERGY PREDICTED BY IDOCK:   -0.52 KCAL/MOL
REMARK 927      BINDING AFFINITY PREDICTED BY RF-SCORE:    0.00 PKD
ROOT
HETATM    1  C   UNL     1     -12.993  15.518  70.962  1.00  0.00    -0.550 C  
HETATM    2  C   UNL     1     -12.328  14.520  70.011  1.00  0.00    -0.323 C  
HETATM    3  C   UNL     1     -10.821  14.792  69.920  1.00  0.00    -0.185 C  
ENDROOT
BRANCH   2   4
HETATM    4  N   UNL     1     -12.559  13.131  70.413  1.00  0.00    -0.177 NA 
HETATM    5  N   UNL     1     -13.286  12.916  71.539  1.00  0.00    -0.314 NA 
HETATM    6  C   UNL     1     -13.052  11.643  71.833  1.00  0.00    -0.385 A  
HETATM    7  C   UNL     1     -12.234  11.019  70.879  1.00  0.00    -0.471 A  
HETATM    8  C   UNL     1     -11.996  11.970  69.898  1.00  0.00    -0.318 A  
BRANCH   8   9
HETATM    9  C   UNL     1     -11.422  11.837  68.554  1.00  0.00    -0.296 A  
HETATM   10  C   UNL     1     -10.332  11.041  68.186  1.00  0.00    -0.204 A  
HETATM   11  C   UNL     1     -11.851  12.379  66.328  1.00  0.00    -0.364 A  
HETATM   12  C   UNL     1     -10.016  10.970  66.813  1.00  0.00    -0.240 A  
HETATM   13  N   UNL     1     -12.179  12.495  67.632  1.00  0.00    -0.333 NA 
HETATM   14  C   UNL     1     -10.788  11.633  65.870  1.00  0.00    -0.339 A  
BRANCH  10  15
HETATM   15  C   UNL     1      -9.432  10.282  69.124  1.00  0.00    -0.215 C  
BRANCH  15  16
HETATM   16  O   UNL     1      -9.954   8.970  69.288  1.00  0.00    -0.178 OA 
BRANCH  16  17
HETATM   17  C   UNL     1      -9.632   8.241  70.398  1.00  0.00    -0.168 A  
HETATM   18  C   UNL     1      -9.746   8.719  71.711  1.00  0.00    -0.380 A  
HETATM   19  C   UNL     1      -9.483   7.886  72.803  1.00  0.00    -0.304 A  
HETATM   20  C   UNL     1      -9.076   6.572  72.604  1.00  0.00    -0.134 A  
HETATM   21  C   UNL     1      -8.928   6.089  71.304  1.00  0.00    -0.136 A  
HETATM   22  O   UNL     1      -8.496   4.804  71.119  1.00  0.00    -0.102 OA 
HETATM   23  C   UNL     1      -9.211   6.909  70.198  1.00  0.00    -0.155 A  
HETATM   24  C   UNL     1      -9.059   6.319  68.838  1.00  0.00    -0.124 C  
HETATM   25  H   UNL     1      -8.395   4.474  70.233  1.00  0.00     0.000 HD 
HETATM   26  O   UNL     1      -9.155   6.938  67.786  1.00  0.00    -0.120 OA 
ENDBRANCH  16  17
ENDBRANCH  15  16
ENDBRANCH  10  15
ENDBRANCH   8   9
ENDBRANCH   2   4
TORSDOF 5
ENDMDL
MODEL      211
REMARK 921   NORMALIZED FREE ENERGY PREDICTED BY IDOCK:   -4.48 KCAL/MOL
REMARK 922        TOTAL FREE ENERGY PREDICTED BY IDOCK:   -7.01 KCAL/MOL
REMARK 923 INTER-LIGAND FREE ENERGY PREDICTED BY IDOCK:   -6.16 KCAL/MOL
REMARK 924 INTRA-LIGAND FREE ENERGY PREDICTED BY IDOCK:   -0.85 KCAL/MOL
REMARK 927      BINDING AFFINITY PREDICTED BY RF-SCORE:    0.00 PKD
ROOT
HETATM    1  C   UNL     1      -7.080   8.680  68.402  1.00  0.00    -0.077 C  
HETATM    2  C   UNL     1      -7.554   7.232  68.246  1.00  0.00    -0.118 C  
HETATM    3  C   UNL     1      -7.056   6.378  69.420  1.00  0.00    -0.073 C  
ENDROOT
BRANCH   2   4
HETATM    4  N   UNL     1      -9.011   7.133  68.143  1.00  0.00    -0.128 NA 
HETATM    5  N   UNL     1      -9.667   6.464  69.126  1.00  0.00    -0.135 NA 
HETATM    6  C   UNL     1     -10.874   6.249  68.618  1.00  0.00    -0.333 A  
HETATM    7  C   UNL     1     -11.024   6.823  67.347  1.00  0.00    -0.407 A  
HETATM    8  C   UNL     1      -9.835   7.487  67.082  1.00  0.00    -0.201 A  
BRANCH   8   9
HETATM    9  C   UNL     1      -9.491   8.458  66.037  1.00  0.00    -0.154 A  
HETATM   10  C   UNL     1      -9.891   9.799  65.978  1.00  0.00    -0.342 A  
HETATM   11  C   UNL     1      -8.086   8.737  64.199  1.00  0.00    -0.162 A  
HETATM   12  C   UNL     1      -9.349  10.590  64.943  1.00  0.00    -0.278 A  
HETATM   13  N   UNL     1      -8.592   7.935  65.160  1.00  0.00    -0.086 NA 
HETATM   14  C   UNL     1      -8.428  10.062  64.052  1.00  0.00    -0.179 A  
BRANCH  10  15
HETATM   15  C   UNL     1     -10.880  10.470  66.894  1.00  0.00    -0.187 C  
BRANCH  15  16
HETATM   16  O   UNL     1     -11.270  11.705  66.310  1.00  0.00    -0.310 OA 
BRANCH  16  17
HETATM   17  C   UNL     1     -11.283  12.844  67.066  1.00  0.00    -0.288 A  
HETATM   18  C   UNL     1     -11.500  12.863  68.450  1.00  0.00    -0.347 A  
HETATM   19  C   UNL     1     -11.411  14.057  69.174  1.00  0.00    -0.340 A  
HETATM   20  C   UNL     1     -11.131  15.254  68.525  1.00  0.00    -0.284 A  
HETATM   21  C   UNL     1     -10.941  15.257  67.144  1.00  0.00    -0.331 A  
HETATM   22  O   UNL     1     -10.697  16.445  66.510  1.00  0.00    -0.270 OA 
HETATM   23  C   UNL     1     -11.006  14.061  66.408  1.00  0.00    -0.308 A  
HETATM   24  C   UNL     1     -10.765  14.134  64.939  1.00  0.00    -0.428 C  
HETATM   25  H   UNL     1     -10.568  16.448  65.569  1.00  0.00     0.000 HD 
HETATM   26  O   UNL     1     -10.903  13.203  64.155  1.00  0.00    -0.388 OA 
ENDBRANCH  16  17
ENDBRANCH  15  16
ENDBRANCH  10  15
ENDBRANCH   8   9
ENDBRANCH   2   4
TORSDOF 5
ENDMDL
MODEL      212
REMARK 921   NORMALIZED FREE ENERGY PREDICTED BY IDOCK:   -4.47 KCAL/MOL
REMARK 922        TOTAL FREE ENERGY PREDICTED BY IDOCK:   -6.99 KCAL/MOL
REMARK 923 INTER-LIGAND FREE ENERGY PREDICTED BY IDOCK:   -5.83 KCAL/MOL
REMARK 924 INTRA-LIGAND FREE ENERGY PREDICTED BY IDOCK:   -1.16 KCAL/MOL
REMARK 927      BINDING AFFINITY PREDICTED BY RF-SCORE:    0.00 PKD
ROOT
HETATM    1  C   UNL     1      -8.411   4.884  63.993  1.00  0.00    -0.137 C  
HETATM    2  C   UNL     1      -8.914   4.947  65.438  1.00  0.00    -0.151 C  
HETATM    3  C   UNL     1      -9.282   3.543  65.936  1.00  0.00    -0.162 C  
ENDROOT
BRANCH   2   4
HETATM    4  N   UNL     1      -7.934   5.553  66.342  1.00  0.00    -0.104 NA 
HETATM    5  N   UNL     1      -7.069   4.723  66.978  1.00  0.00    -0.071 NA 
HETATM    6  C   UNL     1      -6.553   5.476  67.942  1.00  0.00    -0.053 A  
HETATM    7  C   UNL     1      -7.029   6.794  67.897  1.00  0.00    -0.083 A  
HETATM    8  C   UNL     1      -7.856   6.867  66.786  1.00  0.00    -0.107 A  
BRANCH   8   9
HETATM    9  C   UNL     1      -8.436   8.025  66.096  1.00  0.00    -0.135 A  
HETATM   10  C   UNL     1      -9.602   8.712  66.453  1.00  0.00    -0.316 A  
HETATM   11  C   UNL     1      -7.946   9.596  64.446  1.00  0.00    -0.138 A  
HETATM   12  C   UNL     1      -9.918   9.874  65.719  1.00  0.00    -0.347 A  
HETATM   13  N   UNL     1      -7.612   8.468  65.107  1.00  0.00    -0.090 NA 
HETATM   14  C   UNL     1      -9.079  10.332  64.714  1.00  0.00    -0.256 A  
BRANCH  10  15
HETATM   15  C   UNL     1     -10.578   8.304  67.524  1.00  0.00    -0.221 C  
BRANCH  15  16
HETATM   16  O   UNL     1     -10.480   9.227  68.601  1.00  0.00    -0.207 OA 
BRANCH  16  17
HETATM   17  C   UNL     1     -10.958   8.888  69.835  1.00  0.00    -0.182 A  
HETATM   18  C   UNL     1     -10.593   7.725  70.526  1.00  0.00    -0.226 A  
HETATM   19  C   UNL     1     -11.053   7.487  71.825  1.00  0.00    -0.276 A  
HETATM   20  C   UNL     1     -11.907   8.392  72.446  1.00  0.00    -0.452 A  
HETATM   21  C   UNL     1     -12.304   9.540  71.762  1.00  0.00    -0.394 A  
HETATM   22  O   UNL     1     -13.170  10.409  72.369  1.00  0.00    -0.568 OA 
HETATM   23  C   UNL     1     -11.830   9.802  70.464  1.00  0.00    -0.316 A  
HETATM   24  C   UNL     1     -12.274  11.062  69.804  1.00  0.00    -0.318 C  
HETATM   25  H   UNL     1     -13.440  11.191  71.903  1.00  0.00     0.000 HD 
HETATM   26  O   UNL     1     -12.041  11.367  68.641  1.00  0.00    -0.518 OA 
ENDBRANCH  16  17
ENDBRANCH  15  16
ENDBRANCH  10  15
ENDBRANCH   8   9
ENDBRANCH   2   4
TORSDOF 5
ENDMDL
MODEL      213
REMARK 921   NORMALIZED FREE ENERGY PREDICTED BY IDOCK:   -4.47 KCAL/MOL
REMARK 922        TOTAL FREE ENERGY PREDICTED BY IDOCK:   -6.99 KCAL/MOL
REMARK 923 INTER-LIGAND FREE ENERGY PREDICTED BY IDOCK:   -5.97 KCAL/MOL
REMARK 924 INTRA-LIGAND FREE ENERGY PREDICTED BY IDOCK:   -1.01 KCAL/MOL
REMARK 927      BINDING AFFINITY PREDICTED BY RF-SCORE:    0.00 PKD
ROOT
HETATM    1  C   UNL     1      -8.685   4.770  63.501  1.00  0.00    -0.126 C  
HETATM    2  C   UNL     1      -9.142   4.874  64.959  1.00  0.00    -0.131 C  
HETATM    3  C   UNL     1      -9.613   3.506  65.468  1.00  0.00    -0.125 C  
ENDROOT
BRANCH   2   4
HETATM    4  N   UNL     1      -8.090   5.396  65.834  1.00  0.00    -0.106 NA 
HETATM    5  N   UNL     1      -7.148   4.522  66.273  1.00  0.00    -0.073 NA 
HETATM    6  C   UNL     1      -6.556   5.165  67.272  1.00  0.00    -0.053 A  
HETATM    7  C   UNL     1      -7.062   6.462  67.442  1.00  0.00    -0.077 A  
HETATM    8  C   UNL     1      -7.997   6.645  66.434  1.00  0.00    -0.106 A  
BRANCH   8   9
HETATM    9  C   UNL     1      -8.667   7.860  65.957  1.00  0.00    -0.158 A  
HETATM   10  C   UNL     1      -9.728   8.528  66.580  1.00  0.00    -0.330 A  
HETATM   11  C   UNL     1      -8.458   9.552  64.368  1.00  0.00    -0.181 A  
HETATM   12  C   UNL     1     -10.148   9.749  66.009  1.00  0.00    -0.322 A  
HETATM   13  N   UNL     1      -8.035   8.372  64.865  1.00  0.00    -0.128 NA 
HETATM   14  C   UNL     1      -9.502  10.275  64.901  1.00  0.00    -0.337 A  
BRANCH  10  15
HETATM   15  C   UNL     1     -10.494   8.047  67.782  1.00  0.00    -0.214 C  
BRANCH  15  16
HETATM   16  O   UNL     1      -9.972   8.688  68.938  1.00  0.00    -0.179 OA 
BRANCH  16  17
HETATM   17  C   UNL     1     -10.822   9.220  69.867  1.00  0.00    -0.234 A  
HETATM   18  C   UNL     1     -11.421  10.481  69.750  1.00  0.00    -0.365 A  
HETATM   19  C   UNL     1     -12.351  10.924  70.697  1.00  0.00    -0.470 A  
HETATM   20  C   UNL     1     -12.678  10.127  71.789  1.00  0.00    -0.534 A  
HETATM   21  C   UNL     1     -12.068   8.882  71.936  1.00  0.00    -0.373 A  
HETATM   22  O   UNL     1     -12.372   8.119  73.031  1.00  0.00    -0.666 OA 
HETATM   23  C   UNL     1     -11.148   8.416  70.979  1.00  0.00    -0.298 A  
HETATM   24  C   UNL     1     -10.557   7.064  71.185  1.00  0.00    -0.217 C  
HETATM   25  H   UNL     1     -11.957   7.270  73.131  1.00  0.00     0.000 HD 
HETATM   26  O   UNL     1      -9.662   6.576  70.507  1.00  0.00    -0.171 OA 
ENDBRANCH  16  17
ENDBRANCH  15  16
ENDBRANCH  10  15
ENDBRANCH   8   9
ENDBRANCH   2   4
TORSDOF 5
ENDMDL
MODEL      214
REMARK 921   NORMALIZED FREE ENERGY PREDICTED BY IDOCK:   -4.46 KCAL/MOL
REMARK 922        TOTAL FREE ENERGY PREDICTED BY IDOCK:   -6.98 KCAL/MOL
REMARK 923 INTER-LIGAND FREE ENERGY PREDICTED BY IDOCK:   -5.98 KCAL/MOL
REMARK 924 INTRA-LIGAND FREE ENERGY PREDICTED BY IDOCK:   -1.00 KCAL/MOL
REMARK 927      BINDING AFFINITY PREDICTED BY RF-SCORE:    0.00 PKD
ROOT
HETATM    1  C   UNL     1     -11.001  15.553  70.759  1.00  0.00    -0.360 C  
HETATM    2  C   UNL     1     -11.773  14.234  70.669  1.00  0.00    -0.223 C  
HETATM    3  C   UNL     1     -13.251  14.456  71.016  1.00  0.00    -0.395 C  
ENDROOT
BRANCH   2   4
HETATM    4  N   UNL     1     -11.661  13.614  69.346  1.00  0.00    -0.304 NA 
HETATM    5  N   UNL     1     -11.493  14.437  68.280  1.00  0.00    -0.289 NA 
HETATM    6  C   UNL     1     -11.756  13.664  67.234  1.00  0.00    -0.380 A  
HETATM    7  C   UNL     1     -12.032  12.340  67.609  1.00  0.00    -0.218 A  
HETATM    8  C   UNL     1     -11.870  12.290  68.985  1.00  0.00    -0.305 A  
BRANCH   8   9
HETATM    9  C   UNL     1     -11.784  11.144  69.899  1.00  0.00    -0.355 A  
HETATM   10  C   UNL     1     -10.683  10.298  70.076  1.00  0.00    -0.345 A  
HETATM   11  C   UNL     1     -12.919  10.134  71.666  1.00  0.00    -0.456 A  
HETATM   12  C   UNL     1     -10.772   9.326  71.095  1.00  0.00    -0.403 A  
HETATM   13  N   UNL     1     -12.888  11.067  70.691  1.00  0.00    -0.264 NA 
HETATM   14  C   UNL     1     -11.893   9.248  71.908  1.00  0.00    -0.426 A  
BRANCH  10  15
HETATM   15  C   UNL     1      -9.423  10.300  69.253  1.00  0.00    -0.215 C  
BRANCH  15  16
HETATM   16  O   UNL     1      -8.789   9.035  69.395  1.00  0.00    -0.137 OA 
BRANCH  16  17
HETATM   17  C   UNL     1      -8.650   8.217  68.309  1.00  0.00    -0.130 A  
HETATM   18  C   UNL     1      -9.724   7.725  67.554  1.00  0.00    -0.201 A  
HETATM   19  C   UNL     1      -9.502   6.964  66.402  1.00  0.00    -0.170 A  
HETATM   20  C   UNL     1      -8.207   6.658  65.999  1.00  0.00    -0.128 A  
HETATM   21  C   UNL     1      -7.128   7.114  66.755  1.00  0.00    -0.078 A  
HETATM   22  O   UNL     1      -5.858   6.780  66.368  1.00  0.00    -0.024 OA 
HETATM   23  C   UNL     1      -7.337   7.899  67.903  1.00  0.00    -0.092 A  
HETATM   24  C   UNL     1      -6.137   8.374  68.647  1.00  0.00    -0.045 C  
HETATM   25  H   UNL     1      -5.123   7.090  66.883  1.00  0.00     0.000 HD 
HETATM   26  O   UNL     1      -6.161   8.962  69.721  1.00  0.00    -0.034 OA 
ENDBRANCH  16  17
ENDBRANCH  15  16
ENDBRANCH  10  15
ENDBRANCH   8   9
ENDBRANCH   2   4
TORSDOF 5
ENDMDL
MODEL      215
REMARK 921   NORMALIZED FREE ENERGY PREDICTED BY IDOCK:   -4.46 KCAL/MOL
REMARK 922        TOTAL FREE ENERGY PREDICTED BY IDOCK:   -6.98 KCAL/MOL
REMARK 923 INTER-LIGAND FREE ENERGY PREDICTED BY IDOCK:   -7.00 KCAL/MOL
REMARK 924 INTRA-LIGAND FREE ENERGY PREDICTED BY IDOCK:    0.03 KCAL/MOL
REMARK 927      BINDING AFFINITY PREDICTED BY RF-SCORE:    0.00 PKD
ROOT
HETATM    1  C   UNL     1     -12.475  15.348  74.019  1.00  0.00    -0.780 C  
HETATM    2  C   UNL     1     -13.076  14.781  72.730  1.00  0.00    -0.474 C  
HETATM    3  C   UNL     1     -14.397  15.489  72.402  1.00  0.00    -0.475 C  
ENDROOT
BRANCH   2   4
HETATM    4  N   UNL     1     -12.158  14.890  71.594  1.00  0.00    -0.335 NA 
HETATM    5  N   UNL     1     -11.542  16.084  71.397  1.00  0.00    -0.446 NA 
HETATM    6  C   UNL     1     -11.063  15.997  70.162  1.00  0.00    -0.371 A  
HETATM    7  C   UNL     1     -11.309  14.742  69.585  1.00  0.00    -0.316 A  
HETATM    8  C   UNL     1     -11.938  13.986  70.563  1.00  0.00    -0.320 A  
BRANCH   8   9
HETATM    9  C   UNL     1     -12.215  12.547  70.632  1.00  0.00    -0.276 A  
HETATM   10  C   UNL     1     -11.681  11.553  69.803  1.00  0.00    -0.426 A  
HETATM   11  C   UNL     1     -13.226  10.948  71.993  1.00  0.00    -0.351 A  
HETATM   12  C   UNL     1     -11.991  10.213  70.117  1.00  0.00    -0.262 A  
HETATM   13  N   UNL     1     -12.974  12.246  71.721  1.00  0.00    -0.372 NA 
HETATM   14  C   UNL     1     -12.759   9.903  71.229  1.00  0.00    -0.482 A  
BRANCH  10  15
HETATM   15  C   UNL     1     -10.838  11.781  68.576  1.00  0.00    -0.224 C  
BRANCH  15  16
HETATM   16  O   UNL     1      -9.657  10.997  68.688  1.00  0.00    -0.183 OA 
BRANCH  16  17
HETATM   17  C   UNL     1      -8.494  11.431  68.117  1.00  0.00    -0.152 A  
HETATM   18  C   UNL     1      -8.237  12.767  67.777  1.00  0.00    -0.176 A  
HETATM   19  C   UNL     1      -6.989  13.153  67.278  1.00  0.00    -0.021 A  
HETATM   20  C   UNL     1      -5.987  12.210  67.083  1.00  0.00    -0.143 A  
HETATM   21  C   UNL     1      -6.235  10.872  67.388  1.00  0.00    -0.056 A  
HETATM   22  O   UNL     1      -5.252   9.947  67.163  1.00  0.00    -0.041 OA 
HETATM   23  C   UNL     1      -7.478  10.474  67.912  1.00  0.00    -0.091 A  
HETATM   24  C   UNL     1      -7.664   9.033  68.241  1.00  0.00    -0.095 C  
HETATM   25  H   UNL     1      -5.421   9.035  67.370  1.00  0.00     0.000 HD 
HETATM   26  O   UNL     1      -8.720   8.521  68.591  1.00  0.00    -0.137 OA 
ENDBRANCH  16  17
ENDBRANCH  15  16
ENDBRANCH  10  15
ENDBRANCH   8   9
ENDBRANCH   2   4
TORSDOF 5
ENDMDL
MODEL      216
REMARK 921   NORMALIZED FREE ENERGY PREDICTED BY IDOCK:   -4.45 KCAL/MOL
REMARK 922        TOTAL FREE ENERGY PREDICTED BY IDOCK:   -6.96 KCAL/MOL
REMARK 923 INTER-LIGAND FREE ENERGY PREDICTED BY IDOCK:   -5.37 KCAL/MOL
REMARK 924 INTRA-LIGAND FREE ENERGY PREDICTED BY IDOCK:   -1.59 KCAL/MOL
REMARK 927      BINDING AFFINITY PREDICTED BY RF-SCORE:    0.00 PKD
ROOT
HETATM    1  C   UNL     1     -10.906   6.279  69.099  1.00  0.00    -0.403 C  
HETATM    2  C   UNL     1     -10.549   5.929  70.547  1.00  0.00    -0.275 C  
HETATM    3  C   UNL     1      -9.901   4.539  70.614  1.00  0.00    -0.292 C  
ENDROOT
BRANCH   2   4
HETATM    4  N   UNL     1      -9.660   6.921  71.155  1.00  0.00    -0.166 NA 
HETATM    5  N   UNL     1      -8.334   6.632  71.199  1.00  0.00    -0.124 NA 
HETATM    6  C   UNL     1      -7.844   7.509  72.067  1.00  0.00    -0.090 A  
HETATM    7  C   UNL     1      -8.825   8.396  72.536  1.00  0.00    -0.296 A  
HETATM    8  C   UNL     1      -9.991   8.071  71.859  1.00  0.00    -0.195 A  
BRANCH   8   9
HETATM    9  C   UNL     1     -11.266   8.789  71.746  1.00  0.00    -0.340 A  
HETATM   10  C   UNL     1     -11.549   9.859  70.889  1.00  0.00    -0.456 A  
HETATM   11  C   UNL     1     -13.494   8.665  72.420  1.00  0.00    -0.340 A  
HETATM   12  C   UNL     1     -12.879  10.329  70.858  1.00  0.00    -0.463 A  
HETATM   13  N   UNL     1     -12.232   8.194  72.499  1.00  0.00    -0.323 NA 
HETATM   14  C   UNL     1     -13.866   9.721  71.619  1.00  0.00    -0.190 A  
BRANCH  10  15
HETATM   15  C   UNL     1     -10.556  10.587  70.023  1.00  0.00    -0.169 C  
BRANCH  15  16
HETATM   16  O   UNL     1     -10.080   9.690  69.029  1.00  0.00    -0.172 OA 
BRANCH  16  17
HETATM   17  C   UNL     1      -8.757   9.691  68.686  1.00  0.00    -0.124 A  
HETATM   18  C   UNL     1      -7.735  10.192  69.504  1.00  0.00    -0.155 A  
HETATM   19  C   UNL     1      -6.393  10.079  69.126  1.00  0.00    -0.044 A  
HETATM   20  C   UNL     1      -6.051   9.489  67.914  1.00  0.00    -0.052 A  
HETATM   21  C   UNL     1      -7.057   9.013  67.075  1.00  0.00    -0.079 A  
HETATM   22  O   UNL     1      -6.711   8.463  65.870  1.00  0.00    -0.053 OA 
HETATM   23  C   UNL     1      -8.408   9.100  67.453  1.00  0.00    -0.115 A  
HETATM   24  C   UNL     1      -9.428   8.545  66.519  1.00  0.00    -0.218 C  
HETATM   25  H   UNL     1      -7.396   8.139  65.298  1.00  0.00     0.000 HD 
HETATM   26  O   UNL     1     -10.640   8.653  66.656  1.00  0.00    -0.240 OA 
ENDBRANCH  16  17
ENDBRANCH  15  16
ENDBRANCH  10  15
ENDBRANCH   8   9
ENDBRANCH   2   4
TORSDOF 5
ENDMDL
MODEL      217
REMARK 921   NORMALIZED FREE ENERGY PREDICTED BY IDOCK:   -4.43 KCAL/MOL
REMARK 922        TOTAL FREE ENERGY PREDICTED BY IDOCK:   -6.93 KCAL/MOL
REMARK 923 INTER-LIGAND FREE ENERGY PREDICTED BY IDOCK:   -6.62 KCAL/MOL
REMARK 924 INTRA-LIGAND FREE ENERGY PREDICTED BY IDOCK:   -0.31 KCAL/MOL
REMARK 927      BINDING AFFINITY PREDICTED BY RF-SCORE:    0.00 PKD
ROOT
HETATM    1  C   UNL     1     -10.809  12.781  63.919  1.00  0.00    -0.447 C  
HETATM    2  C   UNL     1     -11.535  13.959  64.575  1.00  0.00    -0.381 C  
HETATM    3  C   UNL     1     -12.774  13.466  65.333  1.00  0.00    -0.484 C  
ENDROOT
BRANCH   2   4
HETATM    4  N   UNL     1     -10.665  14.713  65.480  1.00  0.00    -0.327 NA 
HETATM    5  N   UNL     1     -10.163  15.892  65.031  1.00  0.00    -0.477 NA 
HETATM    6  C   UNL     1      -9.186  16.170  65.887  1.00  0.00    -0.261 A  
HETATM    7  C   UNL     1      -9.093  15.218  66.913  1.00  0.00    -0.263 A  
HETATM    8  C   UNL     1     -10.129  14.321  66.700  1.00  0.00    -0.273 A  
BRANCH   8   9
HETATM    9  C   UNL     1     -10.681  13.271  67.564  1.00  0.00    -0.250 A  
HETATM   10  C   UNL     1     -10.242  11.945  67.653  1.00  0.00    -0.215 A  
HETATM   11  C   UNL     1     -12.149  12.965  69.348  1.00  0.00    -0.198 A  
HETATM   12  C   UNL     1     -10.840  11.130  68.637  1.00  0.00    -0.251 A  
HETATM   13  N   UNL     1     -11.621  13.777  68.409  1.00  0.00    -0.312 NA 
HETATM   14  C   UNL     1     -11.793  11.644  69.503  1.00  0.00    -0.414 A  
BRANCH  10  15
HETATM   15  C   UNL     1      -9.217  11.290  66.766  1.00  0.00    -0.175 C  
BRANCH  15  16
HETATM   16  O   UNL     1      -9.878  10.355  65.925  1.00  0.00    -0.208 OA 
BRANCH  16  17
HETATM   17  C   UNL     1      -9.708   9.014  66.129  1.00  0.00    -0.283 A  
HETATM   18  C   UNL     1     -10.393   8.276  67.104  1.00  0.00    -0.387 A  
HETATM   19  C   UNL     1     -10.234   6.889  67.198  1.00  0.00    -0.308 A  
HETATM   20  C   UNL     1      -9.370   6.221  66.337  1.00  0.00    -0.176 A  
HETATM   21  C   UNL     1      -8.659   6.944  65.381  1.00  0.00    -0.043 A  
HETATM   22  O   UNL     1      -7.787   6.280  64.561  1.00  0.00    -0.104 OA 
HETATM   23  C   UNL     1      -8.826   8.335  65.262  1.00  0.00    -0.074 A  
HETATM   24  C   UNL     1      -8.055   9.039  64.200  1.00  0.00    -0.157 C  
HETATM   25  H   UNL     1      -7.302   6.773  63.909  1.00  0.00     0.000 HD 
HETATM   26  O   UNL     1      -8.007  10.254  64.052  1.00  0.00    -0.156 OA 
ENDBRANCH  16  17
ENDBRANCH  15  16
ENDBRANCH  10  15
ENDBRANCH   8   9
ENDBRANCH   2   4
TORSDOF 5
ENDMDL
MODEL      218
REMARK 921   NORMALIZED FREE ENERGY PREDICTED BY IDOCK:   -4.42 KCAL/MOL
REMARK 922        TOTAL FREE ENERGY PREDICTED BY IDOCK:   -6.93 KCAL/MOL
REMARK 923 INTER-LIGAND FREE ENERGY PREDICTED BY IDOCK:   -5.86 KCAL/MOL
REMARK 924 INTRA-LIGAND FREE ENERGY PREDICTED BY IDOCK:   -1.07 KCAL/MOL
REMARK 927      BINDING AFFINITY PREDICTED BY RF-SCORE:    0.00 PKD
ROOT
HETATM    1  C   UNL     1      -7.595  16.617  68.729  1.00  0.00    -0.227 C  
HETATM    2  C   UNL     1      -8.379  15.724  67.763  1.00  0.00    -0.154 C  
HETATM    3  C   UNL     1      -8.388  16.339  66.357  1.00  0.00    -0.365 C  
ENDROOT
BRANCH   2   4
HETATM    4  N   UNL     1      -7.843  14.362  67.706  1.00  0.00    -0.144 NA 
HETATM    5  N   UNL     1      -6.630  14.141  68.274  1.00  0.00    -0.101 NA 
HETATM    6  C   UNL     1      -6.262  12.960  67.793  1.00  0.00    -0.144 A  
HETATM    7  C   UNL     1      -7.248  12.390  66.974  1.00  0.00    -0.013 A  
HETATM    8  C   UNL     1      -8.323  13.267  67.001  1.00  0.00    -0.080 A  
BRANCH   8   9
HETATM    9  C   UNL     1      -9.707  13.100  66.544  1.00  0.00    -0.268 A  
HETATM   10  C   UNL     1     -10.793  12.661  67.311  1.00  0.00    -0.277 A  
HETATM   11  C   UNL     1     -11.104  13.589  64.743  1.00  0.00    -0.359 A  
HETATM   12  C   UNL     1     -12.066  12.684  66.703  1.00  0.00    -0.267 A  
HETATM   13  N   UNL     1      -9.863  13.566  65.274  1.00  0.00    -0.156 NA 
HETATM   14  C   UNL     1     -12.229  13.164  65.412  1.00  0.00    -0.510 A  
BRANCH  10  15
HETATM   15  C   UNL     1     -10.726  12.124  68.716  1.00  0.00    -0.219 C  
BRANCH  15  16
HETATM   16  O   UNL     1      -9.921  10.952  68.714  1.00  0.00    -0.182 OA 
BRANCH  16  17
HETATM   17  C   UNL     1     -10.331   9.842  69.398  1.00  0.00    -0.222 A  
HETATM   18  C   UNL     1     -10.564   9.814  70.779  1.00  0.00    -0.371 A  
HETATM   19  C   UNL     1     -11.067   8.666  71.399  1.00  0.00    -0.343 A  
HETATM   20  C   UNL     1     -11.321   7.519  70.655  1.00  0.00    -0.301 A  
HETATM   21  C   UNL     1     -11.065   7.520  69.285  1.00  0.00     0.050 A  
HETATM   22  O   UNL     1     -11.288   6.375  68.567  1.00  0.00    -0.540 OA 
HETATM   23  C   UNL     1     -10.581   8.675  68.646  1.00  0.00    -0.165 A  
HETATM   24  C   UNL     1     -10.358   8.613  67.174  1.00  0.00    -0.299 C  
HETATM   25  H   UNL     1     -11.114   6.376  67.633  1.00  0.00     0.000 HD 
HETATM   26  O   UNL     1      -9.832   9.493  66.504  1.00  0.00    -0.203 OA 
ENDBRANCH  16  17
ENDBRANCH  15  16
ENDBRANCH  10  15
ENDBRANCH   8   9
ENDBRANCH   2   4
TORSDOF 5
ENDMDL
MODEL      219
REMARK 921   NORMALIZED FREE ENERGY PREDICTED BY IDOCK:   -4.39 KCAL/MOL
REMARK 922        TOTAL FREE ENERGY PREDICTED BY IDOCK:   -6.89 KCAL/MOL
REMARK 923 INTER-LIGAND FREE ENERGY PREDICTED BY IDOCK:   -6.16 KCAL/MOL
REMARK 924 INTRA-LIGAND FREE ENERGY PREDICTED BY IDOCK:   -0.73 KCAL/MOL
REMARK 927      BINDING AFFINITY PREDICTED BY RF-SCORE:    0.00 PKD
ROOT
HETATM    1  C   UNL     1      -9.662   4.488  67.133  1.00  0.00    -0.227 C  
HETATM    2  C   UNL     1      -9.519   5.961  66.740  1.00  0.00    -0.142 C  
HETATM    3  C   UNL     1     -10.848   6.699  66.949  1.00  0.00    -0.415 C  
ENDROOT
BRANCH   2   4
HETATM    4  N   UNL     1      -8.454   6.634  67.488  1.00  0.00    -0.121 NA 
HETATM    5  N   UNL     1      -7.285   6.872  66.839  1.00  0.00    -0.075 NA 
HETATM    6  C   UNL     1      -6.433   7.164  67.813  1.00  0.00    -0.048 A  
HETATM    7  C   UNL     1      -7.050   7.178  69.073  1.00  0.00    -0.084 A  
HETATM    8  C   UNL     1      -8.395   6.929  68.844  1.00  0.00    -0.121 A  
BRANCH   8   9
HETATM    9  C   UNL     1      -9.559   7.060  69.728  1.00  0.00    -0.151 A  
HETATM   10  C   UNL     1     -10.307   8.221  69.957  1.00  0.00    -0.212 A  
HETATM   11  C   UNL     1     -11.060   5.779  70.967  1.00  0.00    -0.194 A  
HETATM   12  C   UNL     1     -11.462   8.099  70.758  1.00  0.00    -0.272 A  
HETATM   13  N   UNL     1      -9.936   5.850  70.223  1.00  0.00    -0.183 NA 
HETATM   14  C   UNL     1     -11.853   6.866  71.259  1.00  0.00    -0.385 A  
BRANCH  10  15
HETATM   15  C   UNL     1      -9.974   9.603  69.461  1.00  0.00    -0.209 C  
BRANCH  15  16
HETATM   16  O   UNL     1     -11.187  10.308  69.239  1.00  0.00    -0.231 OA 
BRANCH  16  17
HETATM   17  C   UNL     1     -11.279  11.199  68.206  1.00  0.00    -0.279 A  
HETATM   18  C   UNL     1     -10.955  10.896  66.877  1.00  0.00    -0.286 A  
HETATM   19  C   UNL     1     -11.158  11.831  65.857  1.00  0.00    -0.355 A  
HETATM   20  C   UNL     1     -11.662  13.094  66.151  1.00  0.00    -0.428 A  
HETATM   21  C   UNL     1     -11.961  13.422  67.472  1.00  0.00    -0.339 A  
HETATM   22  O   UNL     1     -12.426  14.678  67.755  1.00  0.00    -0.575 OA 
HETATM   23  C   UNL     1     -11.783  12.483  68.503  1.00  0.00    -0.369 A  
HETATM   24  C   UNL     1     -12.150  12.894  69.888  1.00  0.00    -0.265 C  
HETATM   25  H   UNL     1     -12.630  14.903  68.655  1.00  0.00     0.000 HD 
HETATM   26  O   UNL     1     -11.942  12.232  70.897  1.00  0.00    -0.197 OA 
ENDBRANCH  16  17
ENDBRANCH  15  16
ENDBRANCH  10  15
ENDBRANCH   8   9
ENDBRANCH   2   4
TORSDOF 5
ENDMDL
MODEL      220
REMARK 921   NORMALIZED FREE ENERGY PREDICTED BY IDOCK:   -4.38 KCAL/MOL
REMARK 922        TOTAL FREE ENERGY PREDICTED BY IDOCK:   -6.87 KCAL/MOL
REMARK 923 INTER-LIGAND FREE ENERGY PREDICTED BY IDOCK:   -5.77 KCAL/MOL
REMARK 924 INTRA-LIGAND FREE ENERGY PREDICTED BY IDOCK:   -1.10 KCAL/MOL
REMARK 927      BINDING AFFINITY PREDICTED BY RF-SCORE:    0.00 PKD
ROOT
HETATM    1  C   UNL     1     -11.302   6.270  70.645  1.00  0.00    -0.409 C  
HETATM    2  C   UNL     1     -10.092   6.843  69.902  1.00  0.00    -0.188 C  
HETATM    3  C   UNL     1      -8.790   6.404  70.587  1.00  0.00    -0.144 C  
ENDROOT
BRANCH   2   4
HETATM    4  N   UNL     1     -10.068   6.449  68.492  1.00  0.00    -0.145 NA 
HETATM    5  N   UNL     1     -10.824   5.382  68.125  1.00  0.00    -0.003 NA 
HETATM    6  C   UNL     1     -10.362   5.061  66.923  1.00  0.00    -0.218 A  
HETATM    7  C   UNL     1      -9.362   5.942  66.486  1.00  0.00    -0.166 A  
HETATM    8  C   UNL     1      -9.243   6.909  67.473  1.00  0.00    -0.123 A  
BRANCH   8   9
HETATM    9  C   UNL     1      -8.550   8.202  67.471  1.00  0.00    -0.129 A  
HETATM   10  C   UNL     1      -9.118   9.454  67.210  1.00  0.00    -0.150 A  
HETATM   11  C   UNL     1      -6.520   9.183  68.064  1.00  0.00    -0.059 A  
HETATM   12  C   UNL     1      -8.293  10.586  67.375  1.00  0.00    -0.121 A  
HETATM   13  N   UNL     1      -7.265   8.069  67.900  1.00  0.00    -0.089 NA 
HETATM   14  C   UNL     1      -6.985  10.455  67.818  1.00  0.00    -0.083 A  
BRANCH  10  15
HETATM   15  C   UNL     1     -10.522   9.707  66.728  1.00  0.00    -0.186 C  
BRANCH  15  16
HETATM   16  O   UNL     1     -11.148  10.621  67.618  1.00  0.00    -0.294 OA 
BRANCH  16  17
HETATM   17  C   UNL     1     -11.404  11.901  67.213  1.00  0.00    -0.329 A  
HETATM   18  C   UNL     1     -11.384  12.319  65.876  1.00  0.00    -0.406 A  
HETATM   19  C   UNL     1     -11.744  13.625  65.527  1.00  0.00    -0.352 A  
HETATM   20  C   UNL     1     -12.104  14.542  66.509  1.00  0.00    -0.330 A  
HETATM   21  C   UNL     1     -12.101  14.150  67.847  1.00  0.00    -0.274 A  
HETATM   22  O   UNL     1     -12.426  15.069  68.808  1.00  0.00    -0.586 OA 
HETATM   23  C   UNL     1     -11.762  12.834  68.208  1.00  0.00    -0.388 A  
HETATM   24  C   UNL     1     -11.807  12.478  69.655  1.00  0.00    -0.314 C  
HETATM   25  H   UNL     1     -12.423  14.803  69.720  1.00  0.00     0.000 HD 
HETATM   26  O   UNL     1     -11.429  11.415  70.130  1.00  0.00    -0.288 OA 
ENDBRANCH  16  17
ENDBRANCH  15  16
ENDBRANCH  10  15
ENDBRANCH   8   9
ENDBRANCH   2   4
TORSDOF 5
ENDMDL
MODEL      221
REMARK 921   NORMALIZED FREE ENERGY PREDICTED BY IDOCK:   -4.38 KCAL/MOL
REMARK 922        TOTAL FREE ENERGY PREDICTED BY IDOCK:   -6.87 KCAL/MOL
REMARK 923 INTER-LIGAND FREE ENERGY PREDICTED BY IDOCK:   -6.12 KCAL/MOL
REMARK 924 INTRA-LIGAND FREE ENERGY PREDICTED BY IDOCK:   -0.75 KCAL/MOL
REMARK 927      BINDING AFFINITY PREDICTED BY RF-SCORE:    0.00 PKD
ROOT
HETATM    1  C   UNL     1      -7.972  12.944  67.137  1.00  0.00    -0.104 C  
HETATM    2  C   UNL     1      -9.233  13.803  67.266  1.00  0.00    -0.239 C  
HETATM    3  C   UNL     1      -8.932  15.255  66.872  1.00  0.00    -0.274 C  
ENDROOT
BRANCH   2   4
HETATM    4  N   UNL     1     -10.341  13.288  66.458  1.00  0.00    -0.280 NA 
HETATM    5  N   UNL     1     -10.312  13.536  65.124  1.00  0.00    -0.347 NA 
HETATM    6  C   UNL     1     -11.548  13.265  64.721  1.00  0.00    -0.332 A  
HETATM    7  C   UNL     1     -12.354  12.789  65.766  1.00  0.00    -0.388 A  
HETATM    8  C   UNL     1     -11.531  12.710  66.880  1.00  0.00    -0.343 A  
BRANCH   8   9
HETATM    9  C   UNL     1     -11.739  12.064  68.181  1.00  0.00    -0.333 A  
HETATM   10  C   UNL     1     -11.453  10.733  68.508  1.00  0.00    -0.362 A  
HETATM   11  C   UNL     1     -12.256  12.558  70.399  1.00  0.00    -0.286 A  
HETATM   12  C   UNL     1     -11.621  10.348  69.855  1.00  0.00    -0.358 A  
HETATM   13  N   UNL     1     -12.130  12.969  69.120  1.00  0.00    -0.245 NA 
HETATM   14  C   UNL     1     -12.013  11.268  70.815  1.00  0.00    -0.383 A  
BRANCH  10  15
HETATM   15  C   UNL     1     -11.021   9.658  67.547  1.00  0.00    -0.096 C  
BRANCH  15  16
HETATM   16  O   UNL     1      -9.788   9.115  68.001  1.00  0.00    -0.157 OA 
BRANCH  16  17
HETATM   17  C   UNL     1      -9.781   8.175  68.994  1.00  0.00    -0.163 A  
HETATM   18  C   UNL     1     -10.567   7.015  68.982  1.00  0.00    -0.234 A  
HETATM   19  C   UNL     1     -10.443   6.053  69.989  1.00  0.00    -0.313 A  
HETATM   20  C   UNL     1      -9.551   6.245  71.039  1.00  0.00    -0.191 A  
HETATM   21  C   UNL     1      -8.783   7.408  71.082  1.00  0.00    -0.137 A  
HETATM   22  O   UNL     1      -7.932   7.602  72.137  1.00  0.00    -0.096 OA 
HETATM   23  C   UNL     1      -8.883   8.372  70.064  1.00  0.00    -0.137 A  
HETATM   24  C   UNL     1      -8.011   9.577  70.160  1.00  0.00    -0.160 C  
HETATM   25  H   UNL     1      -7.408   8.394  72.166  1.00  0.00     0.000 HD 
HETATM   26  O   UNL     1      -8.070  10.549  69.418  1.00  0.00    -0.155 OA 
ENDBRANCH  16  17
ENDBRANCH  15  16
ENDBRANCH  10  15
ENDBRANCH   8   9
ENDBRANCH   2   4
TORSDOF 5
ENDMDL
MODEL      222
REMARK 921   NORMALIZED FREE ENERGY PREDICTED BY IDOCK:   -4.36 KCAL/MOL
REMARK 922        TOTAL FREE ENERGY PREDICTED BY IDOCK:   -6.85 KCAL/MOL
REMARK 923 INTER-LIGAND FREE ENERGY PREDICTED BY IDOCK:   -5.41 KCAL/MOL
REMARK 924 INTRA-LIGAND FREE ENERGY PREDICTED BY IDOCK:   -1.45 KCAL/MOL
REMARK 927      BINDING AFFINITY PREDICTED BY RF-SCORE:    0.00 PKD
ROOT
HETATM    1  C   UNL     1      -8.763   6.191  65.721  1.00  0.00    -0.151 C  
HETATM    2  C   UNL     1      -9.099   7.684  65.767  1.00  0.00     0.009 C  
HETATM    3  C   UNL     1      -9.950   8.001  67.004  1.00  0.00    -0.324 C  
ENDROOT
BRANCH   2   4
HETATM    4  N   UNL     1      -7.899   8.524  65.760  1.00  0.00    -0.097 NA 
HETATM    5  N   UNL     1      -6.703   7.912  65.957  1.00  0.00    -0.053 NA 
HETATM    6  C   UNL     1      -5.873   8.911  66.231  1.00  0.00    -0.050 A  
HETATM    7  C   UNL     1      -6.504  10.161  66.154  1.00  0.00    -0.096 A  
HETATM    8  C   UNL     1      -7.806   9.910  65.747  1.00  0.00    -0.121 A  
BRANCH   8   9
HETATM    9  C   UNL     1      -8.853  10.819  65.265  1.00  0.00    -0.187 A  
HETATM   10  C   UNL     1      -9.392  11.912  65.955  1.00  0.00    -0.193 A  
HETATM   11  C   UNL     1     -10.032  11.380  63.336  1.00  0.00    -0.402 A  
HETATM   12  C   UNL     1     -10.310  12.726  65.259  1.00  0.00    -0.313 A  
HETATM   13  N   UNL     1      -9.165  10.561  63.966  1.00  0.00    -0.230 NA 
HETATM   14  C   UNL     1     -10.626  12.470  63.933  1.00  0.00    -0.472 A  
BRANCH  10  15
HETATM   15  C   UNL     1      -9.116  12.278  67.388  1.00  0.00    -0.184 C  
BRANCH  15  16
HETATM   16  O   UNL     1     -10.077  11.633  68.213  1.00  0.00    -0.189 OA 
BRANCH  16  17
HETATM   17  C   UNL     1      -9.671  10.725  69.151  1.00  0.00    -0.163 A  
HETATM   18  C   UNL     1      -8.334  10.370  69.371  1.00  0.00    -0.152 A  
HETATM   19  C   UNL     1      -7.984   9.500  70.409  1.00  0.00    -0.200 A  
HETATM   20  C   UNL     1      -8.966   8.949  71.226  1.00  0.00    -0.312 A  
HETATM   21  C   UNL     1     -10.304   9.268  71.001  1.00  0.00    -0.318 A  
HETATM   22  O   UNL     1     -11.264   8.696  71.790  1.00  0.00    -0.280 OA 
HETATM   23  C   UNL     1     -10.666  10.159  69.975  1.00  0.00    -0.356 A  
HETATM   24  C   UNL     1     -12.112  10.477  69.810  1.00  0.00    -0.214 C  
HETATM   25  H   UNL     1     -12.176   8.913  71.637  1.00  0.00     0.000 HD 
HETATM   26  O   UNL     1     -12.588  11.138  68.896  1.00  0.00    -0.358 OA 
ENDBRANCH  16  17
ENDBRANCH  15  16
ENDBRANCH  10  15
ENDBRANCH   8   9
ENDBRANCH   2   4
TORSDOF 5
ENDMDL
MODEL      223
REMARK 921   NORMALIZED FREE ENERGY PREDICTED BY IDOCK:   -4.36 KCAL/MOL
REMARK 922        TOTAL FREE ENERGY PREDICTED BY IDOCK:   -6.85 KCAL/MOL
REMARK 923 INTER-LIGAND FREE ENERGY PREDICTED BY IDOCK:   -5.93 KCAL/MOL
REMARK 924 INTRA-LIGAND FREE ENERGY PREDICTED BY IDOCK:   -0.92 KCAL/MOL
REMARK 927      BINDING AFFINITY PREDICTED BY RF-SCORE:    0.00 PKD
ROOT
HETATM    1  C   UNL     1      -7.028  12.558  67.163  1.00  0.00    -0.060 C  
HETATM    2  C   UNL     1      -7.218  11.038  67.189  1.00  0.00    -0.112 C  
HETATM    3  C   UNL     1      -7.436  10.553  68.628  1.00  0.00    -0.095 C  
ENDROOT
BRANCH   2   4
HETATM    4  N   UNL     1      -8.332  10.603  66.344  1.00  0.00    -0.145 NA 
HETATM    5  N   UNL     1      -8.035   9.863  65.245  1.00  0.00    -0.130 NA 
HETATM    6  C   UNL     1      -9.148   9.904  64.522  1.00  0.00    -0.250 A  
HETATM    7  C   UNL     1     -10.175  10.608  65.167  1.00  0.00    -0.368 A  
HETATM    8  C   UNL     1      -9.668  10.978  66.404  1.00  0.00    -0.201 A  
BRANCH   8   9
HETATM    9  C   UNL     1     -10.340  11.512  67.595  1.00  0.00    -0.186 A  
HETATM   10  C   UNL     1     -10.615  12.858  67.866  1.00  0.00    -0.232 A  
HETATM   11  C   UNL     1     -11.554  10.828  69.463  1.00  0.00    -0.303 A  
HETATM   12  C   UNL     1     -11.377  13.143  69.019  1.00  0.00    -0.332 A  
HETATM   13  N   UNL     1     -10.812  10.507  68.382  1.00  0.00    -0.222 NA 
HETATM   14  C   UNL     1     -11.864  12.121  69.820  1.00  0.00    -0.397 A  
BRANCH  10  15
HETATM   15  C   UNL     1     -10.137  14.039  67.064  1.00  0.00    -0.255 C  
BRANCH  15  16
HETATM   16  O   UNL     1      -9.827  15.098  67.960  1.00  0.00    -0.211 OA 
BRANCH  16  17
HETATM   17  C   UNL     1      -9.143  16.192  67.512  1.00  0.00    -0.203 A  
HETATM   18  C   UNL     1      -8.260  16.175  66.424  1.00  0.00    -0.336 A  
HETATM   19  C   UNL     1      -7.663  17.353  65.965  1.00  0.00    -0.233 A  
HETATM   20  C   UNL     1      -7.914  18.563  66.601  1.00  0.00    -0.278 A  
HETATM   21  C   UNL     1      -8.766  18.594  67.705  1.00  0.00    -0.272 A  
HETATM   22  O   UNL     1      -8.982  19.785  68.344  1.00  0.00    -0.327 OA 
HETATM   23  C   UNL     1      -9.391  17.420  68.162  1.00  0.00    -0.277 A  
HETATM   24  C   UNL     1     -10.311  17.532  69.328  1.00  0.00    -0.160 C  
HETATM   25  H   UNL     1      -9.562  19.806  69.095  1.00  0.00     0.000 HD 
HETATM   26  O   UNL     1     -10.831  16.587  69.908  1.00  0.00    -0.344 OA 
ENDBRANCH  16  17
ENDBRANCH  15  16
ENDBRANCH  10  15
ENDBRANCH   8   9
ENDBRANCH   2   4
TORSDOF 5
ENDMDL
MODEL      224
REMARK 921   NORMALIZED FREE ENERGY PREDICTED BY IDOCK:   -4.36 KCAL/MOL
REMARK 922        TOTAL FREE ENERGY PREDICTED BY IDOCK:   -6.85 KCAL/MOL
REMARK 923 INTER-LIGAND FREE ENERGY PREDICTED BY IDOCK:   -5.64 KCAL/MOL
REMARK 924 INTRA-LIGAND FREE ENERGY PREDICTED BY IDOCK:   -1.20 KCAL/MOL
REMARK 927      BINDING AFFINITY PREDICTED BY RF-SCORE:    0.00 PKD
ROOT
HETATM    1  C   UNL     1      -7.094  15.438  68.986  1.00  0.00    -0.144 C  
HETATM    2  C   UNL     1      -7.786  16.803  69.028  1.00  0.00    -0.201 C  
HETATM    3  C   UNL     1      -6.747  17.923  69.172  1.00  0.00    -0.239 C  
ENDROOT
BRANCH   2   4
HETATM    4  N   UNL     1      -8.614  17.043  67.844  1.00  0.00    -0.204 NA 
HETATM    5  N   UNL     1      -8.119  17.873  66.890  1.00  0.00    -0.221 NA 
HETATM    6  C   UNL     1      -9.175  18.160  66.138  1.00  0.00    -0.119 A  
HETATM    7  C   UNL     1     -10.327  17.480  66.558  1.00  0.00    -0.325 A  
HETATM    8  C   UNL     1      -9.932  16.672  67.613  1.00  0.00    -0.264 A  
BRANCH   8   9
HETATM    9  C   UNL     1     -10.626  15.569  68.289  1.00  0.00    -0.255 A  
HETATM   10  C   UNL     1     -10.422  14.200  68.079  1.00  0.00    -0.240 A  
HETATM   11  C   UNL     1     -12.058  15.141  70.077  1.00  0.00    -0.345 A  
HETATM   12  C   UNL     1     -11.116  13.306  68.922  1.00  0.00    -0.304 A  
HETATM   13  N   UNL     1     -11.432  16.034  69.283  1.00  0.00    -0.355 NA 
HETATM   14  C   UNL     1     -11.932  13.776  69.939  1.00  0.00    -0.412 A  
BRANCH  10  15
HETATM   15  C   UNL     1      -9.560  13.587  67.009  1.00  0.00    -0.248 C  
BRANCH  15  16
HETATM   16  O   UNL     1      -8.802  12.533  67.587  1.00  0.00    -0.161 OA 
BRANCH  16  17
HETATM   17  C   UNL     1      -8.894  11.267  67.079  1.00  0.00    -0.153 A  
HETATM   18  C   UNL     1     -10.076  10.515  67.055  1.00  0.00    -0.259 A  
HETATM   19  C   UNL     1     -10.117   9.261  66.438  1.00  0.00    -0.337 A  
HETATM   20  C   UNL     1      -8.972   8.725  65.859  1.00  0.00    -0.240 A  
HETATM   21  C   UNL     1      -7.780   9.447  65.900  1.00  0.00    -0.099 A  
HETATM   22  O   UNL     1      -6.651   8.896  65.355  1.00  0.00    -0.066 OA 
HETATM   23  C   UNL     1      -7.732  10.718  66.497  1.00  0.00    -0.145 A  
HETATM   24  C   UNL     1      -6.431  11.445  66.480  1.00  0.00    -0.081 C  
HETATM   25  H   UNL     1      -5.839   9.388  65.382  1.00  0.00     0.000 HD 
HETATM   26  O   UNL     1      -6.206  12.501  67.058  1.00  0.00    -0.227 OA 
ENDBRANCH  16  17
ENDBRANCH  15  16
ENDBRANCH  10  15
ENDBRANCH   8   9
ENDBRANCH   2   4
TORSDOF 5
ENDMDL
MODEL      225
REMARK 921   NORMALIZED FREE ENERGY PREDICTED BY IDOCK:   -4.33 KCAL/MOL
REMARK 922        TOTAL FREE ENERGY PREDICTED BY IDOCK:   -6.81 KCAL/MOL
REMARK 923 INTER-LIGAND FREE ENERGY PREDICTED BY IDOCK:   -5.48 KCAL/MOL
REMARK 924 INTRA-LIGAND FREE ENERGY PREDICTED BY IDOCK:   -1.34 KCAL/MOL
REMARK 927      BINDING AFFINITY PREDICTED BY RF-SCORE:    0.00 PKD
ROOT
HETATM    1  C   UNL     1     -10.622   4.327  65.260  1.00  0.00    -0.165 C  
HETATM    2  C   UNL     1      -9.467   3.756  66.088  1.00  0.00    -0.175 C  
HETATM    3  C   UNL     1      -8.844   2.550  65.373  1.00  0.00    -0.126 C  
ENDROOT
BRANCH   2   4
HETATM    4  N   UNL     1      -8.435   4.757  66.366  1.00  0.00    -0.110 NA 
HETATM    5  N   UNL     1      -7.430   4.890  65.463  1.00  0.00    -0.080 NA 
HETATM    6  C   UNL     1      -6.507   5.589  66.112  1.00  0.00    -0.044 A  
HETATM    7  C   UNL     1      -6.929   5.960  67.398  1.00  0.00    -0.069 A  
HETATM    8  C   UNL     1      -8.231   5.499  67.522  1.00  0.00    -0.101 A  
BRANCH   8   9
HETATM    9  C   UNL     1      -9.259   5.792  68.528  1.00  0.00    -0.121 A  
HETATM   10  C   UNL     1     -10.397   6.588  68.352  1.00  0.00    -0.220 A  
HETATM   11  C   UNL     1      -9.976   5.134  70.646  1.00  0.00    -0.226 A  
HETATM   12  C   UNL     1     -11.320   6.643  69.418  1.00  0.00    -0.331 A  
HETATM   13  N   UNL     1      -9.055   5.066  69.662  1.00  0.00    -0.105 NA 
HETATM   14  C   UNL     1     -11.118   5.900  70.572  1.00  0.00    -0.347 A  
BRANCH  10  15
HETATM   15  C   UNL     1     -10.712   7.429  67.144  1.00  0.00    -0.330 C  
BRANCH  15  16
HETATM   16  O   UNL     1      -9.773   8.494  67.077  1.00  0.00    -0.170 OA 
BRANCH  16  17
HETATM   17  C   UNL     1     -10.185   9.746  66.714  1.00  0.00    -0.233 A  
HETATM   18  C   UNL     1     -11.045  10.542  67.482  1.00  0.00    -0.358 A  
HETATM   19  C   UNL     1     -11.354  11.849  67.092  1.00  0.00    -0.393 A  
HETATM   20  C   UNL     1     -10.831  12.373  65.915  1.00  0.00    -0.305 A  
HETATM   21  C   UNL     1      -9.997  11.584  65.124  1.00  0.00    -0.262 A  
HETATM   22  O   UNL     1      -9.513  12.099  63.951  1.00  0.00    -0.527 OA 
HETATM   23  C   UNL     1      -9.661  10.277  65.517  1.00  0.00    -0.326 A  
HETATM   24  C   UNL     1      -8.742   9.501  64.637  1.00  0.00    -0.205 C  
HETATM   25  H   UNL     1      -8.945  11.561  63.412  1.00  0.00     0.000 HD 
HETATM   26  O   UNL     1      -8.455   8.320  64.785  1.00  0.00    -0.148 OA 
ENDBRANCH  16  17
ENDBRANCH  15  16
ENDBRANCH  10  15
ENDBRANCH   8   9
ENDBRANCH   2   4
TORSDOF 5
ENDMDL
MODEL      226
REMARK 921   NORMALIZED FREE ENERGY PREDICTED BY IDOCK:   -4.31 KCAL/MOL
REMARK 922        TOTAL FREE ENERGY PREDICTED BY IDOCK:   -6.78 KCAL/MOL
REMARK 923 INTER-LIGAND FREE ENERGY PREDICTED BY IDOCK:   -5.59 KCAL/MOL
REMARK 924 INTRA-LIGAND FREE ENERGY PREDICTED BY IDOCK:   -1.19 KCAL/MOL
REMARK 927      BINDING AFFINITY PREDICTED BY RF-SCORE:    0.00 PKD
ROOT
HETATM    1  C   UNL     1     -11.730   7.157  70.997  1.00  0.00    -0.358 C  
HETATM    2  C   UNL     1     -11.215   8.539  70.581  1.00  0.00    -0.252 C  
HETATM    3  C   UNL     1     -11.782   9.620  71.511  1.00  0.00    -0.472 C  
ENDROOT
BRANCH   2   4
HETATM    4  N   UNL     1      -9.753   8.607  70.573  1.00  0.00    -0.173 NA 
HETATM    5  N   UNL     1      -9.102   8.275  71.718  1.00  0.00    -0.173 NA 
HETATM    6  C   UNL     1      -7.872   8.737  71.533  1.00  0.00    -0.104 A  
HETATM    7  C   UNL     1      -7.705   9.309  70.262  1.00  0.00    -0.133 A  
HETATM    8  C   UNL     1      -8.911   9.131  69.600  1.00  0.00    -0.155 A  
BRANCH   8   9
HETATM    9  C   UNL     1      -9.261   9.296  68.185  1.00  0.00    -0.130 A  
HETATM   10  C   UNL     1      -9.909  10.394  67.607  1.00  0.00    -0.197 A  
HETATM   11  C   UNL     1      -8.882   8.346  66.091  1.00  0.00    -0.165 A  
HETATM   12  C   UNL     1     -10.045  10.400  66.203  1.00  0.00    -0.299 A  
HETATM   13  N   UNL     1      -8.746   8.285  67.432  1.00  0.00    -0.124 NA 
HETATM   14  C   UNL     1      -9.517   9.375  65.433  1.00  0.00    -0.322 A  
BRANCH  10  15
HETATM   15  C   UNL     1     -10.516  11.555  68.349  1.00  0.00    -0.207 C  
BRANCH  15  16
HETATM   16  O   UNL     1      -9.544  12.587  68.446  1.00  0.00    -0.217 OA 
BRANCH  16  17
HETATM   17  C   UNL     1      -9.938  13.879  68.656  1.00  0.00    -0.189 A  
HETATM   18  C   UNL     1     -11.241  14.253  69.012  1.00  0.00    -0.294 A  
HETATM   19  C   UNL     1     -11.552  15.587  69.297  1.00  0.00    -0.369 A  
HETATM   20  C   UNL     1     -10.574  16.572  69.206  1.00  0.00    -0.327 A  
HETATM   21  C   UNL     1      -9.280  16.221  68.824  1.00  0.00    -0.240 A  
HETATM   22  O   UNL     1      -8.334  17.203  68.707  1.00  0.00    -0.262 OA 
HETATM   23  C   UNL     1      -8.950  14.881  68.557  1.00  0.00    -0.179 A  
HETATM   24  C   UNL     1      -7.541  14.574  68.181  1.00  0.00    -0.125 C  
HETATM   25  H   UNL     1      -7.452  16.964  68.447  1.00  0.00     0.000 HD 
HETATM   26  O   UNL     1      -7.133  13.481  67.808  1.00  0.00    -0.126 OA 
ENDBRANCH  16  17
ENDBRANCH  15  16
ENDBRANCH  10  15
ENDBRANCH   8   9
ENDBRANCH   2   4
TORSDOF 5
ENDMDL
MODEL      227
REMARK 921   NORMALIZED FREE ENERGY PREDICTED BY IDOCK:   -4.31 KCAL/MOL
REMARK 922        TOTAL FREE ENERGY PREDICTED BY IDOCK:   -6.78 KCAL/MOL
REMARK 923 INTER-LIGAND FREE ENERGY PREDICTED BY IDOCK:   -6.54 KCAL/MOL
REMARK 924 INTRA-LIGAND FREE ENERGY PREDICTED BY IDOCK:   -0.24 KCAL/MOL
REMARK 927      BINDING AFFINITY PREDICTED BY RF-SCORE:    0.00 PKD
ROOT
HETATM    1  C   UNL     1     -10.121   9.326  71.120  1.00  0.00    -0.374 C  
HETATM    2  C   UNL     1     -11.535   9.671  70.644  1.00  0.00    -0.306 C  
HETATM    3  C   UNL     1     -12.506   9.697  71.832  1.00  0.00    -0.459 C  
ENDROOT
BRANCH   2   4
HETATM    4  N   UNL     1     -11.586  10.949  69.932  1.00  0.00    -0.301 NA 
HETATM    5  N   UNL     1     -11.915  12.054  70.649  1.00  0.00    -0.270 NA 
HETATM    6  C   UNL     1     -12.204  12.962  69.724  1.00  0.00    -0.162 A  
HETATM    7  C   UNL     1     -12.008  12.474  68.424  1.00  0.00    -0.271 A  
HETATM    8  C   UNL     1     -11.506  11.189  68.566  1.00  0.00    -0.302 A  
BRANCH   8   9
HETATM    9  C   UNL     1     -10.890  10.286  67.588  1.00  0.00    -0.307 A  
HETATM   10  C   UNL     1     -10.366  10.641  66.339  1.00  0.00    -0.291 A  
HETATM   11  C   UNL     1     -10.099   8.105  67.365  1.00  0.00    -0.233 A  
HETATM   12  C   UNL     1      -9.711   9.631  65.602  1.00  0.00    -0.363 A  
HETATM   13  N   UNL     1     -10.751   9.032  68.098  1.00  0.00    -0.160 NA 
HETATM   14  C   UNL     1      -9.563   8.354  66.121  1.00  0.00    -0.246 A  
BRANCH  10  15
HETATM   15  C   UNL     1     -10.470  11.993  65.685  1.00  0.00    -0.256 C  
BRANCH  15  16
HETATM   16  O   UNL     1      -9.309  12.744  66.013  1.00  0.00    -0.175 OA 
BRANCH  16  17
HETATM   17  C   UNL     1      -9.422  13.884  66.757  1.00  0.00    -0.279 A  
HETATM   18  C   UNL     1     -10.274  14.950  66.436  1.00  0.00    -0.292 A  
HETATM   19  C   UNL     1     -10.404  16.048  67.292  1.00  0.00    -0.295 A  
HETATM   20  C   UNL     1      -9.667  16.114  68.469  1.00  0.00    -0.217 A  
HETATM   21  C   UNL     1      -8.793  15.077  68.789  1.00  0.00    -0.192 A  
HETATM   22  O   UNL     1      -8.048  15.166  69.935  1.00  0.00    -0.362 OA 
HETATM   23  C   UNL     1      -8.669  13.957  67.949  1.00  0.00    -0.184 A  
HETATM   24  C   UNL     1      -7.737  12.872  68.368  1.00  0.00    -0.133 C  
HETATM   25  H   UNL     1      -7.452  14.459  70.153  1.00  0.00     0.000 HD 
HETATM   26  O   UNL     1      -7.438  11.899  67.688  1.00  0.00    -0.110 OA 
ENDBRANCH  16  17
ENDBRANCH  15  16
ENDBRANCH  10  15
ENDBRANCH   8   9
ENDBRANCH   2   4
TORSDOF 5
ENDMDL
MODEL      228
REMARK 921   NORMALIZED FREE ENERGY PREDICTED BY IDOCK:   -4.29 KCAL/MOL
REMARK 922        TOTAL FREE ENERGY PREDICTED BY IDOCK:   -6.76 KCAL/MOL
REMARK 923 INTER-LIGAND FREE ENERGY PREDICTED BY IDOCK:   -5.18 KCAL/MOL
REMARK 924 INTRA-LIGAND FREE ENERGY PREDICTED BY IDOCK:   -1.58 KCAL/MOL
REMARK 927      BINDING AFFINITY PREDICTED BY RF-SCORE:    0.00 PKD
ROOT
HETATM    1  C   UNL     1      -7.874  14.659  67.782  1.00  0.00    -0.165 C  
HETATM    2  C   UNL     1      -9.331  14.784  68.239  1.00  0.00    -0.199 C  
HETATM    3  C   UNL     1      -9.655  16.241  68.594  1.00  0.00    -0.237 C  
ENDROOT
BRANCH   2   4
HETATM    4  N   UNL     1     -10.273  14.297  67.230  1.00  0.00    -0.251 NA 
HETATM    5  N   UNL     1     -10.020  14.607  65.932  1.00  0.00    -0.311 NA 
HETATM    6  C   UNL     1     -11.163  14.343  65.311  1.00  0.00    -0.345 A  
HETATM    7  C   UNL     1     -12.128  13.811  66.179  1.00  0.00    -0.477 A  
HETATM    8  C   UNL     1     -11.508  13.688  67.414  1.00  0.00    -0.336 A  
BRANCH   8   9
HETATM    9  C   UNL     1     -11.925  12.980  68.630  1.00  0.00    -0.263 A  
HETATM   10  C   UNL     1     -11.749  11.619  68.906  1.00  0.00    -0.397 A  
HETATM   11  C   UNL     1     -12.724  13.372  70.784  1.00  0.00    -0.228 A  
HETATM   12  C   UNL     1     -12.121  11.166  70.189  1.00  0.00    -0.443 A  
HETATM   13  N   UNL     1     -12.401  13.849  69.563  1.00  0.00    -0.299 NA 
HETATM   14  C   UNL     1     -12.601  12.049  71.144  1.00  0.00    -0.372 A  
BRANCH  10  15
HETATM   15  C   UNL     1     -11.238  10.579  67.945  1.00  0.00    -0.289 C  
BRANCH  15  16
HETATM   16  O   UNL     1      -9.974  10.120  68.407  1.00  0.00    -0.150 OA 
BRANCH  16  17
HETATM   17  C   UNL     1      -8.833  10.496  67.756  1.00  0.00    -0.125 A  
HETATM   18  C   UNL     1      -8.812  11.298  66.607  1.00  0.00    -0.175 A  
HETATM   19  C   UNL     1      -7.602  11.717  66.045  1.00  0.00     0.395 A  
HETATM   20  C   UNL     1      -6.392  11.320  66.604  1.00  0.00    -0.135 A  
HETATM   21  C   UNL     1      -6.394  10.497  67.729  1.00  0.00    -0.059 A  
HETATM   22  O   UNL     1      -5.198  10.085  68.253  1.00  0.00    -0.036 OA 
HETATM   23  C   UNL     1      -7.604  10.087  68.317  1.00  0.00    -0.084 A  
HETATM   24  C   UNL     1      -7.531   9.232  69.534  1.00  0.00    -0.079 C  
HETATM   25  H   UNL     1      -5.199   9.525  69.020  1.00  0.00     0.000 HD 
HETATM   26  O   UNL     1      -8.490   8.705  70.084  1.00  0.00    -0.123 OA 
ENDBRANCH  16  17
ENDBRANCH  15  16
ENDBRANCH  10  15
ENDBRANCH   8   9
ENDBRANCH   2   4
TORSDOF 5
ENDMDL
MODEL      229
REMARK 921   NORMALIZED FREE ENERGY PREDICTED BY IDOCK:   -4.29 KCAL/MOL
REMARK 922        TOTAL FREE ENERGY PREDICTED BY IDOCK:   -6.76 KCAL/MOL
REMARK 923 INTER-LIGAND FREE ENERGY PREDICTED BY IDOCK:   -5.80 KCAL/MOL
REMARK 924 INTRA-LIGAND FREE ENERGY PREDICTED BY IDOCK:   -0.96 KCAL/MOL
REMARK 927      BINDING AFFINITY PREDICTED BY RF-SCORE:    0.00 PKD
ROOT
HETATM    1  C   UNL     1     -10.793  11.406  64.701  1.00  0.00    -0.359 C  
HETATM    2  C   UNL     1     -10.077  10.482  65.691  1.00  0.00    -0.268 C  
HETATM    3  C   UNL     1      -8.627  10.940  65.895  1.00  0.00    -0.179 C  
ENDROOT
BRANCH   2   4
HETATM    4  N   UNL     1     -10.763  10.414  66.983  1.00  0.00    -0.256 NA 
HETATM    5  N   UNL     1     -11.512  11.485  67.354  1.00  0.00    -0.481 NA 
HETATM    6  C   UNL     1     -11.723  11.295  68.650  1.00  0.00    -0.324 A  
HETATM    7  C   UNL     1     -11.173  10.088  69.106  1.00  0.00    -0.197 A  
HETATM    8  C   UNL     1     -10.633   9.466  67.990  1.00  0.00    -0.226 A  
BRANCH   8   9
HETATM    9  C   UNL     1     -10.149   8.094  67.797  1.00  0.00    -0.204 A  
HETATM   10  C   UNL     1      -9.101   7.473  68.487  1.00  0.00    -0.134 A  
HETATM   11  C   UNL     1     -10.705   6.099  66.729  1.00  0.00    -0.299 A  
HETATM   12  C   UNL     1      -8.876   6.105  68.226  1.00  0.00    -0.112 A  
HETATM   13  N   UNL     1     -10.947   7.411  66.931  1.00  0.00    -0.204 NA 
HETATM   14  C   UNL     1      -9.690   5.405  67.349  1.00  0.00    -0.153 A  
BRANCH  10  15
HETATM   15  C   UNL     1      -8.162   8.139  69.457  1.00  0.00    -0.121 C  
BRANCH  15  16
HETATM   16  O   UNL     1      -8.247   7.464  70.705  1.00  0.00    -0.109 OA 
BRANCH  16  17
HETATM   17  C   UNL     1      -9.404   7.515  71.430  1.00  0.00    -0.141 A  
HETATM   18  C   UNL     1     -10.157   8.680  71.624  1.00  0.00    -0.365 A  
HETATM   19  C   UNL     1     -11.379   8.641  72.304  1.00  0.00    -0.411 A  
HETATM   20  C   UNL     1     -11.855   7.443  72.826  1.00  0.00    -0.107 A  
HETATM   21  C   UNL     1     -11.103   6.279  72.668  1.00  0.00    -0.263 A  
HETATM   22  O   UNL     1     -11.565   5.112  73.213  1.00  0.00    -0.484 OA 
HETATM   23  C   UNL     1      -9.884   6.302  71.967  1.00  0.00    -0.173 A  
HETATM   24  C   UNL     1      -9.148   5.016  71.813  1.00  0.00    -0.137 C  
HETATM   25  H   UNL     1     -11.053   4.319  73.106  1.00  0.00     0.000 HD 
HETATM   26  O   UNL     1      -8.026   4.900  71.334  1.00  0.00    -0.099 OA 
ENDBRANCH  16  17
ENDBRANCH  15  16
ENDBRANCH  10  15
ENDBRANCH   8   9
ENDBRANCH   2   4
TORSDOF 5
ENDMDL
MODEL      230
REMARK 921   NORMALIZED FREE ENERGY PREDICTED BY IDOCK:   -4.28 KCAL/MOL
REMARK 922        TOTAL FREE ENERGY PREDICTED BY IDOCK:   -6.75 KCAL/MOL
REMARK 923 INTER-LIGAND FREE ENERGY PREDICTED BY IDOCK:   -5.25 KCAL/MOL
REMARK 924 INTRA-LIGAND FREE ENERGY PREDICTED BY IDOCK:   -1.50 KCAL/MOL
REMARK 927      BINDING AFFINITY PREDICTED BY RF-SCORE:    0.00 PKD
ROOT
HETATM    1  C   UNL     1     -10.691   5.749  66.764  1.00  0.00    -0.369 C  
HETATM    2  C   UNL     1      -9.215   5.597  67.143  1.00  0.00    -0.114 C  
HETATM    3  C   UNL     1      -8.709   4.199  66.764  1.00  0.00    -0.114 C  
ENDROOT
BRANCH   2   4
HETATM    4  N   UNL     1      -8.372   6.618  66.515  1.00  0.00    -0.113 NA 
HETATM    5  N   UNL     1      -7.747   6.289  65.355  1.00  0.00    -0.091 NA 
HETATM    6  C   UNL     1      -6.830   7.237  65.206  1.00  0.00    -0.051 A  
HETATM    7  C   UNL     1      -6.896   8.203  66.221  1.00  0.00    -0.058 A  
HETATM    8  C   UNL     1      -7.973   7.848  67.020  1.00  0.00    -0.112 A  
BRANCH   8   9
HETATM    9  C   UNL     1      -8.673   8.594  68.072  1.00  0.00    -0.141 A  
HETATM   10  C   UNL     1      -9.839   9.354  67.921  1.00  0.00    -0.197 A  
HETATM   11  C   UNL     1      -8.720   8.874  70.385  1.00  0.00    -0.180 A  
HETATM   12  C   UNL     1     -10.413   9.896  69.090  1.00  0.00    -0.235 A  
HETATM   13  N   UNL     1      -8.123   8.351  69.293  1.00  0.00    -0.113 NA 
HETATM   14  C   UNL     1      -9.859   9.646  70.337  1.00  0.00    -0.315 A  
BRANCH  10  15
HETATM   15  C   UNL     1     -10.520   9.684  66.620  1.00  0.00    -0.163 C  
BRANCH  15  16
HETATM   16  O   UNL     1      -9.886  10.822  66.054  1.00  0.00    -0.215 OA 
BRANCH  16  17
HETATM   17  C   UNL     1     -10.529  12.028  66.044  1.00  0.00    -0.249 A  
HETATM   18  C   UNL     1     -11.775  12.247  65.441  1.00  0.00    -0.424 A  
HETATM   19  C   UNL     1     -12.416  13.486  65.547  1.00  0.00    -0.538 A  
HETATM   20  C   UNL     1     -11.812  14.534  66.233  1.00  0.00    -0.354 A  
HETATM   21  C   UNL     1     -10.559  14.342  66.813  1.00  0.00    -0.278 A  
HETATM   22  O   UNL     1      -9.959  15.389  67.459  1.00  0.00    -0.224 OA 
HETATM   23  C   UNL     1      -9.915  13.095  66.733  1.00  0.00    -0.250 A  
HETATM   24  C   UNL     1      -8.590  12.953  67.401  1.00  0.00    -0.195 C  
HETATM   25  H   UNL     1      -9.105  15.259  67.855  1.00  0.00     0.000 HD 
HETATM   26  O   UNL     1      -7.861  11.972  67.318  1.00  0.00    -0.154 OA 
ENDBRANCH  16  17
ENDBRANCH  15  16
ENDBRANCH  10  15
ENDBRANCH   8   9
ENDBRANCH   2   4
TORSDOF 5
ENDMDL
MODEL      231
REMARK 921   NORMALIZED FREE ENERGY PREDICTED BY IDOCK:   -4.27 KCAL/MOL
REMARK 922        TOTAL FREE ENERGY PREDICTED BY IDOCK:   -6.74 KCAL/MOL
REMARK 923 INTER-LIGAND FREE ENERGY PREDICTED BY IDOCK:   -5.36 KCAL/MOL
REMARK 924 INTRA-LIGAND FREE ENERGY PREDICTED BY IDOCK:   -1.37 KCAL/MOL
REMARK 927      BINDING AFFINITY PREDICTED BY RF-SCORE:    0.00 PKD
ROOT
HETATM    1  C   UNL     1      -9.695   4.905  68.298  1.00  0.00    -0.204 C  
HETATM    2  C   UNL     1      -8.332   5.468  67.887  1.00  0.00    -0.099 C  
HETATM    3  C   UNL     1      -7.665   4.549  66.855  1.00  0.00    -0.094 C  
ENDROOT
BRANCH   2   4
HETATM    4  N   UNL     1      -8.431   6.827  67.351  1.00  0.00    -0.121 NA 
HETATM    5  N   UNL     1      -8.600   6.963  66.011  1.00  0.00    -0.142 NA 
HETATM    6  C   UNL     1      -8.325   8.241  65.781  1.00  0.00    -0.137 A  
HETATM    7  C   UNL     1      -8.041   8.943  66.962  1.00  0.00    -0.109 A  
HETATM    8  C   UNL     1      -8.210   8.037  67.998  1.00  0.00    -0.129 A  
BRANCH   8   9
HETATM    9  C   UNL     1      -8.292   8.243  69.448  1.00  0.00    -0.122 A  
HETATM   10  C   UNL     1      -9.460   8.328  70.215  1.00  0.00    -0.164 A  
HETATM   11  C   UNL     1      -6.964   8.267  71.364  1.00  0.00    -0.065 A  
HETATM   12  C   UNL     1      -9.310   8.412  71.616  1.00  0.00    -0.280 A  
HETATM   13  N   UNL     1      -7.056   8.205  70.019  1.00  0.00    -0.048 NA 
HETATM   14  C   UNL     1      -8.053   8.368  72.200  1.00  0.00    -0.192 A  
BRANCH  10  15
HETATM   15  C   UNL     1     -10.867   8.382  69.683  1.00  0.00    -0.148 C  
BRANCH  15  16
HETATM   16  O   UNL     1     -11.168   9.726  69.334  1.00  0.00    -0.205 OA 
BRANCH  16  17
HETATM   17  C   UNL     1     -11.893  10.508  70.188  1.00  0.00    -0.320 A  
HETATM   18  C   UNL     1     -12.606  10.014  71.289  1.00  0.00    -0.495 A  
HETATM   19  C   UNL     1     -13.254  10.883  72.173  1.00  0.00    -0.333 A  
HETATM   20  C   UNL     1     -13.223  12.256  71.959  1.00  0.00    -0.508 A  
HETATM   21  C   UNL     1     -12.543  12.762  70.852  1.00  0.00    -0.255 A  
HETATM   22  O   UNL     1     -12.545  14.114  70.633  1.00  0.00    -0.325 OA 
HETATM   23  C   UNL     1     -11.869  11.901  69.968  1.00  0.00    -0.407 A  
HETATM   24  C   UNL     1     -11.139  12.514  68.823  1.00  0.00    -0.270 C  
HETATM   25  H   UNL     1     -12.082  14.459  69.879  1.00  0.00     0.000 HD 
HETATM   26  O   UNL     1     -10.609  11.890  67.911  1.00  0.00    -0.192 OA 
ENDBRANCH  16  17
ENDBRANCH  15  16
ENDBRANCH  10  15
ENDBRANCH   8   9
ENDBRANCH   2   4
TORSDOF 5
ENDMDL
MODEL      232
REMARK 921   NORMALIZED FREE ENERGY PREDICTED BY IDOCK:   -4.27 KCAL/MOL
REMARK 922        TOTAL FREE ENERGY PREDICTED BY IDOCK:   -6.73 KCAL/MOL
REMARK 923 INTER-LIGAND FREE ENERGY PREDICTED BY IDOCK:   -5.83 KCAL/MOL
REMARK 924 INTRA-LIGAND FREE ENERGY PREDICTED BY IDOCK:   -0.90 KCAL/MOL
REMARK 927      BINDING AFFINITY PREDICTED BY RF-SCORE:    0.00 PKD
ROOT
HETATM    1  C   UNL     1      -7.971  12.945  67.136  1.00  0.00    -0.104 C  
HETATM    2  C   UNL     1      -9.230  13.809  67.258  1.00  0.00    -0.239 C  
HETATM    3  C   UNL     1      -8.921  15.260  66.864  1.00  0.00    -0.274 C  
ENDROOT
BRANCH   2   4
HETATM    4  N   UNL     1     -10.335  13.298  66.444  1.00  0.00    -0.280 NA 
HETATM    5  N   UNL     1     -10.297  13.542  65.109  1.00  0.00    -0.347 NA 
HETATM    6  C   UNL     1     -11.531  13.276  64.699  1.00  0.00    -0.342 A  
HETATM    7  C   UNL     1     -12.346  12.807  65.740  1.00  0.00    -0.388 A  
HETATM    8  C   UNL     1     -11.531  12.727  66.860  1.00  0.00    -0.340 A  
BRANCH   8   9
HETATM    9  C   UNL     1     -11.750  12.086  68.161  1.00  0.00    -0.333 A  
HETATM   10  C   UNL     1     -11.471  10.755  68.494  1.00  0.00    -0.362 A  
HETATM   11  C   UNL     1     -12.283  12.588  70.374  1.00  0.00    -0.286 A  
HETATM   12  C   UNL     1     -11.650  10.374  69.841  1.00  0.00    -0.358 A  
HETATM   13  N   UNL     1     -12.146  12.995  69.094  1.00  0.00    -0.245 NA 
HETATM   14  C   UNL     1     -12.047  11.299  70.795  1.00  0.00    -0.450 A  
BRANCH  10  15
HETATM   15  C   UNL     1     -11.035   9.675  67.540  1.00  0.00    -0.096 C  
BRANCH  15  16
HETATM   16  O   UNL     1      -9.808   9.130  68.005  1.00  0.00    -0.157 OA 
BRANCH  16  17
HETATM   17  C   UNL     1      -9.466   7.846  67.682  1.00  0.00    -0.144 A  
HETATM   18  C   UNL     1      -9.481   7.335  66.378  1.00  0.00    -0.185 A  
HETATM   19  C   UNL     1      -9.033   6.037  66.110  1.00  0.00    -0.160 A  
HETATM   20  C   UNL     1      -8.589   5.219  67.144  1.00  0.00    -0.105 A  
HETATM   21  C   UNL     1      -8.596   5.702  68.452  1.00  0.00    -0.111 A  
HETATM   22  O   UNL     1      -8.186   4.879  69.465  1.00  0.00    -0.082 OA 
HETATM   23  C   UNL     1      -9.022   7.013  68.730  1.00  0.00    -0.131 A  
HETATM   24  C   UNL     1      -8.976   7.472  70.147  1.00  0.00    -0.147 C  
HETATM   25  H   UNL     1      -8.191   5.208  70.357  1.00  0.00     0.000 HD 
HETATM   26  O   UNL     1      -9.422   8.536  70.558  1.00  0.00    -0.161 OA 
ENDBRANCH  16  17
ENDBRANCH  15  16
ENDBRANCH  10  15
ENDBRANCH   8   9
ENDBRANCH   2   4
TORSDOF 5
ENDMDL
MODEL      233
REMARK 921   NORMALIZED FREE ENERGY PREDICTED BY IDOCK:   -4.27 KCAL/MOL
REMARK 922        TOTAL FREE ENERGY PREDICTED BY IDOCK:   -6.73 KCAL/MOL
REMARK 923 INTER-LIGAND FREE ENERGY PREDICTED BY IDOCK:   -7.19 KCAL/MOL
REMARK 924 INTRA-LIGAND FREE ENERGY PREDICTED BY IDOCK:    0.47 KCAL/MOL
REMARK 927      BINDING AFFINITY PREDICTED BY RF-SCORE:    0.00 PKD
ROOT
HETATM    1  C   UNL     1     -10.386  18.972  65.965  1.00  0.00    -0.512 C  
HETATM    2  C   UNL     1     -10.000  17.572  66.452  1.00  0.00    -0.325 C  
HETATM    3  C   UNL     1     -10.541  17.333  67.867  1.00  0.00    -0.384 C  
ENDROOT
BRANCH   2   4
HETATM    4  N   UNL     1     -10.478  16.520  65.552  1.00  0.00    -0.546 NA 
HETATM    5  N   UNL     1     -11.334  16.881  64.562  1.00  0.00    -1.002 NA 
HETATM    6  C   UNL     1     -11.842  15.729  64.142  1.00  0.00    -0.030 A  
HETATM    7  C   UNL     1     -11.281  14.628  64.806  1.00  0.00    -0.395 A  
HETATM    8  C   UNL     1     -10.315  15.145  65.658  1.00  0.00    -0.357 A  
BRANCH   8   9
HETATM    9  C   UNL     1      -9.249  14.478  66.414  1.00  0.00    -0.234 A  
HETATM   10  C   UNL     1      -8.978  13.105  66.443  1.00  0.00     0.005 A  
HETATM   11  C   UNL     1      -7.329  14.942  67.651  1.00  0.00    -0.187 A  
HETATM   12  C   UNL     1      -7.829  12.688  67.148  1.00  0.00    -0.110 A  
HETATM   13  N   UNL     1      -8.428  15.388  67.007  1.00  0.00    -0.213 NA 
HETATM   14  C   UNL     1      -6.987  13.612  67.747  1.00  0.00    -0.168 A  
BRANCH  10  15
HETATM   15  C   UNL     1      -9.822  12.022  65.827  1.00  0.00    -0.242 C  
BRANCH  15  16
HETATM   16  O   UNL     1     -10.559  11.381  66.860  1.00  0.00    -0.229 OA 
BRANCH  16  17
HETATM   17  C   UNL     1     -10.403  10.041  67.078  1.00  0.00    -0.243 A  
HETATM   18  C   UNL     1      -9.803   9.162  66.167  1.00  0.00    -0.363 A  
HETATM   19  C   UNL     1      -9.596   7.818  66.495  1.00  0.00    -0.270 A  
HETATM   20  C   UNL     1     -10.010   7.324  67.727  1.00  0.00    -0.205 A  
HETATM   21  C   UNL     1     -10.636   8.177  68.634  1.00  0.00    -0.109 A  
HETATM   22  O   UNL     1     -11.068   7.673  69.831  1.00  0.00    -0.354 OA 
HETATM   23  C   UNL     1     -10.829   9.535  68.325  1.00  0.00    -0.194 A  
HETATM   24  C   UNL     1     -11.480  10.396  69.352  1.00  0.00    -0.227 C  
HETATM   25  H   UNL     1     -11.495   8.255  70.449  1.00  0.00     0.000 HD 
HETATM   26  O   UNL     1     -11.818  11.561  69.184  1.00  0.00    -0.298 OA 
ENDBRANCH  16  17
ENDBRANCH  15  16
ENDBRANCH  10  15
ENDBRANCH   8   9
ENDBRANCH   2   4
TORSDOF 5
ENDMDL
MODEL      234
REMARK 921   NORMALIZED FREE ENERGY PREDICTED BY IDOCK:   -4.26 KCAL/MOL
REMARK 922        TOTAL FREE ENERGY PREDICTED BY IDOCK:   -6.72 KCAL/MOL
REMARK 923 INTER-LIGAND FREE ENERGY PREDICTED BY IDOCK:   -5.80 KCAL/MOL
REMARK 924 INTRA-LIGAND FREE ENERGY PREDICTED BY IDOCK:   -0.92 KCAL/MOL
REMARK 927      BINDING AFFINITY PREDICTED BY RF-SCORE:    0.00 PKD
ROOT
HETATM    1  C   UNL     1      -5.979  10.911  67.260  1.00  0.00    -0.054 C  
HETATM    2  C   UNL     1      -7.171  10.287  67.990  1.00  0.00    -0.085 C  
HETATM    3  C   UNL     1      -7.745  11.275  69.015  1.00  0.00    -0.095 C  
ENDROOT
BRANCH   2   4
HETATM    4  N   UNL     1      -8.225   9.858  67.069  1.00  0.00    -0.117 NA 
HETATM    5  N   UNL     1      -7.889   9.692  65.764  1.00  0.00    -0.104 NA 
HETATM    6  C   UNL     1      -9.057   9.639  65.136  1.00  0.00    -0.228 A  
HETATM    7  C   UNL     1     -10.140   9.707  66.025  1.00  0.00    -0.318 A  
HETATM    8  C   UNL     1      -9.591   9.749  67.297  1.00  0.00    -0.157 A  
BRANCH   8   9
HETATM    9  C   UNL     1     -10.213   9.583  68.616  1.00  0.00    -0.195 A  
HETATM   10  C   UNL     1     -11.163  10.426  69.204  1.00  0.00    -0.301 A  
HETATM   11  C   UNL     1     -10.429   8.038  70.347  1.00  0.00    -0.218 A  
HETATM   12  C   UNL     1     -11.718  10.017  70.434  1.00  0.00    -0.365 A  
HETATM   13  N   UNL     1      -9.855   8.396  69.180  1.00  0.00    -0.178 NA 
HETATM   14  C   UNL     1     -11.361   8.806  71.008  1.00  0.00    -0.332 A  
BRANCH  10  15
HETATM   15  C   UNL     1     -11.620  11.756  68.666  1.00  0.00    -0.309 C  
BRANCH  15  16
HETATM   16  O   UNL     1     -10.692  12.752  69.074  1.00  0.00    -0.197 OA 
BRANCH  16  17
HETATM   17  C   UNL     1     -10.326  13.741  68.205  1.00  0.00    -0.247 A  
HETATM   18  C   UNL     1      -9.701  13.510  66.972  1.00  0.00    -0.251 A  
HETATM   19  C   UNL     1      -9.435  14.565  66.093  1.00  0.00    -0.290 A  
HETATM   20  C   UNL     1      -9.765  15.870  66.441  1.00  0.00    -0.310 A  
HETATM   21  C   UNL     1     -10.360  16.121  67.676  1.00  0.00    -0.288 A  
HETATM   22  O   UNL     1     -10.651  17.413  68.023  1.00  0.00    -0.371 OA 
HETATM   23  C   UNL     1     -10.653  15.067  68.559  1.00  0.00    -0.235 A  
HETATM   24  C   UNL     1     -11.315  15.406  69.851  1.00  0.00    -0.304 C  
HETATM   25  H   UNL     1     -11.056  17.585  68.864  1.00  0.00     0.000 HD 
HETATM   26  O   UNL     1     -11.524  14.617  70.763  1.00  0.00    -0.259 OA 
ENDBRANCH  16  17
ENDBRANCH  15  16
ENDBRANCH  10  15
ENDBRANCH   8   9
ENDBRANCH   2   4
TORSDOF 5
ENDMDL
MODEL      235
REMARK 921   NORMALIZED FREE ENERGY PREDICTED BY IDOCK:   -4.26 KCAL/MOL
REMARK 922        TOTAL FREE ENERGY PREDICTED BY IDOCK:   -6.72 KCAL/MOL
REMARK 923 INTER-LIGAND FREE ENERGY PREDICTED BY IDOCK:   -5.74 KCAL/MOL
REMARK 924 INTRA-LIGAND FREE ENERGY PREDICTED BY IDOCK:   -0.97 KCAL/MOL
REMARK 927      BINDING AFFINITY PREDICTED BY RF-SCORE:    0.00 PKD
ROOT
HETATM    1  C   UNL     1     -10.725  15.517  70.373  1.00  0.00    -0.342 C  
HETATM    2  C   UNL     1     -11.572  14.242  70.354  1.00  0.00    -0.200 C  
HETATM    3  C   UNL     1     -13.050  14.581  70.590  1.00  0.00    -0.304 C  
ENDROOT
BRANCH   2   4
HETATM    4  N   UNL     1     -11.426  13.496  69.102  1.00  0.00    -0.278 NA 
HETATM    5  N   UNL     1     -11.113  14.201  67.985  1.00  0.00    -0.259 NA 
HETATM    6  C   UNL     1     -11.372  13.359  66.992  1.00  0.00    -0.317 A  
HETATM    7  C   UNL     1     -11.790  12.103  67.457  1.00  0.00    -0.307 A  
HETATM    8  C   UNL     1     -11.727  12.166  68.841  1.00  0.00    -0.327 A  
BRANCH   8   9
HETATM    9  C   UNL     1     -11.806  11.106  69.854  1.00  0.00    -0.363 A  
HETATM   10  C   UNL     1     -10.787  10.216  70.212  1.00  0.00    -0.370 A  
HETATM   11  C   UNL     1     -13.169  10.331  71.578  1.00  0.00    -0.386 A  
HETATM   12  C   UNL     1     -11.038   9.348  71.296  1.00  0.00    -0.446 A  
HETATM   13  N   UNL     1     -12.983  11.167  70.535  1.00  0.00    -0.115 NA 
HETATM   14  C   UNL     1     -12.233   9.412  71.996  1.00  0.00    -0.396 A  
BRANCH  10  15
HETATM   15  C   UNL     1      -9.457  10.067  69.523  1.00  0.00    -0.226 C  
BRANCH  15  16
HETATM   16  O   UNL     1      -8.573   9.371  70.391  1.00  0.00    -0.199 OA 
BRANCH  16  17
HETATM   17  C   UNL     1      -7.847   8.313  69.921  1.00  0.00    -0.102 A  
HETATM   18  C   UNL     1      -7.741   7.975  68.565  1.00  0.00    -0.106 A  
HETATM   19  C   UNL     1      -6.908   6.932  68.148  1.00  0.00    -0.074 A  
HETATM   20  C   UNL     1      -6.187   6.192  69.080  1.00  0.00    -0.036 A  
HETATM   21  C   UNL     1      -6.303   6.496  70.435  1.00  0.00    -0.043 A  
HETATM   22  O   UNL     1      -5.614   5.742  71.346  1.00  0.00    -0.019 OA 
HETATM   23  C   UNL     1      -7.120   7.557  70.865  1.00  0.00    -0.059 A  
HETATM   24  C   UNL     1      -7.175   7.844  72.326  1.00  0.00    -0.087 C  
HETATM   25  H   UNL     1      -5.693   5.949  72.270  1.00  0.00     0.000 HD 
HETATM   26  O   UNL     1      -7.926   8.652  72.858  1.00  0.00    -0.381 OA 
ENDBRANCH  16  17
ENDBRANCH  15  16
ENDBRANCH  10  15
ENDBRANCH   8   9
ENDBRANCH   2   4
TORSDOF 5
ENDMDL
MODEL      236
REMARK 921   NORMALIZED FREE ENERGY PREDICTED BY IDOCK:   -4.24 KCAL/MOL
REMARK 922        TOTAL FREE ENERGY PREDICTED BY IDOCK:   -6.69 KCAL/MOL
REMARK 923 INTER-LIGAND FREE ENERGY PREDICTED BY IDOCK:   -5.79 KCAL/MOL
REMARK 924 INTRA-LIGAND FREE ENERGY PREDICTED BY IDOCK:   -0.90 KCAL/MOL
REMARK 927      BINDING AFFINITY PREDICTED BY RF-SCORE:    0.00 PKD
ROOT
HETATM    1  C   UNL     1     -10.748   4.149  64.626  1.00  0.00    -0.155 C  
HETATM    2  C   UNL     1      -9.313   4.117  65.158  1.00  0.00    -0.164 C  
HETATM    3  C   UNL     1      -8.473   3.106  64.364  1.00  0.00    -0.093 C  
ENDROOT
BRANCH   2   4
HETATM    4  N   UNL     1      -8.675   5.434  65.115  1.00  0.00    -0.150 NA 
HETATM    5  N   UNL     1      -8.074   5.804  63.955  1.00  0.00    -0.124 NA 
HETATM    6  C   UNL     1      -7.324   6.843  64.300  1.00  0.00    -0.085 A  
HETATM    7  C   UNL     1      -7.479   7.184  65.652  1.00  0.00    -0.082 A  
HETATM    8  C   UNL     1      -8.441   6.322  66.157  1.00  0.00    -0.138 A  
BRANCH   8   9
HETATM    9  C   UNL     1      -9.186   6.352  67.421  1.00  0.00    -0.117 A  
HETATM   10  C   UNL     1     -10.201   7.251  67.771  1.00  0.00    -0.247 A  
HETATM   11  C   UNL     1      -9.550   5.101  69.353  1.00  0.00    -0.161 A  
HETATM   12  C   UNL     1     -10.868   7.029  68.994  1.00  0.00    -0.212 A  
HETATM   13  N   UNL     1      -8.869   5.283  68.202  1.00  0.00    -0.105 NA 
HETATM   14  C   UNL     1     -10.552   5.938  69.789  1.00  0.00    -0.374 A  
BRANCH  10  15
HETATM   15  C   UNL     1     -10.622   8.463  66.983  1.00  0.00    -0.246 C  
BRANCH  15  16
HETATM   16  O   UNL     1     -11.006   9.484  67.894  1.00  0.00    -0.229 OA 
BRANCH  16  17
HETATM   17  C   UNL     1     -11.142  10.772  67.458  1.00  0.00    -0.308 A  
HETATM   18  C   UNL     1     -10.839  11.195  66.156  1.00  0.00    -0.247 A  
HETATM   19  C   UNL     1     -11.087  12.512  65.754  1.00  0.00    -0.343 A  
HETATM   20  C   UNL     1     -11.617  13.433  66.650  1.00  0.00    -0.399 A  
HETATM   21  C   UNL     1     -11.897  13.036  67.957  1.00  0.00    -0.347 A  
HETATM   22  O   UNL     1     -12.388  13.959  68.841  1.00  0.00    -0.468 OA 
HETATM   23  C   UNL     1     -11.672  11.710  68.368  1.00  0.00    -0.374 A  
HETATM   24  C   UNL     1     -12.021  11.349  69.771  1.00  0.00    -0.353 C  
HETATM   25  H   UNL     1     -12.579  13.689  69.731  1.00  0.00     0.000 HD 
HETATM   26  O   UNL     1     -11.775  10.274  70.303  1.00  0.00    -0.268 OA 
ENDBRANCH  16  17
ENDBRANCH  15  16
ENDBRANCH  10  15
ENDBRANCH   8   9
ENDBRANCH   2   4
TORSDOF 5
ENDMDL
MODEL      237
REMARK 921   NORMALIZED FREE ENERGY PREDICTED BY IDOCK:   -4.23 KCAL/MOL
REMARK 922        TOTAL FREE ENERGY PREDICTED BY IDOCK:   -6.68 KCAL/MOL
REMARK 923 INTER-LIGAND FREE ENERGY PREDICTED BY IDOCK:   -5.53 KCAL/MOL
REMARK 924 INTRA-LIGAND FREE ENERGY PREDICTED BY IDOCK:   -1.15 KCAL/MOL
REMARK 927      BINDING AFFINITY PREDICTED BY RF-SCORE:    0.00 PKD
ROOT
HETATM    1  C   UNL     1      -8.480   8.999  63.202  1.00  0.00    -0.185 C  
HETATM    2  C   UNL     1      -8.232   9.680  64.551  1.00  0.00    -0.151 C  
HETATM    3  C   UNL     1      -6.858  10.363  64.558  1.00  0.00    -0.006 C  
ENDROOT
BRANCH   2   4
HETATM    4  N   UNL     1      -9.274  10.654  64.881  1.00  0.00    -0.204 NA 
HETATM    5  N   UNL     1     -10.141  11.004  63.896  1.00  0.00    -0.326 NA 
HETATM    6  C   UNL     1     -10.727  12.101  64.361  1.00  0.00    -0.323 A  
HETATM    7  C   UNL     1     -10.293  12.427  65.654  1.00  0.00    -0.284 A  
HETATM    8  C   UNL     1      -9.417  11.421  66.031  1.00  0.00    -0.223 A  
BRANCH   8   9
HETATM    9  C   UNL     1      -8.843  11.089  67.340  1.00  0.00    -0.138 A  
HETATM   10  C   UNL     1      -9.114   9.949  68.106  1.00  0.00    -0.121 A  
HETATM   11  C   UNL     1      -7.166  11.752  68.816  1.00  0.00    -0.113 A  
HETATM   12  C   UNL     1      -8.363   9.769  69.287  1.00  0.00    -0.142 A  
HETATM   13  N   UNL     1      -7.873  11.978  67.689  1.00  0.00    -0.138 NA 
HETATM   14  C   UNL     1      -7.369  10.670  69.642  1.00  0.00    -0.133 A  
BRANCH  10  15
HETATM   15  C   UNL     1     -10.165   8.913  67.812  1.00  0.00    -0.228 C  
BRANCH  15  16
HETATM   16  O   UNL     1     -10.995   8.773  68.957  1.00  0.00    -0.089 OA 
BRANCH  16  17
HETATM   17  C   UNL     1     -10.923   7.639  69.717  1.00  0.00    -0.170 A  
HETATM   18  C   UNL     1     -10.727   6.354  69.193  1.00  0.00    -0.339 A  
HETATM   19  C   UNL     1     -10.574   5.250  70.039  1.00  0.00    -0.300 A  
HETATM   20  C   UNL     1     -10.642   5.406  71.419  1.00  0.00    -0.282 A  
HETATM   21  C   UNL     1     -10.867   6.673  71.955  1.00  0.00    -0.233 A  
HETATM   22  O   UNL     1     -10.965   6.811  73.314  1.00  0.00    -0.400 OA 
HETATM   23  C   UNL     1     -11.000   7.794  71.118  1.00  0.00    -0.259 A  
HETATM   24  C   UNL     1     -11.211   9.122  71.761  1.00  0.00    -0.381 C  
HETATM   25  H   UNL     1     -11.118   7.674  73.680  1.00  0.00     0.000 HD 
HETATM   26  O   UNL     1     -11.459  10.162  71.165  1.00  0.00    -0.357 OA 
ENDBRANCH  16  17
ENDBRANCH  15  16
ENDBRANCH  10  15
ENDBRANCH   8   9
ENDBRANCH   2   4
TORSDOF 5
ENDMDL
MODEL      238
REMARK 921   NORMALIZED FREE ENERGY PREDICTED BY IDOCK:   -4.23 KCAL/MOL
REMARK 922        TOTAL FREE ENERGY PREDICTED BY IDOCK:   -6.68 KCAL/MOL
REMARK 923 INTER-LIGAND FREE ENERGY PREDICTED BY IDOCK:   -5.59 KCAL/MOL
REMARK 924 INTRA-LIGAND FREE ENERGY PREDICTED BY IDOCK:   -1.09 KCAL/MOL
REMARK 927      BINDING AFFINITY PREDICTED BY RF-SCORE:    0.00 PKD
ROOT
HETATM    1  C   UNL     1      -8.996   5.072  66.350  1.00  0.00    -0.123 C  
HETATM    2  C   UNL     1      -9.761   6.329  66.774  1.00  0.00    -0.156 C  
HETATM    3  C   UNL     1     -10.812   5.980  67.836  1.00  0.00    -0.378 C  
ENDROOT
BRANCH   2   4
HETATM    4  N   UNL     1      -8.871   7.376  67.281  1.00  0.00    -0.123 NA 
HETATM    5  N   UNL     1      -8.371   7.222  68.534  1.00  0.00    -0.125 NA 
HETATM    6  C   UNL     1      -7.901   8.425  68.840  1.00  0.00    -0.113 A  
HETATM    7  C   UNL     1      -8.036   9.334  67.780  1.00  0.00    -0.104 A  
HETATM    8  C   UNL     1      -8.580   8.615  66.726  1.00  0.00    -0.120 A  
BRANCH   8   9
HETATM    9  C   UNL     1      -8.721   8.956  65.305  1.00  0.00    -0.186 A  
HETATM   10  C   UNL     1      -9.469  10.011  64.770  1.00  0.00    -0.366 A  
HETATM   11  C   UNL     1      -7.830   8.448  63.212  1.00  0.00    -0.151 A  
HETATM   12  C   UNL     1      -9.373  10.231  63.379  1.00  0.00    -0.340 A  
HETATM   13  N   UNL     1      -7.904   8.186  64.534  1.00  0.00    -0.131 NA 
HETATM   14  C   UNL     1      -8.538   9.453  62.592  1.00  0.00    -0.220 A  
BRANCH  10  15
HETATM   15  C   UNL     1     -10.402  10.913  65.533  1.00  0.00    -0.252 C  
BRANCH  15  16
HETATM   16  O   UNL     1      -9.635  11.935  66.154  1.00  0.00    -0.225 OA 
BRANCH  16  17
HETATM   17  C   UNL     1      -9.967  13.247  65.966  1.00  0.00    -0.292 A  
HETATM   18  C   UNL     1     -10.522  13.754  64.783  1.00  0.00    -0.448 A  
HETATM   19  C   UNL     1     -10.921  15.092  64.693  1.00  0.00    -0.320 A  
HETATM   20  C   UNL     1     -10.747  15.952  65.772  1.00  0.00    -0.325 A  
HETATM   21  C   UNL     1     -10.169  15.471  66.946  1.00  0.00    -0.279 A  
HETATM   22  O   UNL     1      -9.973  16.334  67.990  1.00  0.00    -0.233 OA 
HETATM   23  C   UNL     1      -9.785  14.123  67.057  1.00  0.00    -0.258 A  
HETATM   24  C   UNL     1      -9.200  13.672  68.351  1.00  0.00    -0.169 C  
HETATM   25  H   UNL     1      -9.579  16.007  68.791  1.00  0.00     0.000 HD 
HETATM   26  O   UNL     1      -8.714  12.567  68.557  1.00  0.00    -0.147 OA 
ENDBRANCH  16  17
ENDBRANCH  15  16
ENDBRANCH  10  15
ENDBRANCH   8   9
ENDBRANCH   2   4
TORSDOF 5
ENDMDL
MODEL      239
REMARK 921   NORMALIZED FREE ENERGY PREDICTED BY IDOCK:   -4.22 KCAL/MOL
REMARK 922        TOTAL FREE ENERGY PREDICTED BY IDOCK:   -6.67 KCAL/MOL
REMARK 923 INTER-LIGAND FREE ENERGY PREDICTED BY IDOCK:   -5.25 KCAL/MOL
REMARK 924 INTRA-LIGAND FREE ENERGY PREDICTED BY IDOCK:   -1.43 KCAL/MOL
REMARK 927      BINDING AFFINITY PREDICTED BY RF-SCORE:    0.00 PKD
ROOT
HETATM    1  C   UNL     1     -10.178   4.186  64.699  1.00  0.00    -0.195 C  
HETATM    2  C   UNL     1      -9.780   4.733  66.073  1.00  0.00    -0.195 C  
HETATM    3  C   UNL     1      -9.340   3.589  66.995  1.00  0.00    -0.221 C  
ENDROOT
BRANCH   2   4
HETATM    4  N   UNL     1      -8.718   5.737  65.984  1.00  0.00    -0.142 NA 
HETATM    5  N   UNL     1      -7.965   5.755  64.854  1.00  0.00    -0.116 NA 
HETATM    6  C   UNL     1      -6.915   6.499  65.181  1.00  0.00    -0.052 A  
HETATM    7  C   UNL     1      -7.011   7.009  66.484  1.00  0.00    -0.069 A  
HETATM    8  C   UNL     1      -8.241   6.590  66.971  1.00  0.00    -0.113 A  
BRANCH   8   9
HETATM    9  C   UNL     1      -8.993   7.005  68.160  1.00  0.00    -0.127 A  
HETATM   10  C   UNL     1     -10.098   7.864  68.192  1.00  0.00    -0.228 A  
HETATM   11  C   UNL     1      -9.238   6.514  70.425  1.00  0.00    -0.155 A  
HETATM   12  C   UNL     1     -10.746   8.039  69.433  1.00  0.00    -0.167 A  
HETATM   13  N   UNL     1      -8.572   6.330  69.266  1.00  0.00    -0.124 NA 
HETATM   14  C   UNL     1     -10.324   7.349  70.559  1.00  0.00    -0.220 A  
BRANCH  10  15
HETATM   15  C   UNL     1     -10.637   8.657  67.032  1.00  0.00    -0.223 C  
BRANCH  15  16
HETATM   16  O   UNL     1      -9.846   9.829  66.878  1.00  0.00    -0.181 OA 
BRANCH  16  17
HETATM   17  C   UNL     1      -9.614  10.336  65.631  1.00  0.00    -0.232 A  
HETATM   18  C   UNL     1      -8.984   9.626  64.600  1.00  0.00    -0.274 A  
HETATM   19  C   UNL     1      -8.859  10.178  63.321  1.00  0.00    -0.238 A  
HETATM   20  C   UNL     1      -9.337  11.457  63.057  1.00  0.00    -0.344 A  
HETATM   21  C   UNL     1      -9.939  12.189  64.079  1.00  0.00    -0.274 A  
HETATM   22  O   UNL     1     -10.377  13.459  63.817  1.00  0.00    -0.593 OA 
HETATM   23  C   UNL     1     -10.091  11.637  65.363  1.00  0.00    -0.299 A  
HETATM   24  C   UNL     1     -10.769  12.465  66.400  1.00  0.00    -0.247 C  
HETATM   25  H   UNL     1     -10.787  13.958  64.513  1.00  0.00     0.000 HD 
HETATM   26  O   UNL     1     -10.868  12.169  67.584  1.00  0.00    -0.218 OA 
ENDBRANCH  16  17
ENDBRANCH  15  16
ENDBRANCH  10  15
ENDBRANCH   8   9
ENDBRANCH   2   4
TORSDOF 5
ENDMDL
MODEL      240
REMARK 921   NORMALIZED FREE ENERGY PREDICTED BY IDOCK:   -4.22 KCAL/MOL
REMARK 922        TOTAL FREE ENERGY PREDICTED BY IDOCK:   -6.67 KCAL/MOL
REMARK 923 INTER-LIGAND FREE ENERGY PREDICTED BY IDOCK:   -4.81 KCAL/MOL
REMARK 924 INTRA-LIGAND FREE ENERGY PREDICTED BY IDOCK:   -1.85 KCAL/MOL
REMARK 927      BINDING AFFINITY PREDICTED BY RF-SCORE:    0.00 PKD
ROOT
HETATM    1  C   UNL     1      -6.528   9.978  64.876  1.00  0.00    -0.125 C  
HETATM    2  C   UNL     1      -7.035   9.973  66.321  1.00  0.00    -0.104 C  
HETATM    3  C   UNL     1      -6.654  11.283  67.023  1.00  0.00    -0.116 C  
ENDROOT
BRANCH   2   4
HETATM    4  N   UNL     1      -8.484   9.771  66.400  1.00  0.00    -0.123 NA 
HETATM    5  N   UNL     1      -9.281  10.848  66.182  1.00  0.00    -0.178 NA 
HETATM    6  C   UNL     1     -10.468  10.464  66.634  1.00  0.00    -0.215 A  
HETATM    7  C   UNL     1     -10.460   9.135  67.084  1.00  0.00    -0.325 A  
HETATM    8  C   UNL     1      -9.184   8.653  66.835  1.00  0.00    -0.159 A  
BRANCH   8   9
HETATM    9  C   UNL     1      -8.653   7.285  66.864  1.00  0.00    -0.124 A  
HETATM   10  C   UNL     1      -8.001   6.665  67.936  1.00  0.00    -0.113 A  
HETATM   11  C   UNL     1      -8.680   5.295  65.652  1.00  0.00    -0.146 A  
HETATM   12  C   UNL     1      -7.674   5.300  67.791  1.00  0.00    -0.091 A  
HETATM   13  N   UNL     1      -8.996   6.604  65.736  1.00  0.00    -0.085 NA 
HETATM   14  C   UNL     1      -8.026   4.601  66.646  1.00  0.00    -0.103 A  
BRANCH  10  15
HETATM   15  C   UNL     1      -7.575   7.328  69.218  1.00  0.00    -0.102 C  
BRANCH  15  16
HETATM   16  O   UNL     1      -8.484   6.952  70.244  1.00  0.00    -0.135 OA 
BRANCH  16  17
HETATM   17  C   UNL     1      -9.576   7.731  70.507  1.00  0.00    -0.167 A  
HETATM   18  C   UNL     1      -9.533   9.127  70.627  1.00  0.00    -0.316 A  
HETATM   19  C   UNL     1     -10.706   9.868  70.809  1.00  0.00    -0.350 A  
HETATM   20  C   UNL     1     -11.936   9.226  70.901  1.00  0.00    -0.321 A  
HETATM   21  C   UNL     1     -11.993   7.836  70.814  1.00  0.00    -0.149 A  
HETATM   22  O   UNL     1     -13.205   7.212  70.938  1.00  0.00    -0.573 OA 
HETATM   23  C   UNL     1     -10.824   7.082  70.609  1.00  0.00    -0.274 A  
HETATM   24  C   UNL     1     -10.963   5.602  70.497  1.00  0.00    -0.197 C  
HETATM   25  H   UNL     1     -13.244   6.265  70.878  1.00  0.00     0.000 HD 
HETATM   26  O   UNL     1     -10.031   4.810  70.436  1.00  0.00    -0.218 OA 
ENDBRANCH  16  17
ENDBRANCH  15  16
ENDBRANCH  10  15
ENDBRANCH   8   9
ENDBRANCH   2   4
TORSDOF 5
ENDMDL
MODEL      241
REMARK 921   NORMALIZED FREE ENERGY PREDICTED BY IDOCK:   -4.22 KCAL/MOL
REMARK 922        TOTAL FREE ENERGY PREDICTED BY IDOCK:   -6.66 KCAL/MOL
REMARK 923 INTER-LIGAND FREE ENERGY PREDICTED BY IDOCK:   -5.88 KCAL/MOL
REMARK 924 INTRA-LIGAND FREE ENERGY PREDICTED BY IDOCK:   -0.79 KCAL/MOL
REMARK 927      BINDING AFFINITY PREDICTED BY RF-SCORE:    0.00 PKD
ROOT
HETATM    1  C   UNL     1     -10.233  17.836  66.471  1.00  0.00    -0.358 C  
HETATM    2  C   UNL     1      -9.423  18.792  67.351  1.00  0.00    -0.297 C  
HETATM    3  C   UNL     1     -10.362  19.713  68.142  1.00  0.00    -0.561 C  
ENDROOT
BRANCH   2   4
HETATM    4  N   UNL     1      -8.533  18.081  68.271  1.00  0.00    -0.280 NA 
HETATM    5  N   UNL     1      -7.379  18.698  68.631  1.00  0.00    -0.297 NA 
HETATM    6  C   UNL     1      -6.650  17.727  69.168  1.00  0.00    -0.246 A  
HETATM    7  C   UNL     1      -7.342  16.508  69.212  1.00  0.00    -0.201 A  
HETATM    8  C   UNL     1      -8.611  16.767  68.716  1.00  0.00    -0.255 A  
BRANCH   8   9
HETATM    9  C   UNL     1      -9.835  15.959  68.743  1.00  0.00    -0.216 A  
HETATM   10  C   UNL     1     -10.038  14.729  68.107  1.00  0.00    -0.221 A  
HETATM   11  C   UNL     1     -11.891  15.801  69.829  1.00  0.00    -0.341 A  
HETATM   12  C   UNL     1     -11.255  14.062  68.360  1.00  0.00    -0.292 A  
HETATM   13  N   UNL     1     -10.751  16.486  69.602  1.00  0.00    -0.335 NA 
HETATM   14  C   UNL     1     -12.187  14.593  69.238  1.00  0.00    -0.247 A  
BRANCH  10  15
HETATM   15  C   UNL     1      -9.094  14.065  67.139  1.00  0.00    -0.232 C  
BRANCH  15  16
HETATM   16  O   UNL     1      -9.111  12.665  67.380  1.00  0.00    -0.176 OA 
BRANCH  16  17
HETATM   17  C   UNL     1      -8.209  12.109  68.243  1.00  0.00    -0.168 A  
HETATM   18  C   UNL     1      -7.010  12.724  68.627  1.00  0.00    -0.101 A  
HETATM   19  C   UNL     1      -6.176  12.137  69.585  1.00  0.00    -0.131 A  
HETATM   20  C   UNL     1      -6.512  10.913  70.154  1.00  0.00    -0.145 A  
HETATM   21  C   UNL     1      -7.687  10.273  69.761  1.00  0.00    -0.151 A  
HETATM   22  O   UNL     1      -7.992   9.055  70.304  1.00  0.00    -0.092 OA 
HETATM   23  C   UNL     1      -8.545  10.864  68.816  1.00  0.00    -0.159 A  
HETATM   24  C   UNL     1      -9.797  10.138  68.464  1.00  0.00    -0.154 C  
HETATM   25  H   UNL     1      -8.793   8.618  70.036  1.00  0.00     0.000 HD 
HETATM   26  O   UNL     1     -10.577  10.467  67.580  1.00  0.00    -0.223 OA 
ENDBRANCH  16  17
ENDBRANCH  15  16
ENDBRANCH  10  15
ENDBRANCH   8   9
ENDBRANCH   2   4
TORSDOF 5
ENDMDL
MODEL      242
REMARK 921   NORMALIZED FREE ENERGY PREDICTED BY IDOCK:   -4.20 KCAL/MOL
REMARK 922        TOTAL FREE ENERGY PREDICTED BY IDOCK:   -6.64 KCAL/MOL
REMARK 923 INTER-LIGAND FREE ENERGY PREDICTED BY IDOCK:   -6.01 KCAL/MOL
REMARK 924 INTRA-LIGAND FREE ENERGY PREDICTED BY IDOCK:   -0.63 KCAL/MOL
REMARK 927      BINDING AFFINITY PREDICTED BY RF-SCORE:    0.00 PKD
ROOT
HETATM    1  C   UNL     1     -11.700  11.529  64.032  1.00  0.00    -0.226 C  
HETATM    2  C   UNL     1     -10.642  11.604  65.136  1.00  0.00    -0.290 C  
HETATM    3  C   UNL     1      -9.291  11.095  64.615  1.00  0.00    -0.200 C  
ENDROOT
BRANCH   2   4
HETATM    4  N   UNL     1     -10.491  12.960  65.669  1.00  0.00    -0.273 NA 
HETATM    5  N   UNL     1     -11.331  13.917  65.197  1.00  0.00    -0.308 NA 
HETATM    6  C   UNL     1     -10.766  15.055  65.580  1.00  0.00    -0.354 A  
HETATM    7  C   UNL     1      -9.608  14.843  66.343  1.00  0.00    -0.317 A  
HETATM    8  C   UNL     1      -9.487  13.468  66.483  1.00  0.00    -0.256 A  
BRANCH   8   9
HETATM    9  C   UNL     1      -8.630  12.666  67.364  1.00  0.00    -0.189 A  
HETATM   10  C   UNL     1      -9.045  11.652  68.236  1.00  0.00    -0.187 A  
HETATM   11  C   UNL     1      -6.388  12.192  67.787  1.00  0.00    -0.092 A  
HETATM   12  C   UNL     1      -8.039  10.926  68.908  1.00  0.00    -0.144 A  
HETATM   13  N   UNL     1      -7.314  12.928  67.137  1.00  0.00    -0.059 NA 
HETATM   14  C   UNL     1      -6.697  11.185  68.674  1.00  0.00    -0.062 A  
BRANCH  10  15
HETATM   15  C   UNL     1     -10.470  11.290  68.559  1.00  0.00    -0.197 C  
BRANCH  15  16
HETATM   16  O   UNL     1     -10.464  10.164  69.427  1.00  0.00    -0.202 OA 
BRANCH  16  17
HETATM   17  C   UNL     1     -10.633   8.908  68.917  1.00  0.00    -0.165 A  
HETATM   18  C   UNL     1     -10.619   8.609  67.548  1.00  0.00    -0.292 A  
HETATM   19  C   UNL     1     -10.709   7.287  67.101  1.00  0.00    -0.413 A  
HETATM   20  C   UNL     1     -10.843   6.244  68.011  1.00  0.00    -0.409 A  
HETATM   21  C   UNL     1     -10.889   6.527  69.375  1.00  0.00    -0.308 A  
HETATM   22  O   UNL     1     -11.052   5.496  70.261  1.00  0.00    -0.231 OA 
HETATM   23  C   UNL     1     -10.776   7.849  69.839  1.00  0.00    -0.244 A  
HETATM   24  C   UNL     1     -10.804   8.075  71.311  1.00  0.00    -0.232 C  
HETATM   25  H   UNL     1     -11.083   5.688  71.191  1.00  0.00     0.000 HD 
HETATM   26  O   UNL     1     -10.835   9.171  71.855  1.00  0.00    -0.359 OA 
ENDBRANCH  16  17
ENDBRANCH  15  16
ENDBRANCH  10  15
ENDBRANCH   8   9
ENDBRANCH   2   4
TORSDOF 5
ENDMDL
MODEL      243
REMARK 921   NORMALIZED FREE ENERGY PREDICTED BY IDOCK:   -4.19 KCAL/MOL
REMARK 922        TOTAL FREE ENERGY PREDICTED BY IDOCK:   -6.63 KCAL/MOL
REMARK 923 INTER-LIGAND FREE ENERGY PREDICTED BY IDOCK:   -5.48 KCAL/MOL
REMARK 924 INTRA-LIGAND FREE ENERGY PREDICTED BY IDOCK:   -1.16 KCAL/MOL
REMARK 927      BINDING AFFINITY PREDICTED BY RF-SCORE:    0.00 PKD
ROOT
HETATM    1  C   UNL     1     -10.285   4.615  72.295  1.00  0.00    -0.256 C  
HETATM    2  C   UNL     1     -10.360   6.074  71.837  1.00  0.00    -0.209 C  
HETATM    3  C   UNL     1     -11.098   6.923  72.880  1.00  0.00    -0.297 C  
ENDROOT
BRANCH   2   4
HETATM    4  N   UNL     1      -9.035   6.644  71.580  1.00  0.00    -0.139 NA 
HETATM    5  N   UNL     1      -8.160   6.691  72.617  1.00  0.00    -0.102 NA 
HETATM    6  C   UNL     1      -7.216   7.526  72.201  1.00  0.00    -0.068 A  
HETATM    7  C   UNL     1      -7.440   7.970  70.890  1.00  0.00    -0.069 A  
HETATM    8  C   UNL     1      -8.579   7.311  70.451  1.00  0.00    -0.144 A  
BRANCH   8   9
HETATM    9  C   UNL     1      -9.153   7.182  69.106  1.00  0.00    -0.137 A  
HETATM   10  C   UNL     1     -10.056   8.060  68.496  1.00  0.00    -0.218 A  
HETATM   11  C   UNL     1      -8.926   5.955  67.138  1.00  0.00    -0.113 A  
HETATM   12  C   UNL     1     -10.393   7.809  67.149  1.00  0.00    -0.389 A  
HETATM   13  N   UNL     1      -8.589   6.143  68.431  1.00  0.00    -0.113 NA 
HETATM   14  C   UNL     1      -9.815   6.756  66.456  1.00  0.00    -0.167 A  
BRANCH  10  15
HETATM   15  C   UNL     1     -10.737   9.230  69.154  1.00  0.00    -0.183 C  
BRANCH  15  16
HETATM   16  O   UNL     1     -10.960  10.234  68.174  1.00  0.00    -0.250 OA 
BRANCH  16  17
HETATM   17  C   UNL     1     -11.245  11.514  68.560  1.00  0.00    -0.258 A  
HETATM   18  C   UNL     1     -11.903  11.845  69.752  1.00  0.00    -0.411 A  
HETATM   19  C   UNL     1     -12.082  13.181  70.126  1.00  0.00    -0.392 A  
HETATM   20  C   UNL     1     -11.632  14.208  69.303  1.00  0.00    -0.350 A  
HETATM   21  C   UNL     1     -11.003  13.896  68.099  1.00  0.00    -0.249 A  
HETATM   22  O   UNL     1     -10.592  14.915  67.282  1.00  0.00    -0.264 OA 
HETATM   23  C   UNL     1     -10.796  12.557  67.723  1.00  0.00    -0.254 A  
HETATM   24  C   UNL     1     -10.091  12.298  66.436  1.00  0.00    -0.226 C  
HETATM   25  H   UNL     1     -10.163  14.703  66.461  1.00  0.00     0.000 HD 
HETATM   26  O   UNL     1      -9.944  11.196  65.923  1.00  0.00    -0.220 OA 
ENDBRANCH  16  17
ENDBRANCH  15  16
ENDBRANCH  10  15
ENDBRANCH   8   9
ENDBRANCH   2   4
TORSDOF 5
ENDMDL
MODEL      244
REMARK 921   NORMALIZED FREE ENERGY PREDICTED BY IDOCK:   -4.18 KCAL/MOL
REMARK 922        TOTAL FREE ENERGY PREDICTED BY IDOCK:   -6.62 KCAL/MOL
REMARK 923 INTER-LIGAND FREE ENERGY PREDICTED BY IDOCK:   -6.06 KCAL/MOL
REMARK 924 INTRA-LIGAND FREE ENERGY PREDICTED BY IDOCK:   -0.56 KCAL/MOL
REMARK 927      BINDING AFFINITY PREDICTED BY RF-SCORE:    0.00 PKD
ROOT
HETATM    1  C   UNL     1     -11.400  15.324  70.261  1.00  0.00    -0.318 C  
HETATM    2  C   UNL     1     -11.794  13.863  70.494  1.00  0.00    -0.247 C  
HETATM    3  C   UNL     1     -13.276  13.765  70.880  1.00  0.00    -0.156 C  
ENDROOT
BRANCH   2   4
HETATM    4  N   UNL     1     -11.529  13.023  69.324  1.00  0.00    -0.288 NA 
HETATM    5  N   UNL     1     -11.172  13.646  68.172  1.00  0.00    -0.262 NA 
HETATM    6  C   UNL     1     -11.323  12.711  67.242  1.00  0.00    -0.318 A  
HETATM    7  C   UNL     1     -11.714  11.479  67.787  1.00  0.00    -0.299 A  
HETATM    8  C   UNL     1     -11.750  11.661  69.162  1.00  0.00    -0.326 A  
BRANCH   8   9
HETATM    9  C   UNL     1     -11.850  10.688  70.256  1.00  0.00    -0.342 A  
HETATM   10  C   UNL     1     -10.828   9.860  70.733  1.00  0.00    -0.387 A  
HETATM   11  C   UNL     1     -13.272  10.022  71.978  1.00  0.00    -0.443 A  
HETATM   12  C   UNL     1     -11.108   9.079  71.874  1.00  0.00    -0.433 A  
HETATM   13  N   UNL     1     -13.059  10.773  70.877  1.00  0.00    -0.284 NA 
HETATM   14  C   UNL     1     -12.335   9.167  72.513  1.00  0.00    -0.216 A  
BRANCH  10  15
HETATM   15  C   UNL     1      -9.465   9.690  70.118  1.00  0.00    -0.253 C  
BRANCH  15  16
HETATM   16  O   UNL     1      -9.206   8.301  69.968  1.00  0.00    -0.150 OA 
BRANCH  16  17
HETATM   17  C   UNL     1      -8.904   7.792  68.736  1.00  0.00    -0.134 A  
HETATM   18  C   UNL     1      -8.087   8.439  67.799  1.00  0.00    -0.122 A  
HETATM   19  C   UNL     1      -7.748   7.817  66.592  1.00  0.00    -0.098 A  
HETATM   20  C   UNL     1      -8.240   6.552  66.290  1.00  0.00    -0.119 A  
HETATM   21  C   UNL     1      -9.078   5.907  67.198  1.00  0.00    -0.113 A  
HETATM   22  O   UNL     1      -9.583   4.676  66.877  1.00  0.00    -0.153 OA 
HETATM   23  C   UNL     1      -9.408   6.511  68.424  1.00  0.00    -0.122 A  
HETATM   24  C   UNL     1     -10.286   5.752  69.359  1.00  0.00    -0.234 C  
HETATM   25  H   UNL     1     -10.154   4.236  67.496  1.00  0.00     0.000 HD 
HETATM   26  O   UNL     1     -10.751   6.193  70.403  1.00  0.00    -0.241 OA 
ENDBRANCH  16  17
ENDBRANCH  15  16
ENDBRANCH  10  15
ENDBRANCH   8   9
ENDBRANCH   2   4
TORSDOF 5
ENDMDL
MODEL      245
REMARK 921   NORMALIZED FREE ENERGY PREDICTED BY IDOCK:   -4.16 KCAL/MOL
REMARK 922        TOTAL FREE ENERGY PREDICTED BY IDOCK:   -6.59 KCAL/MOL
REMARK 923 INTER-LIGAND FREE ENERGY PREDICTED BY IDOCK:   -5.33 KCAL/MOL
REMARK 924 INTRA-LIGAND FREE ENERGY PREDICTED BY IDOCK:   -1.26 KCAL/MOL
REMARK 927      BINDING AFFINITY PREDICTED BY RF-SCORE:    0.00 PKD
ROOT
HETATM    1  C   UNL     1      -8.387   4.565  63.275  1.00  0.00    -0.104 C  
HETATM    2  C   UNL     1      -9.072   4.203  64.596  1.00  0.00    -0.146 C  
HETATM    3  C   UNL     1      -9.526   2.737  64.576  1.00  0.00    -0.151 C  
ENDROOT
BRANCH   2   4
HETATM    4  N   UNL     1      -8.206   4.440  65.753  1.00  0.00    -0.109 NA 
HETATM    5  N   UNL     1      -7.263   3.503  66.034  1.00  0.00    -0.067 NA 
HETATM    6  C   UNL     1      -6.879   3.798  67.270  1.00  0.00    -0.051 A  
HETATM    7  C   UNL     1      -7.516   4.945  67.765  1.00  0.00    -0.079 A  
HETATM    8  C   UNL     1      -8.309   5.420  66.731  1.00  0.00    -0.108 A  
BRANCH   8   9
HETATM    9  C   UNL     1      -9.008   6.700  66.570  1.00  0.00    -0.145 A  
HETATM   10  C   UNL     1     -10.175   7.104  67.229  1.00  0.00    -0.315 A  
HETATM   11  C   UNL     1      -8.748   8.811  65.617  1.00  0.00    -0.184 A  
HETATM   12  C   UNL     1     -10.616   8.426  67.013  1.00  0.00    -0.316 A  
HETATM   13  N   UNL     1      -8.298   7.549  65.777  1.00  0.00    -0.136 NA 
HETATM   14  C   UNL     1      -9.892   9.295  66.210  1.00  0.00    -0.361 A  
BRANCH  10  15
HETATM   15  C   UNL     1     -11.032   6.244  68.120  1.00  0.00    -0.323 C  
BRANCH  15  16
HETATM   16  O   UNL     1     -11.162   6.887  69.380  1.00  0.00    -0.228 OA 
BRANCH  16  17
HETATM   17  C   UNL     1     -10.799   6.230  70.522  1.00  0.00    -0.288 A  
HETATM   18  C   UNL     1     -10.169   4.979  70.541  1.00  0.00    -0.316 A  
HETATM   19  C   UNL     1      -9.746   4.405  71.744  1.00  0.00    -0.236 A  
HETATM   20  C   UNL     1      -9.970   5.059  72.952  1.00  0.00    -0.192 A  
HETATM   21  C   UNL     1     -10.622   6.291  72.954  1.00  0.00    -0.233 A  
HETATM   22  O   UNL     1     -10.866   6.911  74.150  1.00  0.00    -0.446 OA 
HETATM   23  C   UNL     1     -11.032   6.888  71.749  1.00  0.00    -0.259 A  
HETATM   24  C   UNL     1     -11.698   8.219  71.824  1.00  0.00    -0.302 C  
HETATM   25  H   UNL     1     -11.311   7.750  74.152  1.00  0.00     0.000 HD 
HETATM   26  O   UNL     1     -12.211   8.804  70.878  1.00  0.00    -0.240 OA 
ENDBRANCH  16  17
ENDBRANCH  15  16
ENDBRANCH  10  15
ENDBRANCH   8   9
ENDBRANCH   2   4
TORSDOF 5
ENDMDL
MODEL      246
REMARK 921   NORMALIZED FREE ENERGY PREDICTED BY IDOCK:   -4.15 KCAL/MOL
REMARK 922        TOTAL FREE ENERGY PREDICTED BY IDOCK:   -6.58 KCAL/MOL
REMARK 923 INTER-LIGAND FREE ENERGY PREDICTED BY IDOCK:   -5.34 KCAL/MOL
REMARK 924 INTRA-LIGAND FREE ENERGY PREDICTED BY IDOCK:   -1.24 KCAL/MOL
REMARK 927      BINDING AFFINITY PREDICTED BY RF-SCORE:    0.00 PKD
ROOT
HETATM    1  C   UNL     1     -10.740   8.577  68.932  1.00  0.00    -0.100 C  
HETATM    2  C   UNL     1     -10.538   9.912  68.208  1.00  0.00    -0.229 C  
HETATM    3  C   UNL     1     -11.249  11.041  68.965  1.00  0.00    -0.320 C  
ENDROOT
BRANCH   2   4
HETATM    4  N   UNL     1      -9.121  10.242  68.038  1.00  0.00    -0.131 NA 
HETATM    5  N   UNL     1      -8.288   9.985  69.078  1.00  0.00    -0.124 NA 
HETATM    6  C   UNL     1      -7.188  10.668  68.783  1.00  0.00    -0.087 A  
HETATM    7  C   UNL     1      -7.281  11.310  67.540  1.00  0.00    -0.100 A  
HETATM    8  C   UNL     1      -8.509  10.946  67.009  1.00  0.00    -0.134 A  
BRANCH   8   9
HETATM    9  C   UNL     1      -9.054  11.103  65.656  1.00  0.00    -0.205 A  
HETATM   10  C   UNL     1      -9.885  12.135  65.204  1.00  0.00    -0.200 A  
HETATM   11  C   UNL     1      -8.847  10.247  63.498  1.00  0.00    -0.223 A  
HETATM   12  C   UNL     1     -10.200  12.157  63.829  1.00  0.00    -0.449 A  
HETATM   13  N   UNL     1      -8.535  10.172  64.809  1.00  0.00    -0.166 NA 
HETATM   14  C   UNL     1      -9.668  11.214  62.962  1.00  0.00    -0.384 A  
BRANCH  10  15
HETATM   15  C   UNL     1     -10.512  13.205  66.057  1.00  0.00    -0.284 C  
BRANCH  15  16
HETATM   16  O   UNL     1      -9.493  14.100  66.482  1.00  0.00    -0.276 OA 
BRANCH  16  17
HETATM   17  C   UNL     1      -9.623  15.441  66.254  1.00  0.00    -0.313 A  
HETATM   18  C   UNL     1     -10.627  16.007  65.456  1.00  0.00    -0.415 A  
HETATM   19  C   UNL     1     -10.754  17.395  65.339  1.00  0.00    -0.040 A  
HETATM   20  C   UNL     1      -9.864  18.240  65.994  1.00  0.00    -0.164 A  
HETATM   21  C   UNL     1      -8.842  17.693  66.767  1.00  0.00    -0.258 A  
HETATM   22  O   UNL     1      -7.952  18.533  67.382  1.00  0.00    -0.236 OA 
HETATM   23  C   UNL     1      -8.717  16.300  66.911  1.00  0.00    -0.237 A  
HETATM   24  C   UNL     1      -7.618  15.786  67.776  1.00  0.00    -0.140 C  
HETATM   25  H   UNL     1      -7.255  18.160  67.909  1.00  0.00     0.000 HD 
HETATM   26  O   UNL     1      -7.314  14.606  67.902  1.00  0.00    -0.121 OA 
ENDBRANCH  16  17
ENDBRANCH  15  16
ENDBRANCH  10  15
ENDBRANCH   8   9
ENDBRANCH   2   4
TORSDOF 5
ENDMDL
MODEL      247
REMARK 921   NORMALIZED FREE ENERGY PREDICTED BY IDOCK:   -4.14 KCAL/MOL
REMARK 922        TOTAL FREE ENERGY PREDICTED BY IDOCK:   -6.56 KCAL/MOL
REMARK 923 INTER-LIGAND FREE ENERGY PREDICTED BY IDOCK:   -5.85 KCAL/MOL
REMARK 924 INTRA-LIGAND FREE ENERGY PREDICTED BY IDOCK:   -0.72 KCAL/MOL
REMARK 927      BINDING AFFINITY PREDICTED BY RF-SCORE:    0.00 PKD
ROOT
HETATM    1  C   UNL     1      -8.076  10.947  64.492  1.00  0.00     0.254 C  
HETATM    2  C   UNL     1      -9.409  10.202  64.381  1.00  0.00    -0.293 C  
HETATM    3  C   UNL     1      -9.374   8.919  65.222  1.00  0.00    -0.095 C  
ENDROOT
BRANCH   2   4
HETATM    4  N   UNL     1     -10.545  11.032  64.787  1.00  0.00    -0.308 NA 
HETATM    5  N   UNL     1     -11.352  11.514  63.808  1.00  0.00    -0.386 NA 
HETATM    6  C   UNL     1     -12.055  12.465  64.412  1.00  0.00    -0.426 A  
HETATM    7  C   UNL     1     -11.754  12.560  65.778  1.00  0.00    -0.478 A  
HETATM    8  C   UNL     1     -10.838  11.553  66.041  1.00  0.00    -0.276 A  
BRANCH   8   9
HETATM    9  C   UNL     1     -10.349  11.009  67.314  1.00  0.00    -0.211 A  
HETATM   10  C   UNL     1      -9.410  11.598  68.168  1.00  0.00    -0.188 A  
HETATM   11  C   UNL     1     -10.785   9.322  68.862  1.00  0.00    -0.156 A  
HETATM   12  C   UNL     1      -9.168  10.959  69.402  1.00  0.00     0.087 A  
HETATM   13  N   UNL     1     -11.035   9.885  67.661  1.00  0.00    -0.264 NA 
HETATM   14  C   UNL     1      -9.869   9.818  69.762  1.00  0.00    -0.262 A  
BRANCH  10  15
HETATM   15  C   UNL     1      -8.598  12.831  67.876  1.00  0.00    -0.181 C  
BRANCH  15  16
HETATM   16  O   UNL     1      -9.280  13.959  68.409  1.00  0.00    -0.200 OA 
BRANCH  16  17
HETATM   17  C   UNL     1      -9.082  15.196  67.865  1.00  0.00    -0.179 A  
HETATM   18  C   UNL     1      -8.157  15.467  66.847  1.00  0.00    -0.259 A  
HETATM   19  C   UNL     1      -8.070  16.740  66.275  1.00  0.00    -0.365 A  
HETATM   20  C   UNL     1      -8.885  17.772  66.729  1.00  0.00    -0.275 A  
HETATM   21  C   UNL     1      -9.790  17.528  67.762  1.00  0.00    -0.286 A  
HETATM   22  O   UNL     1     -10.565  18.557  68.222  1.00  0.00    -0.320 OA 
HETATM   23  C   UNL     1      -9.902  16.246  68.329  1.00  0.00    -0.227 A  
HETATM   24  C   UNL     1     -10.910  16.050  69.409  1.00  0.00    -0.300 C  
HETATM   25  H   UNL     1     -11.181  18.391  68.926  1.00  0.00     0.000 HD 
HETATM   26  O   UNL     1     -11.041  15.030  70.074  1.00  0.00    -0.253 OA 
ENDBRANCH  16  17
ENDBRANCH  15  16
ENDBRANCH  10  15
ENDBRANCH   8   9
ENDBRANCH   2   4
TORSDOF 5
ENDMDL
MODEL      248
REMARK 921   NORMALIZED FREE ENERGY PREDICTED BY IDOCK:   -4.14 KCAL/MOL
REMARK 922        TOTAL FREE ENERGY PREDICTED BY IDOCK:   -6.56 KCAL/MOL
REMARK 923 INTER-LIGAND FREE ENERGY PREDICTED BY IDOCK:   -5.95 KCAL/MOL
REMARK 924 INTRA-LIGAND FREE ENERGY PREDICTED BY IDOCK:   -0.62 KCAL/MOL
REMARK 927      BINDING AFFINITY PREDICTED BY RF-SCORE:    0.00 PKD
ROOT
HETATM    1  C   UNL     1      -5.938   6.529  68.172  1.00  0.00    -0.017 C  
HETATM    2  C   UNL     1      -7.181   7.310  68.607  1.00  0.00    -0.090 C  
HETATM    3  C   UNL     1      -6.987   8.810  68.343  1.00  0.00    -0.066 C  
ENDROOT
BRANCH   2   4
HETATM    4  N   UNL     1      -8.395   6.840  67.937  1.00  0.00    -0.120 NA 
HETATM    5  N   UNL     1      -8.282   6.432  66.647  1.00  0.00    -0.110 NA 
HETATM    6  C   UNL     1      -9.536   6.390  66.213  1.00  0.00    -0.095 A  
HETATM    7  C   UNL     1     -10.457   6.706  67.223  1.00  0.00    -0.342 A  
HETATM    8  C   UNL     1      -9.711   6.902  68.376  1.00  0.00    -0.137 A  
BRANCH   8   9
HETATM    9  C   UNL     1     -10.126   7.014  69.779  1.00  0.00    -0.189 A  
HETATM   10  C   UNL     1     -10.512   8.183  70.445  1.00  0.00    -0.217 A  
HETATM   11  C   UNL     1     -10.712   5.705  71.616  1.00  0.00    -0.251 A  
HETATM   12  C   UNL     1     -10.988   8.048  71.766  1.00  0.00    -0.305 A  
HETATM   13  N   UNL     1     -10.233   5.786  70.357  1.00  0.00    -0.208 NA 
HETATM   14  C   UNL     1     -11.103   6.798  72.356  1.00  0.00    -0.292 A  
BRANCH  10  15
HETATM   15  C   UNL     1     -10.429   9.583  69.898  1.00  0.00    -0.240 C  
BRANCH  15  16
HETATM   16  O   UNL     1     -11.737  10.138  69.877  1.00  0.00    -0.237 OA 
BRANCH  16  17
HETATM   17  C   UNL     1     -11.904  11.494  69.912  1.00  0.00    -0.355 A  
HETATM   18  C   UNL     1     -11.480  12.363  68.898  1.00  0.00    -0.355 A  
HETATM   19  C   UNL     1     -11.763  13.732  68.960  1.00  0.00    -0.372 A  
HETATM   20  C   UNL     1     -12.450  14.259  70.048  1.00  0.00    -0.355 A  
HETATM   21  C   UNL     1     -12.852  13.413  71.081  1.00  0.00    -0.291 A  
HETATM   22  O   UNL     1     -13.499  13.947  72.163  1.00  0.00    -0.397 OA 
HETATM   23  C   UNL     1     -12.593  12.033  71.019  1.00  0.00    -0.370 A  
HETATM   24  C   UNL     1     -13.077  11.184  72.145  1.00  0.00    -0.183 C  
HETATM   25  H   UNL     1     -13.773  13.371  72.866  1.00  0.00     0.000 HD 
HETATM   26  O   UNL     1     -12.826   9.994  72.288  1.00  0.00    -0.354 OA 
ENDBRANCH  16  17
ENDBRANCH  15  16
ENDBRANCH  10  15
ENDBRANCH   8   9
ENDBRANCH   2   4
TORSDOF 5
ENDMDL
MODEL      249
REMARK 921   NORMALIZED FREE ENERGY PREDICTED BY IDOCK:   -4.10 KCAL/MOL
REMARK 922        TOTAL FREE ENERGY PREDICTED BY IDOCK:   -6.51 KCAL/MOL
REMARK 923 INTER-LIGAND FREE ENERGY PREDICTED BY IDOCK:   -5.82 KCAL/MOL
REMARK 924 INTRA-LIGAND FREE ENERGY PREDICTED BY IDOCK:   -0.69 KCAL/MOL
REMARK 927      BINDING AFFINITY PREDICTED BY RF-SCORE:    0.00 PKD
ROOT
HETATM    1  C   UNL     1     -11.582  10.624  67.514  1.00  0.00     0.095 C  
HETATM    2  C   UNL     1     -11.001   9.215  67.659  1.00  0.00     0.046 C  
HETATM    3  C   UNL     1     -10.149   8.861  66.433  1.00  0.00    -0.333 C  
ENDROOT
BRANCH   2   4
HETATM    4  N   UNL     1     -10.203   9.066  68.878  1.00  0.00    -0.203 NA 
HETATM    5  N   UNL     1     -10.764   8.399  69.919  1.00  0.00    -0.233 NA 
HETATM    6  C   UNL     1      -9.987   8.704  70.951  1.00  0.00    -0.206 A  
HETATM    7  C   UNL     1      -8.901   9.508  70.578  1.00  0.00    -0.253 A  
HETATM    8  C   UNL     1      -8.989   9.659  69.202  1.00  0.00    -0.154 A  
BRANCH   8   9
HETATM    9  C   UNL     1      -8.021  10.180  68.230  1.00  0.00    -0.101 A  
HETATM   10  C   UNL     1      -8.016  11.458  67.659  1.00  0.00    -0.123 A  
HETATM   11  C   UNL     1      -5.968   9.672  67.252  1.00  0.00    -0.052 A  
HETATM   12  C   UNL     1      -6.923  11.793  66.833  1.00  0.00    -0.101 A  
HETATM   13  N   UNL     1      -7.002   9.299  68.034  1.00  0.00    -0.076 NA 
HETATM   14  C   UNL     1      -5.881  10.900  66.635  1.00  0.00    -0.096 A  
BRANCH  10  15
HETATM   15  C   UNL     1      -9.092  12.500  67.809  1.00  0.00    -0.191 C  
BRANCH  15  16
HETATM   16  O   UNL     1      -9.046  13.363  66.681  1.00  0.00    -0.234 OA 
BRANCH  16  17
HETATM   17  C   UNL     1      -9.930  13.189  65.653  1.00  0.00    -0.227 A  
HETATM   18  C   UNL     1      -9.981  12.044  64.847  1.00  0.00    -0.253 A  
HETATM   19  C   UNL     1     -10.971  11.897  63.870  1.00  0.00    -0.473 A  
HETATM   20  C   UNL     1     -11.910  12.902  63.663  1.00  0.00    -0.599 A  
HETATM   21  C   UNL     1     -11.855  14.060  64.436  1.00  0.00    -0.431 A  
HETATM   22  O   UNL     1     -12.765  15.057  64.203  1.00  0.00    -0.729 OA 
HETATM   23  C   UNL     1     -10.879  14.211  65.436  1.00  0.00    -0.341 A  
HETATM   24  C   UNL     1     -10.898  15.463  66.243  1.00  0.00    -0.301 C  
HETATM   25  H   UNL     1     -12.728  15.847  64.729  1.00  0.00     0.000 HD 
HETATM   26  O   UNL     1     -10.048  15.786  67.063  1.00  0.00    -0.251 OA 
ENDBRANCH  16  17
ENDBRANCH  15  16
ENDBRANCH  10  15
ENDBRANCH   8   9
ENDBRANCH   2   4
TORSDOF 5
ENDMDL
MODEL      250
REMARK 921   NORMALIZED FREE ENERGY PREDICTED BY IDOCK:   -4.09 KCAL/MOL
REMARK 922        TOTAL FREE ENERGY PREDICTED BY IDOCK:   -6.50 KCAL/MOL
REMARK 923 INTER-LIGAND FREE ENERGY PREDICTED BY IDOCK:   -5.32 KCAL/MOL
REMARK 924 INTRA-LIGAND FREE ENERGY PREDICTED BY IDOCK:   -1.18 KCAL/MOL
REMARK 927      BINDING AFFINITY PREDICTED BY RF-SCORE:    0.00 PKD
ROOT
HETATM    1  C   UNL     1      -8.672   6.223  65.830  1.00  0.00    -0.145 C  
HETATM    2  C   UNL     1      -8.888   7.730  65.991  1.00  0.00    -0.157 C  
HETATM    3  C   UNL     1      -8.953   8.103  67.478  1.00  0.00    -0.143 C  
ENDROOT
BRANCH   2   4
HETATM    4  N   UNL     1      -7.844   8.515  65.328  1.00  0.00    -0.100 NA 
HETATM    5  N   UNL     1      -6.632   7.927  65.153  1.00  0.00    -0.047 NA 
HETATM    6  C   UNL     1      -5.826   8.938  64.854  1.00  0.00    -0.063 A  
HETATM    7  C   UNL     1      -6.513  10.159  64.775  1.00  0.00    -0.128 A  
HETATM    8  C   UNL     1      -7.851   9.861  64.987  1.00  0.00    -0.131 A  
BRANCH   8   9
HETATM    9  C   UNL     1      -9.057  10.672  64.785  1.00  0.00    -0.209 A  
HETATM   10  C   UNL     1      -9.591  11.611  65.675  1.00  0.00    -0.252 A  
HETATM   11  C   UNL     1     -10.597  11.270  63.141  1.00  0.00    -0.161 A  
HETATM   12  C   UNL     1     -10.696  12.367  65.232  1.00  0.00    -0.322 A  
HETATM   13  N   UNL     1      -9.552  10.509  63.527  1.00  0.00    -0.305 NA 
HETATM   14  C   UNL     1     -11.199  12.208  63.950  1.00  0.00    -0.485 A  
BRANCH  10  15
HETATM   15  C   UNL     1      -9.122  11.863  67.083  1.00  0.00    -0.178 C  
BRANCH  15  16
HETATM   16  O   UNL     1     -10.000  12.801  67.691  1.00  0.00    -0.209 OA 
BRANCH  16  17
HETATM   17  C   UNL     1      -9.548  14.050  68.014  1.00  0.00    -0.217 A  
HETATM   18  C   UNL     1      -8.283  14.541  67.662  1.00  0.00    -0.187 A  
HETATM   19  C   UNL     1      -7.921  15.861  67.948  1.00  0.00    -0.146 A  
HETATM   20  C   UNL     1      -8.803  16.704  68.615  1.00  0.00    -0.249 A  
HETATM   21  C   UNL     1     -10.054  16.222  68.999  1.00  0.00    -0.259 A  
HETATM   22  O   UNL     1     -10.903  17.050  69.683  1.00  0.00    -0.386 OA 
HETATM   23  C   UNL     1     -10.439  14.904  68.697  1.00  0.00    -0.242 A  
HETATM   24  C   UNL     1     -11.800  14.465  69.113  1.00  0.00    -0.323 C  
HETATM   25  H   UNL     1     -11.755  16.722  69.945  1.00  0.00     0.000 HD 
HETATM   26  O   UNL     1     -12.229  13.321  69.025  1.00  0.00    -0.277 OA 
ENDBRANCH  16  17
ENDBRANCH  15  16
ENDBRANCH  10  15
ENDBRANCH   8   9
ENDBRANCH   2   4
TORSDOF 5
ENDMDL
MODEL      251
REMARK 921   NORMALIZED FREE ENERGY PREDICTED BY IDOCK:   -4.09 KCAL/MOL
REMARK 922        TOTAL FREE ENERGY PREDICTED BY IDOCK:   -6.50 KCAL/MOL
REMARK 923 INTER-LIGAND FREE ENERGY PREDICTED BY IDOCK:   -5.80 KCAL/MOL
REMARK 924 INTRA-LIGAND FREE ENERGY PREDICTED BY IDOCK:   -0.70 KCAL/MOL
REMARK 927      BINDING AFFINITY PREDICTED BY RF-SCORE:    0.00 PKD
ROOT
HETATM    1  C   UNL     1     -10.335  10.190  66.461  1.00  0.00    -0.270 C  
HETATM    2  C   UNL     1      -9.408  11.403  66.587  1.00  0.00    -0.185 C  
HETATM    3  C   UNL     1      -8.129  11.183  65.768  1.00  0.00     0.029 C  
ENDROOT
BRANCH   2   4
HETATM    4  N   UNL     1     -10.060  12.646  66.168  1.00  0.00    -0.252 NA 
HETATM    5  N   UNL     1     -11.186  12.542  65.416  1.00  0.00    -0.297 NA 
HETATM    6  C   UNL     1     -11.353  13.762  64.920  1.00  0.00    -0.347 A  
HETATM    7  C   UNL     1     -10.386  14.663  65.390  1.00  0.00    -0.406 A  
HETATM    8  C   UNL     1      -9.601  13.951  66.286  1.00  0.00    -0.256 A  
BRANCH   8   9
HETATM    9  C   UNL     1      -8.605  14.409  67.261  1.00  0.00    -0.215 A  
HETATM   10  C   UNL     1      -8.848  15.177  68.406  1.00  0.00    -0.174 A  
HETATM   11  C   UNL     1      -6.375  14.105  67.868  1.00  0.00    -0.164 A  
HETATM   12  C   UNL     1      -7.759  15.408  69.273  1.00  0.00    -0.221 A  
HETATM   13  N   UNL     1      -7.381  13.873  66.999  1.00  0.00     0.113 NA 
HETATM   14  C   UNL     1      -6.513  14.859  69.012  1.00  0.00    -0.102 A  
BRANCH  10  15
HETATM   15  C   UNL     1     -10.158  15.816  68.783  1.00  0.00    -0.215 C  
BRANCH  15  16
HETATM   16  O   UNL     1     -10.443  15.499  70.138  1.00  0.00    -0.302 OA 
BRANCH  16  17
HETATM   17  C   UNL     1     -11.322  14.496  70.434  1.00  0.00    -0.144 A  
HETATM   18  C   UNL     1     -11.287  13.223  69.847  1.00  0.00    -0.067 A  
HETATM   19  C   UNL     1     -12.164  12.216  70.263  1.00  0.00    -0.344 A  
HETATM   20  C   UNL     1     -13.108  12.470  71.252  1.00  0.00    -0.223 A  
HETATM   21  C   UNL     1     -13.177  13.739  71.824  1.00  0.00    -0.386 A  
HETATM   22  O   UNL     1     -14.131  13.988  72.774  1.00  0.00    -0.636 OA 
HETATM   23  C   UNL     1     -12.286  14.753  71.431  1.00  0.00    -0.398 A  
HETATM   24  C   UNL     1     -12.398  16.077  72.106  1.00  0.00    -0.482 C  
HETATM   25  H   UNL     1     -14.178  14.853  73.165  1.00  0.00     0.000 HD 
HETATM   26  O   UNL     1     -11.776  17.083  71.791  1.00  0.00     0.148 OA 
ENDBRANCH  16  17
ENDBRANCH  15  16
ENDBRANCH  10  15
ENDBRANCH   8   9
ENDBRANCH   2   4
TORSDOF 5
ENDMDL
MODEL      252
REMARK 921   NORMALIZED FREE ENERGY PREDICTED BY IDOCK:   -4.09 KCAL/MOL
REMARK 922        TOTAL FREE ENERGY PREDICTED BY IDOCK:   -6.49 KCAL/MOL
REMARK 923 INTER-LIGAND FREE ENERGY PREDICTED BY IDOCK:   -5.51 KCAL/MOL
REMARK 924 INTRA-LIGAND FREE ENERGY PREDICTED BY IDOCK:   -0.98 KCAL/MOL
REMARK 927      BINDING AFFINITY PREDICTED BY RF-SCORE:    0.00 PKD
ROOT
HETATM    1  C   UNL     1      -8.320   9.562  68.817  1.00  0.00    -0.117 C  
HETATM    2  C   UNL     1      -8.379  10.972  68.221  1.00  0.00    -0.133 C  
HETATM    3  C   UNL     1      -7.032  11.337  67.582  1.00  0.00    -0.085 C  
ENDROOT
BRANCH   2   4
HETATM    4  N   UNL     1      -9.452  11.114  67.235  1.00  0.00    -0.164 NA 
HETATM    5  N   UNL     1      -9.156  10.832  65.940  1.00  0.00    -0.181 NA 
HETATM    6  C   UNL     1     -10.170  11.353  65.259  1.00  0.00    -0.270 A  
HETATM    7  C   UNL     1     -11.142  11.913  66.101  1.00  0.00    -0.374 A  
HETATM    8  C   UNL     1     -10.717  11.664  67.398  1.00  0.00    -0.234 A  
BRANCH   8   9
HETATM    9  C   UNL     1     -11.422  11.789  68.679  1.00  0.00    -0.288 A  
HETATM   10  C   UNL     1     -11.709  10.756  69.579  1.00  0.00    -0.384 A  
HETATM   11  C   UNL     1     -12.203  13.392  70.180  1.00  0.00    -0.315 A  
HETATM   12  C   UNL     1     -12.295  11.116  70.811  1.00  0.00    -0.504 A  
HETATM   13  N   UNL     1     -11.660  13.095  68.980  1.00  0.00    -0.292 NA 
HETATM   14  C   UNL     1     -12.534  12.446  71.123  1.00  0.00    -0.323 A  
BRANCH  10  15
HETATM   15  C   UNL     1     -11.489   9.286  69.340  1.00  0.00     0.280 C  
BRANCH  15  16
HETATM   16  O   UNL     1     -11.578   8.608  70.586  1.00  0.00    -0.271 OA 
BRANCH  16  17
HETATM   17  C   UNL     1     -11.085   7.339  70.708  1.00  0.00    -0.266 A  
HETATM   18  C   UNL     1     -10.572   6.591  69.641  1.00  0.00    -0.291 A  
HETATM   19  C   UNL     1     -10.001   5.332  69.855  1.00  0.00    -0.309 A  
HETATM   20  C   UNL     1      -9.957   4.788  71.135  1.00  0.00    -0.273 A  
HETATM   21  C   UNL     1     -10.490   5.507  72.204  1.00  0.00    -0.220 A  
HETATM   22  O   UNL     1     -10.471   4.950  73.454  1.00  0.00    -0.177 OA 
HETATM   23  C   UNL     1     -11.046   6.783  72.004  1.00  0.00    -0.283 A  
HETATM   24  C   UNL     1     -11.572   7.506  73.197  1.00  0.00     0.041 C  
HETATM   25  H   UNL     1     -10.834   5.439  74.182  1.00  0.00     0.000 HD 
HETATM   26  O   UNL     1     -12.186   8.565  73.164  1.00  0.00    -0.081 OA 
ENDBRANCH  16  17
ENDBRANCH  15  16
ENDBRANCH  10  15
ENDBRANCH   8   9
ENDBRANCH   2   4
TORSDOF 5
ENDMDL
MODEL      253
REMARK 921   NORMALIZED FREE ENERGY PREDICTED BY IDOCK:   -4.04 KCAL/MOL
REMARK 922        TOTAL FREE ENERGY PREDICTED BY IDOCK:   -6.44 KCAL/MOL
REMARK 923 INTER-LIGAND FREE ENERGY PREDICTED BY IDOCK:   -5.16 KCAL/MOL
REMARK 924 INTRA-LIGAND FREE ENERGY PREDICTED BY IDOCK:   -1.28 KCAL/MOL
REMARK 927      BINDING AFFINITY PREDICTED BY RF-SCORE:    0.00 PKD
ROOT
HETATM    1  C   UNL     1      -8.245   3.098  64.514  1.00  0.00    -0.090 C  
HETATM    2  C   UNL     1      -8.926   4.064  65.488  1.00  0.00    -0.131 C  
HETATM    3  C   UNL     1     -10.403   4.245  65.114  1.00  0.00    -0.215 C  
ENDROOT
BRANCH   2   4
HETATM    4  N   UNL     1      -8.816   3.618  66.879  1.00  0.00    -0.121 NA 
HETATM    5  N   UNL     1      -9.126   2.324  67.150  1.00  0.00    -0.139 NA 
HETATM    6  C   UNL     1      -9.262   2.297  68.470  1.00  0.00    -0.179 A  
HETATM    7  C   UNL     1      -8.986   3.541  69.057  1.00  0.00    -0.182 A  
HETATM    8  C   UNL     1      -8.596   4.377  68.021  1.00  0.00    -0.102 A  
BRANCH   8   9
HETATM    9  C   UNL     1      -7.962   5.700  68.044  1.00  0.00    -0.097 A  
HETATM   10  C   UNL     1      -8.609   6.933  68.192  1.00  0.00    -0.123 A  
HETATM   11  C   UNL     1      -5.869   6.717  68.172  1.00  0.00    -0.020 A  
HETATM   12  C   UNL     1      -7.796   8.081  68.304  1.00  0.00    -0.123 A  
HETATM   13  N   UNL     1      -6.605   5.594  68.041  1.00  0.00    -0.051 NA 
HETATM   14  C   UNL     1      -6.413   7.975  68.307  1.00  0.00    -0.055 A  
BRANCH  10  15
HETATM   15  C   UNL     1     -10.097   7.158  68.202  1.00  0.00    -0.169 C  
BRANCH  15  16
HETATM   16  O   UNL     1     -10.561   7.056  69.541  1.00  0.00    -0.219 OA 
BRANCH  16  17
HETATM   17  C   UNL     1     -11.201   8.114  70.124  1.00  0.00    -0.134 A  
HETATM   18  C   UNL     1     -11.148   9.427  69.637  1.00  0.00    -0.163 A  
HETATM   19  C   UNL     1     -11.901  10.445  70.233  1.00  0.00    -0.399 A  
HETATM   20  C   UNL     1     -12.697  10.173  71.341  1.00  0.00    -0.530 A  
HETATM   21  C   UNL     1     -12.738   8.879  71.856  1.00  0.00    -0.376 A  
HETATM   22  O   UNL     1     -13.500   8.629  72.965  1.00  0.00    -0.812 OA 
HETATM   23  C   UNL     1     -12.004   7.843  71.252  1.00  0.00    -0.321 A  
HETATM   24  C   UNL     1     -12.117   6.478  71.838  1.00  0.00    -0.339 C  
HETATM   25  H   UNL     1     -13.528   7.747  73.316  1.00  0.00     0.000 HD 
HETATM   26  O   UNL     1     -11.452   5.507  71.497  1.00  0.00    -0.069 OA 
ENDBRANCH  16  17
ENDBRANCH  15  16
ENDBRANCH  10  15
ENDBRANCH   8   9
ENDBRANCH   2   4
TORSDOF 5
ENDMDL
MODEL      254
REMARK 921   NORMALIZED FREE ENERGY PREDICTED BY IDOCK:   -4.03 KCAL/MOL
REMARK 922        TOTAL FREE ENERGY PREDICTED BY IDOCK:   -6.42 KCAL/MOL
REMARK 923 INTER-LIGAND FREE ENERGY PREDICTED BY IDOCK:   -5.27 KCAL/MOL
REMARK 924 INTRA-LIGAND FREE ENERGY PREDICTED BY IDOCK:   -1.15 KCAL/MOL
REMARK 927      BINDING AFFINITY PREDICTED BY RF-SCORE:    0.00 PKD
ROOT
HETATM    1  C   UNL     1      -9.224  13.876  67.309  1.00  0.00    -0.235 C  
HETATM    2  C   UNL     1      -9.622  12.398  67.256  1.00  0.00    -0.199 C  
HETATM    3  C   UNL     1     -10.782  12.124  68.222  1.00  0.00    -0.248 C  
ENDROOT
BRANCH   2   4
HETATM    4  N   UNL     1      -9.987  11.969  65.905  1.00  0.00    -0.231 NA 
HETATM    5  N   UNL     1     -10.753  12.812  65.164  1.00  0.00    -0.287 NA 
HETATM    6  C   UNL     1     -11.192  12.053  64.168  1.00  0.00    -0.373 A  
HETATM    7  C   UNL     1     -10.673  10.751  64.224  1.00  0.00    -0.096 A  
HETATM    8  C   UNL     1      -9.805  10.730  65.305  1.00  0.00    -0.272 A  
BRANCH   8   9
HETATM    9  C   UNL     1      -8.801   9.739  65.710  1.00  0.00    -0.153 A  
HETATM   10  C   UNL     1      -8.965   8.725  66.661  1.00  0.00    -0.168 A  
HETATM   11  C   UNL     1      -6.711   8.909  65.100  1.00  0.00    -0.072 A  
HETATM   12  C   UNL     1      -7.907   7.804  66.814  1.00  0.00    -0.106 A  
HETATM   13  N   UNL     1      -7.687   9.825  64.932  1.00  0.00    -0.121 NA 
HETATM   14  C   UNL     1      -6.773   7.885  66.020  1.00  0.00    -0.053 A  
BRANCH  10  15
HETATM   15  C   UNL     1     -10.151   8.547  67.571  1.00  0.00    -0.221 C  
BRANCH  15  16
HETATM   16  O   UNL     1      -9.678   8.354  68.897  1.00  0.00    -0.162 OA 
BRANCH  16  17
HETATM   17  C   UNL     1      -9.993   7.209  69.575  1.00  0.00    -0.164 A  
HETATM   18  C   UNL     1      -9.629   5.923  69.153  1.00  0.00    -0.166 A  
HETATM   19  C   UNL     1      -9.909   4.803  69.943  1.00  0.00    -0.291 A  
HETATM   20  C   UNL     1     -10.580   4.945  71.153  1.00  0.00    -0.096 A  
HETATM   21  C   UNL     1     -10.975   6.214  71.572  1.00  0.00    -0.273 A  
HETATM   22  O   UNL     1     -11.663   6.340  72.749  1.00  0.00    -0.476 OA 
HETATM   23  C   UNL     1     -10.680   7.351  70.799  1.00  0.00    -0.245 A  
HETATM   24  C   UNL     1     -11.108   8.678  71.322  1.00  0.00    -0.272 C  
HETATM   25  H   UNL     1     -11.933   7.204  73.036  1.00  0.00     0.000 HD 
HETATM   26  O   UNL     1     -11.027   9.736  70.711  1.00  0.00    -0.291 OA 
ENDBRANCH  16  17
ENDBRANCH  15  16
ENDBRANCH  10  15
ENDBRANCH   8   9
ENDBRANCH   2   4
TORSDOF 5
ENDMDL
MODEL      255
REMARK 921   NORMALIZED FREE ENERGY PREDICTED BY IDOCK:   -4.01 KCAL/MOL
REMARK 922        TOTAL FREE ENERGY PREDICTED BY IDOCK:   -6.39 KCAL/MOL
REMARK 923 INTER-LIGAND FREE ENERGY PREDICTED BY IDOCK:   -4.59 KCAL/MOL
REMARK 924 INTRA-LIGAND FREE ENERGY PREDICTED BY IDOCK:   -1.80 KCAL/MOL
REMARK 927      BINDING AFFINITY PREDICTED BY RF-SCORE:    0.00 PKD
ROOT
HETATM    1  C   UNL     1      -8.816   3.473  68.586  1.00  0.00    -0.159 C  
HETATM    2  C   UNL     1      -8.203   4.274  69.737  1.00  0.00    -0.062 C  
HETATM    3  C   UNL     1      -7.003   3.524  70.329  1.00  0.00    -0.034 C  
ENDROOT
BRANCH   2   4
HETATM    4  N   UNL     1      -7.794   5.618  69.322  1.00  0.00    -0.088 NA 
HETATM    5  N   UNL     1      -6.699   5.723  68.527  1.00  0.00    -0.055 NA 
HETATM    6  C   UNL     1      -6.379   7.010  68.591  1.00  0.00    -0.035 A  
HETATM    7  C   UNL     1      -7.288   7.744  69.367  1.00  0.00    -0.086 A  
HETATM    8  C   UNL     1      -8.269   6.847  69.761  1.00  0.00    -0.131 A  
BRANCH   8   9
HETATM    9  C   UNL     1      -9.585   7.072  70.372  1.00  0.00    -0.169 A  
HETATM   10  C   UNL     1     -10.831   6.857  69.773  1.00  0.00    -0.295 A  
HETATM   11  C   UNL     1     -10.586   7.529  72.426  1.00  0.00    -0.251 A  
HETATM   12  C   UNL     1     -11.975   7.027  70.581  1.00  0.00    -0.361 A  
HETATM   13  N   UNL     1      -9.464   7.398  71.688  1.00  0.00    -0.150 NA 
HETATM   14  C   UNL     1     -11.856   7.353  71.923  1.00  0.00    -0.332 A  
BRANCH  10  15
HETATM   15  C   UNL     1     -11.071   6.501  68.330  1.00  0.00    -0.243 C  
BRANCH  15  16
HETATM   16  O   UNL     1     -11.044   7.695  67.559  1.00  0.00    -0.087 OA 
BRANCH  16  17
HETATM   17  C   UNL     1      -9.996   7.940  66.717  1.00  0.00    -0.263 A  
HETATM   18  C   UNL     1      -9.164   6.944  66.190  1.00  0.00    -0.118 A  
HETATM   19  C   UNL     1      -8.165   7.259  65.263  1.00  0.00    -0.126 A  
HETATM   20  C   UNL     1      -7.962   8.577  64.868  1.00  0.00    -0.137 A  
HETATM   21  C   UNL     1      -8.761   9.584  65.406  1.00  0.00    -0.164 A  
HETATM   22  O   UNL     1      -8.533  10.882  65.036  1.00  0.00    -0.326 OA 
HETATM   23  C   UNL     1      -9.784   9.278  66.321  1.00  0.00    -0.340 A  
HETATM   24  C   UNL     1     -10.618  10.401  66.834  1.00  0.00    -0.230 C  
HETATM   25  H   UNL     1      -9.077  11.569  65.402  1.00  0.00     0.000 HD 
HETATM   26  O   UNL     1     -11.461  10.307  67.717  1.00  0.00    -0.351 OA 
ENDBRANCH  16  17
ENDBRANCH  15  16
ENDBRANCH  10  15
ENDBRANCH   8   9
ENDBRANCH   2   4
TORSDOF 5
ENDMDL
MODEL      256
REMARK 921   NORMALIZED FREE ENERGY PREDICTED BY IDOCK:   -3.99 KCAL/MOL
REMARK 922        TOTAL FREE ENERGY PREDICTED BY IDOCK:   -6.37 KCAL/MOL
REMARK 923 INTER-LIGAND FREE ENERGY PREDICTED BY IDOCK:   -5.62 KCAL/MOL
REMARK 924 INTRA-LIGAND FREE ENERGY PREDICTED BY IDOCK:   -0.76 KCAL/MOL
REMARK 927      BINDING AFFINITY PREDICTED BY RF-SCORE:    0.00 PKD
ROOT
HETATM    1  C   UNL     1     -10.805  16.907  68.147  1.00  0.00    -0.351 C  
HETATM    2  C   UNL     1     -10.022  16.188  69.249  1.00  0.00    -0.253 C  
HETATM    3  C   UNL     1     -10.941  15.228  70.016  1.00  0.00    -0.306 C  
ENDROOT
BRANCH   2   4
HETATM    4  N   UNL     1      -8.867  15.458  68.724  1.00  0.00    -0.182 NA 
HETATM    5  N   UNL     1      -7.655  15.717  69.279  1.00  0.00    -0.213 NA 
HETATM    6  C   UNL     1      -6.790  15.194  68.418  1.00  0.00    -0.109 A  
HETATM    7  C   UNL     1      -7.430  14.550  67.349  1.00  0.00    -0.194 A  
HETATM    8  C   UNL     1      -8.790  14.637  67.606  1.00  0.00    -0.182 A  
BRANCH   8   9
HETATM    9  C   UNL     1      -9.929  13.951  66.986  1.00  0.00    -0.258 A  
HETATM   10  C   UNL     1     -10.554  12.786  67.446  1.00  0.00    -0.241 A  
HETATM   11  C   UNL     1     -11.547  14.234  65.332  1.00  0.00    -0.346 A  
HETATM   12  C   UNL     1     -11.711  12.358  66.761  1.00  0.00    -0.430 A  
HETATM   13  N   UNL     1     -10.426  14.671  65.943  1.00  0.00    -0.299 NA 
HETATM   14  C   UNL     1     -12.223  13.093  65.702  1.00  0.00    -0.521 A  
BRANCH  10  15
HETATM   15  C   UNL     1     -10.083  11.918  68.583  1.00  0.00    -0.177 C  
BRANCH  15  16
HETATM   16  O   UNL     1      -9.219  10.918  68.060  1.00  0.00    -0.148 OA 
BRANCH  16  17
HETATM   17  C   UNL     1      -8.676   9.981  68.894  1.00  0.00    -0.146 A  
HETATM   18  C   UNL     1      -7.667  10.254  69.828  1.00  0.00    -0.159 A  
HETATM   19  C   UNL     1      -7.221   9.265  70.711  1.00  0.00    -0.126 A  
HETATM   20  C   UNL     1      -7.754   7.982  70.659  1.00  0.00    -0.089 A  
HETATM   21  C   UNL     1      -8.738   7.686  69.716  1.00  0.00    -0.140 A  
HETATM   22  O   UNL     1      -9.234   6.412  69.651  1.00  0.00    -0.142 OA 
HETATM   23  C   UNL     1      -9.211   8.677  68.837  1.00  0.00    -0.145 A  
HETATM   24  C   UNL     1     -10.283   8.298  67.875  1.00  0.00    -0.220 C  
HETATM   25  H   UNL     1      -9.904   6.210  69.009  1.00  0.00     0.000 HD 
HETATM   26  O   UNL     1     -10.709   9.013  66.977  1.00  0.00    -0.242 OA 
ENDBRANCH  16  17
ENDBRANCH  15  16
ENDBRANCH  10  15
ENDBRANCH   8   9
ENDBRANCH   2   4
TORSDOF 5
ENDMDL
MODEL      257
REMARK 921   NORMALIZED FREE ENERGY PREDICTED BY IDOCK:   -3.98 KCAL/MOL
REMARK 922        TOTAL FREE ENERGY PREDICTED BY IDOCK:   -6.36 KCAL/MOL
REMARK 923 INTER-LIGAND FREE ENERGY PREDICTED BY IDOCK:   -6.91 KCAL/MOL
REMARK 924 INTRA-LIGAND FREE ENERGY PREDICTED BY IDOCK:    0.56 KCAL/MOL
REMARK 927      BINDING AFFINITY PREDICTED BY RF-SCORE:    0.00 PKD
ROOT
HETATM    1  C   UNL     1     -13.515  12.536  71.633  1.00  0.00    -0.155 C  
HETATM    2  C   UNL     1     -13.496  13.919  70.975  1.00  0.00    -0.069 C  
HETATM    3  C   UNL     1     -14.406  14.886  71.743  1.00  0.00    -0.668 C  
ENDROOT
BRANCH   2   4
HETATM    4  N   UNL     1     -12.143  14.473  70.888  1.00  0.00    -0.317 NA 
HETATM    5  N   UNL     1     -11.674  15.157  71.963  1.00  0.00    -0.413 NA 
HETATM    6  C   UNL     1     -10.615  15.804  71.493  1.00  0.00     0.762 A  
HETATM    7  C   UNL     1     -10.361  15.500  70.147  1.00  0.00    -0.279 A  
HETATM    8  C   UNL     1     -11.304  14.550  69.784  1.00  0.00    -0.260 A  
BRANCH   8   9
HETATM    9  C   UNL     1     -11.389  13.687  68.600  1.00  0.00    -0.286 A  
HETATM   10  C   UNL     1     -11.306  14.093  67.263  1.00  0.00    -0.349 A  
HETATM   11  C   UNL     1     -11.387  11.441  67.978  1.00  0.00    -0.303 A  
HETATM   12  C   UNL     1     -11.295  13.082  66.279  1.00  0.00    -0.354 A  
HETATM   13  N   UNL     1     -11.421  12.373  68.954  1.00  0.00    -0.284 NA 
HETATM   14  C   UNL     1     -11.322  11.742  66.636  1.00  0.00    -0.381 A  
BRANCH  10  15
HETATM   15  C   UNL     1     -11.271  15.515  66.769  1.00  0.00    -0.139 C  
BRANCH  15  16
HETATM   16  O   UNL     1     -10.424  16.269  67.624  1.00  0.00    -0.282 OA 
BRANCH  16  17
HETATM   17  C   UNL     1     -10.003  17.513  67.244  1.00  0.00    -0.312 A  
HETATM   18  C   UNL     1     -10.763  18.680  67.401  1.00  0.00    -0.456 A  
HETATM   19  C   UNL     1     -10.233  19.932  67.071  1.00  0.00    -0.588 A  
HETATM   20  C   UNL     1      -8.946  20.036  66.554  1.00  0.00    -0.431 A  
HETATM   21  C   UNL     1      -8.188  18.882  66.363  1.00  0.00    -0.294 A  
HETATM   22  O   UNL     1      -6.935  18.993  65.823  1.00  0.00    -0.260 OA 
HETATM   23  C   UNL     1      -8.701  17.621  66.712  1.00  0.00    -0.277 A  
HETATM   24  C   UNL     1      -7.824  16.433  66.507  1.00  0.00    -0.288 C  
HETATM   25  H   UNL     1      -6.418  18.207  65.693  1.00  0.00     0.000 HD 
HETATM   26  O   UNL     1      -8.171  15.268  66.653  1.00  0.00    -0.226 OA 
ENDBRANCH  16  17
ENDBRANCH  15  16
ENDBRANCH  10  15
ENDBRANCH   8   9
ENDBRANCH   2   4
TORSDOF 5
ENDMDL
MODEL      258
REMARK 921   NORMALIZED FREE ENERGY PREDICTED BY IDOCK:   -3.97 KCAL/MOL
REMARK 922        TOTAL FREE ENERGY PREDICTED BY IDOCK:   -6.35 KCAL/MOL
REMARK 923 INTER-LIGAND FREE ENERGY PREDICTED BY IDOCK:   -6.68 KCAL/MOL
REMARK 924 INTRA-LIGAND FREE ENERGY PREDICTED BY IDOCK:    0.33 KCAL/MOL
REMARK 927      BINDING AFFINITY PREDICTED BY RF-SCORE:    0.00 PKD
ROOT
HETATM    1  C   UNL     1     -11.438   6.221  72.228  1.00  0.00    -0.351 C  
HETATM    2  C   UNL     1     -10.907   7.061  71.063  1.00  0.00    -0.238 C  
HETATM    3  C   UNL     1     -11.451   6.527  69.731  1.00  0.00    -0.443 C  
ENDROOT
BRANCH   2   4
HETATM    4  N   UNL     1     -11.241   8.480  71.203  1.00  0.00    -0.257 NA 
HETATM    5  N   UNL     1     -12.370   8.794  71.889  1.00  0.00    -0.337 NA 
HETATM    6  C   UNL     1     -12.591  10.065  71.575  1.00  0.00    -0.425 A  
HETATM    7  C   UNL     1     -11.587  10.589  70.747  1.00  0.00    -0.432 A  
HETATM    8  C   UNL     1     -10.653   9.577  70.589  1.00  0.00    -0.308 A  
BRANCH   8   9
HETATM    9  C   UNL     1      -9.291   9.607  70.042  1.00  0.00    -0.241 A  
HETATM   10  C   UNL     1      -8.909  10.064  68.776  1.00  0.00    -0.137 A  
HETATM   11  C   UNL     1      -7.065   9.336  70.679  1.00  0.00    -0.111 A  
HETATM   12  C   UNL     1      -7.527  10.113  68.495  1.00  0.00    -0.086 A  
HETATM   13  N   UNL     1      -8.377   9.253  70.987  1.00  0.00    -0.306 NA 
HETATM   14  C   UNL     1      -6.593   9.759  69.457  1.00  0.00    -0.051 A  
BRANCH  10  15
HETATM   15  C   UNL     1      -9.837  10.473  67.664  1.00  0.00    -0.166 C  
BRANCH  15  16
HETATM   16  O   UNL     1      -9.286  11.607  67.008  1.00  0.00    -0.175 OA 
BRANCH  16  17
HETATM   17  C   UNL     1      -9.344  12.835  67.605  1.00  0.00    -0.191 A  
HETATM   18  C   UNL     1      -8.224  13.526  68.087  1.00  0.00    -0.162 A  
HETATM   19  C   UNL     1      -8.346  14.818  68.607  1.00  0.00    -0.165 A  
HETATM   20  C   UNL     1      -9.592  15.432  68.678  1.00  0.00    -0.204 A  
HETATM   21  C   UNL     1     -10.721  14.747  68.230  1.00  0.00    -0.242 A  
HETATM   22  O   UNL     1     -11.947  15.348  68.335  1.00  0.00    -0.511 OA 
HETATM   23  C   UNL     1     -10.608  13.456  67.686  1.00  0.00    -0.249 A  
HETATM   24  C   UNL     1     -11.852  12.795  67.201  1.00  0.00    -0.350 C  
HETATM   25  H   UNL     1     -12.716  14.882  68.030  1.00  0.00     0.000 HD 
HETATM   26  O   UNL     1     -11.928  11.636  66.813  1.00  0.00    -0.536 OA 
ENDBRANCH  16  17
ENDBRANCH  15  16
ENDBRANCH  10  15
ENDBRANCH   8   9
ENDBRANCH   2   4
TORSDOF 5
ENDMDL
MODEL      259
REMARK 921   NORMALIZED FREE ENERGY PREDICTED BY IDOCK:   -3.96 KCAL/MOL
REMARK 922        TOTAL FREE ENERGY PREDICTED BY IDOCK:   -6.33 KCAL/MOL
REMARK 923 INTER-LIGAND FREE ENERGY PREDICTED BY IDOCK:   -5.64 KCAL/MOL
REMARK 924 INTRA-LIGAND FREE ENERGY PREDICTED BY IDOCK:   -0.69 KCAL/MOL
REMARK 927      BINDING AFFINITY PREDICTED BY RF-SCORE:    0.00 PKD
ROOT
HETATM    1  C   UNL     1      -9.491  14.120  67.573  1.00  0.00    -0.210 C  
HETATM    2  C   UNL     1     -10.045  12.843  68.211  1.00  0.00    -0.242 C  
HETATM    3  C   UNL     1     -11.480  13.073  68.704  1.00  0.00    -0.344 C  
ENDROOT
BRANCH   2   4
HETATM    4  N   UNL     1     -10.013  11.704  67.292  1.00  0.00    -0.190 NA 
HETATM    5  N   UNL     1     -10.598  11.860  66.077  1.00  0.00    -0.256 NA 
HETATM    6  C   UNL     1     -10.712  10.621  65.615  1.00  0.00    -0.034 A  
HETATM    7  C   UNL     1     -10.154   9.675  66.488  1.00  0.00    -0.314 A  
HETATM    8  C   UNL     1      -9.607  10.398  67.538  1.00  0.00    -0.156 A  
BRANCH   8   9
HETATM    9  C   UNL     1      -8.694   9.988  68.611  1.00  0.00    -0.127 A  
HETATM   10  C   UNL     1      -9.043   9.666  69.927  1.00  0.00    -0.250 A  
HETATM   11  C   UNL     1      -6.488   9.330  68.974  1.00  0.00    -0.047 A  
HETATM   12  C   UNL     1      -8.019   9.183  70.769  1.00  0.00    -0.192 A  
HETATM   13  N   UNL     1      -7.429   9.815  68.137  1.00  0.00    -0.081 NA 
HETATM   14  C   UNL     1      -6.731   8.999  70.288  1.00  0.00    -0.047 A  
BRANCH  10  15
HETATM   15  C   UNL     1     -10.405   9.826  70.547  1.00  0.00    -0.283 C  
BRANCH  15  16
HETATM   16  O   UNL     1     -11.258   8.812  70.033  1.00  0.00    -0.215 OA 
BRANCH  16  17
HETATM   17  C   UNL     1     -11.026   7.502  70.345  1.00  0.00    -0.251 A  
HETATM   18  C   UNL     1     -10.361   6.601  69.503  1.00  0.00    -0.232 A  
HETATM   19  C   UNL     1     -10.079   5.297  69.925  1.00  0.00    -0.333 A  
HETATM   20  C   UNL     1     -10.481   4.864  71.184  1.00  0.00    -0.161 A  
HETATM   21  C   UNL     1     -11.170   5.739  72.023  1.00  0.00    -0.247 A  
HETATM   22  O   UNL     1     -11.589   5.292  73.247  1.00  0.00    -0.502 OA 
HETATM   23  C   UNL     1     -11.439   7.058  71.619  1.00  0.00    -0.299 A  
HETATM   24  C   UNL     1     -12.155   7.946  72.578  1.00  0.00    -0.246 C  
HETATM   25  H   UNL     1     -12.059   5.888  73.819  1.00  0.00     0.000 HD 
HETATM   26  O   UNL     1     -12.559   9.074  72.325  1.00  0.00    -0.380 OA 
ENDBRANCH  16  17
ENDBRANCH  15  16
ENDBRANCH  10  15
ENDBRANCH   8   9
ENDBRANCH   2   4
TORSDOF 5
ENDMDL
MODEL      260
REMARK 921   NORMALIZED FREE ENERGY PREDICTED BY IDOCK:   -3.94 KCAL/MOL
REMARK 922        TOTAL FREE ENERGY PREDICTED BY IDOCK:   -6.30 KCAL/MOL
REMARK 923 INTER-LIGAND FREE ENERGY PREDICTED BY IDOCK:   -6.36 KCAL/MOL
REMARK 924 INTRA-LIGAND FREE ENERGY PREDICTED BY IDOCK:    0.06 KCAL/MOL
REMARK 927      BINDING AFFINITY PREDICTED BY RF-SCORE:    0.00 PKD
ROOT
HETATM    1  C   UNL     1     -10.602  16.143  67.049  1.00  0.00    -0.292 C  
HETATM    2  C   UNL     1     -10.755  14.920  67.957  1.00  0.00    -0.253 C  
HETATM    3  C   UNL     1     -12.078  14.200  67.665  1.00  0.00    -0.337 C  
ENDROOT
BRANCH   2   4
HETATM    4  N   UNL     1      -9.638  13.982  67.819  1.00  0.00    -0.211 NA 
HETATM    5  N   UNL     1      -8.750  13.908  68.843  1.00  0.00     0.021 NA 
HETATM    6  C   UNL     1      -7.712  13.265  68.321  1.00  0.00    -0.141 A  
HETATM    7  C   UNL     1      -7.944  12.873  66.995  1.00  0.00    -0.031 A  
HETATM    8  C   UNL     1      -9.245  13.255  66.703  1.00  0.00    -0.215 A  
BRANCH   8   9
HETATM    9  C   UNL     1     -10.118  12.904  65.577  1.00  0.00    -0.257 A  
HETATM   10  C   UNL     1     -10.538  11.619  65.215  1.00  0.00    -0.333 A  
HETATM   11  C   UNL     1     -11.519  13.872  63.985  1.00  0.00    -0.158 A  
HETATM   12  C   UNL     1     -11.474  11.516  64.164  1.00  0.00    -0.299 A  
HETATM   13  N   UNL     1     -10.609  14.020  64.971  1.00  0.00    -0.386 NA 
HETATM   14  C   UNL     1     -11.981  12.651  63.550  1.00  0.00    -0.630 A  
BRANCH  10  15
HETATM   15  C   UNL     1     -10.054  10.326  65.815  1.00  0.00    -0.255 C  
BRANCH  15  16
HETATM   16  O   UNL     1     -10.685  10.148  67.076  1.00  0.00    -0.244 OA 
BRANCH  16  17
HETATM   17  C   UNL     1     -10.687   8.918  67.671  1.00  0.00    -0.151 A  
HETATM   18  C   UNL     1     -10.642   7.707  66.968  1.00  0.00    -0.406 A  
HETATM   19  C   UNL     1     -10.556   6.486  67.646  1.00  0.00    -0.332 A  
HETATM   20  C   UNL     1     -10.543   6.453  69.036  1.00  0.00    -0.305 A  
HETATM   21  C   UNL     1     -10.618   7.647  69.751  1.00  0.00    -0.244 A  
HETATM   22  O   UNL     1     -10.636   7.601  71.119  1.00  0.00    -0.220 OA 
HETATM   23  C   UNL     1     -10.681   8.882  69.082  1.00  0.00    -0.162 A  
HETATM   24  C   UNL     1     -10.730  10.120  69.910  1.00  0.00    -0.295 C  
HETATM   25  H   UNL     1     -10.687   8.415  71.607  1.00  0.00     0.000 HD 
HETATM   26  O   UNL     1     -10.905  11.251  69.475  1.00  0.00    -0.226 OA 
ENDBRANCH  16  17
ENDBRANCH  15  16
ENDBRANCH  10  15
ENDBRANCH   8   9
ENDBRANCH   2   4
TORSDOF 5
ENDMDL
MODEL      261
REMARK 921   NORMALIZED FREE ENERGY PREDICTED BY IDOCK:   -3.93 KCAL/MOL
REMARK 922        TOTAL FREE ENERGY PREDICTED BY IDOCK:   -6.29 KCAL/MOL
REMARK 923 INTER-LIGAND FREE ENERGY PREDICTED BY IDOCK:   -5.35 KCAL/MOL
REMARK 924 INTRA-LIGAND FREE ENERGY PREDICTED BY IDOCK:   -0.94 KCAL/MOL
REMARK 927      BINDING AFFINITY PREDICTED BY RF-SCORE:    0.00 PKD
ROOT
HETATM    1  C   UNL     1      -7.060   6.834  68.730  1.00  0.00    -0.086 C  
HETATM    2  C   UNL     1      -6.809   5.593  69.592  1.00  0.00    -0.061 C  
HETATM    3  C   UNL     1      -7.013   5.925  71.076  1.00  0.00    -0.067 C  
ENDROOT
BRANCH   2   4
HETATM    4  N   UNL     1      -7.667   4.469  69.211  1.00  0.00    -0.055 NA 
HETATM    5  N   UNL     1      -7.092   3.440  68.538  1.00  0.00    -0.050 NA 
HETATM    6  C   UNL     1      -8.123   2.762  68.048  1.00  0.00    -0.061 A  
HETATM    7  C   UNL     1      -9.353   3.306  68.447  1.00  0.00    -0.241 A  
HETATM    8  C   UNL     1      -9.050   4.364  69.291  1.00  0.00    -0.117 A  
BRANCH   8   9
HETATM    9  C   UNL     1      -9.903   5.145  70.194  1.00  0.00    -0.230 A  
HETATM   10  C   UNL     1     -10.673   6.264  69.855  1.00  0.00    -0.355 A  
HETATM   11  C   UNL     1     -10.813   5.096  72.339  1.00  0.00    -0.203 A  
HETATM   12  C   UNL     1     -11.514   6.797  70.855  1.00  0.00    -0.384 A  
HETATM   13  N   UNL     1      -9.978   4.563  71.422  1.00  0.00    -0.192 NA 
HETATM   14  C   UNL     1     -11.598   6.202  72.105  1.00  0.00    -0.369 A  
BRANCH  10  15
HETATM   15  C   UNL     1     -10.659   6.983  68.533  1.00  0.00    -0.202 C  
BRANCH  15  16
HETATM   16  O   UNL     1     -10.296   8.338  68.759  1.00  0.00    -0.208 OA 
BRANCH  16  17
HETATM   17  C   UNL     1     -10.108   9.180  67.699  1.00  0.00    -0.220 A  
HETATM   18  C   UNL     1      -9.309   8.877  66.588  1.00  0.00    -0.237 A  
HETATM   19  C   UNL     1      -9.234   9.750  65.498  1.00  0.00    -0.270 A  
HETATM   20  C   UNL     1      -9.933  10.952  65.511  1.00  0.00    -0.315 A  
HETATM   21  C   UNL     1     -10.708  11.283  66.621  1.00  0.00    -0.272 A  
HETATM   22  O   UNL     1     -11.366  12.484  66.637  1.00  0.00    -0.296 OA 
HETATM   23  C   UNL     1     -10.810  10.404  67.713  1.00  0.00    -0.351 A  
HETATM   24  C   UNL     1     -11.678  10.810  68.853  1.00  0.00    -0.267 C  
HETATM   25  H   UNL     1     -11.894  12.710  67.393  1.00  0.00     0.000 HD 
HETATM   26  O   UNL     1     -11.773  10.208  69.916  1.00  0.00    -0.237 OA 
ENDBRANCH  16  17
ENDBRANCH  15  16
ENDBRANCH  10  15
ENDBRANCH   8   9
ENDBRANCH   2   4
TORSDOF 5
ENDMDL
MODEL      262
REMARK 921   NORMALIZED FREE ENERGY PREDICTED BY IDOCK:   -3.90 KCAL/MOL
REMARK 922        TOTAL FREE ENERGY PREDICTED BY IDOCK:   -6.25 KCAL/MOL
REMARK 923 INTER-LIGAND FREE ENERGY PREDICTED BY IDOCK:   -5.29 KCAL/MOL
REMARK 924 INTRA-LIGAND FREE ENERGY PREDICTED BY IDOCK:   -0.96 KCAL/MOL
REMARK 927      BINDING AFFINITY PREDICTED BY RF-SCORE:    0.00 PKD
ROOT
HETATM    1  C   UNL     1     -10.903   8.752  70.825  1.00  0.00    -0.282 C  
HETATM    2  C   UNL     1      -9.717   9.469  70.173  1.00  0.00    -0.246 C  
HETATM    3  C   UNL     1      -8.394   8.904  70.706  1.00  0.00    -0.205 C  
ENDROOT
BRANCH   2   4
HETATM    4  N   UNL     1      -9.745   9.372  68.712  1.00  0.00    -0.154 NA 
HETATM    5  N   UNL     1     -10.559   8.435  68.160  1.00  0.00    -0.165 NA 
HETATM    6  C   UNL     1     -10.141   8.349  66.903  1.00  0.00    -0.294 A  
HETATM    7  C   UNL     1      -9.112   9.259  66.622  1.00  0.00    -0.177 A  
HETATM    8  C   UNL     1      -8.925   9.997  67.782  1.00  0.00    -0.131 A  
BRANCH   8   9
HETATM    9  C   UNL     1      -8.172  11.234  68.020  1.00  0.00    -0.134 A  
HETATM   10  C   UNL     1      -8.696  12.530  68.096  1.00  0.00    -0.190 A  
HETATM   11  C   UNL     1      -6.062  11.988  68.662  1.00  0.00    -0.053 A  
HETATM   12  C   UNL     1      -7.808  13.567  68.450  1.00  0.00    -0.143 A  
HETATM   13  N   UNL     1      -6.868  10.966  68.308  1.00  0.00    -0.066 NA 
HETATM   14  C   UNL     1      -6.482  13.297  68.749  1.00  0.00    -0.099 A  
BRANCH  10  15
HETATM   15  C   UNL     1     -10.115  12.930  67.793  1.00  0.00    -0.229 C  
BRANCH  15  16
HETATM   16  O   UNL     1     -10.355  14.210  68.363  1.00  0.00    -0.236 OA 
BRANCH  16  17
HETATM   17  C   UNL     1     -10.408  15.315  67.562  1.00  0.00    -0.244 A  
HETATM   18  C   UNL     1     -10.299  15.277  66.165  1.00  0.00    -0.314 A  
HETATM   19  C   UNL     1     -10.451  16.439  65.401  1.00  0.00    -0.333 A  
HETATM   20  C   UNL     1     -10.687  17.662  66.020  1.00  0.00    -0.117 A  
HETATM   21  C   UNL     1     -10.768  17.722  67.410  1.00  0.00    -0.279 A  
HETATM   22  O   UNL     1     -10.968  18.936  68.011  1.00  0.00    -0.293 OA 
HETATM   23  C   UNL     1     -10.639  16.558  68.188  1.00  0.00    -0.329 A  
HETATM   24  C   UNL     1     -10.764  16.693  69.666  1.00  0.00    -0.286 C  
HETATM   25  H   UNL     1     -11.023  18.978  68.958  1.00  0.00     0.000 HD 
HETATM   26  O   UNL     1     -10.561  15.796  70.475  1.00  0.00    -0.294 OA 
ENDBRANCH  16  17
ENDBRANCH  15  16
ENDBRANCH  10  15
ENDBRANCH   8   9
ENDBRANCH   2   4
TORSDOF 5
ENDMDL
MODEL      263
REMARK 921   NORMALIZED FREE ENERGY PREDICTED BY IDOCK:   -3.89 KCAL/MOL
REMARK 922        TOTAL FREE ENERGY PREDICTED BY IDOCK:   -6.24 KCAL/MOL
REMARK 923 INTER-LIGAND FREE ENERGY PREDICTED BY IDOCK:   -5.48 KCAL/MOL
REMARK 924 INTRA-LIGAND FREE ENERGY PREDICTED BY IDOCK:   -0.76 KCAL/MOL
REMARK 927      BINDING AFFINITY PREDICTED BY RF-SCORE:    0.00 PKD
ROOT
HETATM    1  C   UNL     1     -11.792   6.746  70.213  1.00  0.00    -0.359 C  
HETATM    2  C   UNL     1     -10.553   6.092  70.831  1.00  0.00    -0.251 C  
HETATM    3  C   UNL     1      -9.854   5.194  69.801  1.00  0.00    -0.283 C  
ENDROOT
BRANCH   2   4
HETATM    4  N   UNL     1      -9.606   7.079  71.353  1.00  0.00    -0.163 NA 
HETATM    5  N   UNL     1      -9.595   7.291  72.694  1.00  0.00    -0.147 NA 
HETATM    6  C   UNL     1      -8.918   8.425  72.833  1.00  0.00    -0.196 A  
HETATM    7  C   UNL     1      -8.442   8.913  71.607  1.00  0.00    -0.137 A  
HETATM    8  C   UNL     1      -8.808   7.976  70.653  1.00  0.00    -0.143 A  
BRANCH   8   9
HETATM    9  C   UNL     1      -8.388   7.816  69.256  1.00  0.00    -0.136 A  
HETATM   10  C   UNL     1      -9.006   8.371  68.129  1.00  0.00    -0.139 A  
HETATM   11  C   UNL     1      -6.619   7.018  67.965  1.00  0.00    -0.056 A  
HETATM   12  C   UNL     1      -8.368   8.185  66.884  1.00  0.00    -0.115 A  
HETATM   13  N   UNL     1      -7.202   7.152  69.175  1.00  0.00    -0.083 NA 
HETATM   14  C   UNL     1      -7.156   7.515  66.799  1.00  0.00    -0.083 A  
BRANCH  10  15
HETATM   15  C   UNL     1     -10.314   9.114  68.112  1.00  0.00    -0.216 C  
BRANCH  15  16
HETATM   16  O   UNL     1     -10.182  10.281  68.913  1.00  0.00    -0.184 OA 
BRANCH  16  17
HETATM   17  C   UNL     1     -10.324  11.517  68.348  1.00  0.00    -0.202 A  
HETATM   18  C   UNL     1      -9.612  11.950  67.221  1.00  0.00    -0.181 A  
HETATM   19  C   UNL     1      -9.873  13.197  66.643  1.00  0.00    -0.261 A  
HETATM   20  C   UNL     1     -10.829  14.042  67.195  1.00  0.00    -0.288 A  
HETATM   21  C   UNL     1     -11.525  13.639  68.334  1.00  0.00    -0.311 A  
HETATM   22  O   UNL     1     -12.441  14.492  68.888  1.00  0.00    -0.573 OA 
HETATM   23  C   UNL     1     -11.288  12.379  68.911  1.00  0.00    -0.342 A  
HETATM   24  C   UNL     1     -12.088  12.003  70.110  1.00  0.00    -0.298 C  
HETATM   25  H   UNL     1     -12.915  14.217  69.664  1.00  0.00     0.000 HD 
HETATM   26  O   UNL     1     -11.913  10.997  70.787  1.00  0.00    -0.333 OA 
ENDBRANCH  16  17
ENDBRANCH  15  16
ENDBRANCH  10  15
ENDBRANCH   8   9
ENDBRANCH   2   4
TORSDOF 5
ENDMDL
MODEL      264
REMARK 921   NORMALIZED FREE ENERGY PREDICTED BY IDOCK:   -3.89 KCAL/MOL
REMARK 922        TOTAL FREE ENERGY PREDICTED BY IDOCK:   -6.24 KCAL/MOL
REMARK 923 INTER-LIGAND FREE ENERGY PREDICTED BY IDOCK:   -5.67 KCAL/MOL
REMARK 924 INTRA-LIGAND FREE ENERGY PREDICTED BY IDOCK:   -0.56 KCAL/MOL
REMARK 927      BINDING AFFINITY PREDICTED BY RF-SCORE:    0.00 PKD
ROOT
HETATM    1  C   UNL     1      -6.703  14.536  69.696  1.00  0.00    -0.155 C  
HETATM    2  C   UNL     1      -7.641  14.176  68.540  1.00  0.00    -0.129 C  
HETATM    3  C   UNL     1      -7.454  15.158  67.377  1.00  0.00    -0.239 C  
ENDROOT
BRANCH   2   4
HETATM    4  N   UNL     1      -7.441  12.804  68.069  1.00  0.00    -0.109 NA 
HETATM    5  N   UNL     1      -6.293  12.176  68.433  1.00  0.00    -0.051 NA 
HETATM    6  C   UNL     1      -6.230  11.129  67.620  1.00  0.00    -0.053 A  
HETATM    7  C   UNL     1      -7.350  11.040  66.781  1.00  0.00    -0.139 A  
HETATM    8  C   UNL     1      -8.188  12.082  67.148  1.00  0.00    -0.181 A  
BRANCH   8   9
HETATM    9  C   UNL     1      -9.589  12.352  66.804  1.00  0.00    -0.224 A  
HETATM   10  C   UNL     1     -10.713  12.060  67.586  1.00  0.00    -0.252 A  
HETATM   11  C   UNL     1     -10.896  13.500  65.253  1.00  0.00    -0.310 A  
HETATM   12  C   UNL     1     -11.964  12.512  67.116  1.00  0.00    -0.285 A  
HETATM   13  N   UNL     1      -9.680  13.071  65.652  1.00  0.00    -0.160 NA 
HETATM   14  C   UNL     1     -12.059  13.250  65.945  1.00  0.00    -0.493 A  
BRANCH  10  15
HETATM   15  C   UNL     1     -10.719  11.271  68.868  1.00  0.00    -0.207 C  
BRANCH  15  16
HETATM   16  O   UNL     1      -9.734  10.251  68.775  1.00  0.00    -0.162 OA 
BRANCH  16  17
HETATM   17  C   UNL     1     -10.090   8.993  68.377  1.00  0.00    -0.191 A  
HETATM   18  C   UNL     1     -10.145   8.581  67.038  1.00  0.00    -0.347 A  
HETATM   19  C   UNL     1     -10.430   7.252  66.708  1.00  0.00    -0.311 A  
HETATM   20  C   UNL     1     -10.693   6.319  67.706  1.00  0.00    -0.383 A  
HETATM   21  C   UNL     1     -10.672   6.720  69.041  1.00  0.00    -0.246 A  
HETATM   22  O   UNL     1     -10.963   5.802  70.013  1.00  0.00    -0.336 OA 
HETATM   23  C   UNL     1     -10.364   8.047  69.387  1.00  0.00    -0.217 A  
HETATM   24  C   UNL     1     -10.332   8.398  70.835  1.00  0.00    -0.194 C  
HETATM   25  H   UNL     1     -10.948   6.074  70.923  1.00  0.00     0.000 HD 
HETATM   26  O   UNL     1     -10.196   9.530  71.283  1.00  0.00    -0.296 OA 
ENDBRANCH  16  17
ENDBRANCH  15  16
ENDBRANCH  10  15
ENDBRANCH   8   9
ENDBRANCH   2   4
TORSDOF 5
ENDMDL
MODEL      265
REMARK 921   NORMALIZED FREE ENERGY PREDICTED BY IDOCK:   -3.88 KCAL/MOL
REMARK 922        TOTAL FREE ENERGY PREDICTED BY IDOCK:   -6.23 KCAL/MOL
REMARK 923 INTER-LIGAND FREE ENERGY PREDICTED BY IDOCK:   -4.37 KCAL/MOL
REMARK 924 INTRA-LIGAND FREE ENERGY PREDICTED BY IDOCK:   -1.86 KCAL/MOL
REMARK 927      BINDING AFFINITY PREDICTED BY RF-SCORE:    0.00 PKD
ROOT
HETATM    1  C   UNL     1     -10.156   7.082  71.498  1.00  0.00    -0.197 C  
HETATM    2  C   UNL     1     -11.276   7.648  70.620  1.00  0.00    -0.266 C  
HETATM    3  C   UNL     1     -12.369   8.280  71.492  1.00  0.00    -0.336 C  
ENDROOT
BRANCH   2   4
HETATM    4  N   UNL     1     -10.781   8.632  69.655  1.00  0.00    -0.224 NA 
HETATM    5  N   UNL     1     -10.829   9.941  70.011  1.00  0.00    -0.272 NA 
HETATM    6  C   UNL     1     -10.647  10.591  68.869  1.00  0.00    -0.216 A  
HETATM    7  C   UNL     1     -10.422   9.720  67.793  1.00  0.00    -0.297 A  
HETATM    8  C   UNL     1     -10.410   8.441  68.330  1.00  0.00    -0.199 A  
BRANCH   8   9
HETATM    9  C   UNL     1      -9.986   7.162  67.750  1.00  0.00    -0.155 A  
HETATM   10  C   UNL     1      -8.803   6.468  68.031  1.00  0.00    -0.114 A  
HETATM   11  C   UNL     1     -10.783   5.393  66.457  1.00  0.00    -0.240 A  
HETATM   12  C   UNL     1      -8.646   5.193  67.448  1.00  0.00    -0.104 A  
HETATM   13  N   UNL     1     -10.970   6.625  66.976  1.00  0.00    -0.410 NA 
HETATM   14  C   UNL     1      -9.648   4.641  66.664  1.00  0.00    -0.192 A  
BRANCH  10  15
HETATM   15  C   UNL     1      -7.657   6.974  68.866  1.00  0.00    -0.104 C  
BRANCH  15  16
HETATM   16  O   UNL     1      -6.676   7.528  68.000  1.00  0.00    -0.055 OA 
BRANCH  16  17
HETATM   17  C   UNL     1      -6.732   8.851  67.664  1.00  0.00    -0.066 A  
HETATM   18  C   UNL     1      -6.958   9.885  68.583  1.00  0.00    -0.062 A  
HETATM   19  C   UNL     1      -6.913  11.224  68.183  1.00  0.00    -0.069 A  
HETATM   20  C   UNL     1      -6.669  11.553  66.854  1.00  0.00    -0.139 A  
HETATM   21  C   UNL     1      -6.472  10.537  65.921  1.00  0.00    -0.127 A  
HETATM   22  O   UNL     1      -6.264  10.870  64.610  1.00  0.00    -0.373 OA 
HETATM   23  C   UNL     1      -6.492   9.187  66.315  1.00  0.00    -0.066 A  
HETATM   24  C   UNL     1      -6.245   8.154  65.270  1.00  0.00    -0.045 C  
HETATM   25  H   UNL     1      -6.130  10.178  63.974  1.00  0.00     0.000 HD 
HETATM   26  O   UNL     1      -6.347   6.945  65.436  1.00  0.00    -0.041 OA 
ENDBRANCH  16  17
ENDBRANCH  15  16
ENDBRANCH  10  15
ENDBRANCH   8   9
ENDBRANCH   2   4
TORSDOF 5
ENDMDL
MODEL      266
REMARK 921   NORMALIZED FREE ENERGY PREDICTED BY IDOCK:   -3.87 KCAL/MOL
REMARK 922        TOTAL FREE ENERGY PREDICTED BY IDOCK:   -6.22 KCAL/MOL
REMARK 923 INTER-LIGAND FREE ENERGY PREDICTED BY IDOCK:   -5.76 KCAL/MOL
REMARK 924 INTRA-LIGAND FREE ENERGY PREDICTED BY IDOCK:   -0.46 KCAL/MOL
REMARK 927      BINDING AFFINITY PREDICTED BY RF-SCORE:    0.00 PKD
ROOT
HETATM    1  C   UNL     1     -10.999  14.711  65.338  1.00  0.00    -0.358 C  
HETATM    2  C   UNL     1     -10.622  13.561  66.276  1.00  0.00    -0.288 C  
HETATM    3  C   UNL     1     -11.859  13.064  67.035  1.00  0.00    -0.437 C  
ENDROOT
BRANCH   2   4
HETATM    4  N   UNL     1      -9.996  12.446  65.562  1.00  0.00    -0.260 NA 
HETATM    5  N   UNL     1     -10.368  12.237  64.274  1.00  0.00    -0.328 NA 
HETATM    6  C   UNL     1      -9.920  11.017  64.005  1.00  0.00    -0.335 A  
HETATM    7  C   UNL     1      -9.213  10.462  65.082  1.00  0.00    -0.250 A  
HETATM    8  C   UNL     1      -9.178  11.441  66.063  1.00  0.00    -0.214 A  
BRANCH   8   9
HETATM    9  C   UNL     1      -8.387  11.535  67.296  1.00  0.00    -0.154 A  
HETATM   10  C   UNL     1      -8.051  10.482  68.155  1.00  0.00    -0.113 A  
HETATM   11  C   UNL     1      -7.030  13.013  68.481  1.00  0.00    -0.102 A  
HETATM   12  C   UNL     1      -7.181  10.775  69.227  1.00  0.00    -0.122 A  
HETATM   13  N   UNL     1      -7.875  12.787  67.454  1.00  0.00    -0.173 NA 
HETATM   14  C   UNL     1      -6.653  12.047  69.387  1.00  0.00    -0.100 A  
BRANCH  10  15
HETATM   15  C   UNL     1      -8.566   9.070  68.070  1.00  0.00    -0.129 C  
BRANCH  15  16
HETATM   16  O   UNL     1      -9.785   8.989  68.795  1.00  0.00    -0.154 OA 
BRANCH  16  17
HETATM   17  C   UNL     1      -9.805   8.415  70.036  1.00  0.00    -0.182 A  
HETATM   18  C   UNL     1      -9.282   9.019  71.187  1.00  0.00    -0.326 A  
HETATM   19  C   UNL     1      -9.416   8.412  72.440  1.00  0.00    -0.365 A  
HETATM   20  C   UNL     1     -10.051   7.180  72.560  1.00  0.00    -0.211 A  
HETATM   21  C   UNL     1     -10.550   6.552  71.420  1.00  0.00    -0.228 A  
HETATM   22  O   UNL     1     -11.144   5.325  71.545  1.00  0.00    -0.107 OA 
HETATM   23  C   UNL     1     -10.441   7.162  70.159  1.00  0.00    -0.231 A  
HETATM   24  C   UNL     1     -11.023   6.447  68.988  1.00  0.00    -0.348 C  
HETATM   25  H   UNL     1     -11.485   4.897  70.769  1.00  0.00     0.000 HD 
HETATM   26  O   UNL     1     -10.903   6.794  67.820  1.00  0.00    -0.244 OA 
ENDBRANCH  16  17
ENDBRANCH  15  16
ENDBRANCH  10  15
ENDBRANCH   8   9
ENDBRANCH   2   4
TORSDOF 5
ENDMDL
MODEL      267
REMARK 921   NORMALIZED FREE ENERGY PREDICTED BY IDOCK:   -3.85 KCAL/MOL
REMARK 922        TOTAL FREE ENERGY PREDICTED BY IDOCK:   -6.19 KCAL/MOL
REMARK 923 INTER-LIGAND FREE ENERGY PREDICTED BY IDOCK:   -5.41 KCAL/MOL
REMARK 924 INTRA-LIGAND FREE ENERGY PREDICTED BY IDOCK:   -0.79 KCAL/MOL
REMARK 927      BINDING AFFINITY PREDICTED BY RF-SCORE:    0.00 PKD
ROOT
HETATM    1  C   UNL     1      -9.956  15.338  69.566  1.00  0.00    -0.247 C  
HETATM    2  C   UNL     1     -11.010  14.257  69.308  1.00  0.00    -0.241 C  
HETATM    3  C   UNL     1     -12.371  14.697  69.863  1.00  0.00    -0.341 C  
ENDROOT
BRANCH   2   4
HETATM    4  N   UNL     1     -11.134  13.932  67.885  1.00  0.00    -0.251 NA 
HETATM    5  N   UNL     1     -11.909  14.744  67.121  1.00  0.00    -0.347 NA 
HETATM    6  C   UNL     1     -12.105  14.046  66.009  1.00  0.00    -0.439 A  
HETATM    7  C   UNL     1     -11.418  12.823  66.023  1.00  0.00    -0.396 A  
HETATM    8  C   UNL     1     -10.702  12.798  67.211  1.00  0.00    -0.237 A  
BRANCH   8   9
HETATM    9  C   UNL     1      -9.629  11.906  67.664  1.00  0.00    -0.185 A  
HETATM   10  C   UNL     1      -9.766  10.574  68.073  1.00  0.00    -0.162 A  
HETATM   11  C   UNL     1      -7.305  11.762  67.779  1.00  0.00    -0.106 A  
HETATM   12  C   UNL     1      -8.583   9.860  68.360  1.00  0.00    -0.116 A  
HETATM   13  N   UNL     1      -8.409  12.491  67.512  1.00  0.00    -0.164 NA 
HETATM   14  C   UNL     1      -7.339  10.452  68.200  1.00  0.00    -0.088 A  
BRANCH  10  15
HETATM   15  C   UNL     1     -11.063   9.839  68.276  1.00  0.00    -0.102 C  
BRANCH  15  16
HETATM   16  O   UNL     1     -10.783   8.450  68.392  1.00  0.00    -0.146 OA 
BRANCH  16  17
HETATM   17  C   UNL     1     -10.593   7.893  69.625  1.00  0.00    -0.234 A  
HETATM   18  C   UNL     1     -10.861   8.552  70.833  1.00  0.00    -0.275 A  
HETATM   19  C   UNL     1     -10.727   7.888  72.057  1.00  0.00    -0.299 A  
HETATM   20  C   UNL     1     -10.297   6.567  72.098  1.00  0.00    -0.219 A  
HETATM   21  C   UNL     1      -9.996   5.907  70.908  1.00  0.00    -0.187 A  
HETATM   22  O   UNL     1      -9.543   4.616  70.961  1.00  0.00    -0.152 OA 
HETATM   23  C   UNL     1     -10.149   6.555  69.669  1.00  0.00    -0.209 A  
HETATM   24  C   UNL     1      -9.836   5.779  68.436  1.00  0.00    -0.140 C  
HETATM   25  H   UNL     1      -9.338   4.166  70.150  1.00  0.00     0.000 HD 
HETATM   26  O   UNL     1      -9.808   6.241  67.302  1.00  0.00    -0.125 OA 
ENDBRANCH  16  17
ENDBRANCH  15  16
ENDBRANCH  10  15
ENDBRANCH   8   9
ENDBRANCH   2   4
TORSDOF 5
ENDMDL
MODEL      268
REMARK 921   NORMALIZED FREE ENERGY PREDICTED BY IDOCK:   -3.84 KCAL/MOL
REMARK 922        TOTAL FREE ENERGY PREDICTED BY IDOCK:   -6.18 KCAL/MOL
REMARK 923 INTER-LIGAND FREE ENERGY PREDICTED BY IDOCK:   -5.06 KCAL/MOL
REMARK 924 INTRA-LIGAND FREE ENERGY PREDICTED BY IDOCK:   -1.12 KCAL/MOL
REMARK 927      BINDING AFFINITY PREDICTED BY RF-SCORE:    0.00 PKD
ROOT
HETATM    1  C   UNL     1      -6.555   5.398  68.964  1.00  0.00    -0.051 C  
HETATM    2  C   UNL     1      -7.297   6.521  68.234  1.00  0.00    -0.087 C  
HETATM    3  C   UNL     1      -6.515   6.954  66.986  1.00  0.00    -0.046 C  
ENDROOT
BRANCH   2   4
HETATM    4  N   UNL     1      -8.658   6.135  67.858  1.00  0.00    -0.115 NA 
HETATM    5  N   UNL     1      -8.812   4.986  67.150  1.00  0.00    -0.107 NA 
HETATM    6  C   UNL     1     -10.050   5.064  66.679  1.00  0.00    -0.245 A  
HETATM    7  C   UNL     1     -10.715   6.217  67.122  1.00  0.00    -0.422 A  
HETATM    8  C   UNL     1      -9.834   6.864  67.976  1.00  0.00    -0.139 A  
BRANCH   8   9
HETATM    9  C   UNL     1     -10.049   7.969  68.917  1.00  0.00    -0.201 A  
HETATM   10  C   UNL     1      -9.567   9.278  68.792  1.00  0.00    -0.157 A  
HETATM   11  C   UNL     1     -11.310   8.551  70.789  1.00  0.00    -0.266 A  
HETATM   12  C   UNL     1      -9.990  10.218  69.756  1.00  0.00    -0.222 A  
HETATM   13  N   UNL     1     -10.918   7.612  69.902  1.00  0.00    -0.234 NA 
HETATM   14  C   UNL     1     -10.879   9.858  70.757  1.00  0.00    -0.387 A  
BRANCH  10  15
HETATM   15  C   UNL     1      -8.603   9.771  67.746  1.00  0.00    -0.125 C  
BRANCH  15  16
HETATM   16  O   UNL     1      -8.620  11.192  67.751  1.00  0.00    -0.127 OA 
BRANCH  16  17
HETATM   17  C   UNL     1      -9.297  11.871  66.777  1.00  0.00    -0.201 A  
HETATM   18  C   UNL     1      -9.859  11.265  65.645  1.00  0.00    -0.277 A  
HETATM   19  C   UNL     1     -10.616  12.008  64.734  1.00  0.00    -0.340 A  
HETATM   20  C   UNL     1     -10.801  13.373  64.923  1.00  0.00    -0.363 A  
HETATM   21  C   UNL     1     -10.224  13.998  66.028  1.00  0.00    -0.304 A  
HETATM   22  O   UNL     1     -10.387  15.348  66.187  1.00  0.00    -0.283 OA 
HETATM   23  C   UNL     1      -9.480  13.257  66.963  1.00  0.00    -0.243 A  
HETATM   24  C   UNL     1      -8.916  13.985  68.135  1.00  0.00    -0.183 C  
HETATM   25  H   UNL     1      -9.994  15.773  66.940  1.00  0.00     0.000 HD 
HETATM   26  O   UNL     1      -8.155  13.502  68.963  1.00  0.00     0.058 OA 
ENDBRANCH  16  17
ENDBRANCH  15  16
ENDBRANCH  10  15
ENDBRANCH   8   9
ENDBRANCH   2   4
TORSDOF 5
ENDMDL
MODEL      269
REMARK 921   NORMALIZED FREE ENERGY PREDICTED BY IDOCK:   -3.84 KCAL/MOL
REMARK 922        TOTAL FREE ENERGY PREDICTED BY IDOCK:   -6.18 KCAL/MOL
REMARK 923 INTER-LIGAND FREE ENERGY PREDICTED BY IDOCK:   -5.76 KCAL/MOL
REMARK 924 INTRA-LIGAND FREE ENERGY PREDICTED BY IDOCK:   -0.42 KCAL/MOL
REMARK 927      BINDING AFFINITY PREDICTED BY RF-SCORE:    0.00 PKD
ROOT
HETATM    1  C   UNL     1      -9.045   5.844  72.204  1.00  0.00    -0.145 C  
HETATM    2  C   UNL     1      -9.275   7.357  72.154  1.00  0.00    -0.132 C  
HETATM    3  C   UNL     1      -9.295   7.940  73.573  1.00  0.00    -0.333 C  
ENDROOT
BRANCH   2   4
HETATM    4  N   UNL     1      -8.266   8.046  71.348  1.00  0.00    -0.105 NA 
HETATM    5  N   UNL     1      -7.238   8.644  72.005  1.00  0.00    -0.225 NA 
HETATM    6  C   UNL     1      -6.696   9.441  71.093  1.00  0.00    -0.042 A  
HETATM    7  C   UNL     1      -7.320   9.320  69.843  1.00  0.00    -0.074 A  
HETATM    8  C   UNL     1      -8.283   8.331  69.989  1.00  0.00    -0.119 A  
BRANCH   8   9
HETATM    9  C   UNL     1      -9.072   7.607  68.986  1.00  0.00    -0.144 A  
HETATM   10  C   UNL     1     -10.080   8.139  68.173  1.00  0.00    -0.237 A  
HETATM   11  C   UNL     1      -9.158   5.569  67.859  1.00  0.00    -0.107 A  
HETATM   12  C   UNL     1     -10.634   7.290  67.191  1.00  0.00    -0.416 A  
HETATM   13  N   UNL     1      -8.611   6.336  68.825  1.00  0.00    -0.122 NA 
HETATM   14  C   UNL     1     -10.162   5.997  67.020  1.00  0.00    -0.253 A  
BRANCH  10  15
HETATM   15  C   UNL     1     -10.661   9.524  68.273  1.00  0.00    -0.194 C  
BRANCH  15  16
HETATM   16  O   UNL     1     -10.447  10.009  69.592  1.00  0.00    -0.214 OA 
BRANCH  16  17
HETATM   17  C   UNL     1     -11.476  10.019  70.491  1.00  0.00    -0.330 A  
HETATM   18  C   UNL     1     -11.921   8.887  71.188  1.00  0.00    -0.344 A  
HETATM   19  C   UNL     1     -12.922   8.989  72.159  1.00  0.00    -0.490 A  
HETATM   20  C   UNL     1     -13.514  10.217  72.432  1.00  0.00    -0.094 A  
HETATM   21  C   UNL     1     -13.106  11.348  71.727  1.00  0.00    -0.418 A  
HETATM   22  O   UNL     1     -13.718  12.546  71.980  1.00  0.00    -0.361 OA 
HETATM   23  C   UNL     1     -12.085  11.263  70.764  1.00  0.00    -0.450 A  
HETATM   24  C   UNL     1     -11.679  12.516  70.068  1.00  0.00    -0.221 C  
HETATM   25  H   UNL     1     -13.439  13.316  71.500  1.00  0.00     0.000 HD 
HETATM   26  O   UNL     1     -10.894  12.579  69.131  1.00  0.00    -0.189 OA 
ENDBRANCH  16  17
ENDBRANCH  15  16
ENDBRANCH  10  15
ENDBRANCH   8   9
ENDBRANCH   2   4
TORSDOF 5
ENDMDL
MODEL      270
REMARK 921   NORMALIZED FREE ENERGY PREDICTED BY IDOCK:   -3.84 KCAL/MOL
REMARK 922        TOTAL FREE ENERGY PREDICTED BY IDOCK:   -6.18 KCAL/MOL
REMARK 923 INTER-LIGAND FREE ENERGY PREDICTED BY IDOCK:   -4.87 KCAL/MOL
REMARK 924 INTRA-LIGAND FREE ENERGY PREDICTED BY IDOCK:   -1.31 KCAL/MOL
REMARK 927      BINDING AFFINITY PREDICTED BY RF-SCORE:    0.00 PKD
ROOT
HETATM    1  C   UNL     1      -9.349   3.417  67.802  1.00  0.00    -0.243 C  
HETATM    2  C   UNL     1      -7.951   3.849  68.253  1.00  0.00    -0.076 C  
HETATM    3  C   UNL     1      -6.909   3.474  67.190  1.00  0.00    -0.050 C  
ENDROOT
BRANCH   2   4
HETATM    4  N   UNL     1      -7.877   5.283  68.537  1.00  0.00    -0.083 NA 
HETATM    5  N   UNL     1      -7.362   6.089  67.573  1.00  0.00    -0.076 NA 
HETATM    6  C   UNL     1      -7.113   7.228  68.207  1.00  0.00    -0.081 A  
HETATM    7  C   UNL     1      -7.517   7.187  69.549  1.00  0.00    -0.095 A  
HETATM    8  C   UNL     1      -8.109   5.947  69.735  1.00  0.00    -0.105 A  
BRANCH   8   9
HETATM    9  C   UNL     1      -8.923   5.429  70.841  1.00  0.00    -0.138 A  
HETATM   10  C   UNL     1     -10.320   5.369  70.892  1.00  0.00    -0.312 A  
HETATM   11  C   UNL     1      -8.740   4.236  72.835  1.00  0.00    -0.103 A  
HETATM   12  C   UNL     1     -10.899   4.724  72.005  1.00  0.00    -0.043 A  
HETATM   13  N   UNL     1      -8.141   4.861  71.800  1.00  0.00    -0.111 NA 
HETATM   14  C   UNL     1     -10.106   4.139  72.981  1.00  0.00    -0.212 A  
BRANCH  10  15
HETATM   15  C   UNL     1     -11.270   5.967  69.890  1.00  0.00    -0.368 C  
BRANCH  15  16
HETATM   16  O   UNL     1     -12.037   6.973  70.538  1.00  0.00    -0.313 OA 
BRANCH  16  17
HETATM   17  C   UNL     1     -11.650   8.282  70.460  1.00  0.00    -0.131 A  
HETATM   18  C   UNL     1     -10.513   8.724  69.770  1.00  0.00    -0.222 A  
HETATM   19  C   UNL     1     -10.227  10.088  69.658  1.00  0.00    -0.267 A  
HETATM   20  C   UNL     1     -11.056  11.032  70.254  1.00  0.00    -0.085 A  
HETATM   21  C   UNL     1     -12.175  10.608  70.969  1.00  0.00    -0.393 A  
HETATM   22  O   UNL     1     -12.967  11.544  71.579  1.00  0.00    -0.431 OA 
HETATM   23  C   UNL     1     -12.486   9.241  71.071  1.00  0.00    -0.276 A  
HETATM   24  C   UNL     1     -13.713   8.861  71.826  1.00  0.00    -0.422 C  
HETATM   25  H   UNL     1     -13.729  11.255  72.066  1.00  0.00     0.000 HD 
HETATM   26  O   UNL     1     -14.046   7.714  72.098  1.00  0.00    -0.237 OA 
ENDBRANCH  16  17
ENDBRANCH  15  16
ENDBRANCH  10  15
ENDBRANCH   8   9
ENDBRANCH   2   4
TORSDOF 5
ENDMDL
MODEL      271
REMARK 921   NORMALIZED FREE ENERGY PREDICTED BY IDOCK:   -3.84 KCAL/MOL
REMARK 922        TOTAL FREE ENERGY PREDICTED BY IDOCK:   -6.17 KCAL/MOL
REMARK 923 INTER-LIGAND FREE ENERGY PREDICTED BY IDOCK:   -5.06 KCAL/MOL
REMARK 924 INTRA-LIGAND FREE ENERGY PREDICTED BY IDOCK:   -1.11 KCAL/MOL
REMARK 927      BINDING AFFINITY PREDICTED BY RF-SCORE:    0.00 PKD
ROOT
HETATM    1  C   UNL     1      -6.229  14.782  70.625  1.00  0.00    -0.080 C  
HETATM    2  C   UNL     1      -7.188  14.819  69.431  1.00  0.00    -0.168 C  
HETATM    3  C   UNL     1      -6.954  16.088  68.600  1.00  0.00    -0.133 C  
ENDROOT
BRANCH   2   4
HETATM    4  N   UNL     1      -7.060  13.636  68.579  1.00  0.00    -0.099 NA 
HETATM    5  N   UNL     1      -5.887  12.953  68.623  1.00  0.00    -0.066 NA 
HETATM    6  C   UNL     1      -5.930  12.173  67.550  1.00  0.00    -0.124 A  
HETATM    7  C   UNL     1      -7.139  12.300  66.850  1.00  0.00     0.047 A  
HETATM    8  C   UNL     1      -7.916  13.184  67.583  1.00  0.00    -0.174 A  
BRANCH   8   9
HETATM    9  C   UNL     1      -9.343  13.513  67.486  1.00  0.00    -0.220 A  
HETATM   10  C   UNL     1     -10.407  12.787  68.034  1.00  0.00    -0.232 A  
HETATM   11  C   UNL     1     -10.777  15.229  66.829  1.00  0.00    -0.313 A  
HETATM   12  C   UNL     1     -11.698  13.346  67.921  1.00  0.00    -0.396 A  
HETATM   13  N   UNL     1      -9.526  14.726  66.895  1.00  0.00    -0.230 NA 
HETATM   14  C   UNL     1     -11.887  14.584  67.326  1.00  0.00    -0.419 A  
BRANCH  10  15
HETATM   15  C   UNL     1     -10.311  11.440  68.700  1.00  0.00    -0.203 C  
BRANCH  15  16
HETATM   16  O   UNL     1     -10.923  10.474  67.856  1.00  0.00    -0.253 OA 
BRANCH  16  17
HETATM   17  C   UNL     1     -10.598   9.153  67.984  1.00  0.00    -0.197 A  
HETATM   18  C   UNL     1     -10.829   8.397  69.141  1.00  0.00    -0.042 A  
HETATM   19  C   UNL     1     -10.552   7.026  69.170  1.00  0.00    -0.235 A  
HETATM   20  C   UNL     1     -10.016   6.393  68.054  1.00  0.00    -0.144 A  
HETATM   21  C   UNL     1      -9.752   7.137  66.905  1.00  0.00    -0.186 A  
HETATM   22  O   UNL     1      -9.195   6.511  65.822  1.00  0.00    -0.354 OA 
HETATM   23  C   UNL     1     -10.047   8.511  66.855  1.00  0.00    -0.364 A  
HETATM   24  C   UNL     1      -9.766   9.236  65.585  1.00  0.00    -0.232 C  
HETATM   25  H   UNL     1      -9.015   7.017  65.039  1.00  0.00     0.000 HD 
HETATM   26  O   UNL     1      -9.859  10.448  65.430  1.00  0.00    -0.243 OA 
ENDBRANCH  16  17
ENDBRANCH  15  16
ENDBRANCH  10  15
ENDBRANCH   8   9
ENDBRANCH   2   4
TORSDOF 5
ENDMDL
MODEL      272
REMARK 921   NORMALIZED FREE ENERGY PREDICTED BY IDOCK:   -3.83 KCAL/MOL
REMARK 922        TOTAL FREE ENERGY PREDICTED BY IDOCK:   -6.17 KCAL/MOL
REMARK 923 INTER-LIGAND FREE ENERGY PREDICTED BY IDOCK:   -5.46 KCAL/MOL
REMARK 924 INTRA-LIGAND FREE ENERGY PREDICTED BY IDOCK:   -0.71 KCAL/MOL
REMARK 927      BINDING AFFINITY PREDICTED BY RF-SCORE:    0.00 PKD
ROOT
HETATM    1  C   UNL     1      -7.881   8.693  70.408  1.00  0.00    -0.091 C  
HETATM    2  C   UNL     1      -8.289   7.505  71.285  1.00  0.00    -0.111 C  
HETATM    3  C   UNL     1      -8.534   7.967  72.727  1.00  0.00    -0.237 C  
ENDROOT
BRANCH   2   4
HETATM    4  N   UNL     1      -9.478   6.820  70.773  1.00  0.00    -0.165 NA 
HETATM    5  N   UNL     1      -9.556   5.477  70.955  1.00  0.00    -0.166 NA 
HETATM    6  C   UNL     1     -10.524   5.098  70.130  1.00  0.00    -0.235 A  
HETATM    7  C   UNL     1     -11.111   6.185  69.466  1.00  0.00    -0.490 A  
HETATM    8  C   UNL     1     -10.491   7.320  69.965  1.00  0.00    -0.224 A  
BRANCH   8   9
HETATM    9  C   UNL     1     -10.841   8.739  69.835  1.00  0.00    -0.206 A  
HETATM   10  C   UNL     1     -10.820   9.501  68.661  1.00  0.00    -0.177 A  
HETATM   11  C   UNL     1     -11.817  10.492  71.022  1.00  0.00    -0.340 A  
HETATM   12  C   UNL     1     -11.309  10.822  68.738  1.00  0.00    -0.352 A  
HETATM   13  N   UNL     1     -11.342   9.229  71.003  1.00  0.00    -0.293 NA 
HETATM   14  C   UNL     1     -11.825  11.322  69.924  1.00  0.00    -0.436 A  
BRANCH  10  15
HETATM   15  C   UNL     1     -10.285   9.057  67.326  1.00  0.00    -0.256 C  
BRANCH  15  16
HETATM   16  O   UNL     1      -9.699  10.178  66.678  1.00  0.00    -0.176 OA 
BRANCH  16  17
HETATM   17  C   UNL     1      -8.541  10.027  65.968  1.00  0.00    -0.138 A  
HETATM   18  C   UNL     1      -7.320   9.633  66.533  1.00  0.00    -0.090 A  
HETATM   19  C   UNL     1      -6.196   9.413  65.731  1.00  0.00    -0.060 A  
HETATM   20  C   UNL     1      -6.264   9.609  64.355  1.00  0.00    -0.098 A  
HETATM   21  C   UNL     1      -7.462  10.030  63.781  1.00  0.00    -0.141 A  
HETATM   22  O   UNL     1      -7.510  10.251  62.431  1.00  0.00    -0.127 OA 
HETATM   23  C   UNL     1      -8.606  10.233  64.574  1.00  0.00    -0.195 A  
HETATM   24  C   UNL     1      -9.860  10.655  63.889  1.00  0.00    -0.338 C  
HETATM   25  H   UNL     1      -8.326  10.538  62.039  1.00  0.00     0.000 HD 
HETATM   26  O   UNL     1     -10.896  10.981  64.455  1.00  0.00    -0.313 OA 
ENDBRANCH  16  17
ENDBRANCH  15  16
ENDBRANCH  10  15
ENDBRANCH   8   9
ENDBRANCH   2   4
TORSDOF 5
ENDMDL
MODEL      273
REMARK 921   NORMALIZED FREE ENERGY PREDICTED BY IDOCK:   -3.82 KCAL/MOL
REMARK 922        TOTAL FREE ENERGY PREDICTED BY IDOCK:   -6.15 KCAL/MOL
REMARK 923 INTER-LIGAND FREE ENERGY PREDICTED BY IDOCK:   -5.51 KCAL/MOL
REMARK 924 INTRA-LIGAND FREE ENERGY PREDICTED BY IDOCK:   -0.64 KCAL/MOL
REMARK 927      BINDING AFFINITY PREDICTED BY RF-SCORE:    0.00 PKD
ROOT
HETATM    1  C   UNL     1     -10.906   8.052  69.979  1.00  0.00    -0.235 C  
HETATM    2  C   UNL     1      -9.529   7.453  69.677  1.00  0.00    -0.156 C  
HETATM    3  C   UNL     1      -9.542   6.753  68.311  1.00  0.00    -0.127 C  
ENDROOT
BRANCH   2   4
HETATM    4  N   UNL     1      -8.466   8.460  69.709  1.00  0.00    -0.125 NA 
HETATM    5  N   UNL     1      -7.694   8.522  70.824  1.00  0.00    -0.078 NA 
HETATM    6  C   UNL     1      -7.073   9.690  70.718  1.00  0.00    -0.068 A  
HETATM    7  C   UNL     1      -7.389  10.353  69.523  1.00  0.00    -0.144 A  
HETATM    8  C   UNL     1      -8.223   9.498  68.819  1.00  0.00    -0.112 A  
BRANCH   8   9
HETATM    9  C   UNL     1      -8.675   9.534  67.423  1.00  0.00    -0.125 A  
HETATM   10  C   UNL     1      -9.859  10.105  66.942  1.00  0.00    -0.244 A  
HETATM   11  C   UNL     1      -7.928   9.117  65.255  1.00  0.00    -0.111 A  
HETATM   12  C   UNL     1     -10.043  10.131  65.544  1.00  0.00    -0.338 A  
HETATM   13  N   UNL     1      -7.715   9.051  66.586  1.00  0.00    -0.096 NA 
HETATM   14  C   UNL     1      -9.066   9.646  64.688  1.00  0.00    -0.286 A  
BRANCH  10  15
HETATM   15  C   UNL     1     -10.979  10.659  67.781  1.00  0.00    -0.306 C  
BRANCH  15  16
HETATM   16  O   UNL     1     -10.462  11.706  68.591  1.00  0.00    -0.203 OA 
BRANCH  16  17
HETATM   17  C   UNL     1     -10.443  12.988  68.118  1.00  0.00    -0.245 A  
HETATM   18  C   UNL     1      -9.653  13.416  67.042  1.00  0.00    -0.244 A  
HETATM   19  C   UNL     1      -9.750  14.723  66.555  1.00  0.00    -0.295 A  
HETATM   20  C   UNL     1     -10.617  15.633  67.151  1.00  0.00    -0.308 A  
HETATM   21  C   UNL     1     -11.387  15.233  68.242  1.00  0.00    -0.336 A  
HETATM   22  O   UNL     1     -12.213  16.145  68.841  1.00  0.00    -0.361 OA 
HETATM   23  C   UNL     1     -11.315  13.915  68.727  1.00  0.00    -0.310 A  
HETATM   24  C   UNL     1     -12.188  13.550  69.877  1.00  0.00    -0.292 C  
HETATM   25  H   UNL     1     -12.738  15.873  69.585  1.00  0.00     0.000 HD 
HETATM   26  O   UNL     1     -12.151  12.483  70.479  1.00  0.00    -0.365 OA 
ENDBRANCH  16  17
ENDBRANCH  15  16
ENDBRANCH  10  15
ENDBRANCH   8   9
ENDBRANCH   2   4
TORSDOF 5
ENDMDL
MODEL      274
REMARK 921   NORMALIZED FREE ENERGY PREDICTED BY IDOCK:   -3.81 KCAL/MOL
REMARK 922        TOTAL FREE ENERGY PREDICTED BY IDOCK:   -6.14 KCAL/MOL
REMARK 923 INTER-LIGAND FREE ENERGY PREDICTED BY IDOCK:   -5.25 KCAL/MOL
REMARK 924 INTRA-LIGAND FREE ENERGY PREDICTED BY IDOCK:   -0.89 KCAL/MOL
REMARK 927      BINDING AFFINITY PREDICTED BY RF-SCORE:    0.00 PKD
ROOT
HETATM    1  C   UNL     1      -9.525  15.306  65.894  1.00  0.00    -0.351 C  
HETATM    2  C   UNL     1      -9.830  13.806  65.928  1.00  0.00    -0.260 C  
HETATM    3  C   UNL     1     -10.377  13.405  67.304  1.00  0.00    -0.244 C  
ENDROOT
BRANCH   2   4
HETATM    4  N   UNL     1     -10.775  13.408  64.882  1.00  0.00    -0.347 NA 
HETATM    5  N   UNL     1     -11.780  14.270  64.583  1.00  0.00    -0.410 NA 
HETATM    6  C   UNL     1     -12.634  13.534  63.882  1.00  0.00    -0.085 A  
HETATM    7  C   UNL     1     -12.164  12.229  63.674  1.00  0.00    -0.665 A  
HETATM    8  C   UNL     1     -10.901  12.181  64.245  1.00  0.00    -0.341 A  
BRANCH   8   9
HETATM    9  C   UNL     1      -9.837  11.176  64.134  1.00  0.00    -0.291 A  
HETATM   10  C   UNL     1      -9.503  10.204  65.085  1.00  0.00    -0.319 A  
HETATM   11  C   UNL     1      -8.347  10.261  62.593  1.00  0.00    -0.163 A  
HETATM   12  C   UNL     1      -8.519   9.259  64.727  1.00  0.00    -0.189 A  
HETATM   13  N   UNL     1      -9.269  11.199  62.897  1.00  0.00    -0.330 NA 
HETATM   14  C   UNL     1      -7.943   9.276  63.465  1.00  0.00    -0.144 A  
BRANCH  10  15
HETATM   15  C   UNL     1     -10.067  10.096  66.477  1.00  0.00    -0.234 C  
BRANCH  15  16
HETATM   16  O   UNL     1      -9.514   8.945  67.100  1.00  0.00    -0.146 OA 
BRANCH  16  17
HETATM   17  C   UNL     1      -8.327   9.035  67.770  1.00  0.00    -0.117 A  
HETATM   18  C   UNL     1      -7.851  10.210  68.368  1.00  0.00    -0.093 A  
HETATM   19  C   UNL     1      -6.668  10.208  69.114  1.00  0.00    -0.056 A  
HETATM   20  C   UNL     1      -5.927   9.039  69.254  1.00  0.00    -0.041 A  
HETATM   21  C   UNL     1      -6.370   7.869  68.641  1.00  0.00    -0.048 A  
HETATM   22  O   UNL     1      -5.617   6.732  68.758  1.00  0.00    -0.016 OA 
HETATM   23  C   UNL     1      -7.569   7.853  67.907  1.00  0.00    -0.109 A  
HETATM   24  C   UNL     1      -7.997   6.560  67.303  1.00  0.00    -0.113 C  
HETATM   25  H   UNL     1      -5.919   5.934  68.341  1.00  0.00     0.000 HD 
HETATM   26  O   UNL     1      -8.948   6.417  66.544  1.00  0.00    -0.136 OA 
ENDBRANCH  16  17
ENDBRANCH  15  16
ENDBRANCH  10  15
ENDBRANCH   8   9
ENDBRANCH   2   4
TORSDOF 5
ENDMDL
MODEL      275
REMARK 921   NORMALIZED FREE ENERGY PREDICTED BY IDOCK:   -3.81 KCAL/MOL
REMARK 922        TOTAL FREE ENERGY PREDICTED BY IDOCK:   -6.14 KCAL/MOL
REMARK 923 INTER-LIGAND FREE ENERGY PREDICTED BY IDOCK:   -5.22 KCAL/MOL
REMARK 924 INTRA-LIGAND FREE ENERGY PREDICTED BY IDOCK:   -0.92 KCAL/MOL
REMARK 927      BINDING AFFINITY PREDICTED BY RF-SCORE:    0.00 PKD
ROOT
HETATM    1  C   UNL     1      -9.259   9.788  62.550  1.00  0.00    -0.281 C  
HETATM    2  C   UNL     1      -9.099  10.146  64.030  1.00  0.00    -0.254 C  
HETATM    3  C   UNL     1      -7.650  10.555  64.326  1.00  0.00     0.068 C  
ENDROOT
BRANCH   2   4
HETATM    4  N   UNL     1     -10.011  11.214  64.445  1.00  0.00    -0.276 NA 
HETATM    5  N   UNL     1     -10.922  11.649  63.537  1.00  0.00    -0.413 NA 
HETATM    6  C   UNL     1     -11.359  12.795  64.047  1.00  0.00    -0.413 A  
HETATM    7  C   UNL     1     -10.787  13.072  65.297  1.00  0.00    -0.311 A  
HETATM    8  C   UNL     1      -9.981  11.984  65.600  1.00  0.00    -0.245 A  
BRANCH   8   9
HETATM    9  C   UNL     1      -9.332  11.593  66.857  1.00  0.00    -0.188 A  
HETATM   10  C   UNL     1      -9.613  10.456  67.624  1.00  0.00    -0.168 A  
HETATM   11  C   UNL     1      -7.511  12.127  68.210  1.00  0.00    -0.107 A  
HETATM   12  C   UNL     1      -8.786  10.209  68.740  1.00  0.00    -0.146 A  
HETATM   13  N   UNL     1      -8.286  12.417  67.144  1.00  0.00    -0.181 NA 
HETATM   14  C   UNL     1      -7.717  11.042  69.032  1.00  0.00    -0.132 A  
BRANCH  10  15
HETATM   15  C   UNL     1     -10.743   9.490  67.394  1.00  0.00    -0.227 C  
BRANCH  15  16
HETATM   16  O   UNL     1     -10.412   8.252  68.010  1.00  0.00    -0.215 OA 
BRANCH  16  17
HETATM   17  C   UNL     1      -9.879   7.240  67.263  1.00  0.00    -0.171 A  
HETATM   18  C   UNL     1      -9.110   7.438  66.108  1.00  0.00    -0.167 A  
HETATM   19  C   UNL     1      -8.521   6.358  65.444  1.00  0.00    -0.126 A  
HETATM   20  C   UNL     1      -8.711   5.060  65.905  1.00  0.00    -0.131 A  
HETATM   21  C   UNL     1      -9.498   4.842  67.035  1.00  0.00    -0.148 A  
HETATM   22  O   UNL     1      -9.705   3.558  67.462  1.00  0.00    -0.231 OA 
HETATM   23  C   UNL     1     -10.077   5.922  67.725  1.00  0.00    -0.190 A  
HETATM   24  C   UNL     1     -10.882   5.617  68.941  1.00  0.00    -0.159 C  
HETATM   25  H   UNL     1     -10.241   3.410  68.233  1.00  0.00     0.000 HD 
HETATM   26  O   UNL     1     -11.540   6.435  69.573  1.00  0.00    -0.404 OA 
ENDBRANCH  16  17
ENDBRANCH  15  16
ENDBRANCH  10  15
ENDBRANCH   8   9
ENDBRANCH   2   4
TORSDOF 5
ENDMDL
MODEL      276
REMARK 921   NORMALIZED FREE ENERGY PREDICTED BY IDOCK:   -3.78 KCAL/MOL
REMARK 922        TOTAL FREE ENERGY PREDICTED BY IDOCK:   -6.10 KCAL/MOL
REMARK 923 INTER-LIGAND FREE ENERGY PREDICTED BY IDOCK:   -4.90 KCAL/MOL
REMARK 924 INTRA-LIGAND FREE ENERGY PREDICTED BY IDOCK:   -1.20 KCAL/MOL
REMARK 927      BINDING AFFINITY PREDICTED BY RF-SCORE:    0.00 PKD
ROOT
HETATM    1  C   UNL     1      -9.692   4.942  68.726  1.00  0.00    -0.232 C  
HETATM    2  C   UNL     1      -8.238   5.266  68.371  1.00  0.00    -0.090 C  
HETATM    3  C   UNL     1      -7.429   3.973  68.207  1.00  0.00    -0.059 C  
ENDROOT
BRANCH   2   4
HETATM    4  N   UNL     1      -8.130   6.077  67.156  1.00  0.00    -0.105 NA 
HETATM    5  N   UNL     1      -8.565   5.528  65.994  1.00  0.00    -0.128 NA 
HETATM    6  C   UNL     1      -8.054   6.315  65.056  1.00  0.00    -0.136 A  
HETATM    7  C   UNL     1      -7.346   7.397  65.600  1.00  0.00    -0.074 A  
HETATM    8  C   UNL     1      -7.484   7.294  66.976  1.00  0.00    -0.105 A  
BRANCH   8   9
HETATM    9  C   UNL     1      -7.179   8.251  68.045  1.00  0.00    -0.094 A  
HETATM   10  C   UNL     1      -8.102   8.917  68.860  1.00  0.00    -0.112 A  
HETATM   11  C   UNL     1      -5.394   9.081  69.293  1.00  0.00    -0.036 A  
HETATM   12  C   UNL     1      -7.588   9.709  69.908  1.00  0.00    -0.138 A  
HETATM   13  N   UNL     1      -5.837   8.327  68.265  1.00  0.00    -0.037 NA 
HETATM   14  C   UNL     1      -6.222   9.784  70.138  1.00  0.00    -0.070 A  
BRANCH  10  15
HETATM   15  C   UNL     1      -9.599   8.902  68.697  1.00  0.00    -0.153 C  
BRANCH  15  16
HETATM   16  O   UNL     1     -10.151   9.934  69.504  1.00  0.00    -0.193 OA 
BRANCH  16  17
HETATM   17  C   UNL     1     -11.006   9.620  70.523  1.00  0.00    -0.313 A  
HETATM   18  C   UNL     1     -10.931   8.439  71.274  1.00  0.00    -0.305 A  
HETATM   19  C   UNL     1     -11.784   8.225  72.361  1.00  0.00    -0.463 A  
HETATM   20  C   UNL     1     -12.743   9.172  72.700  1.00  0.00    -0.254 A  
HETATM   21  C   UNL     1     -12.851  10.339  71.945  1.00  0.00    -0.426 A  
HETATM   22  O   UNL     1     -13.820  11.251  72.267  1.00  0.00    -0.321 OA 
HETATM   23  C   UNL     1     -11.985  10.577  70.864  1.00  0.00    -0.481 A  
HETATM   24  C   UNL     1     -12.139  11.858  70.119  1.00  0.00    -0.302 C  
HETATM   25  H   UNL     1     -13.894  12.046  71.753  1.00  0.00     0.000 HD 
HETATM   26  O   UNL     1     -11.541  12.151  69.091  1.00  0.00    -0.273 OA 
ENDBRANCH  16  17
ENDBRANCH  15  16
ENDBRANCH  10  15
ENDBRANCH   8   9
ENDBRANCH   2   4
TORSDOF 5
ENDMDL
MODEL      277
REMARK 921   NORMALIZED FREE ENERGY PREDICTED BY IDOCK:   -3.78 KCAL/MOL
REMARK 922        TOTAL FREE ENERGY PREDICTED BY IDOCK:   -6.09 KCAL/MOL
REMARK 923 INTER-LIGAND FREE ENERGY PREDICTED BY IDOCK:   -4.77 KCAL/MOL
REMARK 924 INTRA-LIGAND FREE ENERGY PREDICTED BY IDOCK:   -1.32 KCAL/MOL
REMARK 927      BINDING AFFINITY PREDICTED BY RF-SCORE:    0.00 PKD
ROOT
HETATM    1  C   UNL     1     -10.180   8.752  71.086  1.00  0.00    -0.316 C  
HETATM    2  C   UNL     1     -10.153   9.575  69.795  1.00  0.00    -0.216 C  
HETATM    3  C   UNL     1     -11.156  10.733  69.879  1.00  0.00    -0.339 C  
ENDROOT
BRANCH   2   4
HETATM    4  N   UNL     1      -8.817  10.095  69.495  1.00  0.00    -0.193 NA 
HETATM    5  N   UNL     1      -7.891  10.054  70.487  1.00  0.00    -0.202 NA 
HETATM    6  C   UNL     1      -6.930  10.864  70.061  1.00  0.00    -0.029 A  
HETATM    7  C   UNL     1      -7.197  11.378  68.784  1.00  0.00    -0.107 A  
HETATM    8  C   UNL     1      -8.386  10.793  68.375  1.00  0.00    -0.132 A  
BRANCH   8   9
HETATM    9  C   UNL     1      -9.031  10.752  67.058  1.00  0.00    -0.141 A  
HETATM   10  C   UNL     1      -8.901   9.744  66.095  1.00  0.00    -0.162 A  
HETATM   11  C   UNL     1     -10.677  11.820  65.801  1.00  0.00    -0.280 A  
HETATM   12  C   UNL     1      -9.704   9.846  64.939  1.00  0.00    -0.332 A  
HETATM   13  N   UNL     1      -9.916  11.776  66.914  1.00  0.00    -0.197 NA 
HETATM   14  C   UNL     1     -10.611  10.885  64.793  1.00  0.00    -0.316 A  
BRANCH  10  15
HETATM   15  C   UNL     1      -7.952   8.577  66.156  1.00  0.00    -0.102 C  
BRANCH  15  16
HETATM   16  O   UNL     1      -8.613   7.430  65.639  1.00  0.00    -0.148 OA 
BRANCH  16  17
HETATM   17  C   UNL     1      -8.992   6.423  66.481  1.00  0.00    -0.145 A  
HETATM   18  C   UNL     1      -9.373   6.619  67.816  1.00  0.00    -0.119 A  
HETATM   19  C   UNL     1      -9.835   5.552  68.594  1.00  0.00    -0.198 A  
HETATM   20  C   UNL     1      -9.899   4.269  68.062  1.00  0.00    -0.111 A  
HETATM   21  C   UNL     1      -9.496   4.052  66.746  1.00  0.00    -0.199 A  
HETATM   22  O   UNL     1      -9.532   2.779  66.242  1.00  0.00    -0.361 OA 
HETATM   23  C   UNL     1      -9.051   5.119  65.946  1.00  0.00    -0.154 A  
HETATM   24  C   UNL     1      -8.662   4.818  64.539  1.00  0.00    -0.153 C  
HETATM   25  H   UNL     1      -9.258   2.631  65.344  1.00  0.00     0.000 HD 
HETATM   26  O   UNL     1      -8.149   5.616  63.764  1.00  0.00    -0.119 OA 
ENDBRANCH  16  17
ENDBRANCH  15  16
ENDBRANCH  10  15
ENDBRANCH   8   9
ENDBRANCH   2   4
TORSDOF 5
ENDMDL
MODEL      278
REMARK 921   NORMALIZED FREE ENERGY PREDICTED BY IDOCK:   -3.77 KCAL/MOL
REMARK 922        TOTAL FREE ENERGY PREDICTED BY IDOCK:   -6.09 KCAL/MOL
REMARK 923 INTER-LIGAND FREE ENERGY PREDICTED BY IDOCK:   -5.62 KCAL/MOL
REMARK 924 INTRA-LIGAND FREE ENERGY PREDICTED BY IDOCK:   -0.47 KCAL/MOL
REMARK 927      BINDING AFFINITY PREDICTED BY RF-SCORE:    0.00 PKD
ROOT
HETATM    1  C   UNL     1     -11.061   8.403  69.847  1.00  0.00    -0.109 C  
HETATM    2  C   UNL     1      -9.796   7.656  70.280  1.00  0.00    -0.180 C  
HETATM    3  C   UNL     1      -9.692   6.313  69.544  1.00  0.00    -0.169 C  
ENDROOT
BRANCH   2   4
HETATM    4  N   UNL     1      -8.582   8.443  70.052  1.00  0.00    -0.129 NA 
HETATM    5  N   UNL     1      -8.097   9.165  71.095  1.00  0.00    -0.306 NA 
HETATM    6  C   UNL     1      -7.236  10.003  70.531  1.00  0.00    -0.033 A  
HETATM    7  C   UNL     1      -7.116   9.790  69.150  1.00  0.00    -0.067 A  
HETATM    8  C   UNL     1      -7.923   8.701  68.857  1.00  0.00    -0.113 A  
BRANCH   8   9
HETATM    9  C   UNL     1      -8.016   7.874  67.649  1.00  0.00    -0.124 A  
HETATM   10  C   UNL     1      -8.998   7.956  66.654  1.00  0.00    -0.179 A  
HETATM   11  C   UNL     1      -6.800   6.326  66.402  1.00  0.00    -0.062 A  
HETATM   12  C   UNL     1      -8.833   7.141  65.514  1.00  0.00     0.017 A  
HETATM   13  N   UNL     1      -6.924   7.071  67.520  1.00  0.00    -0.076 NA 
HETATM   14  C   UNL     1      -7.719   6.327  65.376  1.00  0.00    -0.097 A  
BRANCH  10  15
HETATM   15  C   UNL     1     -10.240   8.804  66.703  1.00  0.00    -0.270 C  
BRANCH  15  16
HETATM   16  O   UNL     1      -9.860  10.169  66.589  1.00  0.00    -0.183 OA 
BRANCH  16  17
HETATM   17  C   UNL     1     -10.366  10.935  65.576  1.00  0.00    -0.252 A  
HETATM   18  C   UNL     1      -9.964  10.831  64.238  1.00  0.00    -0.403 A  
HETATM   19  C   UNL     1     -10.588  11.586  63.240  1.00  0.00    -0.405 A  
HETATM   20  C   UNL     1     -11.606  12.477  63.565  1.00  0.00    -0.584 A  
HETATM   21  C   UNL     1     -11.997  12.615  64.895  1.00  0.00    -0.406 A  
HETATM   22  O   UNL     1     -12.977  13.518  65.209  1.00  0.00    -0.701 OA 
HETATM   23  C   UNL     1     -11.393  11.846  65.905  1.00  0.00    -0.365 A  
HETATM   24  C   UNL     1     -11.881  12.024  67.301  1.00  0.00    -0.187 C  
HETATM   25  H   UNL     1     -13.244  13.613  66.116  1.00  0.00     0.000 HD 
HETATM   26  O   UNL     1     -11.376  11.515  68.294  1.00  0.00    -0.237 OA 
ENDBRANCH  16  17
ENDBRANCH  15  16
ENDBRANCH  10  15
ENDBRANCH   8   9
ENDBRANCH   2   4
TORSDOF 5
ENDMDL
MODEL      279
REMARK 921   NORMALIZED FREE ENERGY PREDICTED BY IDOCK:   -3.76 KCAL/MOL
REMARK 922        TOTAL FREE ENERGY PREDICTED BY IDOCK:   -6.08 KCAL/MOL
REMARK 923 INTER-LIGAND FREE ENERGY PREDICTED BY IDOCK:   -5.88 KCAL/MOL
REMARK 924 INTRA-LIGAND FREE ENERGY PREDICTED BY IDOCK:   -0.20 KCAL/MOL
REMARK 927      BINDING AFFINITY PREDICTED BY RF-SCORE:    0.00 PKD
ROOT
HETATM    1  C   UNL     1     -11.131  16.242  64.662  1.00  0.00    -0.259 C  
HETATM    2  C   UNL     1     -10.182  16.382  65.856  1.00  0.00    -0.359 C  
HETATM    3  C   UNL     1      -8.809  15.785  65.518  1.00  0.00     0.689 C  
ENDROOT
BRANCH   2   4
HETATM    4  N   UNL     1     -10.028  17.774  66.283  1.00  0.00    -0.408 NA 
HETATM    5  N   UNL     1     -10.905  18.684  65.787  1.00  0.00    -0.302 NA 
HETATM    6  C   UNL     1     -10.341  19.854  66.060  1.00  0.00    -0.486 A  
HETATM    7  C   UNL     1      -9.145  19.711  66.778  1.00  0.00    -0.424 A  
HETATM    8  C   UNL     1      -8.995  18.352  67.010  1.00  0.00    -0.275 A  
BRANCH   8   9
HETATM    9  C   UNL     1      -8.084  17.626  67.902  1.00  0.00    -0.233 A  
HETATM   10  C   UNL     1      -8.415  16.559  68.745  1.00  0.00    -0.248 A  
HETATM   11  C   UNL     1      -5.817  17.378  68.382  1.00  0.00    -0.155 A  
HETATM   12  C   UNL     1      -7.359  15.927  69.434  1.00  0.00    -0.217 A  
HETATM   13  N   UNL     1      -6.796  18.027  67.717  1.00  0.00    -0.197 NA 
HETATM   14  C   UNL     1      -6.045  16.329  69.244  1.00  0.00    -0.161 A  
BRANCH  10  15
HETATM   15  C   UNL     1      -9.803  16.045  69.021  1.00  0.00    -0.239 C  
BRANCH  15  16
HETATM   16  O   UNL     1      -9.766  14.624  69.024  1.00  0.00    -0.214 OA 
BRANCH  16  17
HETATM   17  C   UNL     1     -10.459  13.922  68.079  1.00  0.00    -0.243 A  
HETATM   18  C   UNL     1     -11.773  14.216  67.688  1.00  0.00    -0.421 A  
HETATM   19  C   UNL     1     -12.389  13.510  66.650  1.00  0.00    -0.351 A  
HETATM   20  C   UNL     1     -11.715  12.480  66.003  1.00  0.00    -0.472 A  
HETATM   21  C   UNL     1     -10.418  12.154  66.399  1.00  0.00    -0.230 A  
HETATM   22  O   UNL     1      -9.775  11.118  65.777  1.00  0.00    -0.206 OA 
HETATM   23  C   UNL     1      -9.780  12.872  67.426  1.00  0.00    -0.201 A  
HETATM   24  C   UNL     1      -8.384  12.487  67.777  1.00  0.00    -0.170 C  
HETATM   25  H   UNL     1      -8.892  10.896  66.046  1.00  0.00     0.000 HD 
HETATM   26  O   UNL     1      -7.746  12.938  68.721  1.00  0.00    -0.093 OA 
ENDBRANCH  16  17
ENDBRANCH  15  16
ENDBRANCH  10  15
ENDBRANCH   8   9
ENDBRANCH   2   4
TORSDOF 5
ENDMDL
MODEL      280
REMARK 921   NORMALIZED FREE ENERGY PREDICTED BY IDOCK:   -3.76 KCAL/MOL
REMARK 922        TOTAL FREE ENERGY PREDICTED BY IDOCK:   -6.08 KCAL/MOL
REMARK 923 INTER-LIGAND FREE ENERGY PREDICTED BY IDOCK:   -5.65 KCAL/MOL
REMARK 924 INTRA-LIGAND FREE ENERGY PREDICTED BY IDOCK:   -0.43 KCAL/MOL
REMARK 927      BINDING AFFINITY PREDICTED BY RF-SCORE:    0.00 PKD
ROOT
HETATM    1  C   UNL     1     -11.132  18.058  67.479  1.00  0.00     0.075 C  
HETATM    2  C   UNL     1     -10.692  17.064  68.558  1.00  0.00    -0.352 C  
HETATM    3  C   UNL     1     -11.855  16.135  68.932  1.00  0.00    -0.159 C  
ENDROOT
BRANCH   2   4
HETATM    4  N   UNL     1      -9.535  16.270  68.142  1.00  0.00    -0.212 NA 
HETATM    5  N   UNL     1      -8.450  16.264  68.959  1.00  0.00    -0.249 NA 
HETATM    6  C   UNL     1      -7.481  15.767  68.202  1.00  0.00    -0.124 A  
HETATM    7  C   UNL     1      -7.939  15.397  66.929  1.00  0.00    -0.230 A  
HETATM    8  C   UNL     1      -9.306  15.634  66.929  1.00  0.00    -0.234 A  
BRANCH   8   9
HETATM    9  C   UNL     1     -10.350  15.222  65.984  1.00  0.00    -0.312 A  
HETATM   10  C   UNL     1     -11.013  13.989  65.956  1.00  0.00    -0.298 A  
HETATM   11  C   UNL     1     -11.753  16.078  64.331  1.00  0.00    -0.134 A  
HETATM   12  C   UNL     1     -12.070  13.844  65.033  1.00  0.00    -0.422 A  
HETATM   13  N   UNL     1     -10.722  16.259  65.183  1.00  0.00    -0.604 NA 
HETATM   14  C   UNL     1     -12.455  14.899  64.220  1.00  0.00    -0.181 A  
BRANCH  10  15
HETATM   15  C   UNL     1     -10.677  12.784  66.793  1.00  0.00    -0.260 C  
BRANCH  15  16
HETATM   16  O   UNL     1     -10.123  11.786  65.945  1.00  0.00    -0.219 OA 
BRANCH  16  17
HETATM   17  C   UNL     1      -9.624  10.633  66.484  1.00  0.00    -0.180 A  
HETATM   18  C   UNL     1      -9.450  10.421  67.859  1.00  0.00    -0.150 A  
HETATM   19  C   UNL     1      -9.018   9.183  68.345  1.00  0.00    -0.133 A  
HETATM   20  C   UNL     1      -8.726   8.145  67.466  1.00  0.00    -0.129 A  
HETATM   21  C   UNL     1      -8.866   8.349  66.094  1.00  0.00    -0.165 A  
HETATM   22  O   UNL     1      -8.546   7.331  65.236  1.00  0.00    -0.295 OA 
HETATM   23  C   UNL     1      -9.321   9.582  65.594  1.00  0.00    -0.302 A  
HETATM   24  C   UNL     1      -9.473   9.720  64.118  1.00  0.00    -0.097 C  
HETATM   25  H   UNL     1      -8.641   7.470  64.301  1.00  0.00     0.000 HD 
HETATM   26  O   UNL     1      -9.744  10.760  63.532  1.00  0.00    -0.282 OA 
ENDBRANCH  16  17
ENDBRANCH  15  16
ENDBRANCH  10  15
ENDBRANCH   8   9
ENDBRANCH   2   4
TORSDOF 5
ENDMDL
MODEL      281
REMARK 921   NORMALIZED FREE ENERGY PREDICTED BY IDOCK:   -3.74 KCAL/MOL
REMARK 922        TOTAL FREE ENERGY PREDICTED BY IDOCK:   -6.04 KCAL/MOL
REMARK 923 INTER-LIGAND FREE ENERGY PREDICTED BY IDOCK:   -4.67 KCAL/MOL
REMARK 924 INTRA-LIGAND FREE ENERGY PREDICTED BY IDOCK:   -1.38 KCAL/MOL
REMARK 927      BINDING AFFINITY PREDICTED BY RF-SCORE:    0.00 PKD
ROOT
HETATM    1  C   UNL     1      -9.921  10.345  68.836  1.00  0.00    -0.208 C  
HETATM    2  C   UNL     1      -9.231   9.541  67.729  1.00  0.00    -0.124 C  
HETATM    3  C   UNL     1     -10.273   8.963  66.762  1.00  0.00    -0.348 C  
ENDROOT
BRANCH   2   4
HETATM    4  N   UNL     1      -8.255  10.342  66.987  1.00  0.00    -0.122 NA 
HETATM    5  N   UNL     1      -6.939  10.095  67.211  1.00  0.00    -0.082 NA 
HETATM    6  C   UNL     1      -6.322  11.148  66.690  1.00  0.00    -0.134 A  
HETATM    7  C   UNL     1      -7.217  12.039  66.080  1.00  0.00     0.824 A  
HETATM    8  C   UNL     1      -8.472  11.458  66.189  1.00  0.00    -0.105 A  
BRANCH   8   9
HETATM    9  C   UNL     1      -9.743  11.794  65.538  1.00  0.00    -0.224 A  
HETATM   10  C   UNL     1     -10.728  12.661  66.027  1.00  0.00    -0.295 A  
HETATM   11  C   UNL     1     -10.870  11.563  63.511  1.00  0.00    -0.398 A  
HETATM   12  C   UNL     1     -11.826  12.933  65.183  1.00  0.00    -0.415 A  
HETATM   13  N   UNL     1      -9.811  11.256  64.289  1.00  0.00    -0.255 NA 
HETATM   14  C   UNL     1     -11.895  12.392  63.908  1.00  0.00    -0.551 A  
BRANCH  10  15
HETATM   15  C   UNL     1     -10.749  13.300  67.389  1.00  0.00    -0.258 C  
BRANCH  15  16
HETATM   16  O   UNL     1     -10.183  14.600  67.287  1.00  0.00    -0.239 OA 
BRANCH  16  17
HETATM   17  C   UNL     1      -8.911  14.826  67.732  1.00  0.00    -0.175 A  
HETATM   18  C   UNL     1      -8.318  14.136  68.798  1.00  0.00    -0.069 A  
HETATM   19  C   UNL     1      -6.980  14.358  69.142  1.00  0.00    -0.123 A  
HETATM   20  C   UNL     1      -6.221  15.292  68.445  1.00  0.00    -0.106 A  
HETATM   21  C   UNL     1      -6.804  16.009  67.402  1.00  0.00    -0.189 A  
HETATM   22  O   UNL     1      -6.057  16.948  66.743  1.00  0.00    -0.178 OA 
HETATM   23  C   UNL     1      -8.141  15.779  67.032  1.00  0.00    -0.272 A  
HETATM   24  C   UNL     1      -8.690  16.561  65.889  1.00  0.00    -0.083 C  
HETATM   25  H   UNL     1      -6.454  17.437  66.032  1.00  0.00     0.000 HD 
HETATM   26  O   UNL     1      -9.860  16.556  65.529  1.00  0.00    -0.537 OA 
ENDBRANCH  16  17
ENDBRANCH  15  16
ENDBRANCH  10  15
ENDBRANCH   8   9
ENDBRANCH   2   4
TORSDOF 5
ENDMDL
MODEL      282
REMARK 921   NORMALIZED FREE ENERGY PREDICTED BY IDOCK:   -3.74 KCAL/MOL
REMARK 922        TOTAL FREE ENERGY PREDICTED BY IDOCK:   -6.04 KCAL/MOL
REMARK 923 INTER-LIGAND FREE ENERGY PREDICTED BY IDOCK:   -6.03 KCAL/MOL
REMARK 924 INTRA-LIGAND FREE ENERGY PREDICTED BY IDOCK:   -0.01 KCAL/MOL
REMARK 927      BINDING AFFINITY PREDICTED BY RF-SCORE:    0.00 PKD
ROOT
HETATM    1  C   UNL     1     -11.716  12.447  69.577  1.00  0.00    -0.388 C  
HETATM    2  C   UNL     1     -11.066  11.567  68.506  1.00  0.00    -0.236 C  
HETATM    3  C   UNL     1     -11.849  11.664  67.189  1.00  0.00    -0.090 C  
ENDROOT
BRANCH   2   4
HETATM    4  N   UNL     1      -9.663  11.916  68.277  1.00  0.00    -0.197 NA 
HETATM    5  N   UNL     1      -8.718  11.075  68.771  1.00  0.00    -0.159 NA 
HETATM    6  C   UNL     1      -7.598  11.785  68.716  1.00  0.00    -0.104 A  
HETATM    7  C   UNL     1      -7.797  13.047  68.138  1.00  0.00    -0.145 A  
HETATM    8  C   UNL     1      -9.131  13.090  67.759  1.00  0.00    -0.200 A  
BRANCH   8   9
HETATM    9  C   UNL     1      -9.854  14.035  66.902  1.00  0.00    -0.267 A  
HETATM   10  C   UNL     1     -10.299  15.314  67.258  1.00  0.00    -0.264 A  
HETATM   11  C   UNL     1     -10.472  14.377  64.681  1.00  0.00    -0.257 A  
HETATM   12  C   UNL     1     -10.874  16.106  66.241  1.00  0.00    -0.135 A  
HETATM   13  N   UNL     1      -9.934  13.575  65.623  1.00  0.00    -0.268 NA 
HETATM   14  C   UNL     1     -10.951  15.642  64.937  1.00  0.00    -0.447 A  
BRANCH  10  15
HETATM   15  C   UNL     1     -10.262  15.912  68.639  1.00  0.00    -0.223 C  
BRANCH  15  16
HETATM   16  O   UNL     1      -8.948  16.395  68.887  1.00  0.00    -0.240 OA 
BRANCH  16  17
HETATM   17  C   UNL     1      -8.293  17.115  67.927  1.00  0.00    -0.207 A  
HETATM   18  C   UNL     1      -7.354  16.570  67.042  1.00  0.00    -0.245 A  
HETATM   19  C   UNL     1      -6.788  17.348  66.026  1.00  0.00    -0.220 A  
HETATM   20  C   UNL     1      -7.131  18.690  65.895  1.00  0.00    -0.290 A  
HETATM   21  C   UNL     1      -8.041  19.255  66.786  1.00  0.00    -0.275 A  
HETATM   22  O   UNL     1      -8.347  20.584  66.668  1.00  0.00    -0.516 OA 
HETATM   23  C   UNL     1      -8.633  18.478  67.797  1.00  0.00    -0.286 A  
HETATM   24  C   UNL     1      -9.619  19.142  68.696  1.00  0.00    -0.413 C  
HETATM   25  H   UNL     1      -8.967  20.970  67.275  1.00  0.00     0.000 HD 
HETATM   26  O   UNL     1     -10.125  18.629  69.687  1.00  0.00     0.042 OA 
ENDBRANCH  16  17
ENDBRANCH  15  16
ENDBRANCH  10  15
ENDBRANCH   8   9
ENDBRANCH   2   4
TORSDOF 5
ENDMDL
MODEL      283
REMARK 921   NORMALIZED FREE ENERGY PREDICTED BY IDOCK:   -3.73 KCAL/MOL
REMARK 922        TOTAL FREE ENERGY PREDICTED BY IDOCK:   -6.03 KCAL/MOL
REMARK 923 INTER-LIGAND FREE ENERGY PREDICTED BY IDOCK:   -4.64 KCAL/MOL
REMARK 924 INTRA-LIGAND FREE ENERGY PREDICTED BY IDOCK:   -1.39 KCAL/MOL
REMARK 927      BINDING AFFINITY PREDICTED BY RF-SCORE:    0.00 PKD
ROOT
HETATM    1  C   UNL     1      -9.413  19.480  69.288  1.00  0.00    -0.209 C  
HETATM    2  C   UNL     1      -9.303  18.039  68.782  1.00  0.00    -0.241 C  
HETATM    3  C   UNL     1     -10.656  17.560  68.239  1.00  0.00    -0.354 C  
ENDROOT
BRANCH   2   4
HETATM    4  N   UNL     1      -8.273  17.890  67.751  1.00  0.00    -0.229 NA 
HETATM    5  N   UNL     1      -8.229  18.823  66.767  1.00  0.00    -0.269 NA 
HETATM    6  C   UNL     1      -7.462  18.271  65.835  1.00  0.00    -0.167 A  
HETATM    7  C   UNL     1      -6.962  17.022  66.232  1.00  0.00    -0.205 A  
HETATM    8  C   UNL     1      -7.414  16.821  67.528  1.00  0.00    -0.159 A  
BRANCH   8   9
HETATM    9  C   UNL     1      -7.024  15.829  68.536  1.00  0.00    -0.117 A  
HETATM   10  C   UNL     1      -7.382  14.476  68.559  1.00  0.00    -0.120 A  
HETATM   11  C   UNL     1      -5.580  15.537  70.342  1.00  0.00    -0.139 A  
HETATM   12  C   UNL     1      -6.800  13.670  69.560  1.00  0.00     0.027 A  
HETATM   13  N   UNL     1      -6.126  16.352  69.416  1.00  0.00    -0.165 NA 
HETATM   14  C   UNL     1      -5.881  14.198  70.453  1.00  0.00    -0.158 A  
BRANCH  10  15
HETATM   15  C   UNL     1      -8.365  13.804  67.638  1.00  0.00    -0.182 C  
BRANCH  15  16
HETATM   16  O   UNL     1      -9.617  14.467  67.753  1.00  0.00    -0.209 OA 
BRANCH  16  17
HETATM   17  C   UNL     1     -10.410  14.624  66.650  1.00  0.00    -0.273 A  
HETATM   18  C   UNL     1      -9.935  15.019  65.392  1.00  0.00    -0.365 A  
HETATM   19  C   UNL     1     -10.789  15.072  64.287  1.00  0.00     0.292 A  
HETATM   20  C   UNL     1     -12.137  14.758  64.424  1.00  0.00    -0.457 A  
HETATM   21  C   UNL     1     -12.632  14.392  65.674  1.00  0.00    -0.322 A  
HETATM   22  O   UNL     1     -13.967  14.116  65.805  1.00  0.00     0.056 OA 
HETATM   23  C   UNL     1     -11.779  14.313  66.789  1.00  0.00    -0.424 A  
HETATM   24  C   UNL     1     -12.371  13.888  68.089  1.00  0.00     0.036 C  
HETATM   25  H   UNL     1     -14.304  13.867  66.657  1.00  0.00     0.000 HD 
HETATM   26  O   UNL     1     -11.783  13.885  69.163  1.00  0.00    -0.289 OA 
ENDBRANCH  16  17
ENDBRANCH  15  16
ENDBRANCH  10  15
ENDBRANCH   8   9
ENDBRANCH   2   4
TORSDOF 5
ENDMDL
MODEL      284
REMARK 921   NORMALIZED FREE ENERGY PREDICTED BY IDOCK:   -3.70 KCAL/MOL
REMARK 922        TOTAL FREE ENERGY PREDICTED BY IDOCK:   -6.00 KCAL/MOL
REMARK 923 INTER-LIGAND FREE ENERGY PREDICTED BY IDOCK:   -3.95 KCAL/MOL
REMARK 924 INTRA-LIGAND FREE ENERGY PREDICTED BY IDOCK:   -2.05 KCAL/MOL
REMARK 927      BINDING AFFINITY PREDICTED BY RF-SCORE:    0.00 PKD
ROOT
HETATM    1  C   UNL     1     -10.660   4.454  65.607  1.00  0.00    -0.179 C  
HETATM    2  C   UNL     1      -9.439   3.976  66.399  1.00  0.00    -0.191 C  
HETATM    3  C   UNL     1      -8.695   2.882  65.621  1.00  0.00    -0.127 C  
ENDROOT
BRANCH   2   4
HETATM    4  N   UNL     1      -8.521   5.071  66.718  1.00  0.00    -0.107 NA 
HETATM    5  N   UNL     1      -7.848   5.647  65.688  1.00  0.00    -0.096 NA 
HETATM    6  C   UNL     1      -6.884   6.338  66.283  1.00  0.00    -0.061 A  
HETATM    7  C   UNL     1      -6.963   6.264  67.681  1.00  0.00    -0.075 A  
HETATM    8  C   UNL     1      -8.096   5.516  67.963  1.00  0.00    -0.096 A  
BRANCH   8   9
HETATM    9  C   UNL     1      -8.820   5.309  69.223  1.00  0.00    -0.100 A  
HETATM   10  C   UNL     1     -10.117   5.742  69.522  1.00  0.00    -0.278 A  
HETATM   11  C   UNL     1      -8.695   4.117  71.221  1.00  0.00    -0.101 A  
HETATM   12  C   UNL     1     -10.667   5.334  70.755  1.00  0.00    -0.196 A  
HETATM   13  N   UNL     1      -8.119   4.498  70.062  1.00  0.00    -0.066 NA 
HETATM   14  C   UNL     1      -9.959   4.503  71.610  1.00  0.00    -0.266 A  
BRANCH  10  15
HETATM   15  C   UNL     1     -10.970   6.641  68.667  1.00  0.00    -0.251 C  
BRANCH  15  16
HETATM   16  O   UNL     1     -10.551   7.985  68.866  1.00  0.00    -0.210 OA 
BRANCH  16  17
HETATM   17  C   UNL     1      -9.793   8.611  67.916  1.00  0.00    -0.173 A  
HETATM   18  C   UNL     1     -10.068   8.573  66.543  1.00  0.00    -0.328 A  
HETATM   19  C   UNL     1      -9.301   9.311  65.636  1.00  0.00    -0.308 A  
HETATM   20  C   UNL     1      -8.229  10.077  66.083  1.00  0.00    -0.121 A  
HETATM   21  C   UNL     1      -7.924  10.103  67.442  1.00  0.00    -0.110 A  
HETATM   22  O   UNL     1      -6.848  10.835  67.867  1.00  0.00    -0.070 OA 
HETATM   23  C   UNL     1      -8.701   9.383  68.366  1.00  0.00    -0.124 A  
HETATM   24  C   UNL     1      -8.334   9.478  69.807  1.00  0.00    -0.164 C  
HETATM   25  H   UNL     1      -6.639  10.852  68.794  1.00  0.00     0.000 HD 
HETATM   26  O   UNL     1      -8.841   8.821  70.708  1.00  0.00    -0.155 OA 
ENDBRANCH  16  17
ENDBRANCH  15  16
ENDBRANCH  10  15
ENDBRANCH   8   9
ENDBRANCH   2   4
TORSDOF 5
ENDMDL
MODEL      285
REMARK 921   NORMALIZED FREE ENERGY PREDICTED BY IDOCK:   -3.68 KCAL/MOL
REMARK 922        TOTAL FREE ENERGY PREDICTED BY IDOCK:   -5.97 KCAL/MOL
REMARK 923 INTER-LIGAND FREE ENERGY PREDICTED BY IDOCK:   -4.82 KCAL/MOL
REMARK 924 INTRA-LIGAND FREE ENERGY PREDICTED BY IDOCK:   -1.14 KCAL/MOL
REMARK 927      BINDING AFFINITY PREDICTED BY RF-SCORE:    0.00 PKD
ROOT
HETATM    1  C   UNL     1      -9.810   5.778  68.024  1.00  0.00    -0.155 C  
HETATM    2  C   UNL     1      -9.324   7.165  68.456  1.00  0.00    -0.136 C  
HETATM    3  C   UNL     1      -9.814   7.484  69.874  1.00  0.00    -0.187 C  
ENDROOT
BRANCH   2   4
HETATM    4  N   UNL     1      -7.866   7.286  68.395  1.00  0.00    -0.120 NA 
HETATM    5  N   UNL     1      -7.175   7.139  69.554  1.00  0.00    -0.078 NA 
HETATM    6  C   UNL     1      -5.969   7.616  69.271  1.00  0.00    -0.034 A  
HETATM    7  C   UNL     1      -5.857   8.013  67.931  1.00  0.00    -0.042 A  
HETATM    8  C   UNL     1      -7.070   7.701  67.335  1.00  0.00    -0.086 A  
BRANCH   8   9
HETATM    9  C   UNL     1      -7.461   7.656  65.921  1.00  0.00    -0.082 A  
HETATM   10  C   UNL     1      -7.793   8.749  65.112  1.00  0.00    -0.108 A  
HETATM   11  C   UNL     1      -7.543   6.207  64.098  1.00  0.00    -0.096 A  
HETATM   12  C   UNL     1      -8.026   8.493  63.744  1.00  0.00    -0.161 A  
HETATM   13  N   UNL     1      -7.330   6.399  65.417  1.00  0.00    -0.074 NA 
HETATM   14  C   UNL     1      -7.889   7.215  63.226  1.00  0.00    -0.114 A  
BRANCH  10  15
HETATM   15  C   UNL     1      -7.967  10.172  65.571  1.00  0.00    -0.146 C  
BRANCH  15  16
HETATM   16  O   UNL     1      -9.350  10.495  65.530  1.00  0.00    -0.179 OA 
BRANCH  16  17
HETATM   17  C   UNL     1      -9.771  11.743  65.894  1.00  0.00    -0.237 A  
HETATM   18  C   UNL     1      -9.637  12.269  67.186  1.00  0.00    -0.200 A  
HETATM   19  C   UNL     1     -10.010  13.588  67.466  1.00  0.00    -0.230 A  
HETATM   20  C   UNL     1     -10.547  14.394  66.468  1.00  0.00    -0.296 A  
HETATM   21  C   UNL     1     -10.714  13.876  65.184  1.00  0.00    -0.362 A  
HETATM   22  O   UNL     1     -11.273  14.668  64.217  1.00  0.00    -0.615 OA 
HETATM   23  C   UNL     1     -10.323  12.560  64.885  1.00  0.00    -0.323 A  
HETATM   24  C   UNL     1     -10.505  12.082  63.485  1.00  0.00    -0.464 C  
HETATM   25  H   UNL     1     -11.387  14.315  63.342  1.00  0.00     0.000 HD 
HETATM   26  O   UNL     1     -10.321  10.933  63.104  1.00  0.00    -0.299 OA 
ENDBRANCH  16  17
ENDBRANCH  15  16
ENDBRANCH  10  15
ENDBRANCH   8   9
ENDBRANCH   2   4
TORSDOF 5
ENDMDL
MODEL      286
REMARK 921   NORMALIZED FREE ENERGY PREDICTED BY IDOCK:   -3.62 KCAL/MOL
REMARK 922        TOTAL FREE ENERGY PREDICTED BY IDOCK:   -5.89 KCAL/MOL
REMARK 923 INTER-LIGAND FREE ENERGY PREDICTED BY IDOCK:   -4.89 KCAL/MOL
REMARK 924 INTRA-LIGAND FREE ENERGY PREDICTED BY IDOCK:   -1.00 KCAL/MOL
REMARK 927      BINDING AFFINITY PREDICTED BY RF-SCORE:    0.00 PKD
ROOT
HETATM    1  C   UNL     1      -8.287  11.884  63.303  1.00  0.00     1.444 C  
HETATM    2  C   UNL     1      -9.571  11.166  62.880  1.00  0.00    -0.348 C  
HETATM    3  C   UNL     1      -9.340   9.650  62.822  1.00  0.00    -0.052 C  
ENDROOT
BRANCH   2   4
HETATM    4  N   UNL     1     -10.694  11.464  63.772  1.00  0.00    -0.385 NA 
HETATM    5  N   UNL     1     -11.807  12.010  63.219  1.00  0.00    -0.405 NA 
HETATM    6  C   UNL     1     -12.491  12.467  64.261  1.00  0.00    -0.432 A  
HETATM    7  C   UNL     1     -11.862  12.171  65.479  1.00  0.00    -0.350 A  
HETATM    8  C   UNL     1     -10.737  11.425  65.159  1.00  0.00    -0.269 A  
BRANCH   8   9
HETATM    9  C   UNL     1      -9.837  10.637  66.008  1.00  0.00    -0.228 A  
HETATM   10  C   UNL     1      -8.886  11.136  66.907  1.00  0.00    -0.157 A  
HETATM   11  C   UNL     1      -9.462   8.454  66.734  1.00  0.00    -0.197 A  
HETATM   12  C   UNL     1      -8.204  10.199  67.712  1.00  0.00    -0.110 A  
HETATM   13  N   UNL     1     -10.126   9.309  65.929  1.00  0.00    -0.233 NA 
HETATM   14  C   UNL     1      -8.501   8.847  67.638  1.00  0.00    -0.121 A  
BRANCH  10  15
HETATM   15  C   UNL     1      -8.490  12.579  67.067  1.00  0.00    -0.161 C  
BRANCH  15  16
HETATM   16  O   UNL     1      -8.847  13.003  68.376  1.00  0.00    -0.183 OA 
BRANCH  16  17
HETATM   17  C   UNL     1      -9.434  14.223  68.562  1.00  0.00    -0.206 A  
HETATM   18  C   UNL     1      -8.783  15.446  68.355  1.00  0.00    -0.171 A  
HETATM   19  C   UNL     1      -9.473  16.657  68.478  1.00  0.00    -0.239 A  
HETATM   20  C   UNL     1     -10.817  16.667  68.837  1.00  0.00    -0.321 A  
HETATM   21  C   UNL     1     -11.472  15.460  69.076  1.00  0.00    -0.337 A  
HETATM   22  O   UNL     1     -12.786  15.482  69.460  1.00  0.00    -0.602 OA 
HETATM   23  C   UNL     1     -10.795  14.235  68.933  1.00  0.00    -0.272 A  
HETATM   24  C   UNL     1     -11.565  12.983  69.177  1.00  0.00    -0.316 C  
HETATM   25  H   UNL     1     -13.232  14.660  69.623  1.00  0.00     0.000 HD 
HETATM   26  O   UNL     1     -11.087  11.856  69.206  1.00  0.00    -0.240 OA 
ENDBRANCH  16  17
ENDBRANCH  15  16
ENDBRANCH  10  15
ENDBRANCH   8   9
ENDBRANCH   2   4
TORSDOF 5
ENDMDL
MODEL      287
REMARK 921   NORMALIZED FREE ENERGY PREDICTED BY IDOCK:   -3.61 KCAL/MOL
REMARK 922        TOTAL FREE ENERGY PREDICTED BY IDOCK:   -5.88 KCAL/MOL
REMARK 923 INTER-LIGAND FREE ENERGY PREDICTED BY IDOCK:   -5.78 KCAL/MOL
REMARK 924 INTRA-LIGAND FREE ENERGY PREDICTED BY IDOCK:   -0.10 KCAL/MOL
REMARK 927      BINDING AFFINITY PREDICTED BY RF-SCORE:    0.00 PKD
ROOT
HETATM    1  C   UNL     1      -7.298  19.848  66.389  1.00  0.00    -0.291 C  
HETATM    2  C   UNL     1      -7.469  18.801  67.494  1.00  0.00    -0.228 C  
HETATM    3  C   UNL     1      -7.098  19.400  68.857  1.00  0.00    -0.393 C  
ENDROOT
BRANCH   2   4
HETATM    4  N   UNL     1      -8.829  18.261  67.542  1.00  0.00    -0.252 NA 
HETATM    5  N   UNL     1      -9.854  19.117  67.298  1.00  0.00    -0.322 NA 
HETATM    6  C   UNL     1     -10.926  18.463  67.727  1.00  0.00    -0.094 A  
HETATM    7  C   UNL     1     -10.614  17.175  68.186  1.00  0.00    -0.380 A  
HETATM    8  C   UNL     1      -9.254  17.009  67.970  1.00  0.00    -0.241 A  
BRANCH   8   9
HETATM    9  C   UNL     1      -8.415  15.807  68.019  1.00  0.00    -0.161 A  
HETATM   10  C   UNL     1      -8.805  14.502  67.696  1.00  0.00    -0.189 A  
HETATM   11  C   UNL     1      -6.195  15.143  68.268  1.00  0.00    -0.119 A  
HETATM   12  C   UNL     1      -7.804  13.507  67.701  1.00  0.00    -0.178 A  
HETATM   13  N   UNL     1      -7.120  16.124  68.296  1.00  0.00    -0.125 NA 
HETATM   14  C   UNL     1      -6.484  13.828  67.976  1.00  0.00    -0.140 A  
BRANCH  10  15
HETATM   15  C   UNL     1     -10.205  14.048  67.381  1.00  0.00    -0.248 C  
BRANCH  15  16
HETATM   16  O   UNL     1     -10.486  14.356  66.023  1.00  0.00    -0.283 OA 
BRANCH  16  17
HETATM   17  C   UNL     1     -10.502  13.360  65.087  1.00  0.00    -0.347 A  
HETATM   18  C   UNL     1      -9.360  12.672  64.654  1.00  0.00     0.567 A  
HETATM   19  C   UNL     1      -9.463  11.603  63.758  1.00  0.00    -0.121 A  
HETATM   20  C   UNL     1     -10.703  11.220  63.259  1.00  0.00    -0.278 A  
HETATM   21  C   UNL     1     -11.845  11.913  63.656  1.00  0.00    -0.473 A  
HETATM   22  O   UNL     1     -13.057  11.549  63.134  1.00  0.00    -0.699 OA 
HETATM   23  C   UNL     1     -11.758  12.975  64.573  1.00  0.00    -0.419 A  
HETATM   24  C   UNL     1     -13.023  13.652  64.974  1.00  0.00    -0.157 C  
HETATM   25  H   UNL     1     -13.836  12.021  63.404  1.00  0.00     0.000 HD 
HETATM   26  O   UNL     1     -13.094  14.660  65.667  1.00  0.00    -0.212 OA 
ENDBRANCH  16  17
ENDBRANCH  15  16
ENDBRANCH  10  15
ENDBRANCH   8   9
ENDBRANCH   2   4
TORSDOF 5
ENDMDL
MODEL      288
REMARK 921   NORMALIZED FREE ENERGY PREDICTED BY IDOCK:   -3.60 KCAL/MOL
REMARK 922        TOTAL FREE ENERGY PREDICTED BY IDOCK:   -5.86 KCAL/MOL
REMARK 923 INTER-LIGAND FREE ENERGY PREDICTED BY IDOCK:   -4.75 KCAL/MOL
REMARK 924 INTRA-LIGAND FREE ENERGY PREDICTED BY IDOCK:   -1.11 KCAL/MOL
REMARK 927      BINDING AFFINITY PREDICTED BY RF-SCORE:    0.00 PKD
ROOT
HETATM    1  C   UNL     1      -7.951   9.354  65.255  1.00  0.00    -0.110 C  
HETATM    2  C   UNL     1      -8.497   8.867  66.601  1.00  0.00    -0.119 C  
HETATM    3  C   UNL     1      -7.442   9.048  67.700  1.00  0.00    -0.085 C  
ENDROOT
BRANCH   2   4
HETATM    4  N   UNL     1      -9.733   9.554  66.980  1.00  0.00    -0.167 NA 
HETATM    5  N   UNL     1     -10.083  10.656  66.268  1.00  0.00    -0.228 NA 
HETATM    6  C   UNL     1     -11.012  11.239  67.016  1.00  0.00    -0.294 A  
HETATM    7  C   UNL     1     -11.308  10.496  68.168  1.00  0.00    -0.324 A  
HETATM    8  C   UNL     1     -10.541   9.344  68.090  1.00  0.00    -0.212 A  
BRANCH   8   9
HETATM    9  C   UNL     1     -10.600   8.098  68.864  1.00  0.00    -0.140 A  
HETATM   10  C   UNL     1     -10.734   6.802  68.352  1.00  0.00    -0.284 A  
HETATM   11  C   UNL     1     -10.273   7.274  71.019  1.00  0.00    -0.192 A  
HETATM   12  C   UNL     1     -10.652   5.732  69.268  1.00  0.00    -0.376 A  
HETATM   13  N   UNL     1     -10.365   8.330  70.185  1.00  0.00    -0.207 NA 
HETATM   14  C   UNL     1     -10.407   5.965  70.613  1.00  0.00    -0.296 A  
BRANCH  10  15
HETATM   15  C   UNL     1     -11.001   6.440  66.915  1.00  0.00    -0.341 C  
BRANCH  15  16
HETATM   16  O   UNL     1     -10.439   5.160  66.659  1.00  0.00    -0.260 OA 
BRANCH  16  17
HETATM   17  C   UNL     1      -9.212   5.059  66.066  1.00  0.00    -0.153 A  
HETATM   18  C   UNL     1      -8.016   5.482  66.662  1.00  0.00    -0.101 A  
HETATM   19  C   UNL     1      -6.785   5.266  66.033  1.00  0.00    -0.053 A  
HETATM   20  C   UNL     1      -6.730   4.650  64.788  1.00  0.00    -0.045 A  
HETATM   21  C   UNL     1      -7.913   4.251  64.167  1.00  0.00    -0.090 A  
HETATM   22  O   UNL     1      -7.851   3.675  62.927  1.00  0.00    -0.068 OA 
HETATM   23  C   UNL     1      -9.155   4.442  64.799  1.00  0.00    -0.152 A  
HETATM   24  C   UNL     1     -10.376   3.965  64.090  1.00  0.00    -0.227 C  
HETATM   25  H   UNL     1      -8.656   3.403  62.504  1.00  0.00     0.000 HD 
HETATM   26  O   UNL     1     -11.527   4.165  64.458  1.00  0.00    -0.230 OA 
ENDBRANCH  16  17
ENDBRANCH  15  16
ENDBRANCH  10  15
ENDBRANCH   8   9
ENDBRANCH   2   4
TORSDOF 5
ENDMDL
MODEL      289
REMARK 921   NORMALIZED FREE ENERGY PREDICTED BY IDOCK:   -3.59 KCAL/MOL
REMARK 922        TOTAL FREE ENERGY PREDICTED BY IDOCK:   -5.86 KCAL/MOL
REMARK 923 INTER-LIGAND FREE ENERGY PREDICTED BY IDOCK:   -4.41 KCAL/MOL
REMARK 924 INTRA-LIGAND FREE ENERGY PREDICTED BY IDOCK:   -1.45 KCAL/MOL
REMARK 927      BINDING AFFINITY PREDICTED BY RF-SCORE:    0.00 PKD
ROOT
HETATM    1  C   UNL     1      -9.031   8.162  71.742  1.00  0.00    -0.216 C  
HETATM    2  C   UNL     1     -10.334   8.000  70.954  1.00  0.00    -0.200 C  
HETATM    3  C   UNL     1     -11.540   8.052  71.901  1.00  0.00    -0.348 C  
ENDROOT
BRANCH   2   4
HETATM    4  N   UNL     1     -10.480   9.013  69.907  1.00  0.00    -0.208 NA 
HETATM    5  N   UNL     1     -10.564  10.311  70.297  1.00  0.00    -0.261 NA 
HETATM    6  C   UNL     1     -11.013  10.941  69.219  1.00  0.00    -0.244 A  
HETATM    7  C   UNL     1     -11.162  10.078  68.123  1.00  0.00    -0.192 A  
HETATM    8  C   UNL     1     -10.715   8.836  68.550  1.00  0.00    -0.060 A  
BRANCH   8   9
HETATM    9  C   UNL     1     -10.404   7.617  67.793  1.00  0.00    -0.219 A  
HETATM   10  C   UNL     1      -9.681   7.538  66.597  1.00  0.00    -0.273 A  
HETATM   11  C   UNL     1     -10.478   5.295  67.969  1.00  0.00    -0.074 A  
HETATM   12  C   UNL     1      -9.396   6.250  66.097  1.00  0.00    -0.117 A  
HETATM   13  N   UNL     1     -10.792   6.505  68.476  1.00  0.00    -0.274 NA 
HETATM   14  C   UNL     1      -9.785   5.115  66.793  1.00  0.00    -0.178 A  
BRANCH  10  15
HETATM   15  C   UNL     1      -9.213   8.703  65.766  1.00  0.00    -0.181 C  
BRANCH  15  16
HETATM   16  O   UNL     1      -7.933   9.107  66.235  1.00  0.00    -0.101 OA 
BRANCH  16  17
HETATM   17  C   UNL     1      -7.802  10.265  66.950  1.00  0.00    -0.112 A  
HETATM   18  C   UNL     1      -8.122  11.535  66.450  1.00  0.00    -0.069 A  
HETATM   19  C   UNL     1      -8.047  12.667  67.268  1.00  0.00    -0.178 A  
HETATM   20  C   UNL     1      -7.627  12.554  68.589  1.00  0.00    -0.080 A  
HETATM   21  C   UNL     1      -7.277  11.303  69.092  1.00  0.00    -0.115 A  
HETATM   22  O   UNL     1      -6.834  11.207  70.384  1.00  0.00    -0.490 OA 
HETATM   23  C   UNL     1      -7.369  10.154  68.288  1.00  0.00    -0.081 A  
HETATM   24  C   UNL     1      -7.005   8.845  68.900  1.00  0.00    -0.065 C  
HETATM   25  H   UNL     1      -6.595  10.354  70.728  1.00  0.00     0.000 HD 
HETATM   26  O   UNL     1      -6.924   7.783  68.296  1.00  0.00    -0.074 OA 
ENDBRANCH  16  17
ENDBRANCH  15  16
ENDBRANCH  10  15
ENDBRANCH   8   9
ENDBRANCH   2   4
TORSDOF 5
ENDMDL
MODEL      290
REMARK 921   NORMALIZED FREE ENERGY PREDICTED BY IDOCK:   -3.59 KCAL/MOL
REMARK 922        TOTAL FREE ENERGY PREDICTED BY IDOCK:   -5.85 KCAL/MOL
REMARK 923 INTER-LIGAND FREE ENERGY PREDICTED BY IDOCK:   -7.39 KCAL/MOL
REMARK 924 INTRA-LIGAND FREE ENERGY PREDICTED BY IDOCK:    1.54 KCAL/MOL
REMARK 927      BINDING AFFINITY PREDICTED BY RF-SCORE:    0.00 PKD
ROOT
HETATM    1  C   UNL     1     -10.429  18.868  65.723  1.00  0.00    -0.347 C  
HETATM    2  C   UNL     1     -10.226  17.484  66.348  1.00  0.00    -0.354 C  
HETATM    3  C   UNL     1     -10.994  17.380  67.672  1.00  0.00    -0.125 C  
ENDROOT
BRANCH   2   4
HETATM    4  N   UNL     1     -10.638  16.404  65.449  1.00  0.00    -0.548 NA 
HETATM    5  N   UNL     1     -11.403  16.735  64.377  1.00  0.00    -1.077 NA 
HETATM    6  C   UNL     1     -11.885  15.573  63.957  1.00  0.00     0.044 A  
HETATM    7  C   UNL     1     -11.394  14.492  64.705  1.00  0.00    -0.372 A  
HETATM    8  C   UNL     1     -10.499  15.032  65.616  1.00  0.00    -0.350 A  
BRANCH   8   9
HETATM    9  C   UNL     1      -9.508  14.385  66.484  1.00  0.00    -0.289 A  
HETATM   10  C   UNL     1      -9.234  13.015  66.563  1.00  0.00    -0.187 A  
HETATM   11  C   UNL     1      -7.718  14.882  67.892  1.00  0.00    -0.141 A  
HETATM   12  C   UNL     1      -8.157  12.616  67.382  1.00  0.00    -0.182 A  
HETATM   13  N   UNL     1      -8.752  15.310  67.137  1.00  0.00    -0.196 NA 
HETATM   14  C   UNL     1      -7.381  13.556  68.044  1.00  0.00    -0.133 A  
BRANCH  10  15
HETATM   15  C   UNL     1     -10.010  11.916  65.887  1.00  0.00    -0.234 C  
BRANCH  15  16
HETATM   16  O   UNL     1     -11.327  11.898  66.422  1.00  0.00    -0.331 OA 
BRANCH  16  17
HETATM   17  C   UNL     1     -11.515  11.956  67.774  1.00  0.00    -0.319 A  
HETATM   18  C   UNL     1     -11.863  13.124  68.468  1.00  0.00    -0.377 A  
HETATM   19  C   UNL     1     -12.127  13.091  69.841  1.00  0.00    -0.347 A  
HETATM   20  C   UNL     1     -12.022  11.899  70.549  1.00  0.00    -0.360 A  
HETATM   21  C   UNL     1     -11.647  10.735  69.880  1.00  0.00    -0.331 A  
HETATM   22  O   UNL     1     -11.515   9.573  70.593  1.00  0.00    -0.267 OA 
HETATM   23  C   UNL     1     -11.401  10.750  68.496  1.00  0.00    -0.360 A  
HETATM   24  C   UNL     1     -11.032   9.463  67.842  1.00  0.00    -0.058 C  
HETATM   25  H   UNL     1     -11.260   8.780  70.137  1.00  0.00     0.000 HD 
HETATM   26  O   UNL     1     -10.677   9.342  66.676  1.00  0.00    -0.145 OA 
ENDBRANCH  16  17
ENDBRANCH  15  16
ENDBRANCH  10  15
ENDBRANCH   8   9
ENDBRANCH   2   4
TORSDOF 5
ENDMDL
MODEL      291
REMARK 921   NORMALIZED FREE ENERGY PREDICTED BY IDOCK:   -3.59 KCAL/MOL
REMARK 922        TOTAL FREE ENERGY PREDICTED BY IDOCK:   -5.85 KCAL/MOL
REMARK 923 INTER-LIGAND FREE ENERGY PREDICTED BY IDOCK:   -4.58 KCAL/MOL
REMARK 924 INTRA-LIGAND FREE ENERGY PREDICTED BY IDOCK:   -1.27 KCAL/MOL
REMARK 927      BINDING AFFINITY PREDICTED BY RF-SCORE:    0.00 PKD
ROOT
HETATM    1  C   UNL     1     -11.412  15.007  71.837  1.00  0.00    -0.368 C  
HETATM    2  C   UNL     1     -12.163  13.908  71.080  1.00  0.00    -0.308 C  
HETATM    3  C   UNL     1     -13.540  14.415  70.631  1.00  0.00     0.118 C  
ENDROOT
BRANCH   2   4
HETATM    4  N   UNL     1     -11.412  13.418  69.923  1.00  0.00    -0.171 NA 
HETATM    5  N   UNL     1     -10.812  14.340  69.127  1.00  0.00    -0.252 NA 
HETATM    6  C   UNL     1     -10.511  13.665  68.025  1.00  0.00    -0.248 A  
HETATM    7  C   UNL     1     -10.855  12.309  68.123  1.00  0.00    -0.258 A  
HETATM    8  C   UNL     1     -11.352  12.130  69.405  1.00  0.00    -0.245 A  
BRANCH   8   9
HETATM    9  C   UNL     1     -11.638  10.905  70.161  1.00  0.00    -0.338 A  
HETATM   10  C   UNL     1     -10.699  10.031  70.721  1.00  0.00    -0.272 A  
HETATM   11  C   UNL     1     -13.397   9.752  71.165  1.00  0.00    -0.291 A  
HETATM   12  C   UNL     1     -11.193   8.971  71.510  1.00  0.00    -0.418 A  
HETATM   13  N   UNL     1     -12.974  10.770  70.387  1.00  0.00    -0.220 NA 
HETATM   14  C   UNL     1     -12.552   8.834  71.748  1.00  0.00    -0.409 A  
BRANCH  10  15
HETATM   15  C   UNL     1      -9.208  10.090  70.528  1.00  0.00     0.327 C  
BRANCH  15  16
HETATM   16  O   UNL     1      -8.853   9.210  69.470  1.00  0.00    -0.137 OA 
BRANCH  16  17
HETATM   17  C   UNL     1      -7.942   9.604  68.531  1.00  0.00    -0.089 A  
HETATM   18  C   UNL     1      -6.639  10.025  68.831  1.00  0.00    -0.049 A  
HETATM   19  C   UNL     1      -5.731  10.329  67.812  1.00  0.00    -0.044 A  
HETATM   20  C   UNL     1      -6.115  10.243  66.478  1.00  0.00    -0.071 A  
HETATM   21  C   UNL     1      -7.416   9.855  66.163  1.00  0.00    -0.104 A  
HETATM   22  O   UNL     1      -7.794   9.804  64.849  1.00  0.00    -0.121 OA 
HETATM   23  C   UNL     1      -8.332   9.525  67.178  1.00  0.00    -0.131 A  
HETATM   24  C   UNL     1      -9.697   9.090  66.767  1.00  0.00    -0.216 C  
HETATM   25  H   UNL     1      -8.681   9.539  64.634  1.00  0.00     0.000 HD 
HETATM   26  O   UNL     1     -10.631   8.886  67.533  1.00  0.00    -0.271 OA 
ENDBRANCH  16  17
ENDBRANCH  15  16
ENDBRANCH  10  15
ENDBRANCH   8   9
ENDBRANCH   2   4
TORSDOF 5
ENDMDL
MODEL      292
REMARK 921   NORMALIZED FREE ENERGY PREDICTED BY IDOCK:   -3.58 KCAL/MOL
REMARK 922        TOTAL FREE ENERGY PREDICTED BY IDOCK:   -5.84 KCAL/MOL
REMARK 923 INTER-LIGAND FREE ENERGY PREDICTED BY IDOCK:   -5.58 KCAL/MOL
REMARK 924 INTRA-LIGAND FREE ENERGY PREDICTED BY IDOCK:   -0.26 KCAL/MOL
REMARK 927      BINDING AFFINITY PREDICTED BY RF-SCORE:    0.00 PKD
ROOT
HETATM    1  C   UNL     1     -11.137   9.369  70.302  1.00  0.00    -0.299 C  
HETATM    2  C   UNL     1      -9.715   9.511  69.750  1.00  0.00    -0.214 C  
HETATM    3  C   UNL     1      -8.716   8.783  70.659  1.00  0.00    -0.208 C  
ENDROOT
BRANCH   2   4
HETATM    4  N   UNL     1      -9.599   9.007  68.380  1.00  0.00    -0.150 NA 
HETATM    5  N   UNL     1     -10.463   8.033  67.993  1.00  0.00    -0.207 NA 
HETATM    6  C   UNL     1      -9.927   7.555  66.876  1.00  0.00    -0.248 A  
HETATM    7  C   UNL     1      -8.764   8.247  66.507  1.00  0.00    -0.157 A  
HETATM    8  C   UNL     1      -8.609   9.262  67.439  1.00  0.00    -0.122 A  
BRANCH   8   9
HETATM    9  C   UNL     1      -7.733  10.439  67.438  1.00  0.00    -0.095 A  
HETATM   10  C   UNL     1      -8.020  11.695  67.985  1.00  0.00    -0.132 A  
HETATM   11  C   UNL     1      -5.538  11.077  66.980  1.00  0.00    -0.066 A  
HETATM   12  C   UNL     1      -6.987  12.656  67.978  1.00  0.00    -0.099 A  
HETATM   13  N   UNL     1      -6.501  10.132  66.947  1.00  0.00    -0.068 NA 
HETATM   14  C   UNL     1      -5.729  12.344  67.484  1.00  0.00    -0.138 A  
BRANCH  10  15
HETATM   15  C   UNL     1      -9.346  12.135  68.547  1.00  0.00    -0.106 C  
BRANCH  15  16
HETATM   16  O   UNL     1     -10.185  12.528  67.469  1.00  0.00    -0.213 OA 
BRANCH  16  17
HETATM   17  C   UNL     1     -10.321  13.852  67.158  1.00  0.00    -0.265 A  
HETATM   18  C   UNL     1      -9.957  14.900  68.014  1.00  0.00    -0.220 A  
HETATM   19  C   UNL     1     -10.041  16.232  67.595  1.00  0.00    -0.260 A  
HETATM   20  C   UNL     1     -10.516  16.541  66.325  1.00  0.00    -0.285 A  
HETATM   21  C   UNL     1     -10.911  15.511  65.471  1.00  0.00    -0.361 A  
HETATM   22  O   UNL     1     -11.407  15.827  64.235  1.00  0.00    -0.750 OA 
HETATM   23  C   UNL     1     -10.809  14.168  65.873  1.00  0.00    -0.294 A  
HETATM   24  C   UNL     1     -11.223  13.119  64.899  1.00  0.00    -0.310 C  
HETATM   25  H   UNL     1     -11.676  15.126  63.653  1.00  0.00     0.000 HD 
HETATM   26  O   UNL     1     -11.302  11.921  65.145  1.00  0.00    -0.315 OA 
ENDBRANCH  16  17
ENDBRANCH  15  16
ENDBRANCH  10  15
ENDBRANCH   8   9
ENDBRANCH   2   4
TORSDOF 5
ENDMDL
MODEL      293
REMARK 921   NORMALIZED FREE ENERGY PREDICTED BY IDOCK:   -3.54 KCAL/MOL
REMARK 922        TOTAL FREE ENERGY PREDICTED BY IDOCK:   -5.78 KCAL/MOL
REMARK 923 INTER-LIGAND FREE ENERGY PREDICTED BY IDOCK:   -4.59 KCAL/MOL
REMARK 924 INTRA-LIGAND FREE ENERGY PREDICTED BY IDOCK:   -1.20 KCAL/MOL
REMARK 927      BINDING AFFINITY PREDICTED BY RF-SCORE:    0.00 PKD
ROOT
HETATM    1  C   UNL     1      -6.304   5.312  69.133  1.00  0.00    -0.034 C  
HETATM    2  C   UNL     1      -6.852   6.727  68.929  1.00  0.00    -0.065 C  
HETATM    3  C   UNL     1      -5.772   7.634  68.324  1.00  0.00    -0.028 C  
ENDROOT
BRANCH   2   4
HETATM    4  N   UNL     1      -8.046   6.743  68.082  1.00  0.00    -0.114 NA 
HETATM    5  N   UNL     1      -7.973   6.114  66.881  1.00  0.00    -0.104 NA 
HETATM    6  C   UNL     1      -9.032   6.564  66.219  1.00  0.00    -0.156 A  
HETATM    7  C   UNL     1      -9.818   7.426  66.997  1.00  0.00    -0.273 A  
HETATM    8  C   UNL     1      -9.224   7.461  68.250  1.00  0.00    -0.137 A  
BRANCH   8   9
HETATM    9  C   UNL     1      -9.715   7.984  69.530  1.00  0.00    -0.170 A  
HETATM   10  C   UNL     1      -9.448   9.247  70.074  1.00  0.00    -0.236 A  
HETATM   11  C   UNL     1     -11.239   7.511  71.228  1.00  0.00    -0.251 A  
HETATM   12  C   UNL     1     -10.118   9.592  71.266  1.00  0.00    -0.196 A  
HETATM   13  N   UNL     1     -10.608   7.128  70.099  1.00  0.00    -0.223 NA 
HETATM   14  C   UNL     1     -11.033   8.725  71.845  1.00  0.00    -0.435 A  
BRANCH  10  15
HETATM   15  C   UNL     1      -8.479  10.260  69.527  1.00  0.00    -0.142 C  
BRANCH  15  16
HETATM   16  O   UNL     1      -9.194  11.171  68.704  1.00  0.00    -0.174 OA 
BRANCH  16  17
HETATM   17  C   UNL     1      -8.601  12.334  68.299  1.00  0.00    -0.172 A  
HETATM   18  C   UNL     1      -7.335  12.759  68.723  1.00  0.00    -0.067 A  
HETATM   19  C   UNL     1      -6.752  13.917  68.198  1.00  0.00    -0.125 A  
HETATM   20  C   UNL     1      -7.436  14.685  67.262  1.00  0.00    -0.148 A  
HETATM   21  C   UNL     1      -8.709  14.294  66.851  1.00  0.00    -0.179 A  
HETATM   22  O   UNL     1      -9.386  15.074  65.953  1.00  0.00    -0.410 OA 
HETATM   23  C   UNL     1      -9.296  13.119  67.354  1.00  0.00    -0.213 A  
HETATM   24  C   UNL     1     -10.647  12.746  66.849  1.00  0.00    -0.244 C  
HETATM   25  H   UNL     1     -10.253  14.807  65.672  1.00  0.00     0.000 HD 
HETATM   26  O   UNL     1     -11.329  11.824  67.278  1.00  0.00    -0.290 OA 
ENDBRANCH  16  17
ENDBRANCH  15  16
ENDBRANCH  10  15
ENDBRANCH   8   9
ENDBRANCH   2   4
TORSDOF 5
ENDMDL
MODEL      294
REMARK 921   NORMALIZED FREE ENERGY PREDICTED BY IDOCK:   -3.53 KCAL/MOL
REMARK 922        TOTAL FREE ENERGY PREDICTED BY IDOCK:   -5.77 KCAL/MOL
REMARK 923 INTER-LIGAND FREE ENERGY PREDICTED BY IDOCK:   -4.99 KCAL/MOL
REMARK 924 INTRA-LIGAND FREE ENERGY PREDICTED BY IDOCK:   -0.78 KCAL/MOL
REMARK 927      BINDING AFFINITY PREDICTED BY RF-SCORE:    0.00 PKD
ROOT
HETATM    1  C   UNL     1     -12.435   6.796  71.188  1.00  0.00    -0.351 C  
HETATM    2  C   UNL     1     -11.193   6.311  71.940  1.00  0.00    -0.283 C  
HETATM    3  C   UNL     1     -11.562   5.174  72.902  1.00  0.00    -0.282 C  
ENDROOT
BRANCH   2   4
HETATM    4  N   UNL     1     -10.132   5.868  71.031  1.00  0.00    -0.193 NA 
HETATM    5  N   UNL     1     -10.507   5.236  69.890  1.00  0.00    -0.307 NA 
HETATM    6  C   UNL     1      -9.387   4.673  69.454  1.00  0.00    -0.141 A  
HETATM    7  C   UNL     1      -8.285   4.985  70.265  1.00  0.00    -0.088 A  
HETATM    8  C   UNL     1      -8.759   5.850  71.240  1.00  0.00    -0.132 A  
BRANCH   8   9
HETATM    9  C   UNL     1      -8.043   6.692  72.205  1.00  0.00    -0.105 A  
HETATM   10  C   UNL     1      -7.756   8.056  72.072  1.00  0.00    -0.124 A  
HETATM   11  C   UNL     1      -7.237   6.676  74.391  1.00  0.00    -0.098 A  
HETATM   12  C   UNL     1      -7.157   8.701  73.175  1.00  0.00     0.029 A  
HETATM   13  N   UNL     1      -7.792   6.011  73.357  1.00  0.00    -0.101 NA 
HETATM   14  C   UNL     1      -6.905   8.011  74.352  1.00  0.00    -0.154 A  
BRANCH  10  15
HETATM   15  C   UNL     1      -7.988   8.895  70.844  1.00  0.00    -0.148 C  
BRANCH  15  16
HETATM   16  O   UNL     1      -9.183   8.453  70.215  1.00  0.00    -0.148 OA 
BRANCH  16  17
HETATM   17  C   UNL     1     -10.086   9.366  69.746  1.00  0.00    -0.211 A  
HETATM   18  C   UNL     1     -10.942  10.114  70.566  1.00  0.00    -0.380 A  
HETATM   19  C   UNL     1     -11.778  11.096  70.024  1.00  0.00    -0.438 A  
HETATM   20  C   UNL     1     -11.793  11.329  68.653  1.00  0.00    -0.369 A  
HETATM   21  C   UNL     1     -10.969  10.573  67.821  1.00  0.00    -0.313 A  
HETATM   22  O   UNL     1     -11.015  10.788  66.469  1.00  0.00    -0.192 OA 
HETATM   23  C   UNL     1     -10.108   9.599  68.355  1.00  0.00    -0.199 A  
HETATM   24  C   UNL     1      -9.235   8.848  67.409  1.00  0.00    -0.135 C  
HETATM   25  H   UNL     1     -10.454  10.273  65.901  1.00  0.00     0.000 HD 
HETATM   26  O   UNL     1      -8.525   7.897  67.709  1.00  0.00    -0.124 OA 
ENDBRANCH  16  17
ENDBRANCH  15  16
ENDBRANCH  10  15
ENDBRANCH   8   9
ENDBRANCH   2   4
TORSDOF 5
ENDMDL
MODEL      295
REMARK 921   NORMALIZED FREE ENERGY PREDICTED BY IDOCK:   -3.52 KCAL/MOL
REMARK 922        TOTAL FREE ENERGY PREDICTED BY IDOCK:   -5.76 KCAL/MOL
REMARK 923 INTER-LIGAND FREE ENERGY PREDICTED BY IDOCK:   -4.59 KCAL/MOL
REMARK 924 INTRA-LIGAND FREE ENERGY PREDICTED BY IDOCK:   -1.18 KCAL/MOL
REMARK 927      BINDING AFFINITY PREDICTED BY RF-SCORE:    0.00 PKD
ROOT
HETATM    1  C   UNL     1      -8.190   5.072  64.793  1.00  0.00    -0.130 C  
HETATM    2  C   UNL     1      -8.915   5.993  65.779  1.00  0.00    -0.104 C  
HETATM    3  C   UNL     1      -9.854   5.178  66.678  1.00  0.00    -0.208 C  
ENDROOT
BRANCH   2   4
HETATM    4  N   UNL     1      -7.983   6.765  66.604  1.00  0.00    -0.106 NA 
HETATM    5  N   UNL     1      -7.652   6.258  67.820  1.00  0.00    -0.099 NA 
HETATM    6  C   UNL     1      -7.095   7.283  68.453  1.00  0.00    -0.081 A  
HETATM    7  C   UNL     1      -7.009   8.425  67.642  1.00  0.00    -0.075 A  
HETATM    8  C   UNL     1      -7.500   8.051  66.400  1.00  0.00    -0.087 A  
BRANCH   8   9
HETATM    9  C   UNL     1      -7.437   8.731  65.101  1.00  0.00    -0.090 A  
HETATM   10  C   UNL     1      -8.329   9.696  64.619  1.00  0.00    -0.162 A  
HETATM   11  C   UNL     1      -6.027   9.037  63.270  1.00  0.00    -0.088 A  
HETATM   12  C   UNL     1      -8.017  10.308  63.387  1.00  0.00    -0.147 A  
HETATM   13  N   UNL     1      -6.294   8.410  64.435  1.00  0.00    -0.066 NA 
HETATM   14  C   UNL     1      -6.850   9.988  62.709  1.00  0.00    -0.127 A  
BRANCH  10  15
HETATM   15  C   UNL     1      -9.617  10.117  65.274  1.00  0.00    -0.277 C  
BRANCH  15  16
HETATM   16  O   UNL     1     -10.108  11.271  64.605  1.00  0.00    -0.250 OA 
BRANCH  16  17
HETATM   17  C   UNL     1     -10.420  12.394  65.320  1.00  0.00    -0.286 A  
HETATM   18  C   UNL     1      -9.692  12.843  66.431  1.00  0.00    -0.263 A  
HETATM   19  C   UNL     1     -10.015  14.050  67.060  1.00  0.00    -0.257 A  
HETATM   20  C   UNL     1     -11.087  14.813  66.610  1.00  0.00    -0.333 A  
HETATM   21  C   UNL     1     -11.840  14.365  65.526  1.00  0.00    -0.357 A  
HETATM   22  O   UNL     1     -12.912  15.107  65.110  1.00  0.00     0.178 OA 
HETATM   23  C   UNL     1     -11.511  13.165  64.870  1.00  0.00    -0.337 A  
HETATM   24  C   UNL     1     -12.342  12.762  63.701  1.00  0.00    -0.463 C  
HETATM   25  H   UNL     1     -13.426  14.803  64.371  1.00  0.00     0.000 HD 
HETATM   26  O   UNL     1     -12.252  11.695  63.107  1.00  0.00    -0.369 OA 
ENDBRANCH  16  17
ENDBRANCH  15  16
ENDBRANCH  10  15
ENDBRANCH   8   9
ENDBRANCH   2   4
TORSDOF 5
ENDMDL
MODEL      296
REMARK 921   NORMALIZED FREE ENERGY PREDICTED BY IDOCK:   -3.52 KCAL/MOL
REMARK 922        TOTAL FREE ENERGY PREDICTED BY IDOCK:   -5.76 KCAL/MOL
REMARK 923 INTER-LIGAND FREE ENERGY PREDICTED BY IDOCK:   -5.25 KCAL/MOL
REMARK 924 INTRA-LIGAND FREE ENERGY PREDICTED BY IDOCK:   -0.51 KCAL/MOL
REMARK 927      BINDING AFFINITY PREDICTED BY RF-SCORE:    0.00 PKD
ROOT
HETATM    1  C   UNL     1      -9.917  15.209  65.309  1.00  0.00    -0.325 C  
HETATM    2  C   UNL     1     -10.518  13.909  65.852  1.00  0.00    -0.305 C  
HETATM    3  C   UNL     1     -11.444  14.205  67.039  1.00  0.00    -0.370 C  
ENDROOT
BRANCH   2   4
HETATM    4  N   UNL     1     -11.249  13.164  64.825  1.00  0.00    -0.311 NA 
HETATM    5  N   UNL     1     -12.111  13.860  64.038  1.00  0.00    -0.545 NA 
HETATM    6  C   UNL     1     -12.848  12.919  63.461  1.00  0.00     0.140 A  
HETATM    7  C   UNL     1     -12.434  11.627  63.818  1.00  0.00    -0.285 A  
HETATM    8  C   UNL     1     -11.323  11.791  64.632  1.00  0.00    -0.256 A  
BRANCH   8   9
HETATM    9  C   UNL     1     -10.330  10.820  65.104  1.00  0.00    -0.271 A  
HETATM   10  C   UNL     1     -10.285  10.218  66.368  1.00  0.00    -0.290 A  
HETATM   11  C   UNL     1      -8.591   9.471  64.337  1.00  0.00    -0.195 A  
HETATM   12  C   UNL     1      -9.309   9.221  66.575  1.00  0.00    -0.231 A  
HETATM   13  N   UNL     1      -9.495  10.444  64.097  1.00  0.00    -0.276 NA 
HETATM   14  C   UNL     1      -8.461   8.831  65.549  1.00  0.00    -0.181 A  
BRANCH  10  15
HETATM   15  C   UNL     1     -11.156  10.564  67.545  1.00  0.00    -0.290 C  
BRANCH  15  16
HETATM   16  O   UNL     1     -10.441  10.272  68.738  1.00  0.00    -0.182 OA 
BRANCH  16  17
HETATM   17  C   UNL     1      -9.211  10.829  68.950  1.00  0.00    -0.173 A  
HETATM   18  C   UNL     1      -8.819  12.078  68.448  1.00  0.00    -0.149 A  
HETATM   19  C   UNL     1      -7.575  12.626  68.780  1.00  0.00    -0.022 A  
HETATM   20  C   UNL     1      -6.693  11.926  69.595  1.00  0.00    -0.009 A  
HETATM   21  C   UNL     1      -7.055  10.670  70.079  1.00  0.00    -0.087 A  
HETATM   22  O   UNL     1      -6.167   9.975  70.854  1.00  0.00    -0.154 OA 
HETATM   23  C   UNL     1      -8.311  10.117  69.771  1.00  0.00    -0.154 A  
HETATM   24  C   UNL     1      -8.643   8.783  70.345  1.00  0.00    -0.163 C  
HETATM   25  H   UNL     1      -6.413   9.119  71.184  1.00  0.00     0.000 HD 
HETATM   26  O   UNL     1      -9.642   8.128  70.074  1.00  0.00    -0.170 OA 
ENDBRANCH  16  17
ENDBRANCH  15  16
ENDBRANCH  10  15
ENDBRANCH   8   9
ENDBRANCH   2   4
TORSDOF 5
ENDMDL
MODEL      297
REMARK 921   NORMALIZED FREE ENERGY PREDICTED BY IDOCK:   -3.50 KCAL/MOL
REMARK 922        TOTAL FREE ENERGY PREDICTED BY IDOCK:   -5.73 KCAL/MOL
REMARK 923 INTER-LIGAND FREE ENERGY PREDICTED BY IDOCK:   -5.58 KCAL/MOL
REMARK 924 INTRA-LIGAND FREE ENERGY PREDICTED BY IDOCK:   -0.16 KCAL/MOL
REMARK 927      BINDING AFFINITY PREDICTED BY RF-SCORE:    0.00 PKD
ROOT
HETATM    1  C   UNL     1     -10.975  16.360  68.259  1.00  0.00    -0.355 C  
HETATM    2  C   UNL     1     -10.988  14.885  68.673  1.00  0.00    -0.257 C  
HETATM    3  C   UNL     1     -12.102  14.629  69.697  1.00  0.00    -0.355 C  
ENDROOT
BRANCH   2   4
HETATM    4  N   UNL     1     -11.149  13.988  67.528  1.00  0.00    -0.291 NA 
HETATM    5  N   UNL     1     -12.197  14.216  66.695  1.00  0.00    -0.456 NA 
HETATM    6  C   UNL     1     -12.288  13.100  65.982  1.00  0.00    -0.359 A  
HETATM    7  C   UNL     1     -11.277  12.182  66.303  1.00  0.00    -0.382 A  
HETATM    8  C   UNL     1     -10.473  12.808  67.243  1.00  0.00    -0.232 A  
BRANCH   8   9
HETATM    9  C   UNL     1      -9.148  12.451  67.763  1.00  0.00    -0.193 A  
HETATM   10  C   UNL     1      -8.818  11.300  68.489  1.00  0.00    -0.159 A  
HETATM   11  C   UNL     1      -6.908  13.079  67.628  1.00  0.00    -0.154 A  
HETATM   12  C   UNL     1      -7.456  11.096  68.793  1.00  0.00    -0.118 A  
HETATM   13  N   UNL     1      -8.201  13.328  67.331  1.00  0.00    -0.179 NA 
HETATM   14  C   UNL     1      -6.487  11.984  68.349  1.00  0.00    -0.055 A  
BRANCH  10  15
HETATM   15  C   UNL     1      -9.788  10.276  69.015  1.00  0.00    -0.207 C  
BRANCH  15  16
HETATM   16  O   UNL     1      -9.508  10.054  70.391  1.00  0.00    -0.123 OA 
BRANCH  16  17
HETATM   17  C   UNL     1      -9.770   8.837  70.953  1.00  0.00    -0.222 A  
HETATM   18  C   UNL     1     -11.058   8.305  71.108  1.00  0.00    -0.289 A  
HETATM   19  C   UNL     1     -11.245   7.013  71.610  1.00  0.00    -0.276 A  
HETATM   20  C   UNL     1     -10.153   6.241  71.992  1.00  0.00    -0.205 A  
HETATM   21  C   UNL     1      -8.867   6.767  71.872  1.00  0.00    -0.135 A  
HETATM   22  O   UNL     1      -7.801   6.011  72.280  1.00  0.00    -0.101 OA 
HETATM   23  C   UNL     1      -8.664   8.055  71.347  1.00  0.00    -0.163 A  
HETATM   24  C   UNL     1      -7.261   8.541  71.221  1.00  0.00    -0.081 C  
HETATM   25  H   UNL     1      -6.924   6.368  72.198  1.00  0.00     0.000 HD 
HETATM   26  O   UNL     1      -6.935   9.676  70.895  1.00  0.00    -0.231 OA 
ENDBRANCH  16  17
ENDBRANCH  15  16
ENDBRANCH  10  15
ENDBRANCH   8   9
ENDBRANCH   2   4
TORSDOF 5
ENDMDL
MODEL      298
REMARK 921   NORMALIZED FREE ENERGY PREDICTED BY IDOCK:   -3.49 KCAL/MOL
REMARK 922        TOTAL FREE ENERGY PREDICTED BY IDOCK:   -5.73 KCAL/MOL
REMARK 923 INTER-LIGAND FREE ENERGY PREDICTED BY IDOCK:   -4.45 KCAL/MOL
REMARK 924 INTRA-LIGAND FREE ENERGY PREDICTED BY IDOCK:   -1.28 KCAL/MOL
REMARK 927      BINDING AFFINITY PREDICTED BY RF-SCORE:    0.00 PKD
ROOT
HETATM    1  C   UNL     1      -6.410  14.127  70.068  1.00  0.00    -0.135 C  
HETATM    2  C   UNL     1      -6.958  13.239  68.947  1.00  0.00    -0.096 C  
HETATM    3  C   UNL     1      -6.239  13.543  67.626  1.00  0.00    -0.139 C  
ENDROOT
BRANCH   2   4
HETATM    4  N   UNL     1      -6.840  11.813  69.260  1.00  0.00    -0.109 NA 
HETATM    5  N   UNL     1      -5.881  11.442  70.147  1.00  0.00    -0.126 NA 
HETATM    6  C   UNL     1      -5.785  10.129  69.983  1.00  0.00    -0.049 A  
HETATM    7  C   UNL     1      -6.709   9.642  69.047  1.00  0.00    -0.050 A  
HETATM    8  C   UNL     1      -7.466  10.734  68.651  1.00  0.00    -0.102 A  
BRANCH   8   9
HETATM    9  C   UNL     1      -8.719  10.806  67.890  1.00  0.00    -0.129 A  
HETATM   10  C   UNL     1     -10.017  10.724  68.409  1.00  0.00    -0.174 A  
HETATM   11  C   UNL     1      -9.538  11.326  65.771  1.00  0.00    -0.227 A  
HETATM   12  C   UNL     1     -11.086  10.935  67.513  1.00  0.00    -0.375 A  
HETATM   13  N   UNL     1      -8.483  11.112  66.585  1.00  0.00    -0.159 NA 
HETATM   14  C   UNL     1     -10.849  11.252  66.184  1.00  0.00    -0.281 A  
BRANCH  10  15
HETATM   15  C   UNL     1     -10.384  10.389  69.830  1.00  0.00    -0.182 C  
BRANCH  15  16
HETATM   16  O   UNL     1     -10.295   8.980  69.999  1.00  0.00    -0.191 OA 
BRANCH  16  17
HETATM   17  C   UNL     1      -9.960   8.459  71.217  1.00  0.00    -0.204 A  
HETATM   18  C   UNL     1      -8.949   8.974  72.040  1.00  0.00     0.072 A  
HETATM   19  C   UNL     1      -8.720   8.444  73.314  1.00  0.00    -0.198 A  
HETATM   20  C   UNL     1      -9.478   7.374  73.777  1.00  0.00    -0.328 A  
HETATM   21  C   UNL     1     -10.468   6.830  72.960  1.00  0.00    -0.254 A  
HETATM   22  O   UNL     1     -11.187   5.757  73.412  1.00  0.00    -0.449 OA 
HETATM   23  C   UNL     1     -10.723   7.368  71.686  1.00  0.00    -0.239 A  
HETATM   24  C   UNL     1     -11.814   6.755  70.878  1.00  0.00    -0.385 C  
HETATM   25  H   UNL     1     -11.861   5.386  72.856  1.00  0.00     0.000 HD 
HETATM   26  O   UNL     1     -12.072   7.036  69.714  1.00  0.00     0.060 OA 
ENDBRANCH  16  17
ENDBRANCH  15  16
ENDBRANCH  10  15
ENDBRANCH   8   9
ENDBRANCH   2   4
TORSDOF 5
ENDMDL
MODEL      299
REMARK 921   NORMALIZED FREE ENERGY PREDICTED BY IDOCK:   -3.48 KCAL/MOL
REMARK 922        TOTAL FREE ENERGY PREDICTED BY IDOCK:   -5.71 KCAL/MOL
REMARK 923 INTER-LIGAND FREE ENERGY PREDICTED BY IDOCK:   -4.65 KCAL/MOL
REMARK 924 INTRA-LIGAND FREE ENERGY PREDICTED BY IDOCK:   -1.06 KCAL/MOL
REMARK 927      BINDING AFFINITY PREDICTED BY RF-SCORE:    0.00 PKD
ROOT
HETATM    1  C   UNL     1      -7.607   5.225  65.714  1.00  0.00    -0.083 C  
HETATM    2  C   UNL     1      -8.677   5.447  66.787  1.00  0.00    -0.113 C  
HETATM    3  C   UNL     1      -9.823   4.442  66.612  1.00  0.00    -0.246 C  
ENDROOT
BRANCH   2   4
HETATM    4  N   UNL     1      -8.132   5.349  68.142  1.00  0.00    -0.095 NA 
HETATM    5  N   UNL     1      -7.771   4.118  68.586  1.00  0.00    -0.062 NA 
HETATM    6  C   UNL     1      -7.643   4.276  69.898  1.00  0.00    -0.053 A  
HETATM    7  C   UNL     1      -7.857   5.604  70.296  1.00  0.00    -0.098 A  
HETATM    8  C   UNL     1      -8.078   6.323  69.131  1.00  0.00    -0.110 A  
BRANCH   8   9
HETATM    9  C   UNL     1      -8.118   7.770  68.891  1.00  0.00    -0.126 A  
HETATM   10  C   UNL     1      -9.205   8.624  69.110  1.00  0.00    -0.152 A  
HETATM   11  C   UNL     1      -6.728   9.574  68.396  1.00  0.00    -0.058 A  
HETATM   12  C   UNL     1      -8.991  10.006  68.922  1.00  0.00    -0.152 A  
HETATM   13  N   UNL     1      -6.889   8.243  68.544  1.00  0.00    -0.063 NA 
HETATM   14  C   UNL     1      -7.739  10.491  68.575  1.00  0.00    -0.104 A  
BRANCH  10  15
HETATM   15  C   UNL     1     -10.600   8.203  69.489  1.00  0.00    -0.213 C  
BRANCH  15  16
HETATM   16  O   UNL     1     -10.870   8.666  70.806  1.00  0.00    -0.216 OA 
BRANCH  16  17
HETATM   17  C   UNL     1     -10.277   8.059  71.877  1.00  0.00    -0.214 A  
HETATM   18  C   UNL     1      -9.059   8.469  72.435  1.00  0.00    -0.308 A  
HETATM   19  C   UNL     1      -8.555   7.857  73.588  1.00  0.00    -0.316 A  
HETATM   20  C   UNL     1      -9.246   6.808  74.186  1.00  0.00    -0.234 A  
HETATM   21  C   UNL     1     -10.444   6.369  73.626  1.00  0.00    -0.295 A  
HETATM   22  O   UNL     1     -11.100   5.315  74.205  1.00  0.00    -0.423 OA 
HETATM   23  C   UNL     1     -10.972   6.990  72.481  1.00  0.00    -0.298 A  
HETATM   24  C   UNL     1     -12.272   6.487  71.954  1.00  0.00    -0.324 C  
HETATM   25  H   UNL     1     -11.917   5.015  73.824  1.00  0.00     0.000 HD 
HETATM   26  O   UNL     1     -12.794   6.847  70.906  1.00  0.00    -0.294 OA 
ENDBRANCH  16  17
ENDBRANCH  15  16
ENDBRANCH  10  15
ENDBRANCH   8   9
ENDBRANCH   2   4
TORSDOF 5
ENDMDL
MODEL      300
REMARK 921   NORMALIZED FREE ENERGY PREDICTED BY IDOCK:   -3.46 KCAL/MOL
REMARK 922        TOTAL FREE ENERGY PREDICTED BY IDOCK:   -5.68 KCAL/MOL
REMARK 923 INTER-LIGAND FREE ENERGY PREDICTED BY IDOCK:   -6.92 KCAL/MOL
REMARK 924 INTRA-LIGAND FREE ENERGY PREDICTED BY IDOCK:    1.23 KCAL/MOL
REMARK 927      BINDING AFFINITY PREDICTED BY RF-SCORE:    0.00 PKD
ROOT
HETATM    1  C   UNL     1      -9.476  16.765  66.646  1.00  0.00    -0.275 C  
HETATM    2  C   UNL     1      -8.036  16.724  67.165  1.00  0.00    -0.181 C  
HETATM    3  C   UNL     1      -7.856  17.720  68.319  1.00  0.00    -0.279 C  
ENDROOT
BRANCH   2   4
HETATM    4  N   UNL     1      -7.640  15.383  67.600  1.00  0.00    -0.150 NA 
HETATM    5  N   UNL     1      -6.342  15.025  67.429  1.00  0.00    -0.321 NA 
HETATM    6  C   UNL     1      -6.350  13.707  67.586  1.00  0.00    -0.138 A  
HETATM    7  C   UNL     1      -7.624  13.220  67.916  1.00  0.00    -0.152 A  
HETATM    8  C   UNL     1      -8.445  14.333  68.023  1.00  0.00    -0.164 A  
BRANCH   8   9
HETATM    9  C   UNL     1      -9.798  14.477  68.572  1.00  0.00    -0.231 A  
HETATM   10  C   UNL     1     -10.928  13.733  68.213  1.00  0.00    -0.269 A  
HETATM   11  C   UNL     1     -10.961  15.519  70.302  1.00  0.00    -0.334 A  
HETATM   12  C   UNL     1     -12.110  13.956  68.952  1.00  0.00    -0.355 A  
HETATM   13  N   UNL     1      -9.813  15.356  69.612  1.00  0.00    -0.272 NA 
HETATM   14  C   UNL     1     -12.127  14.846  70.015  1.00  0.00    -0.387 A  
BRANCH  10  15
HETATM   15  C   UNL     1     -11.016  12.745  67.082  1.00  0.00    -0.263 C  
BRANCH  15  16
HETATM   16  O   UNL     1     -11.935  11.723  67.445  1.00  0.00    -0.617 OA 
BRANCH  16  17
HETATM   17  C   UNL     1     -11.660  10.901  68.501  1.00  0.00    -0.290 A  
HETATM   18  C   UNL     1     -12.142  11.107  69.801  1.00  0.00    -0.414 A  
HETATM   19  C   UNL     1     -11.893  10.176  70.815  1.00  0.00    -0.443 A  
HETATM   20  C   UNL     1     -11.136   9.038  70.554  1.00  0.00    -0.297 A  
HETATM   21  C   UNL     1     -10.624   8.834  69.274  1.00  0.00    -0.197 A  
HETATM   22  O   UNL     1      -9.854   7.727  69.037  1.00  0.00    -0.163 OA 
HETATM   23  C   UNL     1     -10.886   9.750  68.241  1.00  0.00    -0.256 A  
HETATM   24  C   UNL     1     -10.330   9.454  66.891  1.00  0.00    -0.238 C  
HETATM   25  H   UNL     1      -9.505   7.587  68.164  1.00  0.00     0.000 HD 
HETATM   26  O   UNL     1     -10.375  10.210  65.929  1.00  0.00    -0.229 OA 
ENDBRANCH  16  17
ENDBRANCH  15  16
ENDBRANCH  10  15
ENDBRANCH   8   9
ENDBRANCH   2   4
TORSDOF 5
ENDMDL
MODEL      301
REMARK 921   NORMALIZED FREE ENERGY PREDICTED BY IDOCK:   -3.46 KCAL/MOL
REMARK 922        TOTAL FREE ENERGY PREDICTED BY IDOCK:   -5.68 KCAL/MOL
REMARK 923 INTER-LIGAND FREE ENERGY PREDICTED BY IDOCK:   -5.32 KCAL/MOL
REMARK 924 INTRA-LIGAND FREE ENERGY PREDICTED BY IDOCK:   -0.36 KCAL/MOL
REMARK 927      BINDING AFFINITY PREDICTED BY RF-SCORE:    0.00 PKD
ROOT
HETATM    1  C   UNL     1      -6.451  12.695  69.705  1.00  0.00    -0.050 C  
HETATM    2  C   UNL     1      -6.812  12.381  68.250  1.00  0.00    -0.080 C  
HETATM    3  C   UNL     1      -5.554  12.410  67.372  1.00  0.00    -0.126 C  
ENDROOT
BRANCH   2   4
HETATM    4  N   UNL     1      -7.485  11.088  68.112  1.00  0.00    -0.089 NA 
HETATM    5  N   UNL     1      -6.717   9.970  68.171  1.00  0.00    -0.059 NA 
HETATM    6  C   UNL     1      -7.505   9.014  67.695  1.00  0.00    -0.085 A  
HETATM    7  C   UNL     1      -8.789   9.489  67.387  1.00  0.00    -0.134 A  
HETATM    8  C   UNL     1      -8.802  10.826  67.756  1.00  0.00    -0.130 A  
BRANCH   8   9
HETATM    9  C   UNL     1      -9.917  11.770  67.900  1.00  0.00    -0.181 A  
HETATM   10  C   UNL     1     -10.521  12.511  66.878  1.00  0.00    -0.244 A  
HETATM   11  C   UNL     1     -11.518  12.478  69.439  1.00  0.00    -0.263 A  
HETATM   12  C   UNL     1     -11.658  13.274  67.218  1.00  0.00    -0.404 A  
HETATM   13  N   UNL     1     -10.415  11.748  69.167  1.00  0.00    -0.094 NA 
HETATM   14  C   UNL     1     -12.172  13.250  68.506  1.00  0.00    -0.104 A  
BRANCH  10  15
HETATM   15  C   UNL     1     -10.047  12.606  65.453  1.00  0.00    -0.261 C  
BRANCH  15  16
HETATM   16  O   UNL     1     -10.294  13.924  64.981  1.00  0.00    -0.370 OA 
BRANCH  16  17
HETATM   17  C   UNL     1      -9.803  14.998  65.668  1.00  0.00    -0.345 A  
HETATM   18  C   UNL     1      -8.781  14.917  66.624  1.00  0.00    -0.262 A  
HETATM   19  C   UNL     1      -8.266  16.071  67.224  1.00  0.00    -0.209 A  
HETATM   20  C   UNL     1      -8.782  17.322  66.900  1.00  0.00    -0.261 A  
HETATM   21  C   UNL     1      -9.819  17.417  65.974  1.00  0.00    -0.183 A  
HETATM   22  O   UNL     1     -10.340  18.650  65.686  1.00  0.00    -0.572 OA 
HETATM   23  C   UNL     1     -10.329  16.267  65.347  1.00  0.00    -0.320 A  
HETATM   24  C   UNL     1     -11.418  16.446  64.346  1.00  0.00     0.003 C  
HETATM   25  H   UNL     1     -11.047  18.715  65.055  1.00  0.00     0.000 HD 
HETATM   26  O   UNL     1     -12.039  15.537  63.809  1.00  0.00    -0.495 OA 
ENDBRANCH  16  17
ENDBRANCH  15  16
ENDBRANCH  10  15
ENDBRANCH   8   9
ENDBRANCH   2   4
TORSDOF 5
ENDMDL
MODEL      302
REMARK 921   NORMALIZED FREE ENERGY PREDICTED BY IDOCK:   -3.44 KCAL/MOL
REMARK 922        TOTAL FREE ENERGY PREDICTED BY IDOCK:   -5.66 KCAL/MOL
REMARK 923 INTER-LIGAND FREE ENERGY PREDICTED BY IDOCK:   -5.60 KCAL/MOL
REMARK 924 INTRA-LIGAND FREE ENERGY PREDICTED BY IDOCK:   -0.06 KCAL/MOL
REMARK 927      BINDING AFFINITY PREDICTED BY RF-SCORE:    0.00 PKD
ROOT
HETATM    1  C   UNL     1     -12.096  15.833  70.290  1.00  0.00    -0.371 C  
HETATM    2  C   UNL     1     -11.521  14.433  70.055  1.00  0.00    -0.238 C  
HETATM    3  C   UNL     1     -12.289  13.395  70.884  1.00  0.00    -0.436 C  
ENDROOT
BRANCH   2   4
HETATM    4  N   UNL     1     -11.542  14.055  68.641  1.00  0.00    -0.302 NA 
HETATM    5  N   UNL     1     -11.755  15.039  67.730  1.00  0.00    -0.324 NA 
HETATM    6  C   UNL     1     -12.051  14.385  66.614  1.00  0.00    -0.367 A  
HETATM    7  C   UNL     1     -11.973  12.994  66.778  1.00  0.00    -0.434 A  
HETATM    8  C   UNL     1     -11.541  12.784  68.079  1.00  0.00    -0.341 A  
BRANCH   8   9
HETATM    9  C   UNL     1     -11.047  11.572  68.742  1.00  0.00    -0.233 A  
HETATM   10  C   UNL     1      -9.709  11.219  68.950  1.00  0.00    -0.141 A  
HETATM   11  C   UNL     1     -11.781   9.767  70.021  1.00  0.00    -0.074 A  
HETATM   12  C   UNL     1      -9.456  10.061  69.715  1.00  0.00    -0.239 A  
HETATM   13  N   UNL     1     -12.073  10.855  69.279  1.00  0.00    -0.363 NA 
HETATM   14  C   UNL     1     -10.498   9.333  70.268  1.00  0.00    -0.271 A  
BRANCH  10  15
HETATM   15  C   UNL     1      -8.507  11.938  68.398  1.00  0.00    -0.155 C  
BRANCH  15  16
HETATM   16  O   UNL     1      -8.514  11.809  66.982  1.00  0.00    -0.162 OA 
BRANCH  16  17
HETATM   17  C   UNL     1      -8.297  10.589  66.407  1.00  0.00    -0.145 A  
HETATM   18  C   UNL     1      -9.293   9.620  66.223  1.00  0.00    -0.238 A  
HETATM   19  C   UNL     1      -9.018   8.427  65.546  1.00  0.00    -0.149 A  
HETATM   20  C   UNL     1      -7.738   8.171  65.065  1.00  0.00    -0.113 A  
HETATM   21  C   UNL     1      -6.729   9.111  65.265  1.00  0.00    -0.069 A  
HETATM   22  O   UNL     1      -5.466   8.835  64.816  1.00  0.00    -0.042 OA 
HETATM   23  C   UNL     1      -6.998  10.323  65.925  1.00  0.00    -0.126 A  
HETATM   24  C   UNL     1      -5.878  11.294  66.079  1.00  0.00    -0.018 C  
HETATM   25  H   UNL     1      -4.778   9.475  64.953  1.00  0.00     0.000 HD 
HETATM   26  O   UNL     1      -5.929  12.331  66.728  1.00  0.00    -0.252 OA 
ENDBRANCH  16  17
ENDBRANCH  15  16
ENDBRANCH  10  15
ENDBRANCH   8   9
ENDBRANCH   2   4
TORSDOF 5
ENDMDL
MODEL      303
REMARK 921   NORMALIZED FREE ENERGY PREDICTED BY IDOCK:   -3.43 KCAL/MOL
REMARK 922        TOTAL FREE ENERGY PREDICTED BY IDOCK:   -5.64 KCAL/MOL
REMARK 923 INTER-LIGAND FREE ENERGY PREDICTED BY IDOCK:   -6.44 KCAL/MOL
REMARK 924 INTRA-LIGAND FREE ENERGY PREDICTED BY IDOCK:    0.80 KCAL/MOL
REMARK 927      BINDING AFFINITY PREDICTED BY RF-SCORE:    0.00 PKD
ROOT
HETATM    1  C   UNL     1     -12.039  15.790  72.672  1.00  0.00    -0.591 C  
HETATM    2  C   UNL     1     -12.020  15.171  71.271  1.00  0.00    -0.344 C  
HETATM    3  C   UNL     1     -10.587  15.137  70.723  1.00  0.00    -0.010 C  
ENDROOT
BRANCH   2   4
HETATM    4  N   UNL     1     -12.591  13.823  71.253  1.00  0.00    -0.358 NA 
HETATM    5  N   UNL     1     -13.283  13.419  72.349  1.00  0.00    -0.483 NA 
HETATM    6  C   UNL     1     -13.383  12.104  72.198  1.00  0.00    -0.333 A  
HETATM    7  C   UNL     1     -12.819  11.664  70.991  1.00  0.00    -0.339 A  
HETATM    8  C   UNL     1     -12.392  12.805  70.329  1.00  0.00    -0.204 A  
BRANCH   8   9
HETATM    9  C   UNL     1     -11.953  13.001  68.942  1.00  0.00    -0.263 A  
HETATM   10  C   UNL     1     -11.542  12.006  68.047  1.00  0.00    -0.407 A  
HETATM   11  C   UNL     1     -11.873  14.620  67.268  1.00  0.00    -0.351 A  
HETATM   12  C   UNL     1     -11.272  12.401  66.720  1.00  0.00    -0.363 A  
HETATM   13  N   UNL     1     -12.124  14.295  68.553  1.00  0.00    -0.305 NA 
HETATM   14  C   UNL     1     -11.451  13.716  66.319  1.00  0.00    -0.352 A  
BRANCH  10  15
HETATM   15  C   UNL     1     -11.319  10.555  68.378  1.00  0.00    -0.262 C  
BRANCH  15  16
HETATM   16  O   UNL     1      -9.929  10.348  68.592  1.00  0.00    -0.163 OA 
BRANCH  16  17
HETATM   17  C   UNL     1      -9.296   9.295  67.995  1.00  0.00    -0.133 A  
HETATM   18  C   UNL     1      -9.444   8.954  66.644  1.00  0.00    -0.261 A  
HETATM   19  C   UNL     1      -8.696   7.916  66.079  1.00  0.00    -0.182 A  
HETATM   20  C   UNL     1      -7.807   7.184  66.859  1.00  0.00    -0.107 A  
HETATM   21  C   UNL     1      -7.670   7.490  68.212  1.00  0.00    -0.120 A  
HETATM   22  O   UNL     1      -6.817   6.743  68.979  1.00  0.00    -0.063 OA 
HETATM   23  C   UNL     1      -8.400   8.546  68.787  1.00  0.00    -0.122 A  
HETATM   24  C   UNL     1      -8.182   8.835  70.232  1.00  0.00    -0.119 C  
HETATM   25  H   UNL     1      -6.723   6.952  69.901  1.00  0.00     0.000 HD 
HETATM   26  O   UNL     1      -8.826   9.640  70.894  1.00  0.00    -0.206 OA 
ENDBRANCH  16  17
ENDBRANCH  15  16
ENDBRANCH  10  15
ENDBRANCH   8   9
ENDBRANCH   2   4
TORSDOF 5
ENDMDL
MODEL      304
REMARK 921   NORMALIZED FREE ENERGY PREDICTED BY IDOCK:   -3.40 KCAL/MOL
REMARK 922        TOTAL FREE ENERGY PREDICTED BY IDOCK:   -5.61 KCAL/MOL
REMARK 923 INTER-LIGAND FREE ENERGY PREDICTED BY IDOCK:   -4.51 KCAL/MOL
REMARK 924 INTRA-LIGAND FREE ENERGY PREDICTED BY IDOCK:   -1.10 KCAL/MOL
REMARK 927      BINDING AFFINITY PREDICTED BY RF-SCORE:    0.00 PKD
ROOT
HETATM    1  C   UNL     1     -10.088   4.183  65.531  1.00  0.00    -0.198 C  
HETATM    2  C   UNL     1      -8.985   3.251  66.040  1.00  0.00    -0.145 C  
HETATM    3  C   UNL     1      -8.617   2.223  64.961  1.00  0.00    -0.108 C  
ENDROOT
BRANCH   2   4
HETATM    4  N   UNL     1      -7.788   3.984  66.457  1.00  0.00    -0.093 NA 
HETATM    5  N   UNL     1      -6.769   4.082  65.565  1.00  0.00    -0.051 NA 
HETATM    6  C   UNL     1      -5.737   4.479  66.299  1.00  0.00    -0.022 A  
HETATM    7  C   UNL     1      -6.092   4.696  67.639  1.00  0.00    -0.028 A  
HETATM    8  C   UNL     1      -7.458   4.467  67.716  1.00  0.00    -0.073 A  
BRANCH   8   9
HETATM    9  C   UNL     1      -8.421   4.767  68.782  1.00  0.00    -0.081 A  
HETATM   10  C   UNL     1      -9.242   5.897  68.872  1.00  0.00    -0.126 A  
HETATM   11  C   UNL     1      -9.467   3.790  70.621  1.00  0.00    -0.170 A  
HETATM   12  C   UNL     1     -10.183   5.931  69.923  1.00  0.00    -0.280 A  
HETATM   13  N   UNL     1      -8.538   3.720  69.645  1.00  0.00    -0.066 NA 
HETATM   14  C   UNL     1     -10.309   4.864  70.800  1.00  0.00    -0.228 A  
BRANCH  10  15
HETATM   15  C   UNL     1      -9.189   7.105  67.975  1.00  0.00    -0.130 C  
BRANCH  15  16
HETATM   16  O   UNL     1     -10.367   7.873  68.180  1.00  0.00    -0.199 OA 
BRANCH  16  17
HETATM   17  C   UNL     1     -10.478   9.115  67.622  1.00  0.00    -0.261 A  
HETATM   18  C   UNL     1     -10.122   9.416  66.300  1.00  0.00    -0.328 A  
HETATM   19  C   UNL     1     -10.346  10.690  65.768  1.00  0.00    -0.287 A  
HETATM   20  C   UNL     1     -10.903  11.692  66.555  1.00  0.00    -0.328 A  
HETATM   21  C   UNL     1     -11.235  11.419  67.881  1.00  0.00    -0.288 A  
HETATM   22  O   UNL     1     -11.753  12.421  68.656  1.00  0.00    -0.292 OA 
HETATM   23  C   UNL     1     -11.036  10.136  68.421  1.00  0.00    -0.293 A  
HETATM   24  C   UNL     1     -11.440   9.907  69.836  1.00  0.00    -0.179 C  
HETATM   25  H   UNL     1     -11.980  12.235  69.559  1.00  0.00     0.000 HD 
HETATM   26  O   UNL     1     -11.222   8.885  70.475  1.00  0.00    -0.254 OA 
ENDBRANCH  16  17
ENDBRANCH  15  16
ENDBRANCH  10  15
ENDBRANCH   8   9
ENDBRANCH   2   4
TORSDOF 5
ENDMDL
MODEL      305
REMARK 921   NORMALIZED FREE ENERGY PREDICTED BY IDOCK:   -3.39 KCAL/MOL
REMARK 922        TOTAL FREE ENERGY PREDICTED BY IDOCK:   -5.60 KCAL/MOL
REMARK 923 INTER-LIGAND FREE ENERGY PREDICTED BY IDOCK:   -4.55 KCAL/MOL
REMARK 924 INTRA-LIGAND FREE ENERGY PREDICTED BY IDOCK:   -1.04 KCAL/MOL
REMARK 927      BINDING AFFINITY PREDICTED BY RF-SCORE:    0.00 PKD
ROOT
HETATM    1  C   UNL     1     -11.779  14.406  70.286  1.00  0.00    -0.355 C  
HETATM    2  C   UNL     1     -11.370  14.734  68.847  1.00  0.00    -0.282 C  
HETATM    3  C   UNL     1     -11.917  16.108  68.437  1.00  0.00     0.196 C  
ENDROOT
BRANCH   2   4
HETATM    4  N   UNL     1      -9.918  14.701  68.661  1.00  0.00    -0.230 NA 
HETATM    5  N   UNL     1      -9.172  15.571  69.389  1.00  0.00    -0.272 NA 
HETATM    6  C   UNL     1      -7.987  15.554  68.791  1.00  0.00    -0.163 A  
HETATM    7  C   UNL     1      -7.942  14.640  67.728  1.00  0.00    -0.166 A  
HETATM    8  C   UNL     1      -9.177  14.011  67.710  1.00  0.00    -0.195 A  
BRANCH   8   9
HETATM    9  C   UNL     1      -9.633  12.813  66.994  1.00  0.00    -0.229 A  
HETATM   10  C   UNL     1      -9.922  11.564  67.556  1.00  0.00    -0.207 A  
HETATM   11  C   UNL     1     -10.421  12.123  64.913  1.00  0.00    -0.288 A  
HETATM   12  C   UNL     1     -10.460  10.579  66.702  1.00  0.00    -0.290 A  
HETATM   13  N   UNL     1      -9.887  13.091  65.686  1.00  0.00    -0.218 NA 
HETATM   14  C   UNL     1     -10.726  10.861  65.370  1.00  0.00    -0.189 A  
BRANCH  10  15
HETATM   15  C   UNL     1      -9.675  11.156  68.984  1.00  0.00    -0.096 C  
BRANCH  15  16
HETATM   16  O   UNL     1     -10.194   9.847  69.177  1.00  0.00    -0.183 OA 
BRANCH  16  17
HETATM   17  C   UNL     1      -9.474   8.924  69.882  1.00  0.00    -0.170 A  
HETATM   18  C   UNL     1      -8.427   8.166  69.340  1.00  0.00    -0.127 A  
HETATM   19  C   UNL     1      -7.674   7.304  70.145  1.00  0.00    -0.091 A  
HETATM   20  C   UNL     1      -7.972   7.164  71.496  1.00  0.00    -0.102 A  
HETATM   21  C   UNL     1      -9.029   7.888  72.044  1.00  0.00    -0.141 A  
HETATM   22  O   UNL     1      -9.334   7.719  73.368  1.00  0.00    -0.239 OA 
HETATM   23  C   UNL     1      -9.779   8.775  71.251  1.00  0.00    -0.335 A  
HETATM   24  C   UNL     1     -10.877   9.537  71.910  1.00  0.00     0.173 C  
HETATM   25  H   UNL     1     -10.055   8.212  73.741  1.00  0.00     0.000 HD 
HETATM   26  O   UNL     1     -11.684  10.252  71.329  1.00  0.00    -0.354 OA 
ENDBRANCH  16  17
ENDBRANCH  15  16
ENDBRANCH  10  15
ENDBRANCH   8   9
ENDBRANCH   2   4
TORSDOF 5
ENDMDL
MODEL      306
REMARK 921   NORMALIZED FREE ENERGY PREDICTED BY IDOCK:   -3.38 KCAL/MOL
REMARK 922        TOTAL FREE ENERGY PREDICTED BY IDOCK:   -5.58 KCAL/MOL
REMARK 923 INTER-LIGAND FREE ENERGY PREDICTED BY IDOCK:   -5.34 KCAL/MOL
REMARK 924 INTRA-LIGAND FREE ENERGY PREDICTED BY IDOCK:   -0.24 KCAL/MOL
REMARK 927      BINDING AFFINITY PREDICTED BY RF-SCORE:    0.00 PKD
ROOT
HETATM    1  C   UNL     1      -8.302   8.137  63.824  1.00  0.00     0.005 C  
HETATM    2  C   UNL     1      -7.933   9.463  64.496  1.00  0.00    -0.126 C  
HETATM    3  C   UNL     1      -6.714  10.088  63.807  1.00  0.00    -0.128 C  
ENDROOT
BRANCH   2   4
HETATM    4  N   UNL     1      -9.047  10.414  64.495  1.00  0.00    -0.210 NA 
HETATM    5  N   UNL     1      -9.892  10.390  63.433  1.00  0.00    -0.267 NA 
HETATM    6  C   UNL     1     -10.565  11.530  63.533  1.00  0.00    -0.423 A  
HETATM    7  C   UNL     1     -10.207  12.258  64.677  1.00  0.00    -0.311 A  
HETATM    8  C   UNL     1      -9.285  11.476  65.357  1.00  0.00    -0.108 A  
BRANCH   8   9
HETATM    9  C   UNL     1      -8.747  11.593  66.718  1.00  0.00    -0.189 A  
HETATM   10  C   UNL     1      -9.314  11.074  67.888  1.00  0.00    -0.160 A  
HETATM   11  C   UNL     1      -6.830  12.249  67.869  1.00  0.00    -0.093 A  
HETATM   12  C   UNL     1      -8.569  11.202  69.079  1.00  0.00    -0.033 A  
HETATM   13  N   UNL     1      -7.513  12.168  66.708  1.00  0.00    -0.008 NA 
HETATM   14  C   UNL     1      -7.310  11.782  69.072  1.00  0.00    -0.055 A  
BRANCH  10  15
HETATM   15  C   UNL     1     -10.668  10.427  68.005  1.00  0.00    -0.249 C  
BRANCH  15  16
HETATM   16  O   UNL     1     -11.663  11.412  67.758  1.00  0.00    -0.533 OA 
BRANCH  16  17
HETATM   17  C   UNL     1     -11.595  12.623  68.388  1.00  0.00    -0.328 A  
HETATM   18  C   UNL     1     -11.068  13.783  67.803  1.00  0.00    -0.288 A  
HETATM   19  C   UNL     1     -11.113  15.009  68.475  1.00  0.00    -0.279 A  
HETATM   20  C   UNL     1     -11.659  15.092  69.751  1.00  0.00    -0.338 A  
HETATM   21  C   UNL     1     -12.160  13.942  70.359  1.00  0.00    -0.351 A  
HETATM   22  O   UNL     1     -12.666  14.029  71.628  1.00  0.00    -0.324 OA 
HETATM   23  C   UNL     1     -12.142  12.708  69.686  1.00  0.00    -0.277 A  
HETATM   24  C   UNL     1     -12.720  11.526  70.385  1.00  0.00    -0.059 C  
HETATM   25  H   UNL     1     -13.008  13.246  72.043  1.00  0.00     0.000 HD 
HETATM   26  O   UNL     1     -12.670  10.373  69.977  1.00  0.00    -0.211 OA 
ENDBRANCH  16  17
ENDBRANCH  15  16
ENDBRANCH  10  15
ENDBRANCH   8   9
ENDBRANCH   2   4
TORSDOF 5
ENDMDL
MODEL      307
REMARK 921   NORMALIZED FREE ENERGY PREDICTED BY IDOCK:   -3.35 KCAL/MOL
REMARK 922        TOTAL FREE ENERGY PREDICTED BY IDOCK:   -5.54 KCAL/MOL
REMARK 923 INTER-LIGAND FREE ENERGY PREDICTED BY IDOCK:   -4.36 KCAL/MOL
REMARK 924 INTRA-LIGAND FREE ENERGY PREDICTED BY IDOCK:   -1.18 KCAL/MOL
REMARK 927      BINDING AFFINITY PREDICTED BY RF-SCORE:    0.00 PKD
ROOT
HETATM    1  C   UNL     1     -10.706   8.142  72.528  1.00  0.00    -0.419 C  
HETATM    2  C   UNL     1     -11.842   8.396  71.533  1.00  0.00    -0.297 C  
HETATM    3  C   UNL     1     -13.087   8.912  72.267  1.00  0.00    -0.491 C  
ENDROOT
BRANCH   2   4
HETATM    4  N   UNL     1     -11.457   9.341  70.482  1.00  0.00    -0.265 NA 
HETATM    5  N   UNL     1     -11.735  10.654  70.685  1.00  0.00    -0.342 NA 
HETATM    6  C   UNL     1     -11.596  11.201  69.484  1.00  0.00    -0.321 A  
HETATM    7  C   UNL     1     -11.173  10.270  68.523  1.00  0.00    -0.271 A  
HETATM    8  C   UNL     1     -10.987   9.075  69.203  1.00  0.00    -0.001 A  
BRANCH   8   9
HETATM    9  C   UNL     1     -10.331   7.829  68.789  1.00  0.00    -0.204 A  
HETATM   10  C   UNL     1      -8.985   7.491  68.977  1.00  0.00    -0.131 A  
HETATM   11  C   UNL     1     -10.812   5.698  67.978  1.00  0.00    -0.076 A  
HETATM   12  C   UNL     1      -8.587   6.190  68.606  1.00  0.00    -0.113 A  
HETATM   13  N   UNL     1     -11.236   6.938  68.300  1.00  0.00    -0.058 NA 
HETATM   14  C   UNL     1      -9.508   5.277  68.113  1.00  0.00    -0.151 A  
BRANCH  10  15
HETATM   15  C   UNL     1      -7.908   8.402  69.503  1.00  0.00    -0.102 C  
BRANCH  15  16
HETATM   16  O   UNL     1      -7.692   9.440  68.557  1.00  0.00    -0.084 OA 
BRANCH  16  17
HETATM   17  C   UNL     1      -6.853   9.235  67.498  1.00  0.00    -0.077 A  
HETATM   18  C   UNL     1      -5.906   8.203  67.437  1.00  0.00    -0.043 A  
HETATM   19  C   UNL     1      -5.141   7.999  66.284  1.00  0.00    -0.025 A  
HETATM   20  C   UNL     1      -5.289   8.837  65.184  1.00  0.00    -0.038 A  
HETATM   21  C   UNL     1      -6.205   9.886  65.239  1.00  0.00    -0.093 A  
HETATM   22  O   UNL     1      -6.320  10.724  64.163  1.00  0.00    -0.367 OA 
HETATM   23  C   UNL     1      -6.996  10.088  66.384  1.00  0.00    -0.101 A  
HETATM   24  C   UNL     1      -7.974  11.212  66.363  1.00  0.00    -0.147 C  
HETATM   25  H   UNL     1      -6.945  11.439  64.201  1.00  0.00     0.000 HD 
HETATM   26  O   UNL     1      -8.643  11.581  67.320  1.00  0.00    -0.141 OA 
ENDBRANCH  16  17
ENDBRANCH  15  16
ENDBRANCH  10  15
ENDBRANCH   8   9
ENDBRANCH   2   4
TORSDOF 5
ENDMDL
MODEL      308
REMARK 921   NORMALIZED FREE ENERGY PREDICTED BY IDOCK:   -3.35 KCAL/MOL
REMARK 922        TOTAL FREE ENERGY PREDICTED BY IDOCK:   -5.54 KCAL/MOL
REMARK 923 INTER-LIGAND FREE ENERGY PREDICTED BY IDOCK:   -4.30 KCAL/MOL
REMARK 924 INTRA-LIGAND FREE ENERGY PREDICTED BY IDOCK:   -1.24 KCAL/MOL
REMARK 927      BINDING AFFINITY PREDICTED BY RF-SCORE:    0.00 PKD
ROOT
HETATM    1  C   UNL     1      -9.475   5.972  67.527  1.00  0.00    -0.113 C  
HETATM    2  C   UNL     1      -9.787   7.412  67.946  1.00  0.00    -0.148 C  
HETATM    3  C   UNL     1     -10.822   7.424  69.079  1.00  0.00    -0.108 C  
ENDROOT
BRANCH   2   4
HETATM    4  N   UNL     1      -8.588   8.142  68.361  1.00  0.00    -0.130 NA 
HETATM    5  N   UNL     1      -8.036   7.815  69.558  1.00  0.00    -0.114 NA 
HETATM    6  C   UNL     1      -7.210   8.822  69.815  1.00  0.00    -0.051 A  
HETATM    7  C   UNL     1      -7.177   9.761  68.773  1.00  0.00    -0.072 A  
HETATM    8  C   UNL     1      -8.005   9.261  67.779  1.00  0.00    -0.100 A  
BRANCH   8   9
HETATM    9  C   UNL     1      -8.177   9.668  66.380  1.00  0.00    -0.119 A  
HETATM   10  C   UNL     1      -8.983  10.709  65.906  1.00  0.00    -0.192 A  
HETATM   11  C   UNL     1      -7.280   9.320  64.257  1.00  0.00    -0.101 A  
HETATM   12  C   UNL     1      -8.913  11.007  64.529  1.00  0.00    -0.067 A  
HETATM   13  N   UNL     1      -7.328   8.985  65.563  1.00  0.00    -0.085 NA 
HETATM   14  C   UNL     1      -8.045  10.317  63.696  1.00  0.00    -0.149 A  
BRANCH  10  15
HETATM   15  C   UNL     1      -9.955  11.519  66.722  1.00  0.00    -0.208 C  
BRANCH  15  16
HETATM   16  O   UNL     1      -9.812  12.888  66.368  1.00  0.00    -0.256 OA 
BRANCH  16  17
HETATM   17  C   UNL     1      -9.305  13.778  67.273  1.00  0.00    -0.239 A  
HETATM   18  C   UNL     1      -7.974  13.779  67.710  1.00  0.00    -0.170 A  
HETATM   19  C   UNL     1      -7.501  14.775  68.571  1.00  0.00    -0.117 A  
HETATM   20  C   UNL     1      -8.356  15.771  69.030  1.00  0.00    -0.236 A  
HETATM   21  C   UNL     1      -9.691  15.767  68.629  1.00  0.00    -0.205 A  
HETATM   22  O   UNL     1     -10.532  16.734  69.112  1.00  0.00    -0.307 OA 
HETATM   23  C   UNL     1     -10.173  14.785  67.746  1.00  0.00    -0.232 A  
HETATM   24  C   UNL     1     -11.604  14.859  67.337  1.00  0.00    -0.332 C  
HETATM   25  H   UNL     1     -11.442  16.732  68.838  1.00  0.00     0.000 HD 
HETATM   26  O   UNL     1     -12.191  14.014  66.673  1.00  0.00    -0.442 OA 
ENDBRANCH  16  17
ENDBRANCH  15  16
ENDBRANCH  10  15
ENDBRANCH   8   9
ENDBRANCH   2   4
TORSDOF 5
ENDMDL
MODEL      309
REMARK 921   NORMALIZED FREE ENERGY PREDICTED BY IDOCK:   -3.33 KCAL/MOL
REMARK 922        TOTAL FREE ENERGY PREDICTED BY IDOCK:   -5.51 KCAL/MOL
REMARK 923 INTER-LIGAND FREE ENERGY PREDICTED BY IDOCK:   -4.51 KCAL/MOL
REMARK 924 INTRA-LIGAND FREE ENERGY PREDICTED BY IDOCK:   -1.01 KCAL/MOL
REMARK 927      BINDING AFFINITY PREDICTED BY RF-SCORE:    0.00 PKD
ROOT
HETATM    1  C   UNL     1      -9.045   5.874  72.162  1.00  0.00    -0.145 C  
HETATM    2  C   UNL     1      -9.193   7.398  72.144  1.00  0.00    -0.132 C  
HETATM    3  C   UNL     1      -9.195   7.950  73.576  1.00  0.00    -0.340 C  
ENDROOT
BRANCH   2   4
HETATM    4  N   UNL     1      -8.140   8.049  71.362  1.00  0.00    -0.100 NA 
HETATM    5  N   UNL     1      -7.039   8.482  72.029  1.00  0.00    -0.125 NA 
HETATM    6  C   UNL     1      -6.442   9.296  71.167  1.00  0.00    -0.083 A  
HETATM    7  C   UNL     1      -7.110   9.346  69.935  1.00  0.00    -0.075 A  
HETATM    8  C   UNL     1      -8.164   8.451  70.033  1.00  0.00    -0.121 A  
BRANCH   8   9
HETATM    9  C   UNL     1      -9.052   7.898  69.003  1.00  0.00    -0.144 A  
HETATM   10  C   UNL     1     -10.056   8.585  68.310  1.00  0.00    -0.225 A  
HETATM   11  C   UNL     1      -9.340   6.011  67.666  1.00  0.00    -0.112 A  
HETATM   12  C   UNL     1     -10.717   7.892  67.274  1.00  0.00    -0.299 A  
HETATM   13  N   UNL     1      -8.693   6.626  68.679  1.00  0.00    -0.124 NA 
HETATM   14  C   UNL     1     -10.350   6.597  66.937  1.00  0.00    -0.324 A  
BRANCH  10  15
HETATM   15  C   UNL     1     -10.529   9.985  68.593  1.00  0.00    -0.204 C  
BRANCH  15  16
HETATM   16  O   UNL     1     -10.222  10.802  67.471  1.00  0.00    -0.183 OA 
BRANCH  16  17
HETATM   17  C   UNL     1      -9.223  11.731  67.556  1.00  0.00    -0.175 A  
HETATM   18  C   UNL     1      -7.865  11.442  67.367  1.00  0.00    -0.135 A  
HETATM   19  C   UNL     1      -6.906  12.460  67.381  1.00  0.00    -0.147 A  
HETATM   20  C   UNL     1      -7.283  13.779  67.612  1.00  0.00    -0.183 A  
HETATM   21  C   UNL     1      -8.626  14.079  67.833  1.00  0.00    -0.181 A  
HETATM   22  O   UNL     1      -8.983  15.375  68.091  1.00  0.00    -0.172 OA 
HETATM   23  C   UNL     1      -9.603  13.068  67.798  1.00  0.00    -0.208 A  
HETATM   24  C   UNL     1     -11.022  13.466  68.014  1.00  0.00    -0.244 C  
HETATM   25  H   UNL     1      -9.898  15.580  68.241  1.00  0.00     0.000 HD 
HETATM   26  O   UNL     1     -11.962  12.688  68.129  1.00  0.00    -0.322 OA 
ENDBRANCH  16  17
ENDBRANCH  15  16
ENDBRANCH  10  15
ENDBRANCH   8   9
ENDBRANCH   2   4
TORSDOF 5
ENDMDL
MODEL      310
REMARK 921   NORMALIZED FREE ENERGY PREDICTED BY IDOCK:   -3.32 KCAL/MOL
REMARK 922        TOTAL FREE ENERGY PREDICTED BY IDOCK:   -5.50 KCAL/MOL
REMARK 923 INTER-LIGAND FREE ENERGY PREDICTED BY IDOCK:   -5.36 KCAL/MOL
REMARK 924 INTRA-LIGAND FREE ENERGY PREDICTED BY IDOCK:   -0.14 KCAL/MOL
REMARK 927      BINDING AFFINITY PREDICTED BY RF-SCORE:    0.00 PKD
ROOT
HETATM    1  C   UNL     1     -10.413  17.973  66.436  1.00  0.00    -0.345 C  
HETATM    2  C   UNL     1      -9.911  16.579  66.820  1.00  0.00    -0.276 C  
HETATM    3  C   UNL     1      -8.517  16.670  67.454  1.00  0.00    -0.204 C  
ENDROOT
BRANCH   2   4
HETATM    4  N   UNL     1     -10.827  15.891  67.733  1.00  0.00    -0.319 NA 
HETATM    5  N   UNL     1     -11.367  16.616  68.745  1.00  0.00    -0.222 NA 
HETATM    6  C   UNL     1     -11.858  15.699  69.570  1.00  0.00    -0.372 A  
HETATM    7  C   UNL     1     -11.696  14.398  69.073  1.00  0.00    -0.345 A  
HETATM    8  C   UNL     1     -11.110  14.534  67.823  1.00  0.00    -0.285 A  
BRANCH   8   9
HETATM    9  C   UNL     1     -10.925  13.562  66.740  1.00  0.00    -0.292 A  
HETATM   10  C   UNL     1      -9.725  12.945  66.367  1.00  0.00    -0.263 A  
HETATM   11  C   UNL     1     -12.136  12.229  65.260  1.00  0.00    -0.297 A  
HETATM   12  C   UNL     1      -9.791  11.949  65.370  1.00  0.00    -0.258 A  
HETATM   13  N   UNL     1     -12.120  13.201  66.196  1.00  0.00    -0.421 NA 
HETATM   14  C   UNL     1     -11.007  11.576  64.818  1.00  0.00    -0.338 A  
BRANCH  10  15
HETATM   15  C   UNL     1      -8.356  13.273  66.902  1.00  0.00    -0.003 C  
BRANCH  15  16
HETATM   16  O   UNL     1      -8.086  12.420  68.006  1.00  0.00    -0.141 OA 
BRANCH  16  17
HETATM   17  C   UNL     1      -8.301  11.074  67.898  1.00  0.00    -0.124 A  
HETATM   18  C   UNL     1      -9.519  10.448  68.195  1.00  0.00    -0.152 A  
HETATM   19  C   UNL     1      -9.694   9.078  67.975  1.00  0.00    -0.179 A  
HETATM   20  C   UNL     1      -8.648   8.306  67.481  1.00  0.00    -0.129 A  
HETATM   21  C   UNL     1      -7.421   8.907  67.209  1.00  0.00    -0.084 A  
HETATM   22  O   UNL     1      -6.388   8.132  66.753  1.00  0.00    -0.053 OA 
HETATM   23  C   UNL     1      -7.239  10.288  67.404  1.00  0.00    -0.092 A  
HETATM   24  C   UNL     1      -5.909  10.868  67.065  1.00  0.00    -0.064 C  
HETATM   25  H   UNL     1      -5.551   8.542  66.567  1.00  0.00     0.000 HD 
HETATM   26  O   UNL     1      -5.566  12.022  67.290  1.00  0.00    -0.105 OA 
ENDBRANCH  16  17
ENDBRANCH  15  16
ENDBRANCH  10  15
ENDBRANCH   8   9
ENDBRANCH   2   4
TORSDOF 5
ENDMDL
MODEL      311
REMARK 921   NORMALIZED FREE ENERGY PREDICTED BY IDOCK:   -3.32 KCAL/MOL
REMARK 922        TOTAL FREE ENERGY PREDICTED BY IDOCK:   -5.50 KCAL/MOL
REMARK 923 INTER-LIGAND FREE ENERGY PREDICTED BY IDOCK:   -3.85 KCAL/MOL
REMARK 924 INTRA-LIGAND FREE ENERGY PREDICTED BY IDOCK:   -1.65 KCAL/MOL
REMARK 927      BINDING AFFINITY PREDICTED BY RF-SCORE:    0.00 PKD
ROOT
HETATM    1  C   UNL     1     -10.035   7.414  66.628  1.00  0.00    -0.261 C  
HETATM    2  C   UNL     1     -10.390   8.338  67.796  1.00  0.00    -0.234 C  
HETATM    3  C   UNL     1     -10.649   7.517  69.066  1.00  0.00    -0.190 C  
ENDROOT
BRANCH   2   4
HETATM    4  N   UNL     1      -9.347   9.334  68.053  1.00  0.00    -0.134 NA 
HETATM    5  N   UNL     1      -8.518   9.118  69.106  1.00  0.00    -0.129 NA 
HETATM    6  C   UNL     1      -7.928  10.292  69.295  1.00  0.00    -0.149 A  
HETATM    7  C   UNL     1      -8.320  11.242  68.341  1.00  0.00    -0.152 A  
HETATM    8  C   UNL     1      -9.173  10.582  67.469  1.00  0.00    -0.142 A  
BRANCH   8   9
HETATM    9  C   UNL     1      -9.698  10.978  66.157  1.00  0.00    -0.217 A  
HETATM   10  C   UNL     1      -9.085  10.773  64.915  1.00  0.00    -0.221 A  
HETATM   11  C   UNL     1     -11.634  11.777  65.135  1.00  0.00    -0.145 A  
HETATM   12  C   UNL     1      -9.820  11.130  63.765  1.00  0.00    -0.374 A  
HETATM   13  N   UNL     1     -10.963  11.469  66.264  1.00  0.00    -0.289 NA 
HETATM   14  C   UNL     1     -11.111  11.624  63.870  1.00  0.00    -0.477 A  
BRANCH  10  15
HETATM   15  C   UNL     1      -7.694  10.243  64.690  1.00  0.00    -0.114 C  
BRANCH  15  16
HETATM   16  O   UNL     1      -7.786   8.874  64.322  1.00  0.00    -0.119 OA 
BRANCH  16  17
HETATM   17  C   UNL     1      -7.083   7.931  65.018  1.00  0.00    -0.060 A  
HETATM   18  C   UNL     1      -6.423   8.181  66.229  1.00  0.00    -0.047 A  
HETATM   19  C   UNL     1      -5.796   7.146  66.932  1.00  0.00    -0.026 A  
HETATM   20  C   UNL     1      -5.795   5.852  66.425  1.00  0.00    -0.017 A  
HETATM   21  C   UNL     1      -6.421   5.592  65.206  1.00  0.00    -0.039 A  
HETATM   22  O   UNL     1      -6.387   4.320  64.700  1.00  0.00    -0.032 OA 
HETATM   23  C   UNL     1      -7.074   6.618  64.501  1.00  0.00    -0.060 A  
HETATM   24  C   UNL     1      -7.746   6.263  63.220  1.00  0.00    -0.098 C  
HETATM   25  H   UNL     1      -6.813   4.143  63.870  1.00  0.00     0.000 HD 
HETATM   26  O   UNL     1      -8.250   7.064  62.443  1.00  0.00    -0.126 OA 
ENDBRANCH  16  17
ENDBRANCH  15  16
ENDBRANCH  10  15
ENDBRANCH   8   9
ENDBRANCH   2   4
TORSDOF 5
ENDMDL
MODEL      312
REMARK 921   NORMALIZED FREE ENERGY PREDICTED BY IDOCK:   -3.30 KCAL/MOL
REMARK 922        TOTAL FREE ENERGY PREDICTED BY IDOCK:   -5.48 KCAL/MOL
REMARK 923 INTER-LIGAND FREE ENERGY PREDICTED BY IDOCK:   -3.97 KCAL/MOL
REMARK 924 INTRA-LIGAND FREE ENERGY PREDICTED BY IDOCK:   -1.51 KCAL/MOL
REMARK 927      BINDING AFFINITY PREDICTED BY RF-SCORE:    0.00 PKD
ROOT
HETATM    1  C   UNL     1      -5.828   8.830  73.913  1.00  0.00    -0.122 C  
HETATM    2  C   UNL     1      -6.561   8.005  72.852  1.00  0.00    -0.081 C  
HETATM    3  C   UNL     1      -5.594   7.598  71.732  1.00  0.00    -0.036 C  
ENDROOT
BRANCH   2   4
HETATM    4  N   UNL     1      -7.197   6.813  73.416  1.00  0.00    -0.076 NA 
HETATM    5  N   UNL     1      -6.468   6.062  74.281  1.00  0.00    -0.074 NA 
HETATM    6  C   UNL     1      -7.141   4.920  74.359  1.00  0.00    -0.074 A  
HETATM    7  C   UNL     1      -8.323   4.949  73.605  1.00  0.00    -0.106 A  
HETATM    8  C   UNL     1      -8.407   6.226  73.070  1.00  0.00    -0.117 A  
BRANCH   8   9
HETATM    9  C   UNL     1      -9.520   6.917  72.408  1.00  0.00    -0.139 A  
HETATM   10  C   UNL     1      -9.826   6.889  71.042  1.00  0.00    -0.185 A  
HETATM   11  C   UNL     1     -11.477   8.090  72.881  1.00  0.00    -0.264 A  
HETATM   12  C   UNL     1     -11.012   7.532  70.632  1.00  0.00    -0.263 A  
HETATM   13  N   UNL     1     -10.342   7.506  73.319  1.00  0.00    -0.339 NA 
HETATM   14  C   UNL     1     -11.855   8.128  71.558  1.00  0.00    -0.332 A  
BRANCH  10  15
HETATM   15  C   UNL     1      -8.984   6.272  69.958  1.00  0.00    -0.149 C  
BRANCH  15  16
HETATM   16  O   UNL     1      -8.144   7.279  69.409  1.00  0.00    -0.125 OA 
BRANCH  16  17
HETATM   17  C   UNL     1      -8.436   7.822  68.189  1.00  0.00    -0.124 A  
HETATM   18  C   UNL     1      -8.516   7.083  67.001  1.00  0.00    -0.121 A  
HETATM   19  C   UNL     1      -8.908   7.690  65.803  1.00  0.00    -0.134 A  
HETATM   20  C   UNL     1      -9.201   9.049  65.766  1.00  0.00    -0.293 A  
HETATM   21  C   UNL     1      -9.098   9.804  66.933  1.00  0.00    -0.142 A  
HETATM   22  O   UNL     1      -9.357  11.147  66.879  1.00  0.00    -0.171 OA 
HETATM   23  C   UNL     1      -8.727   9.202  68.148  1.00  0.00    -0.129 A  
HETATM   24  C   UNL     1      -8.665  10.064  69.361  1.00  0.00    -0.186 C  
HETATM   25  H   UNL     1      -9.288  11.663  67.674  1.00  0.00     0.000 HD 
HETATM   26  O   UNL     1      -8.247   9.710  70.457  1.00  0.00    -0.187 OA 
ENDBRANCH  16  17
ENDBRANCH  15  16
ENDBRANCH  10  15
ENDBRANCH   8   9
ENDBRANCH   2   4
TORSDOF 5
ENDMDL
MODEL      313
REMARK 921   NORMALIZED FREE ENERGY PREDICTED BY IDOCK:   -3.27 KCAL/MOL
REMARK 922        TOTAL FREE ENERGY PREDICTED BY IDOCK:   -5.44 KCAL/MOL
REMARK 923 INTER-LIGAND FREE ENERGY PREDICTED BY IDOCK:   -4.77 KCAL/MOL
REMARK 924 INTRA-LIGAND FREE ENERGY PREDICTED BY IDOCK:   -0.68 KCAL/MOL
REMARK 927      BINDING AFFINITY PREDICTED BY RF-SCORE:    0.00 PKD
ROOT
HETATM    1  C   UNL     1      -7.030   6.824  68.682  1.00  0.00    -0.080 C  
HETATM    2  C   UNL     1      -6.832   5.694  69.697  1.00  0.00    -0.061 C  
HETATM    3  C   UNL     1      -7.017   6.223  71.125  1.00  0.00    -0.068 C  
ENDROOT
BRANCH   2   4
HETATM    4  N   UNL     1      -7.742   4.571  69.461  1.00  0.00    -0.055 NA 
HETATM    5  N   UNL     1      -7.205   3.417  68.987  1.00  0.00    -0.049 NA 
HETATM    6  C   UNL     1      -8.255   2.725  68.565  1.00  0.00    -0.063 A  
HETATM    7  C   UNL     1      -9.465   3.390  68.815  1.00  0.00    -0.201 A  
HETATM    8  C   UNL     1      -9.130   4.553  69.493  1.00  0.00    -0.110 A  
BRANCH   8   9
HETATM    9  C   UNL     1      -9.968   5.513  70.220  1.00  0.00    -0.216 A  
HETATM   10  C   UNL     1     -10.858   6.437  69.660  1.00  0.00    -0.380 A  
HETATM   11  C   UNL     1     -10.684   6.043  72.374  1.00  0.00    -0.228 A  
HETATM   12  C   UNL     1     -11.655   7.189  70.549  1.00  0.00    -0.331 A  
HETATM   13  N   UNL     1      -9.887   5.314  71.565  1.00  0.00    -0.166 NA 
HETATM   14  C   UNL     1     -11.579   6.984  71.919  1.00  0.00    -0.320 A  
BRANCH  10  15
HETATM   15  C   UNL     1     -11.019   6.735  68.193  1.00  0.00    -0.201 C  
BRANCH  15  16
HETATM   16  O   UNL     1     -10.012   7.660  67.807  1.00  0.00    -0.157 OA 
BRANCH  16  17
HETATM   17  C   UNL     1     -10.361   8.912  67.385  1.00  0.00    -0.269 A  
HETATM   18  C   UNL     1     -11.208   9.772  68.097  1.00  0.00    -0.073 A  
HETATM   19  C   UNL     1     -11.451  11.074  67.648  1.00  0.00    -0.303 A  
HETATM   20  C   UNL     1     -10.873  11.530  66.468  1.00  0.00    -0.335 A  
HETATM   21  C   UNL     1     -10.052  10.678  65.732  1.00  0.00    -0.266 A  
HETATM   22  O   UNL     1      -9.514  11.126  64.555  1.00  0.00    -0.232 OA 
HETATM   23  C   UNL     1      -9.782   9.374  66.184  1.00  0.00    -0.334 A  
HETATM   24  C   UNL     1      -8.873   8.528  65.361  1.00  0.00    -0.130 C  
HETATM   25  H   UNL     1      -8.955  10.545  64.054  1.00  0.00     0.000 HD 
HETATM   26  O   UNL     1      -8.640   7.342  65.563  1.00  0.00    -0.139 OA 
ENDBRANCH  16  17
ENDBRANCH  15  16
ENDBRANCH  10  15
ENDBRANCH   8   9
ENDBRANCH   2   4
TORSDOF 5
ENDMDL
MODEL      314
REMARK 921   NORMALIZED FREE ENERGY PREDICTED BY IDOCK:   -3.23 KCAL/MOL
REMARK 922        TOTAL FREE ENERGY PREDICTED BY IDOCK:   -5.39 KCAL/MOL
REMARK 923 INTER-LIGAND FREE ENERGY PREDICTED BY IDOCK:   -3.79 KCAL/MOL
REMARK 924 INTRA-LIGAND FREE ENERGY PREDICTED BY IDOCK:   -1.59 KCAL/MOL
REMARK 927      BINDING AFFINITY PREDICTED BY RF-SCORE:    0.00 PKD
ROOT
HETATM    1  C   UNL     1      -6.442   8.455  74.391  1.00  0.00    -0.156 C  
HETATM    2  C   UNL     1      -7.298   7.873  73.262  1.00  0.00    -0.113 C  
HETATM    3  C   UNL     1      -6.474   7.760  71.973  1.00  0.00    -0.044 C  
ENDROOT
BRANCH   2   4
HETATM    4  N   UNL     1      -7.859   6.566  73.609  1.00  0.00    -0.091 NA 
HETATM    5  N   UNL     1      -7.159   5.792  74.478  1.00  0.00    -0.084 NA 
HETATM    6  C   UNL     1      -7.703   4.589  74.346  1.00  0.00    -0.085 A  
HETATM    7  C   UNL     1      -8.782   4.590  73.449  1.00  0.00    -0.100 A  
HETATM    8  C   UNL     1      -8.945   5.907  73.046  1.00  0.00    -0.121 A  
BRANCH   8   9
HETATM    9  C   UNL     1     -10.041   6.559  72.320  1.00  0.00    -0.175 A  
HETATM   10  C   UNL     1     -10.611   6.137  71.114  1.00  0.00    -0.300 A  
HETATM   11  C   UNL     1     -11.651   8.226  72.565  1.00  0.00    -0.385 A  
HETATM   12  C   UNL     1     -11.737   6.848  70.647  1.00  0.00    -0.417 A  
HETATM   13  N   UNL     1     -10.561   7.590  73.042  1.00  0.00    -0.334 NA 
HETATM   14  C   UNL     1     -12.273   7.894  71.382  1.00  0.00    -0.337 A  
BRANCH  10  15
HETATM   15  C   UNL     1     -10.111   5.017  70.241  1.00  0.00    -0.269 C  
BRANCH  15  16
HETATM   16  O   UNL     1      -9.509   5.580  69.084  1.00  0.00    -0.120 OA 
BRANCH  16  17
HETATM   17  C   UNL     1      -8.158   5.781  69.047  1.00  0.00    -0.101 A  
HETATM   18  C   UNL     1      -7.217   4.885  69.571  1.00  0.00    -0.056 A  
HETATM   19  C   UNL     1      -5.845   5.113  69.418  1.00  0.00    -0.020 A  
HETATM   20  C   UNL     1      -5.390   6.252  68.764  1.00  0.00    -0.008 A  
HETATM   21  C   UNL     1      -6.313   7.169  68.262  1.00  0.00    -0.040 A  
HETATM   22  O   UNL     1      -5.855   8.303  67.647  1.00  0.00    -0.041 OA 
HETATM   23  C   UNL     1      -7.694   6.940  68.389  1.00  0.00    -0.116 A  
HETATM   24  C   UNL     1      -8.623   7.948  67.804  1.00  0.00    -0.128 C  
HETATM   25  H   UNL     1      -6.483   8.928  67.305  1.00  0.00     0.000 HD 
HETATM   26  O   UNL     1      -9.840   7.945  67.938  1.00  0.00    -0.154 OA 
ENDBRANCH  16  17
ENDBRANCH  15  16
ENDBRANCH  10  15
ENDBRANCH   8   9
ENDBRANCH   2   4
TORSDOF 5
ENDMDL
MODEL      315
REMARK 921   NORMALIZED FREE ENERGY PREDICTED BY IDOCK:   -3.21 KCAL/MOL
REMARK 922        TOTAL FREE ENERGY PREDICTED BY IDOCK:   -5.36 KCAL/MOL
REMARK 923 INTER-LIGAND FREE ENERGY PREDICTED BY IDOCK:   -4.35 KCAL/MOL
REMARK 924 INTRA-LIGAND FREE ENERGY PREDICTED BY IDOCK:   -1.01 KCAL/MOL
REMARK 927      BINDING AFFINITY PREDICTED BY RF-SCORE:    0.00 PKD
ROOT
HETATM    1  C   UNL     1      -8.317   5.323  64.057  1.00  0.00    -0.125 C  
HETATM    2  C   UNL     1      -8.914   4.425  65.144  1.00  0.00    -0.143 C  
HETATM    3  C   UNL     1      -9.306   3.064  64.555  1.00  0.00    -0.145 C  
ENDROOT
BRANCH   2   4
HETATM    4  N   UNL     1      -7.998   4.234  66.271  1.00  0.00    -0.098 NA 
HETATM    5  N   UNL     1      -7.206   3.131  66.256  1.00  0.00    -0.069 NA 
HETATM    6  C   UNL     1      -6.755   3.044  67.502  1.00  0.00    -0.045 A  
HETATM    7  C   UNL     1      -7.196   4.109  68.301  1.00  0.00    -0.059 A  
HETATM    8  C   UNL     1      -7.927   4.940  67.465  1.00  0.00    -0.095 A  
BRANCH   8   9
HETATM    9  C   UNL     1      -8.422   6.307  67.665  1.00  0.00    -0.116 A  
HETATM   10  C   UNL     1      -9.673   6.676  68.174  1.00  0.00    -0.130 A  
HETATM   11  C   UNL     1      -7.703   8.524  67.668  1.00  0.00    -0.102 A  
HETATM   12  C   UNL     1      -9.902   8.050  68.394  1.00  0.00    -0.184 A  
HETATM   13  N   UNL     1      -7.444   7.222  67.422  1.00  0.00    -0.094 NA 
HETATM   14  C   UNL     1      -8.907   8.985  68.153  1.00  0.00    -0.133 A  
BRANCH  10  15
HETATM   15  C   UNL     1     -10.819   5.745  68.470  1.00  0.00    -0.184 C  
BRANCH  15  16
HETATM   16  O   UNL     1     -10.817   5.455  69.862  1.00  0.00    -0.298 OA 
BRANCH  16  17
HETATM   17  C   UNL     1     -11.135   6.433  70.763  1.00  0.00    -0.307 A  
HETATM   18  C   UNL     1     -12.347   7.135  70.762  1.00  0.00    -0.273 A  
HETATM   19  C   UNL     1     -12.641   8.061  71.769  1.00  0.00    -0.353 A  
HETATM   20  C   UNL     1     -11.718   8.320  72.777  1.00  0.00    -0.305 A  
HETATM   21  C   UNL     1     -10.495   7.652  72.775  1.00  0.00    -0.311 A  
HETATM   22  O   UNL     1      -9.581   7.937  73.754  1.00  0.00    -0.318 OA 
HETATM   23  C   UNL     1     -10.197   6.702  71.782  1.00  0.00    -0.206 A  
HETATM   24  C   UNL     1      -8.882   6.006  71.858  1.00  0.00    -0.138 C  
HETATM   25  H   UNL     1      -8.747   7.482  73.753  1.00  0.00     0.000 HD 
HETATM   26  O   UNL     1      -8.437   5.247  71.006  1.00  0.00    -0.118 OA 
ENDBRANCH  16  17
ENDBRANCH  15  16
ENDBRANCH  10  15
ENDBRANCH   8   9
ENDBRANCH   2   4
TORSDOF 5
ENDMDL
MODEL      316
REMARK 921   NORMALIZED FREE ENERGY PREDICTED BY IDOCK:   -3.20 KCAL/MOL
REMARK 922        TOTAL FREE ENERGY PREDICTED BY IDOCK:   -5.34 KCAL/MOL
REMARK 923 INTER-LIGAND FREE ENERGY PREDICTED BY IDOCK:   -4.66 KCAL/MOL
REMARK 924 INTRA-LIGAND FREE ENERGY PREDICTED BY IDOCK:   -0.68 KCAL/MOL
REMARK 927      BINDING AFFINITY PREDICTED BY RF-SCORE:    0.00 PKD
ROOT
HETATM    1  C   UNL     1      -9.607   5.504  66.744  1.00  0.00    -0.156 C  
HETATM    2  C   UNL     1      -9.854   7.003  66.552  1.00  0.00    -0.108 C  
HETATM    3  C   UNL     1     -10.868   7.513  67.585  1.00  0.00    -0.197 C  
ENDROOT
BRANCH   2   4
HETATM    4  N   UNL     1      -8.620   7.786  66.640  1.00  0.00    -0.130 NA 
HETATM    5  N   UNL     1      -8.075   8.231  65.478  1.00  0.00    -0.120 NA 
HETATM    6  C   UNL     1      -6.845   8.594  65.820  1.00  0.00    -0.068 A  
HETATM    7  C   UNL     1      -6.611   8.445  67.195  1.00  0.00    -0.058 A  
HETATM    8  C   UNL     1      -7.808   8.011  67.744  1.00  0.00    -0.126 A  
BRANCH   8   9
HETATM    9  C   UNL     1      -8.244   7.918  69.142  1.00  0.00    -0.132 A  
HETATM   10  C   UNL     1      -8.788   8.948  69.918  1.00  0.00    -0.154 A  
HETATM   11  C   UNL     1      -8.663   6.355  70.820  1.00  0.00    -0.140 A  
HETATM   12  C   UNL     1      -9.250   8.612  71.208  1.00  0.00    -0.283 A  
HETATM   13  N   UNL     1      -8.189   6.632  69.587  1.00  0.00    -0.125 NA 
HETATM   14  C   UNL     1      -9.201   7.303  71.662  1.00  0.00    -0.155 A  
BRANCH  10  15
HETATM   15  C   UNL     1      -8.889  10.397  69.522  1.00  0.00    -0.092 C  
BRANCH  15  16
HETATM   16  O   UNL     1     -10.009  10.553  68.662  1.00  0.00    -0.166 OA 
BRANCH  16  17
HETATM   17  C   UNL     1     -10.705  11.730  68.655  1.00  0.00    -0.220 A  
HETATM   18  C   UNL     1     -11.405  12.234  69.760  1.00  0.00    -0.149 A  
HETATM   19  C   UNL     1     -12.021  13.489  69.708  1.00  0.00    -0.405 A  
HETATM   20  C   UNL     1     -11.972  14.248  68.544  1.00  0.00    -0.352 A  
HETATM   21  C   UNL     1     -11.306  13.748  67.426  1.00  0.00    -0.324 A  
HETATM   22  O   UNL     1     -11.291  14.490  66.276  1.00  0.00    -0.340 OA 
HETATM   23  C   UNL     1     -10.663  12.499  67.473  1.00  0.00    -0.250 A  
HETATM   24  C   UNL     1      -9.946  12.039  66.250  1.00  0.00    -0.227 C  
HETATM   25  H   UNL     1     -10.837  14.150  65.514  1.00  0.00     0.000 HD 
HETATM   26  O   UNL     1      -9.445  10.932  66.102  1.00  0.00    -0.188 OA 
ENDBRANCH  16  17
ENDBRANCH  15  16
ENDBRANCH  10  15
ENDBRANCH   8   9
ENDBRANCH   2   4
TORSDOF 5
ENDMDL
MODEL      317
REMARK 921   NORMALIZED FREE ENERGY PREDICTED BY IDOCK:   -3.18 KCAL/MOL
REMARK 922        TOTAL FREE ENERGY PREDICTED BY IDOCK:   -5.33 KCAL/MOL
REMARK 923 INTER-LIGAND FREE ENERGY PREDICTED BY IDOCK:   -4.45 KCAL/MOL
REMARK 924 INTRA-LIGAND FREE ENERGY PREDICTED BY IDOCK:   -0.88 KCAL/MOL
REMARK 927      BINDING AFFINITY PREDICTED BY RF-SCORE:    0.00 PKD
ROOT
HETATM    1  C   UNL     1      -8.021   8.268  63.840  1.00  0.00    -0.146 C  
HETATM    2  C   UNL     1      -8.207   8.712  65.294  1.00  0.00    -0.147 C  
HETATM    3  C   UNL     1      -6.853   9.082  65.915  1.00  0.00    -0.080 C  
ENDROOT
BRANCH   2   4
HETATM    4  N   UNL     1      -9.135   9.838  65.416  1.00  0.00    -0.187 NA 
HETATM    5  N   UNL     1      -9.850  10.185  64.315  1.00  0.00    -0.281 NA 
HETATM    6  C   UNL     1     -10.324  11.389  64.608  1.00  0.00    -0.307 A  
HETATM    7  C   UNL     1      -9.975  11.796  65.904  1.00  0.00    -0.266 A  
HETATM    8  C   UNL     1      -9.281  10.735  66.466  1.00  0.00    -0.168 A  
BRANCH   8   9
HETATM    9  C   UNL     1      -8.883  10.478  67.855  1.00  0.00    -0.133 A  
HETATM   10  C   UNL     1      -9.440   9.529  68.721  1.00  0.00    -0.147 A  
HETATM   11  C   UNL     1      -7.214  10.991  69.398  1.00  0.00    -0.114 A  
HETATM   12  C   UNL     1      -8.828   9.366  69.982  1.00  0.00    -0.231 A  
HETATM   13  N   UNL     1      -7.776  11.197  68.189  1.00  0.00    -0.102 NA 
HETATM   14  C   UNL     1      -7.696  10.093  70.322  1.00  0.00     0.008 A  
BRANCH  10  15
HETATM   15  C   UNL     1     -10.660   8.691  68.451  1.00  0.00    -0.120 C  
BRANCH  15  16
HETATM   16  O   UNL     1     -10.665   7.594  69.355  1.00  0.00    -0.230 OA 
BRANCH  16  17
HETATM   17  C   UNL     1     -10.418   6.330  68.896  1.00  0.00    -0.232 A  
HETATM   18  C   UNL     1     -10.542   5.945  67.554  1.00  0.00    -0.347 A  
HETATM   19  C   UNL     1     -10.187   4.657  67.141  1.00  0.00    -0.147 A  
HETATM   20  C   UNL     1      -9.730   3.723  68.065  1.00  0.00    -0.116 A  
HETATM   21  C   UNL     1      -9.629   4.081  69.408  1.00  0.00    -0.187 A  
HETATM   22  O   UNL     1      -9.208   3.145  70.314  1.00  0.00    -0.117 OA 
HETATM   23  C   UNL     1      -9.961   5.380  69.832  1.00  0.00    -0.294 A  
HETATM   24  C   UNL     1      -9.803   5.700  71.279  1.00  0.00    -0.175 C  
HETATM   25  H   UNL     1      -9.139   3.388  71.230  1.00  0.00     0.000 HD 
HETATM   26  O   UNL     1     -10.160   6.743  71.812  1.00  0.00    -0.183 OA 
ENDBRANCH  16  17
ENDBRANCH  15  16
ENDBRANCH  10  15
ENDBRANCH   8   9
ENDBRANCH   2   4
TORSDOF 5
ENDMDL
MODEL      318
REMARK 921   NORMALIZED FREE ENERGY PREDICTED BY IDOCK:   -3.18 KCAL/MOL
REMARK 922        TOTAL FREE ENERGY PREDICTED BY IDOCK:   -5.32 KCAL/MOL
REMARK 923 INTER-LIGAND FREE ENERGY PREDICTED BY IDOCK:   -4.29 KCAL/MOL
REMARK 924 INTRA-LIGAND FREE ENERGY PREDICTED BY IDOCK:   -1.03 KCAL/MOL
REMARK 927      BINDING AFFINITY PREDICTED BY RF-SCORE:    0.00 PKD
ROOT
HETATM    1  C   UNL     1      -6.151  14.160  69.411  1.00  0.00    -0.104 C  
HETATM    2  C   UNL     1      -7.249  13.828  68.397  1.00  0.00    -0.108 C  
HETATM    3  C   UNL     1      -7.348  14.933  67.337  1.00  0.00    -0.222 C  
ENDROOT
BRANCH   2   4
HETATM    4  N   UNL     1      -7.032  12.534  67.747  1.00  0.00    -0.107 NA 
HETATM    5  N   UNL     1      -5.812  12.305  67.196  1.00  0.00    -0.235 NA 
HETATM    6  C   UNL     1      -6.005  11.247  66.418  1.00  0.00    -0.128 A  
HETATM    7  C   UNL     1      -7.315  10.756  66.507  1.00  0.00    -0.139 A  
HETATM    8  C   UNL     1      -7.956  11.540  67.455  1.00  0.00    -0.143 A  
BRANCH   8   9
HETATM    9  C   UNL     1      -9.241  11.357  68.141  1.00  0.00    -0.178 A  
HETATM   10  C   UNL     1      -9.510  10.466  69.186  1.00  0.00    -0.220 A  
HETATM   11  C   UNL     1     -11.352  12.322  68.343  1.00  0.00    -0.292 A  
HETATM   12  C   UNL     1     -10.787  10.534  69.782  1.00  0.00    -0.335 A  
HETATM   13  N   UNL     1     -10.152  12.281  67.728  1.00  0.00    -0.197 NA 
HETATM   14  C   UNL     1     -11.715  11.478  69.369  1.00  0.00    -0.413 A  
BRANCH  10  15
HETATM   15  C   UNL     1      -8.577   9.407  69.710  1.00  0.00    -0.175 C  
BRANCH  15  16
HETATM   16  O   UNL     1      -9.139   8.132  69.434  1.00  0.00    -0.147 OA 
BRANCH  16  17
HETATM   17  C   UNL     1      -8.440   7.225  68.688  1.00  0.00    -0.129 A  
HETATM   18  C   UNL     1      -7.186   6.714  69.047  1.00  0.00    -0.091 A  
HETATM   19  C   UNL     1      -6.568   5.721  68.280  1.00  0.00    -0.052 A  
HETATM   20  C   UNL     1      -7.180   5.241  67.126  1.00  0.00    -0.078 A  
HETATM   21  C   UNL     1      -8.414   5.760  66.738  1.00  0.00    -0.112 A  
HETATM   22  O   UNL     1      -8.993   5.304  65.584  1.00  0.00    -0.154 OA 
HETATM   23  C   UNL     1      -9.056   6.742  67.513  1.00  0.00    -0.117 A  
HETATM   24  C   UNL     1     -10.386   7.231  67.054  1.00  0.00    -0.306 C  
HETATM   25  H   UNL     1      -9.834   5.658  65.319  1.00  0.00     0.000 HD 
HETATM   26  O   UNL     1     -11.007   8.160  67.555  1.00  0.00    -0.115 OA 
ENDBRANCH  16  17
ENDBRANCH  15  16
ENDBRANCH  10  15
ENDBRANCH   8   9
ENDBRANCH   2   4
TORSDOF 5
ENDMDL
MODEL      319
REMARK 921   NORMALIZED FREE ENERGY PREDICTED BY IDOCK:   -3.14 KCAL/MOL
REMARK 922        TOTAL FREE ENERGY PREDICTED BY IDOCK:   -5.27 KCAL/MOL
REMARK 923 INTER-LIGAND FREE ENERGY PREDICTED BY IDOCK:   -4.33 KCAL/MOL
REMARK 924 INTRA-LIGAND FREE ENERGY PREDICTED BY IDOCK:   -0.94 KCAL/MOL
REMARK 927      BINDING AFFINITY PREDICTED BY RF-SCORE:    0.00 PKD
ROOT
HETATM    1  C   UNL     1      -8.287   3.882  69.968  1.00  0.00    -0.079 C  
HETATM    2  C   UNL     1      -7.983   5.012  70.956  1.00  0.00    -0.093 C  
HETATM    3  C   UNL     1      -6.712   4.695  71.754  1.00  0.00    -0.038 C  
ENDROOT
BRANCH   2   4
HETATM    4  N   UNL     1      -7.841   6.309  70.290  1.00  0.00    -0.101 NA 
HETATM    5  N   UNL     1      -6.658   6.574  69.678  1.00  0.00    -0.047 NA 
HETATM    6  C   UNL     1      -6.693   7.884  69.470  1.00  0.00    -0.042 A  
HETATM    7  C   UNL     1      -7.905   8.456  69.884  1.00  0.00    -0.101 A  
HETATM    8  C   UNL     1      -8.693   7.405  70.328  1.00  0.00    -0.146 A  
BRANCH   8   9
HETATM    9  C   UNL     1     -10.125   7.348  70.646  1.00  0.00    -0.190 A  
HETATM   10  C   UNL     1     -11.103   6.613  69.966  1.00  0.00    -0.394 A  
HETATM   11  C   UNL     1     -11.649   7.956  72.301  1.00  0.00    -0.350 A  
HETATM   12  C   UNL     1     -12.404   6.608  70.512  1.00  0.00    -0.088 A  
HETATM   13  N   UNL     1     -10.395   8.007  71.806  1.00  0.00    -0.207 NA 
HETATM   14  C   UNL     1     -12.681   7.273  71.697  1.00  0.00    -0.410 A  
BRANCH  10  15
HETATM   15  C   UNL     1     -10.908   5.857  68.679  1.00  0.00    -0.261 C  
BRANCH  15  16
HETATM   16  O   UNL     1     -11.374   6.664  67.606  1.00  0.00    -0.246 OA 
BRANCH  16  17
HETATM   17  C   UNL     1     -10.584   7.662  67.110  1.00  0.00    -0.340 A  
HETATM   18  C   UNL     1     -10.701   9.010  67.476  1.00  0.00    -0.239 A  
HETATM   19  C   UNL     1      -9.799   9.965  66.995  1.00  0.00    -0.241 A  
HETATM   20  C   UNL     1      -8.783   9.595  66.120  1.00  0.00    -0.152 A  
HETATM   21  C   UNL     1      -8.671   8.264  65.723  1.00  0.00    -0.166 A  
HETATM   22  O   UNL     1      -7.687   7.916  64.837  1.00  0.00    -0.097 OA 
HETATM   23  C   UNL     1      -9.557   7.291  66.217  1.00  0.00    -0.103 A  
HETATM   24  C   UNL     1      -9.361   5.882  65.772  1.00  0.00     0.006 C  
HETATM   25  H   UNL     1      -7.610   7.009  64.566  1.00  0.00     0.000 HD 
HETATM   26  O   UNL     1     -10.118   4.953  66.022  1.00  0.00    -0.203 OA 
ENDBRANCH  16  17
ENDBRANCH  15  16
ENDBRANCH  10  15
ENDBRANCH   8   9
ENDBRANCH   2   4
TORSDOF 5
ENDMDL
MODEL      320
REMARK 921   NORMALIZED FREE ENERGY PREDICTED BY IDOCK:   -3.08 KCAL/MOL
REMARK 922        TOTAL FREE ENERGY PREDICTED BY IDOCK:   -5.19 KCAL/MOL
REMARK 923 INTER-LIGAND FREE ENERGY PREDICTED BY IDOCK:   -4.07 KCAL/MOL
REMARK 924 INTRA-LIGAND FREE ENERGY PREDICTED BY IDOCK:   -1.12 KCAL/MOL
REMARK 927      BINDING AFFINITY PREDICTED BY RF-SCORE:    0.00 PKD
ROOT
HETATM    1  C   UNL     1      -9.739   4.157  68.097  1.00  0.00    -0.152 C  
HETATM    2  C   UNL     1      -8.628   3.893  67.077  1.00  0.00    -0.106 C  
HETATM    3  C   UNL     1      -8.919   2.607  66.293  1.00  0.00    -0.143 C  
ENDROOT
BRANCH   2   4
HETATM    4  N   UNL     1      -8.449   5.011  66.149  1.00  0.00    -0.113 NA 
HETATM    5  N   UNL     1      -8.678   4.777  64.832  1.00  0.00    -0.144 NA 
HETATM    6  C   UNL     1      -8.132   5.821  64.221  1.00  0.00    -0.127 A  
HETATM    7  C   UNL     1      -7.609   6.753  65.129  1.00  0.00    -0.098 A  
HETATM    8  C   UNL     1      -7.908   6.267  66.393  1.00  0.00    -0.104 A  
BRANCH   8   9
HETATM    9  C   UNL     1      -7.835   6.911  67.710  1.00  0.00    -0.113 A  
HETATM   10  C   UNL     1      -8.832   7.681  68.320  1.00  0.00    -0.125 A  
HETATM   11  C   UNL     1      -6.528   6.971  69.639  1.00  0.00    -0.043 A  
HETATM   12  C   UNL     1      -8.598   8.111  69.643  1.00  0.00    -0.131 A  
HETATM   13  N   UNL     1      -6.697   6.553  68.367  1.00  0.00    -0.065 NA 
HETATM   14  C   UNL     1      -7.443   7.744  70.317  1.00  0.00    -0.079 A  
BRANCH  10  15
HETATM   15  C   UNL     1     -10.118   8.133  67.680  1.00  0.00    -0.207 C  
BRANCH  15  16
HETATM   16  O   UNL     1      -9.948   9.465  67.215  1.00  0.00    -0.171 OA 
BRANCH  16  17
HETATM   17  C   UNL     1     -10.554  10.499  67.871  1.00  0.00    -0.232 A  
HETATM   18  C   UNL     1     -11.538  10.335  68.855  1.00  0.00    -0.132 A  
HETATM   19  C   UNL     1     -12.051  11.436  69.548  1.00  0.00    -0.370 A  
HETATM   20  C   UNL     1     -11.609  12.721  69.253  1.00  0.00    -0.372 A  
HETATM   21  C   UNL     1     -10.652  12.905  68.256  1.00  0.00    -0.246 A  
HETATM   22  O   UNL     1     -10.248  14.177  67.951  1.00  0.00    -0.229 OA 
HETATM   23  C   UNL     1     -10.113  11.805  67.567  1.00  0.00    -0.207 A  
HETATM   24  C   UNL     1      -9.073  12.073  66.534  1.00  0.00    -0.202 C  
HETATM   25  H   UNL     1      -9.596  14.303  67.271  1.00  0.00     0.000 HD 
HETATM   26  O   UNL     1      -8.600  11.235  65.777  1.00  0.00    -0.160 OA 
ENDBRANCH  16  17
ENDBRANCH  15  16
ENDBRANCH  10  15
ENDBRANCH   8   9
ENDBRANCH   2   4
TORSDOF 5
ENDMDL
MODEL      321
REMARK 921   NORMALIZED FREE ENERGY PREDICTED BY IDOCK:   -3.00 KCAL/MOL
REMARK 922        TOTAL FREE ENERGY PREDICTED BY IDOCK:   -5.09 KCAL/MOL
REMARK 923 INTER-LIGAND FREE ENERGY PREDICTED BY IDOCK:   -3.72 KCAL/MOL
REMARK 924 INTRA-LIGAND FREE ENERGY PREDICTED BY IDOCK:   -1.37 KCAL/MOL
REMARK 927      BINDING AFFINITY PREDICTED BY RF-SCORE:    0.00 PKD
ROOT
HETATM    1  C   UNL     1      -6.018  11.233  68.037  1.00  0.00    -0.046 C  
HETATM    2  C   UNL     1      -7.269  10.355  67.957  1.00  0.00    -0.084 C  
HETATM    3  C   UNL     1      -7.966  10.295  69.323  1.00  0.00    -0.149 C  
ENDROOT
BRANCH   2   4
HETATM    4  N   UNL     1      -8.212  10.822  66.939  1.00  0.00    -0.126 NA 
HETATM    5  N   UNL     1      -8.500  12.149  66.911  1.00  0.00    -0.187 NA 
HETATM    6  C   UNL     1      -9.585  12.226  66.152  1.00  0.00    -0.240 A  
HETATM    7  C   UNL     1      -9.965  10.975  65.642  1.00  0.00    -0.299 A  
HETATM    8  C   UNL     1      -9.005  10.075  66.078  1.00  0.00    -0.148 A  
BRANCH   8   9
HETATM    9  C   UNL     1      -8.733   8.691  65.671  1.00  0.00    -0.182 A  
HETATM   10  C   UNL     1      -9.109   7.530  66.357  1.00  0.00    -0.210 A  
HETATM   11  C   UNL     1      -7.959   7.441  63.863  1.00  0.00    -0.082 A  
HETATM   12  C   UNL     1      -8.848   6.294  65.729  1.00  0.00    -0.122 A  
HETATM   13  N   UNL     1      -8.170   8.646  64.433  1.00  0.00    -0.164 NA 
HETATM   14  C   UNL     1      -8.280   6.245  64.465  1.00  0.00    -0.062 A  
BRANCH  10  15
HETATM   15  C   UNL     1      -9.731   7.472  67.727  1.00  0.00    -0.146 C  
BRANCH  15  16
HETATM   16  O   UNL     1      -8.801   6.876  68.621  1.00  0.00    -0.125 OA 
BRANCH  16  17
HETATM   17  C   UNL     1      -9.243   6.289  69.773  1.00  0.00    -0.146 A  
HETATM   18  C   UNL     1     -10.343   6.742  70.513  1.00  0.00    -0.226 A  
HETATM   19  C   UNL     1     -10.793   6.039  71.635  1.00  0.00    -0.314 A  
HETATM   20  C   UNL     1     -10.136   4.887  72.053  1.00  0.00    -0.256 A  
HETATM   21  C   UNL     1      -9.021   4.438  71.346  1.00  0.00    -0.123 A  
HETATM   22  O   UNL     1      -8.363   3.321  71.784  1.00  0.00    -0.064 OA 
HETATM   23  C   UNL     1      -8.573   5.124  70.203  1.00  0.00    -0.116 A  
HETATM   24  C   UNL     1      -7.393   4.572  69.480  1.00  0.00    -0.051 C  
HETATM   25  H   UNL     1      -7.603   3.015  71.302  1.00  0.00     0.000 HD 
HETATM   26  O   UNL     1      -6.820   5.118  68.546  1.00  0.00    -0.052 OA 
ENDBRANCH  16  17
ENDBRANCH  15  16
ENDBRANCH  10  15
ENDBRANCH   8   9
ENDBRANCH   2   4
TORSDOF 5
ENDMDL
MODEL      322
REMARK 921   NORMALIZED FREE ENERGY PREDICTED BY IDOCK:   -3.00 KCAL/MOL
REMARK 922        TOTAL FREE ENERGY PREDICTED BY IDOCK:   -5.09 KCAL/MOL
REMARK 923 INTER-LIGAND FREE ENERGY PREDICTED BY IDOCK:   -4.23 KCAL/MOL
REMARK 924 INTRA-LIGAND FREE ENERGY PREDICTED BY IDOCK:   -0.86 KCAL/MOL
REMARK 927      BINDING AFFINITY PREDICTED BY RF-SCORE:    0.00 PKD
ROOT
HETATM    1  C   UNL     1      -7.139   8.209  74.494  1.00  0.00    -0.210 C  
HETATM    2  C   UNL     1      -7.793   7.693  73.209  1.00  0.00    -0.116 C  
HETATM    3  C   UNL     1      -6.761   7.624  72.076  1.00  0.00    -0.055 C  
ENDROOT
BRANCH   2   4
HETATM    4  N   UNL     1      -8.419   6.382  73.392  1.00  0.00    -0.121 NA 
HETATM    5  N   UNL     1      -7.729   5.450  74.100  1.00  0.00    -0.096 NA 
HETATM    6  C   UNL     1      -8.353   4.312  73.824  1.00  0.00    -0.093 A  
HETATM    7  C   UNL     1      -9.469   4.506  72.997  1.00  0.00    -0.149 A  
HETATM    8  C   UNL     1      -9.568   5.875  72.799  1.00  0.00    -0.155 A  
BRANCH   8   9
HETATM    9  C   UNL     1     -10.653   6.687  72.236  1.00  0.00    -0.214 A  
HETATM   10  C   UNL     1     -11.292   6.489  71.006  1.00  0.00    -0.378 A  
HETATM   11  C   UNL     1     -12.157   8.370  72.813  1.00  0.00    -0.119 A  
HETATM   12  C   UNL     1     -12.394   7.319  70.709  1.00  0.00    -0.223 A  
HETATM   13  N   UNL     1     -11.087   7.614  73.133  1.00  0.00    -0.388 NA 
HETATM   14  C   UNL     1     -12.842   8.261  71.623  1.00  0.00    -0.350 A  
BRANCH  10  15
HETATM   15  C   UNL     1     -10.889   5.498  69.947  1.00  0.00    -0.228 C  
BRANCH  15  16
HETATM   16  O   UNL     1      -9.563   5.796  69.531  1.00  0.00    -0.134 OA 
BRANCH  16  17
HETATM   17  C   UNL     1      -9.353   6.549  68.410  1.00  0.00    -0.122 A  
HETATM   18  C   UNL     1     -10.050   7.729  68.115  1.00  0.00    -0.220 A  
HETATM   19  C   UNL     1      -9.720   8.497  66.993  1.00  0.00    -0.266 A  
HETATM   20  C   UNL     1      -8.708   8.086  66.133  1.00  0.00    -0.177 A  
HETATM   21  C   UNL     1      -8.025   6.899  66.395  1.00  0.00    -0.106 A  
HETATM   22  O   UNL     1      -7.052   6.487  65.524  1.00  0.00    -0.061 OA 
HETATM   23  C   UNL     1      -8.331   6.130  67.531  1.00  0.00    -0.109 A  
HETATM   24  C   UNL     1      -7.542   4.888  67.764  1.00  0.00    -0.083 C  
HETATM   25  H   UNL     1      -6.586   5.678  65.702  1.00  0.00     0.000 HD 
HETATM   26  O   UNL     1      -7.770   4.062  68.638  1.00  0.00    -0.058 OA 
ENDBRANCH  16  17
ENDBRANCH  15  16
ENDBRANCH  10  15
ENDBRANCH   8   9
ENDBRANCH   2   4
TORSDOF 5
ENDMDL
MODEL      323
REMARK 921   NORMALIZED FREE ENERGY PREDICTED BY IDOCK:   -2.99 KCAL/MOL
REMARK 922        TOTAL FREE ENERGY PREDICTED BY IDOCK:   -5.07 KCAL/MOL
REMARK 923 INTER-LIGAND FREE ENERGY PREDICTED BY IDOCK:   -4.01 KCAL/MOL
REMARK 924 INTRA-LIGAND FREE ENERGY PREDICTED BY IDOCK:   -1.06 KCAL/MOL
REMARK 927      BINDING AFFINITY PREDICTED BY RF-SCORE:    0.00 PKD
ROOT
HETATM    1  C   UNL     1      -5.336   4.571  68.364  1.00  0.00    -0.011 C  
HETATM    2  C   UNL     1      -6.252   5.752  68.698  1.00  0.00    -0.029 C  
HETATM    3  C   UNL     1      -5.417   6.993  69.042  1.00  0.00    -0.018 C  
ENDROOT
BRANCH   2   4
HETATM    4  N   UNL     1      -7.178   6.062  67.607  1.00  0.00    -0.074 NA 
HETATM    5  N   UNL     1      -6.777   5.773  66.342  1.00  0.00    -0.056 NA 
HETATM    6  C   UNL     1      -7.629   6.443  65.576  1.00  0.00    -0.087 A  
HETATM    7  C   UNL     1      -8.607   7.111  66.328  1.00  0.00    -0.143 A  
HETATM    8  C   UNL     1      -8.368   6.776  67.652  1.00  0.00    -0.123 A  
BRANCH   8   9
HETATM    9  C   UNL     1      -9.190   6.967  68.853  1.00  0.00    -0.136 A  
HETATM   10  C   UNL     1      -9.200   8.091  69.688  1.00  0.00    -0.152 A  
HETATM   11  C   UNL     1     -10.991   6.029  69.997  1.00  0.00    -0.380 A  
HETATM   12  C   UNL     1     -10.155   8.116  70.726  1.00  0.00    -0.211 A  
HETATM   13  N   UNL     1     -10.082   5.950  69.002  1.00  0.00    -0.170 NA 
HETATM   14  C   UNL     1     -11.069   7.084  70.878  1.00  0.00    -0.300 A  
BRANCH  10  15
HETATM   15  C   UNL     1      -8.256   9.261  69.610  1.00  0.00    -0.126 C  
BRANCH  15  16
HETATM   16  O   UNL     1      -8.372   9.850  68.322  1.00  0.00    -0.108 OA 
BRANCH  16  17
HETATM   17  C   UNL     1      -9.369  10.748  68.069  1.00  0.00    -0.150 A  
HETATM   18  C   UNL     1     -10.685  10.389  67.744  1.00  0.00    -0.327 A  
HETATM   19  C   UNL     1     -11.676  11.363  67.585  1.00  0.00    -0.246 A  
HETATM   20  C   UNL     1     -11.366  12.712  67.721  1.00  0.00    -0.349 A  
HETATM   21  C   UNL     1     -10.056  13.088  68.014  1.00  0.00    -0.235 A  
HETATM   22  O   UNL     1      -9.754  14.419  68.114  1.00  0.00    -0.211 OA 
HETATM   23  C   UNL     1      -9.055  12.118  68.199  1.00  0.00    -0.196 A  
HETATM   24  C   UNL     1      -7.683  12.590  68.538  1.00  0.00    -0.113 C  
HETATM   25  H   UNL     1      -8.861  14.676  68.314  1.00  0.00     0.000 HD 
HETATM   26  O   UNL     1      -6.690  11.877  68.612  1.00  0.00    -0.063 OA 
ENDBRANCH  16  17
ENDBRANCH  15  16
ENDBRANCH  10  15
ENDBRANCH   8   9
ENDBRANCH   2   4
TORSDOF 5
ENDMDL
MODEL      324
REMARK 921   NORMALIZED FREE ENERGY PREDICTED BY IDOCK:   -2.97 KCAL/MOL
REMARK 922        TOTAL FREE ENERGY PREDICTED BY IDOCK:   -5.05 KCAL/MOL
REMARK 923 INTER-LIGAND FREE ENERGY PREDICTED BY IDOCK:   -3.89 KCAL/MOL
REMARK 924 INTRA-LIGAND FREE ENERGY PREDICTED BY IDOCK:   -1.16 KCAL/MOL
REMARK 927      BINDING AFFINITY PREDICTED BY RF-SCORE:    0.00 PKD
ROOT
HETATM    1  C   UNL     1      -6.755   8.078  73.556  1.00  0.00    -0.120 C  
HETATM    2  C   UNL     1      -7.106   7.206  72.348  1.00  0.00    -0.068 C  
HETATM    3  C   UNL     1      -5.896   7.078  71.413  1.00  0.00    -0.036 C  
ENDROOT
BRANCH   2   4
HETATM    4  N   UNL     1      -7.573   5.875  72.741  1.00  0.00    -0.096 NA 
HETATM    5  N   UNL     1      -6.786   5.156  73.581  1.00  0.00    -0.075 NA 
HETATM    6  C   UNL     1      -7.267   3.922  73.494  1.00  0.00    -0.068 A  
HETATM    7  C   UNL     1      -8.389   3.849  72.656  1.00  0.00    -0.098 A  
HETATM    8  C   UNL     1      -8.647   5.148  72.245  1.00  0.00    -0.125 A  
BRANCH   8   9
HETATM    9  C   UNL     1      -9.815   5.726  71.569  1.00  0.00    -0.169 A  
HETATM   10  C   UNL     1     -10.006   5.847  70.187  1.00  0.00    -0.247 A  
HETATM   11  C   UNL     1     -11.986   6.460  71.991  1.00  0.00    -0.326 A  
HETATM   12  C   UNL     1     -11.256   6.328  69.747  1.00  0.00    -0.499 A  
HETATM   13  N   UNL     1     -10.799   6.023  72.461  1.00  0.00    -0.233 NA 
HETATM   14  C   UNL     1     -12.263   6.626  70.653  1.00  0.00    -0.262 A  
BRANCH  10  15
HETATM   15  C   UNL     1      -8.984   5.551  69.123  1.00  0.00    -0.108 C  
BRANCH  15  16
HETATM   16  O   UNL     1      -9.356   6.237  67.935  1.00  0.00    -0.117 OA 
BRANCH  16  17
HETATM   17  C   UNL     1      -9.243   5.615  66.724  1.00  0.00    -0.128 A  
HETATM   18  C   UNL     1     -10.041   4.536  66.317  1.00  0.00    -0.280 A  
HETATM   19  C   UNL     1      -9.930   4.006  65.028  1.00  0.00    -0.207 A  
HETATM   20  C   UNL     1      -9.001   4.525  64.132  1.00  0.00    -0.144 A  
HETATM   21  C   UNL     1      -8.178   5.578  64.530  1.00  0.00    -0.129 A  
HETATM   22  O   UNL     1      -7.246   6.060  63.651  1.00  0.00    -0.052 OA 
HETATM   23  C   UNL     1      -8.296   6.135  65.816  1.00  0.00    -0.143 A  
HETATM   24  C   UNL     1      -7.404   7.276  66.163  1.00  0.00    -0.075 C  
HETATM   25  H   UNL     1      -6.685   6.778  63.922  1.00  0.00     0.000 HD 
HETATM   26  O   UNL     1      -7.310   7.784  67.274  1.00  0.00    -0.087 OA 
ENDBRANCH  16  17
ENDBRANCH  15  16
ENDBRANCH  10  15
ENDBRANCH   8   9
ENDBRANCH   2   4
TORSDOF 5
ENDMDL
MODEL      325
REMARK 921   NORMALIZED FREE ENERGY PREDICTED BY IDOCK:   -2.94 KCAL/MOL
REMARK 922        TOTAL FREE ENERGY PREDICTED BY IDOCK:   -5.02 KCAL/MOL
REMARK 923 INTER-LIGAND FREE ENERGY PREDICTED BY IDOCK:   -3.87 KCAL/MOL
REMARK 924 INTRA-LIGAND FREE ENERGY PREDICTED BY IDOCK:   -1.15 KCAL/MOL
REMARK 927      BINDING AFFINITY PREDICTED BY RF-SCORE:    0.00 PKD
ROOT
HETATM    1  C   UNL     1      -8.751   4.620  62.833  1.00  0.00    -0.123 C  
HETATM    2  C   UNL     1      -9.442   4.365  64.175  1.00  0.00    -0.096 C  
HETATM    3  C   UNL     1     -10.409   3.179  64.060  1.00  0.00    -0.163 C  
ENDROOT
BRANCH   2   4
HETATM    4  N   UNL     1      -8.484   4.122  65.256  1.00  0.00    -0.112 NA 
HETATM    5  N   UNL     1      -8.454   2.878  65.800  1.00  0.00    -0.103 NA 
HETATM    6  C   UNL     1      -7.771   3.039  66.927  1.00  0.00    -0.075 A  
HETATM    7  C   UNL     1      -7.311   4.354  67.086  1.00  0.00    -0.073 A  
HETATM    8  C   UNL     1      -7.694   5.036  65.940  1.00  0.00    -0.091 A  
BRANCH   8   9
HETATM    9  C   UNL     1      -7.293   6.352  65.428  1.00  0.00    -0.076 A  
HETATM   10  C   UNL     1      -7.962   7.565  65.630  1.00  0.00    -0.117 A  
HETATM   11  C   UNL     1      -5.511   7.440  64.394  1.00  0.00    -0.033 A  
HETATM   12  C   UNL     1      -7.339   8.735  65.146  1.00  0.00    -0.088 A  
HETATM   13  N   UNL     1      -6.076   6.292  64.822  1.00  0.00    -0.029 NA 
HETATM   14  C   UNL     1      -6.097   8.678  64.533  1.00  0.00    -0.066 A  
BRANCH  10  15
HETATM   15  C   UNL     1      -9.308   7.737  66.281  1.00  0.00    -0.151 C  
BRANCH  15  16
HETATM   16  O   UNL     1      -9.129   8.417  67.517  1.00  0.00    -0.133 OA 
BRANCH  16  17
HETATM   17  C   UNL     1      -9.934   9.474  67.837  1.00  0.00    -0.172 A  
HETATM   18  C   UNL     1     -10.440  10.386  66.901  1.00  0.00    -0.300 A  
HETATM   19  C   UNL     1     -11.331  11.393  67.288  1.00  0.00    -0.347 A  
HETATM   20  C   UNL     1     -11.710  11.522  68.620  1.00  0.00    -0.389 A  
HETATM   21  C   UNL     1     -11.192  10.641  69.569  1.00  0.00    -0.272 A  
HETATM   22  O   UNL     1     -11.547  10.797  70.882  1.00  0.00    -0.317 OA 
HETATM   23  C   UNL     1     -10.314   9.612  69.189  1.00  0.00    -0.219 A  
HETATM   24  C   UNL     1      -9.822   8.690  70.251  1.00  0.00    -0.178 C  
HETATM   25  H   UNL     1     -11.194  10.197  71.529  1.00  0.00     0.000 HD 
HETATM   26  O   UNL     1      -8.968   7.827  70.094  1.00  0.00    -0.144 OA 
ENDBRANCH  16  17
ENDBRANCH  15  16
ENDBRANCH  10  15
ENDBRANCH   8   9
ENDBRANCH   2   4
TORSDOF 5
ENDMDL
MODEL      326
REMARK 921   NORMALIZED FREE ENERGY PREDICTED BY IDOCK:   -2.93 KCAL/MOL
REMARK 922        TOTAL FREE ENERGY PREDICTED BY IDOCK:   -5.00 KCAL/MOL
REMARK 923 INTER-LIGAND FREE ENERGY PREDICTED BY IDOCK:   -3.66 KCAL/MOL
REMARK 924 INTRA-LIGAND FREE ENERGY PREDICTED BY IDOCK:   -1.35 KCAL/MOL
REMARK 927      BINDING AFFINITY PREDICTED BY RF-SCORE:    0.00 PKD
ROOT
HETATM    1  C   UNL     1     -10.576   3.835  64.628  1.00  0.00    -0.120 C  
HETATM    2  C   UNL     1      -9.914   4.426  65.875  1.00  0.00    -0.240 C  
HETATM    3  C   UNL     1      -9.460   3.305  66.820  1.00  0.00    -0.132 C  
ENDROOT
BRANCH   2   4
HETATM    4  N   UNL     1      -8.777   5.288  65.544  1.00  0.00    -0.146 NA 
HETATM    5  N   UNL     1      -8.260   5.193  64.292  1.00  0.00    -0.126 NA 
HETATM    6  C   UNL     1      -7.087   5.807  64.383  1.00  0.00    -0.053 A  
HETATM    7  C   UNL     1      -6.868   6.348  65.658  1.00  0.00    -0.052 A  
HETATM    8  C   UNL     1      -8.021   6.093  66.386  1.00  0.00    -0.106 A  
BRANCH   8   9
HETATM    9  C   UNL     1      -8.475   6.620  67.678  1.00  0.00    -0.121 A  
HETATM   10  C   UNL     1      -9.316   7.720  67.883  1.00  0.00    -0.148 A  
HETATM   11  C   UNL     1      -8.516   6.094  69.948  1.00  0.00    -0.129 A  
HETATM   12  C   UNL     1      -9.722   7.986  69.208  1.00  0.00    -0.167 A  
HETATM   13  N   UNL     1      -8.084   5.811  68.701  1.00  0.00    -0.101 NA 
HETATM   14  C   UNL     1      -9.332   7.160  70.251  1.00  0.00    -0.155 A  
BRANCH  10  15
HETATM   15  C   UNL     1      -9.798   8.676  66.825  1.00  0.00    -0.253 C  
BRANCH  15  16
HETATM   16  O   UNL     1      -8.704   9.486  66.415  1.00  0.00    -0.131 OA 
BRANCH  16  17
HETATM   17  C   UNL     1      -8.594   9.875  65.110  1.00  0.00    -0.153 A  
HETATM   18  C   UNL     1      -9.683  10.015  64.239  1.00  0.00    -0.242 A  
HETATM   19  C   UNL     1      -9.505  10.503  62.940  1.00  0.00    -0.360 A  
HETATM   20  C   UNL     1      -8.235  10.833  62.480  1.00  0.00    -0.224 A  
HETATM   21  C   UNL     1      -7.137  10.671  63.324  1.00  0.00     0.138 A  
HETATM   22  O   UNL     1      -5.887  10.969  62.851  1.00  0.00    -0.356 OA 
HETATM   23  C   UNL     1      -7.305  10.203  64.639  1.00  0.00    -0.129 A  
HETATM   24  C   UNL     1      -6.091  10.081  65.494  1.00  0.00    -0.089 C  
HETATM   25  H   UNL     1      -5.139  10.859  63.426  1.00  0.00     0.000 HD 
HETATM   26  O   UNL     1      -6.064   9.581  66.611  1.00  0.00    -0.061 OA 
ENDBRANCH  16  17
ENDBRANCH  15  16
ENDBRANCH  10  15
ENDBRANCH   8   9
ENDBRANCH   2   4
TORSDOF 5
ENDMDL
MODEL      327
REMARK 921   NORMALIZED FREE ENERGY PREDICTED BY IDOCK:   -2.83 KCAL/MOL
REMARK 922        TOTAL FREE ENERGY PREDICTED BY IDOCK:   -4.87 KCAL/MOL
REMARK 923 INTER-LIGAND FREE ENERGY PREDICTED BY IDOCK:   -5.85 KCAL/MOL
REMARK 924 INTRA-LIGAND FREE ENERGY PREDICTED BY IDOCK:    0.99 KCAL/MOL
REMARK 927      BINDING AFFINITY PREDICTED BY RF-SCORE:    0.00 PKD
ROOT
HETATM    1  C   UNL     1     -11.233  11.221  66.524  1.00  0.00    -0.222 C  
HETATM    2  C   UNL     1     -10.416   9.940  66.333  1.00  0.00    -0.127 C  
HETATM    3  C   UNL     1      -9.641   9.995  65.010  1.00  0.00    -0.362 C  
ENDROOT
BRANCH   2   4
HETATM    4  N   UNL     1      -9.490   9.702  67.442  1.00  0.00    -0.140 NA 
HETATM    5  N   UNL     1      -8.531   8.756  67.268  1.00  0.00    -0.111 NA 
HETATM    6  C   UNL     1      -8.081   8.527  68.495  1.00  0.00    -0.122 A  
HETATM    7  C   UNL     1      -8.693   9.353  69.448  1.00  0.00    -0.157 A  
HETATM    8  C   UNL     1      -9.542  10.192  68.741  1.00  0.00    -0.170 A  
BRANCH   8   9
HETATM    9  C   UNL     1     -10.252  11.408  69.154  1.00  0.00    -0.059 A  
HETATM   10  C   UNL     1      -9.993  12.714  68.722  1.00  0.00    -0.023 A  
HETATM   11  C   UNL     1     -12.153  12.105  70.308  1.00  0.00    -0.302 A  
HETATM   12  C   UNL     1     -10.875  13.726  69.157  1.00  0.00    -0.205 A  
HETATM   13  N   UNL     1     -11.327  11.106  69.934  1.00  0.00    -0.279 NA 
HETATM   14  C   UNL     1     -11.973  13.421  69.947  1.00  0.00    -0.408 A  
BRANCH  10  15
HETATM   15  C   UNL     1      -8.835  13.151  67.866  1.00  0.00    -0.196 C  
BRANCH  15  16
HETATM   16  O   UNL     1      -8.990  14.531  67.565  1.00  0.00    -0.174 OA 
BRANCH  16  17
HETATM   17  C   UNL     1      -9.760  14.915  66.503  1.00  0.00    -0.276 A  
HETATM   18  C   UNL     1     -10.386  14.021  65.624  1.00  0.00    -0.342 A  
HETATM   19  C   UNL     1     -11.232  14.484  64.611  1.00  0.00    -0.359 A  
HETATM   20  C   UNL     1     -11.445  15.848  64.442  1.00  0.00    -0.268 A  
HETATM   21  C   UNL     1     -10.807  16.752  65.289  1.00  0.00    -0.138 A  
HETATM   22  O   UNL     1     -10.998  18.094  65.094  1.00  0.00    -0.637 OA 
HETATM   23  C   UNL     1      -9.972  16.298  66.325  1.00  0.00    -0.335 A  
HETATM   24  C   UNL     1      -9.344  17.320  67.210  1.00  0.00    -0.237 C  
HETATM   25  H   UNL     1     -10.563  18.710  65.671  1.00  0.00     0.000 HD 
HETATM   26  O   UNL     1      -8.508  17.086  68.073  1.00  0.00    -0.205 OA 
ENDBRANCH  16  17
ENDBRANCH  15  16
ENDBRANCH  10  15
ENDBRANCH   8   9
ENDBRANCH   2   4
TORSDOF 5
ENDMDL
MODEL      328
REMARK 921   NORMALIZED FREE ENERGY PREDICTED BY IDOCK:   -2.82 KCAL/MOL
REMARK 922        TOTAL FREE ENERGY PREDICTED BY IDOCK:   -4.86 KCAL/MOL
REMARK 923 INTER-LIGAND FREE ENERGY PREDICTED BY IDOCK:   -3.86 KCAL/MOL
REMARK 924 INTRA-LIGAND FREE ENERGY PREDICTED BY IDOCK:   -1.00 KCAL/MOL
REMARK 927      BINDING AFFINITY PREDICTED BY RF-SCORE:    0.00 PKD
ROOT
HETATM    1  C   UNL     1      -9.993   5.583  67.978  1.00  0.00    -0.189 C  
HETATM    2  C   UNL     1      -9.250   6.392  69.045  1.00  0.00    -0.129 C  
HETATM    3  C   UNL     1      -9.599   5.873  70.446  1.00  0.00    -0.204 C  
ENDROOT
BRANCH   2   4
HETATM    4  N   UNL     1      -7.798   6.364  68.852  1.00  0.00    -0.108 NA 
HETATM    5  N   UNL     1      -7.088   5.451  69.563  1.00  0.00    -0.062 NA 
HETATM    6  C   UNL     1      -5.832   5.865  69.451  1.00  0.00    -0.020 A  
HETATM    7  C   UNL     1      -5.717   6.997  68.630  1.00  0.00    -0.018 A  
HETATM    8  C   UNL     1      -6.995   7.260  68.158  1.00  0.00    -0.076 A  
BRANCH   8   9
HETATM    9  C   UNL     1      -7.457   8.151  67.088  1.00  0.00    -0.089 A  
HETATM   10  C   UNL     1      -7.331   9.544  67.048  1.00  0.00    -0.087 A  
HETATM   11  C   UNL     1      -8.282   8.106  64.909  1.00  0.00    -0.147 A  
HETATM   12  C   UNL     1      -7.741  10.198  65.867  1.00  0.00    -0.127 A  
HETATM   13  N   UNL     1      -7.921   7.438  66.024  1.00  0.00    -0.108 NA 
HETATM   14  C   UNL     1      -8.209   9.475  64.780  1.00  0.00    -0.143 A  
BRANCH  10  15
HETATM   15  C   UNL     1      -6.836  10.421  68.167  1.00  0.00    -0.072 C  
BRANCH  15  16
HETATM   16  O   UNL     1      -7.960  10.947  68.861  1.00  0.00    -0.133 OA 
BRANCH  16  17
HETATM   17  C   UNL     1      -8.713  11.935  68.291  1.00  0.00    -0.170 A  
HETATM   18  C   UNL     1      -8.183  13.129  67.783  1.00  0.00    -0.168 A  
HETATM   19  C   UNL     1      -9.003  14.058  67.133  1.00  0.00    -0.241 A  
HETATM   20  C   UNL     1     -10.367  13.823  67.003  1.00  0.00    -0.260 A  
HETATM   21  C   UNL     1     -10.915  12.654  67.530  1.00  0.00    -0.246 A  
HETATM   22  O   UNL     1     -12.264  12.448  67.425  1.00  0.00    -0.459 OA 
HETATM   23  C   UNL     1     -10.098  11.702  68.165  1.00  0.00    -0.202 A  
HETATM   24  C   UNL     1     -10.747  10.463  68.679  1.00  0.00    -0.218 C  
HETATM   25  H   UNL     1     -12.637  11.651  67.783  1.00  0.00     0.000 HD 
HETATM   26  O   UNL     1     -10.191   9.605  69.353  1.00  0.00    -0.187 OA 
ENDBRANCH  16  17
ENDBRANCH  15  16
ENDBRANCH  10  15
ENDBRANCH   8   9
ENDBRANCH   2   4
TORSDOF 5
ENDMDL
MODEL      329
REMARK 921   NORMALIZED FREE ENERGY PREDICTED BY IDOCK:   -2.82 KCAL/MOL
REMARK 922        TOTAL FREE ENERGY PREDICTED BY IDOCK:   -4.85 KCAL/MOL
REMARK 923 INTER-LIGAND FREE ENERGY PREDICTED BY IDOCK:   -4.01 KCAL/MOL
REMARK 924 INTRA-LIGAND FREE ENERGY PREDICTED BY IDOCK:   -0.85 KCAL/MOL
REMARK 927      BINDING AFFINITY PREDICTED BY RF-SCORE:    0.00 PKD
ROOT
HETATM    1  C   UNL     1      -8.922   4.578  62.467  1.00  0.00    -0.127 C  
HETATM    2  C   UNL     1      -9.513   4.211  63.831  1.00  0.00    -0.149 C  
HETATM    3  C   UNL     1     -10.212   2.846  63.759  1.00  0.00    -0.176 C  
ENDROOT
BRANCH   2   4
HETATM    4  N   UNL     1      -8.501   4.194  64.889  1.00  0.00    -0.113 NA 
HETATM    5  N   UNL     1      -7.898   3.009  65.163  1.00  0.00    -0.081 NA 
HETATM    6  C   UNL     1      -7.309   3.213  66.335  1.00  0.00    -0.075 A  
HETATM    7  C   UNL     1      -7.473   4.530  66.789  1.00  0.00    -0.082 A  
HETATM    8  C   UNL     1      -8.168   5.197  65.791  1.00  0.00    -0.117 A  
BRANCH   8   9
HETATM    9  C   UNL     1      -8.416   6.629  65.588  1.00  0.00    -0.144 A  
HETATM   10  C   UNL     1      -9.328   7.426  66.290  1.00  0.00    -0.166 A  
HETATM   11  C   UNL     1      -7.552   8.489  64.482  1.00  0.00    -0.115 A  
HETATM   12  C   UNL     1      -9.324   8.810  66.013  1.00  0.00    -0.296 A  
HETATM   13  N   UNL     1      -7.532   7.157  64.698  1.00  0.00    -0.090 NA 
HETATM   14  C   UNL     1      -8.421   9.352  65.112  1.00  0.00    -0.166 A  
BRANCH  10  15
HETATM   15  C   UNL     1     -10.346   6.941  67.287  1.00  0.00    -0.251 C  
BRANCH  15  16
HETATM   16  O   UNL     1      -9.661   6.342  68.378  1.00  0.00    -0.121 OA 
BRANCH  16  17
HETATM   17  C   UNL     1      -9.058   7.128  69.319  1.00  0.00    -0.137 A  
HETATM   18  C   UNL     1      -7.763   7.650  69.192  1.00  0.00    -0.109 A  
HETATM   19  C   UNL     1      -7.242   8.521  70.155  1.00  0.00    -0.051 A  
HETATM   20  C   UNL     1      -7.995   8.864  71.273  1.00  0.00    -0.172 A  
HETATM   21  C   UNL     1      -9.273   8.330  71.430  1.00  0.00    -0.169 A  
HETATM   22  O   UNL     1      -9.992   8.648  72.550  1.00  0.00    -0.282 OA 
HETATM   23  C   UNL     1      -9.816   7.471  70.458  1.00  0.00    -0.183 A  
HETATM   24  C   UNL     1     -11.199   6.961  70.677  1.00  0.00    -0.301 C  
HETATM   25  H   UNL     1     -10.864   8.285  72.657  1.00  0.00     0.000 HD 
HETATM   26  O   UNL     1     -11.757   6.119  69.984  1.00  0.00    -0.336 OA 
ENDBRANCH  16  17
ENDBRANCH  15  16
ENDBRANCH  10  15
ENDBRANCH   8   9
ENDBRANCH   2   4
TORSDOF 5
ENDMDL
MODEL      330
REMARK 921   NORMALIZED FREE ENERGY PREDICTED BY IDOCK:   -2.81 KCAL/MOL
REMARK 922        TOTAL FREE ENERGY PREDICTED BY IDOCK:   -4.85 KCAL/MOL
REMARK 923 INTER-LIGAND FREE ENERGY PREDICTED BY IDOCK:   -3.81 KCAL/MOL
REMARK 924 INTRA-LIGAND FREE ENERGY PREDICTED BY IDOCK:   -1.03 KCAL/MOL
REMARK 927      BINDING AFFINITY PREDICTED BY RF-SCORE:    0.00 PKD
ROOT
HETATM    1  C   UNL     1      -7.507   9.827  63.984  1.00  0.00    -0.130 C  
HETATM    2  C   UNL     1      -7.931  10.305  65.376  1.00  0.00    -0.148 C  
HETATM    3  C   UNL     1      -6.817  11.146  66.013  1.00  0.00     0.053 C  
ENDROOT
BRANCH   2   4
HETATM    4  N   UNL     1      -9.177  11.074  65.342  1.00  0.00    -0.207 NA 
HETATM    5  N   UNL     1      -9.446  11.786  64.218  1.00  0.00    -0.043 NA 
HETATM    6  C   UNL     1     -10.417  12.612  64.586  1.00  0.00    -0.337 A  
HETATM    7  C   UNL     1     -10.817  12.401  65.914  1.00  0.00    -0.305 A  
HETATM    8  C   UNL     1     -10.073  11.326  66.374  1.00  0.00    -0.220 A  
BRANCH   8   9
HETATM    9  C   UNL     1     -10.220  10.503  67.580  1.00  0.00    -0.197 A  
HETATM   10  C   UNL     1     -10.227   9.105  67.642  1.00  0.00    -0.293 A  
HETATM   11  C   UNL     1     -10.227  10.664  69.905  1.00  0.00     0.039 A  
HETATM   12  C   UNL     1     -10.264   8.514  68.923  1.00  0.00    -0.221 A  
HETATM   13  N   UNL     1     -10.213  11.275  68.702  1.00  0.00    -0.198 NA 
HETATM   14  C   UNL     1     -10.251   9.297  70.068  1.00  0.00    -0.244 A  
BRANCH  10  15
HETATM   15  C   UNL     1     -10.242   8.166  66.466  1.00  0.00    -0.177 C  
BRANCH  15  16
HETATM   16  O   UNL     1      -9.730   6.908  66.885  1.00  0.00    -0.155 OA 
BRANCH  16  17
HETATM   17  C   UNL     1      -8.519   6.476  66.422  1.00  0.00    -0.124 A  
HETATM   18  C   UNL     1      -7.318   7.178  66.592  1.00  0.00    -0.084 A  
HETATM   19  C   UNL     1      -6.101   6.632  66.170  1.00  0.00    -0.033 A  
HETATM   20  C   UNL     1      -6.066   5.390  65.546  1.00  0.00    -0.033 A  
HETATM   21  C   UNL     1      -7.255   4.691  65.342  1.00  0.00    -0.068 A  
HETATM   22  O   UNL     1      -7.214   3.484  64.699  1.00  0.00    -0.063 OA 
HETATM   23  C   UNL     1      -8.482   5.219  65.782  1.00  0.00    -0.128 A  
HETATM   24  C   UNL     1      -9.710   4.405  65.556  1.00  0.00    -0.200 C  
HETATM   25  H   UNL     1      -8.024   3.008  64.560  1.00  0.00     0.000 HD 
HETATM   26  O   UNL     1     -10.854   4.781  65.776  1.00  0.00    -0.295 OA 
ENDBRANCH  16  17
ENDBRANCH  15  16
ENDBRANCH  10  15
ENDBRANCH   8   9
ENDBRANCH   2   4
TORSDOF 5
ENDMDL
MODEL      331
REMARK 921   NORMALIZED FREE ENERGY PREDICTED BY IDOCK:   -2.80 KCAL/MOL
REMARK 922        TOTAL FREE ENERGY PREDICTED BY IDOCK:   -4.83 KCAL/MOL
REMARK 923 INTER-LIGAND FREE ENERGY PREDICTED BY IDOCK:   -3.95 KCAL/MOL
REMARK 924 INTRA-LIGAND FREE ENERGY PREDICTED BY IDOCK:   -0.88 KCAL/MOL
REMARK 927      BINDING AFFINITY PREDICTED BY RF-SCORE:    0.00 PKD
ROOT
HETATM    1  C   UNL     1      -7.138  12.714  69.378  1.00  0.00     0.183 C  
HETATM    2  C   UNL     1      -8.435  12.789  68.568  1.00  0.00    -0.044 C  
HETATM    3  C   UNL     1      -8.440  14.045  67.686  1.00  0.00    -0.193 C  
ENDROOT
BRANCH   2   4
HETATM    4  N   UNL     1      -8.642  11.600  67.739  1.00  0.00    -0.139 NA 
HETATM    5  N   UNL     1      -7.913  11.495  66.598  1.00  0.00    -0.152 NA 
HETATM    6  C   UNL     1      -8.527  10.538  65.913  1.00  0.00    -0.162 A  
HETATM    7  C   UNL     1      -9.603   9.985  66.623  1.00  0.00    -0.234 A  
HETATM    8  C   UNL     1      -9.612  10.613  67.859  1.00  0.00    -0.162 A  
BRANCH   8   9
HETATM    9  C   UNL     1     -10.337  10.291  69.093  1.00  0.00    -0.223 A  
HETATM   10  C   UNL     1      -9.832   9.600  70.201  1.00  0.00    -0.310 A  
HETATM   11  C   UNL     1     -12.318  10.771  70.223  1.00  0.00    -0.341 A  
HETATM   12  C   UNL     1     -10.666   9.499  71.335  1.00  0.00    -0.348 A  
HETATM   13  N   UNL     1     -11.566  10.877  69.107  1.00  0.00    -0.296 NA 
HETATM   14  C   UNL     1     -11.916  10.100  71.355  1.00  0.00    -0.447 A  
BRANCH  10  15
HETATM   15  C   UNL     1      -8.495   8.914  70.285  1.00  0.00    -0.160 C  
BRANCH  15  16
HETATM   16  O   UNL     1      -8.293   8.171  69.090  1.00  0.00    -0.127 OA 
BRANCH  16  17
HETATM   17  C   UNL     1      -8.889   6.951  68.936  1.00  0.00    -0.129 A  
HETATM   18  C   UNL     1     -10.275   6.761  68.842  1.00  0.00    -0.186 A  
HETATM   19  C   UNL     1     -10.810   5.492  68.597  1.00  0.00    -0.088 A  
HETATM   20  C   UNL     1      -9.974   4.389  68.468  1.00  0.00    -0.070 A  
HETATM   21  C   UNL     1      -8.595   4.555  68.588  1.00  0.00    -0.089 A  
HETATM   22  O   UNL     1      -7.783   3.457  68.491  1.00  0.00    -0.056 OA 
HETATM   23  C   UNL     1      -8.043   5.828  68.813  1.00  0.00    -0.102 A  
HETATM   24  C   UNL     1      -6.560   5.937  68.903  1.00  0.00    -0.055 C  
HETATM   25  H   UNL     1      -6.843   3.570  68.574  1.00  0.00     0.000 HD 
HETATM   26  O   UNL     1      -5.945   6.950  69.210  1.00  0.00    -0.018 OA 
ENDBRANCH  16  17
ENDBRANCH  15  16
ENDBRANCH  10  15
ENDBRANCH   8   9
ENDBRANCH   2   4
TORSDOF 5
ENDMDL
MODEL      332
REMARK 921   NORMALIZED FREE ENERGY PREDICTED BY IDOCK:   -2.80 KCAL/MOL
REMARK 922        TOTAL FREE ENERGY PREDICTED BY IDOCK:   -4.83 KCAL/MOL
REMARK 923 INTER-LIGAND FREE ENERGY PREDICTED BY IDOCK:   -3.66 KCAL/MOL
REMARK 924 INTRA-LIGAND FREE ENERGY PREDICTED BY IDOCK:   -1.17 KCAL/MOL
REMARK 927      BINDING AFFINITY PREDICTED BY RF-SCORE:    0.00 PKD
ROOT
HETATM    1  C   UNL     1      -7.518   9.641  64.553  1.00  0.00    -0.128 C  
HETATM    2  C   UNL     1      -7.725   9.945  66.039  1.00  0.00    -0.108 C  
HETATM    3  C   UNL     1      -6.866  11.144  66.462  1.00  0.00    -0.126 C  
ENDROOT
BRANCH   2   4
HETATM    4  N   UNL     1      -9.130  10.202  66.363  1.00  0.00    -0.150 NA 
HETATM    5  N   UNL     1      -9.907  10.755  65.397  1.00  0.00    -0.243 NA 
HETATM    6  C   UNL     1     -10.984  11.170  66.051  1.00  0.00    -0.123 A  
HETATM    7  C   UNL     1     -10.939  10.838  67.413  1.00  0.00    -0.361 A  
HETATM    8  C   UNL     1      -9.769  10.115  67.593  1.00  0.00    -0.161 A  
BRANCH   8   9
HETATM    9  C   UNL     1      -9.307   9.308  68.728  1.00  0.00    -0.139 A  
HETATM   10  C   UNL     1      -9.726   8.013  69.058  1.00  0.00    -0.159 A  
HETATM   11  C   UNL     1      -7.666   9.260  70.382  1.00  0.00    -0.143 A  
HETATM   12  C   UNL     1      -9.065   7.372  70.126  1.00  0.00    -0.148 A  
HETATM   13  N   UNL     1      -8.282   9.921  69.380  1.00  0.00    -0.132 NA 
HETATM   14  C   UNL     1      -8.017   7.992  70.789  1.00  0.00    -0.099 A  
BRANCH  10  15
HETATM   15  C   UNL     1     -10.849   7.252  68.404  1.00  0.00    -0.058 C  
BRANCH  15  16
HETATM   16  O   UNL     1     -10.583   5.861  68.527  1.00  0.00    -0.215 OA 
BRANCH  16  17
HETATM   17  C   UNL     1      -9.842   5.221  67.573  1.00  0.00    -0.156 A  
HETATM   18  C   UNL     1      -9.673   5.693  66.264  1.00  0.00    -0.162 A  
HETATM   19  C   UNL     1      -8.829   5.032  65.366  1.00  0.00    -0.152 A  
HETATM   20  C   UNL     1      -8.160   3.875  65.751  1.00  0.00    -0.097 A  
HETATM   21  C   UNL     1      -8.340   3.376  67.040  1.00  0.00    -0.096 A  
HETATM   22  O   UNL     1      -7.702   2.219  67.399  1.00  0.00    -0.060 OA 
HETATM   23  C   UNL     1      -9.169   4.043  67.959  1.00  0.00    -0.200 A  
HETATM   24  C   UNL     1      -9.293   3.468  69.328  1.00  0.00    -0.172 C  
HETATM   25  H   UNL     1      -7.825   1.878  68.277  1.00  0.00     0.000 HD 
HETATM   26  O   UNL     1     -10.062   3.868  70.193  1.00  0.00    -0.067 OA 
ENDBRANCH  16  17
ENDBRANCH  15  16
ENDBRANCH  10  15
ENDBRANCH   8   9
ENDBRANCH   2   4
TORSDOF 5
ENDMDL
MODEL      333
REMARK 921   NORMALIZED FREE ENERGY PREDICTED BY IDOCK:   -2.79 KCAL/MOL
REMARK 922        TOTAL FREE ENERGY PREDICTED BY IDOCK:   -4.82 KCAL/MOL
REMARK 923 INTER-LIGAND FREE ENERGY PREDICTED BY IDOCK:   -4.63 KCAL/MOL
REMARK 924 INTRA-LIGAND FREE ENERGY PREDICTED BY IDOCK:   -0.19 KCAL/MOL
REMARK 927      BINDING AFFINITY PREDICTED BY RF-SCORE:    0.00 PKD
ROOT
HETATM    1  C   UNL     1      -6.403  12.645  69.727  1.00  0.00    -0.070 C  
HETATM    2  C   UNL     1      -6.696  12.804  68.232  1.00  0.00    -0.087 C  
HETATM    3  C   UNL     1      -5.387  12.818  67.431  1.00  0.00    -0.027 C  
ENDROOT
BRANCH   2   4
HETATM    4  N   UNL     1      -7.579  11.752  67.724  1.00  0.00    -0.118 NA 
HETATM    5  N   UNL     1      -7.007  10.579  67.350  1.00  0.00    -0.083 NA 
HETATM    6  C   UNL     1      -7.954   9.972  66.645  1.00  0.00    -0.115 A  
HETATM    7  C   UNL     1      -9.146  10.711  66.612  1.00  0.00    -0.176 A  
HETATM    8  C   UNL     1      -8.928  11.828  67.404  1.00  0.00    -0.173 A  
BRANCH   8   9
HETATM    9  C   UNL     1      -9.866  12.822  67.938  1.00  0.00    -0.223 A  
HETATM   10  C   UNL     1     -10.011  14.147  67.512  1.00  0.00    -0.236 A  
HETATM   11  C   UNL     1     -11.713  13.013  69.347  1.00  0.00    -0.326 A  
HETATM   12  C   UNL     1     -11.058  14.901  68.085  1.00  0.00    -0.290 A  
HETATM   13  N   UNL     1     -10.714  12.259  68.842  1.00  0.00    -0.206 NA 
HETATM   14  C   UNL     1     -11.927  14.328  69.001  1.00  0.00    -0.360 A  
BRANCH  10  15
HETATM   15  C   UNL     1      -9.127  14.863  66.526  1.00  0.00    -0.277 C  
BRANCH  15  16
HETATM   16  O   UNL     1      -8.875  16.174  67.013  1.00  0.00    -0.189 OA 
BRANCH  16  17
HETATM   17  C   UNL     1      -7.767  16.417  67.776  1.00  0.00    -0.149 A  
HETATM   18  C   UNL     1      -6.604  15.635  67.742  1.00  0.00    -0.183 A  
HETATM   19  C   UNL     1      -5.475  15.994  68.485  1.00  0.00    -0.100 A  
HETATM   20  C   UNL     1      -5.497  17.125  69.295  1.00  0.00    -0.168 A  
HETATM   21  C   UNL     1      -6.656  17.897  69.364  1.00  0.00    -0.200 A  
HETATM   22  O   UNL     1      -6.677  18.989  70.188  1.00  0.00     0.024 OA 
HETATM   23  C   UNL     1      -7.790  17.559  68.604  1.00  0.00    -0.272 A  
HETATM   24  C   UNL     1      -8.983  18.445  68.705  1.00  0.00    -0.286 C  
HETATM   25  H   UNL     1      -7.467  19.516  70.235  1.00  0.00     0.000 HD 
HETATM   26  O   UNL     1     -10.075  18.216  68.199  1.00  0.00    -0.338 OA 
ENDBRANCH  16  17
ENDBRANCH  15  16
ENDBRANCH  10  15
ENDBRANCH   8   9
ENDBRANCH   2   4
TORSDOF 5
ENDMDL
MODEL      334
REMARK 921   NORMALIZED FREE ENERGY PREDICTED BY IDOCK:   -2.70 KCAL/MOL
REMARK 922        TOTAL FREE ENERGY PREDICTED BY IDOCK:   -4.70 KCAL/MOL
REMARK 923 INTER-LIGAND FREE ENERGY PREDICTED BY IDOCK:   -4.25 KCAL/MOL
REMARK 924 INTRA-LIGAND FREE ENERGY PREDICTED BY IDOCK:   -0.45 KCAL/MOL
REMARK 927      BINDING AFFINITY PREDICTED BY RF-SCORE:    0.00 PKD
ROOT
HETATM    1  C   UNL     1     -10.502  18.010  66.955  1.00  0.00    -0.361 C  
HETATM    2  C   UNL     1      -9.938  16.809  67.720  1.00  0.00    -0.268 C  
HETATM    3  C   UNL     1      -9.037  17.283  68.868  1.00  0.00    -0.172 C  
ENDROOT
BRANCH   2   4
HETATM    4  N   UNL     1     -10.993  15.939  68.243  1.00  0.00    -0.314 NA 
HETATM    5  N   UNL     1     -11.772  16.427  69.243  1.00  0.00    -0.114 NA 
HETATM    6  C   UNL     1     -12.382  15.353  69.727  1.00  0.00    -0.255 A  
HETATM    7  C   UNL     1     -12.054  14.190  69.015  1.00  0.00    -0.348 A  
HETATM    8  C   UNL     1     -11.223  14.594  67.981  1.00  0.00    -0.293 A  
BRANCH   8   9
HETATM    9  C   UNL     1     -10.764  13.880  66.785  1.00  0.00    -0.281 A  
HETATM   10  C   UNL     1     -10.148  12.623  66.747  1.00  0.00    -0.243 A  
HETATM   11  C   UNL     1     -10.889  13.951  64.458  1.00  0.00    -0.368 A  
HETATM   12  C   UNL     1      -9.891  12.066  65.477  1.00  0.00    -0.251 A  
HETATM   13  N   UNL     1     -11.137  14.534  65.650  1.00  0.00    -0.317 NA 
HETATM   14  C   UNL     1     -10.275  12.727  64.319  1.00  0.00    -0.352 A  
BRANCH  10  15
HETATM   15  C   UNL     1      -9.693  11.823  67.939  1.00  0.00    -0.185 C  
BRANCH  15  16
HETATM   16  O   UNL     1      -8.273  11.760  67.925  1.00  0.00    -0.132 OA 
BRANCH  16  17
HETATM   17  C   UNL     1      -7.538  12.904  68.057  1.00  0.00    -0.137 A  
HETATM   18  C   UNL     1      -7.510  13.933  67.105  1.00  0.00     0.094 A  
HETATM   19  C   UNL     1      -6.804  15.116  67.348  1.00  0.00    -0.166 A  
HETATM   20  C   UNL     1      -6.092  15.280  68.531  1.00  0.00    -0.094 A  
HETATM   21  C   UNL     1      -6.085  14.254  69.475  1.00  0.00    -0.112 A  
HETATM   22  O   UNL     1      -5.355  14.414  70.622  1.00  0.00    -0.109 OA 
HETATM   23  C   UNL     1      -6.809  13.070  69.253  1.00  0.00    -0.019 A  
HETATM   24  C   UNL     1      -6.779  12.028  70.318  1.00  0.00     0.653 C  
HETATM   25  H   UNL     1      -5.350  13.715  71.266  1.00  0.00     0.000 HD 
HETATM   26  O   UNL     1      -7.259  10.906  70.219  1.00  0.00    -0.106 OA 
ENDBRANCH  16  17
ENDBRANCH  15  16
ENDBRANCH  10  15
ENDBRANCH   8   9
ENDBRANCH   2   4
TORSDOF 5
ENDMDL
MODEL      335
REMARK 921   NORMALIZED FREE ENERGY PREDICTED BY IDOCK:   -2.69 KCAL/MOL
REMARK 922        TOTAL FREE ENERGY PREDICTED BY IDOCK:   -4.68 KCAL/MOL
REMARK 923 INTER-LIGAND FREE ENERGY PREDICTED BY IDOCK:   -3.19 KCAL/MOL
REMARK 924 INTRA-LIGAND FREE ENERGY PREDICTED BY IDOCK:   -1.50 KCAL/MOL
REMARK 927      BINDING AFFINITY PREDICTED BY RF-SCORE:    0.00 PKD
ROOT
HETATM    1  C   UNL     1     -10.105  11.694  65.433  1.00  0.00    -0.299 C  
HETATM    2  C   UNL     1      -9.453  10.382  65.879  1.00  0.00    -0.189 C  
HETATM    3  C   UNL     1      -7.996  10.322  65.402  1.00  0.00    -0.148 C  
ENDROOT
BRANCH   2   4
HETATM    4  N   UNL     1      -9.509  10.199  67.331  1.00  0.00    -0.151 NA 
HETATM    5  N   UNL     1      -9.647  11.311  68.099  1.00  0.00    -0.180 NA 
HETATM    6  C   UNL     1      -9.337  10.896  69.321  1.00  0.00    -0.006 A  
HETATM    7  C   UNL     1      -9.060   9.521  69.360  1.00  0.00    -0.172 A  
HETATM    8  C   UNL     1      -9.272   9.050  68.073  1.00  0.00    -0.135 A  
BRANCH   8   9
HETATM    9  C   UNL     1      -9.379   7.679  67.560  1.00  0.00    -0.139 A  
HETATM   10  C   UNL     1      -8.359   6.722  67.516  1.00  0.00    -0.122 A  
HETATM   11  C   UNL     1     -10.956   6.114  66.856  1.00  0.00    -0.305 A  
HETATM   12  C   UNL     1      -8.708   5.423  67.089  1.00  0.00    -0.107 A  
HETATM   13  N   UNL     1     -10.667   7.375  67.239  1.00  0.00    -0.316 NA 
HETATM   14  C   UNL     1     -10.020   5.109  66.767  1.00  0.00    -0.231 A  
BRANCH  10  15
HETATM   15  C   UNL     1      -6.908   6.957  67.844  1.00  0.00    -0.081 C  
BRANCH  15  16
HETATM   16  O   UNL     1      -6.505   6.003  68.818  1.00  0.00    -0.045 OA 
BRANCH  16  17
HETATM   17  C   UNL     1      -6.697   6.260  70.146  1.00  0.00    -0.050 A  
HETATM   18  C   UNL     1      -6.495   7.513  70.740  1.00  0.00    -0.039 A  
HETATM   19  C   UNL     1      -6.798   7.726  72.089  1.00  0.00    -0.060 A  
HETATM   20  C   UNL     1      -7.281   6.685  72.873  1.00  0.00    -0.080 A  
HETATM   21  C   UNL     1      -7.460   5.424  72.306  1.00  0.00    -0.096 A  
HETATM   22  O   UNL     1      -7.906   4.398  73.095  1.00  0.00    -0.088 OA 
HETATM   23  C   UNL     1      -7.181   5.203  70.946  1.00  0.00    -0.064 A  
HETATM   24  C   UNL     1      -7.422   3.838  70.400  1.00  0.00    -0.041 C  
HETATM   25  H   UNL     1      -8.027   3.539  72.709  1.00  0.00     0.000 HD 
HETATM   26  O   UNL     1      -7.117   3.466  69.274  1.00  0.00    -0.044 OA 
ENDBRANCH  16  17
ENDBRANCH  15  16
ENDBRANCH  10  15
ENDBRANCH   8   9
ENDBRANCH   2   4
TORSDOF 5
ENDMDL
MODEL      336
REMARK 921   NORMALIZED FREE ENERGY PREDICTED BY IDOCK:   -2.46 KCAL/MOL
REMARK 922        TOTAL FREE ENERGY PREDICTED BY IDOCK:   -4.39 KCAL/MOL
REMARK 923 INTER-LIGAND FREE ENERGY PREDICTED BY IDOCK:   -3.49 KCAL/MOL
REMARK 924 INTRA-LIGAND FREE ENERGY PREDICTED BY IDOCK:   -0.90 KCAL/MOL
REMARK 927      BINDING AFFINITY PREDICTED BY RF-SCORE:    0.00 PKD
ROOT
HETATM    1  C   UNL     1      -9.009   8.356  71.974  1.00  0.00    -0.290 C  
HETATM    2  C   UNL     1     -10.114   7.712  71.132  1.00  0.00    -0.184 C  
HETATM    3  C   UNL     1     -11.487   7.979  71.761  1.00  0.00    -0.324 C  
ENDROOT
BRANCH   2   4
HETATM    4  N   UNL     1     -10.101   8.183  69.745  1.00  0.00    -0.193 NA 
HETATM    5  N   UNL     1     -10.308   9.508  69.530  1.00  0.00    -0.205 NA 
HETATM    6  C   UNL     1     -10.573   9.584  68.232  1.00  0.00    -0.216 A  
HETATM    7  C   UNL     1     -10.481   8.336  67.598  1.00  0.00    -0.303 A  
HETATM    8  C   UNL     1     -10.073   7.438  68.573  1.00  0.00    -0.175 A  
BRANCH   8   9
HETATM    9  C   UNL     1      -9.579   6.061  68.462  1.00  0.00    -0.121 A  
HETATM   10  C   UNL     1      -8.668   5.574  67.518  1.00  0.00    -0.107 A  
HETATM   11  C   UNL     1      -9.558   4.034  69.612  1.00  0.00    -0.200 A  
HETATM   12  C   UNL     1      -8.237   4.238  67.663  1.00  0.00    -0.098 A  
HETATM   13  N   UNL     1     -10.014   5.299  69.503  1.00  0.00    -0.206 NA 
HETATM   14  C   UNL     1      -8.674   3.462  68.726  1.00  0.00    -0.143 A  
BRANCH  10  15
HETATM   15  C   UNL     1      -8.132   6.330  66.332  1.00  0.00    -0.112 C  
BRANCH  15  16
HETATM   16  O   UNL     1      -6.873   6.889  66.683  1.00  0.00    -0.060 OA 
BRANCH  16  17
HETATM   17  C   UNL     1      -6.728   8.245  66.765  1.00  0.00    -0.064 A  
HETATM   18  C   UNL     1      -7.259   9.149  65.834  1.00  0.00    -0.093 A  
HETATM   19  C   UNL     1      -7.147  10.529  66.030  1.00  0.00    -0.137 A  
HETATM   20  C   UNL     1      -6.480  11.030  67.142  1.00  0.00    -0.084 A  
HETATM   21  C   UNL     1      -5.919  10.145  68.062  1.00  0.00    -0.041 A  
HETATM   22  O   UNL     1      -5.237  10.649  69.136  1.00  0.00    -0.042 OA 
HETATM   23  C   UNL     1      -6.045   8.756  67.889  1.00  0.00    -0.051 A  
HETATM   24  C   UNL     1      -5.445   7.869  68.926  1.00  0.00    -0.026 C  
HETATM   25  H   UNL     1      -4.855  10.046  69.763  1.00  0.00     0.000 HD 
HETATM   26  O   UNL     1      -5.372   6.649  68.852  1.00  0.00    -0.014 OA 
ENDBRANCH  16  17
ENDBRANCH  15  16
ENDBRANCH  10  15
ENDBRANCH   8   9
ENDBRANCH   2   4
TORSDOF 5
ENDMDL
MODEL      337
REMARK 921   NORMALIZED FREE ENERGY PREDICTED BY IDOCK:   -2.38 KCAL/MOL
REMARK 922        TOTAL FREE ENERGY PREDICTED BY IDOCK:   -4.28 KCAL/MOL
REMARK 923 INTER-LIGAND FREE ENERGY PREDICTED BY IDOCK:   -3.00 KCAL/MOL
REMARK 924 INTRA-LIGAND FREE ENERGY PREDICTED BY IDOCK:   -1.29 KCAL/MOL
REMARK 927      BINDING AFFINITY PREDICTED BY RF-SCORE:    0.00 PKD
ROOT
HETATM    1  C   UNL     1      -6.157  16.875  66.451  1.00  0.00     0.016 C  
HETATM    2  C   UNL     1      -7.343  17.843  66.464  1.00  0.00    -0.244 C  
HETATM    3  C   UNL     1      -7.201  18.876  65.338  1.00  0.00     0.052 C  
ENDROOT
BRANCH   2   4
HETATM    4  N   UNL     1      -8.627  17.148  66.342  1.00  0.00    -0.302 NA 
HETATM    5  N   UNL     1      -8.664  16.026  65.580  1.00  0.00     0.156 NA 
HETATM    6  C   UNL     1      -9.959  15.816  65.381  1.00  0.00    -0.237 A  
HETATM    7  C   UNL     1     -10.758  16.752  66.055  1.00  0.00    -0.139 A  
HETATM    8  C   UNL     1      -9.884  17.562  66.765  1.00  0.00    -0.306 A  
BRANCH   8   9
HETATM    9  C   UNL     1     -10.135  18.543  67.827  1.00  0.00    -0.364 A  
HETATM   10  C   UNL     1     -10.105  18.308  69.206  1.00  0.00    -0.059 A  
HETATM   11  C   UNL     1     -10.397  20.834  68.165  1.00  0.00     0.329 A  
HETATM   12  C   UNL     1     -10.261  19.423  70.056  1.00  0.00     0.650 A  
HETATM   13  N   UNL     1     -10.272  19.796  67.312  1.00  0.00    -0.409 NA 
HETATM   14  C   UNL     1     -10.396  20.701  69.536  1.00  0.00     0.452 A  
BRANCH  10  15
HETATM   15  C   UNL     1      -9.964  16.966  69.873  1.00  0.00     0.404 C  
BRANCH  15  16
HETATM   16  O   UNL     1     -11.144  16.213  69.629  1.00  0.00    -0.305 OA 
BRANCH  16  17
HETATM   17  C   UNL     1     -11.055  14.887  69.309  1.00  0.00    -0.271 A  
HETATM   18  C   UNL     1     -10.089  14.352  68.445  1.00  0.00    -0.244 A  
HETATM   19  C   UNL     1     -10.002  12.973  68.233  1.00  0.00    -0.235 A  
HETATM   20  C   UNL     1     -10.893  12.107  68.858  1.00  0.00    -0.241 A  
HETATM   21  C   UNL     1     -11.878  12.625  69.696  1.00  0.00    -0.311 A  
HETATM   22  O   UNL     1     -12.770  11.767  70.281  1.00  0.00    -0.083 OA 
HETATM   23  C   UNL     1     -11.963  14.008  69.936  1.00  0.00    -0.399 A  
HETATM   24  C   UNL     1     -13.023  14.489  70.866  1.00  0.00    -0.361 C  
HETATM   25  H   UNL     1     -13.442  12.120  70.853  1.00  0.00     0.000 HD 
HETATM   26  O   UNL     1     -13.293  15.664  71.079  1.00  0.00    -0.545 OA 
ENDBRANCH  16  17
ENDBRANCH  15  16
ENDBRANCH  10  15
ENDBRANCH   8   9
ENDBRANCH   2   4
TORSDOF 5
ENDMDL
MODEL      338
REMARK 921   NORMALIZED FREE ENERGY PREDICTED BY IDOCK:   -2.18 KCAL/MOL
REMARK 922        TOTAL FREE ENERGY PREDICTED BY IDOCK:   -4.03 KCAL/MOL
REMARK 923 INTER-LIGAND FREE ENERGY PREDICTED BY IDOCK:   -2.69 KCAL/MOL
REMARK 924 INTRA-LIGAND FREE ENERGY PREDICTED BY IDOCK:   -1.34 KCAL/MOL
REMARK 927      BINDING AFFINITY PREDICTED BY RF-SCORE:    0.00 PKD
ROOT
HETATM    1  C   UNL     1     -10.113  10.687  66.324  1.00  0.00    -0.291 C  
HETATM    2  C   UNL     1      -9.357   9.361  66.448  1.00  0.00    -0.187 C  
HETATM    3  C   UNL     1      -7.843   9.603  66.391  1.00  0.00    -0.101 C  
ENDROOT
BRANCH   2   4
HETATM    4  N   UNL     1      -9.699   8.639  67.676  1.00  0.00    -0.152 NA 
HETATM    5  N   UNL     1     -10.387   9.316  68.631  1.00  0.00    -0.200 NA 
HETATM    6  C   UNL     1     -10.262   8.559  69.713  1.00  0.00    -0.206 A  
HETATM    7  C   UNL     1      -9.555   7.375  69.454  1.00  0.00    -0.155 A  
HETATM    8  C   UNL     1      -9.276   7.385  68.095  1.00  0.00    -0.133 A  
BRANCH   8   9
HETATM    9  C   UNL     1      -8.784   6.323  67.210  1.00  0.00    -0.105 A  
HETATM   10  C   UNL     1      -7.563   5.646  67.315  1.00  0.00    -0.089 A  
HETATM   11  C   UNL     1      -9.487   4.907  65.497  1.00  0.00    -0.145 A  
HETATM   12  C   UNL     1      -7.339   4.574  66.425  1.00  0.00    -0.081 A  
HETATM   13  N   UNL     1      -9.739   5.952  66.313  1.00  0.00    -0.133 NA 
HETATM   14  C   UNL     1      -8.312   4.190  65.515  1.00  0.00    -0.109 A  
BRANCH  10  15
HETATM   15  C   UNL     1      -6.444   5.980  68.265  1.00  0.00    -0.046 C  
BRANCH  15  16
HETATM   16  O   UNL     1      -6.161   4.830  69.051  1.00  0.00    -0.027 OA 
BRANCH  16  17
HETATM   17  C   UNL     1      -6.883   4.584  70.185  1.00  0.00    -0.037 A  
HETATM   18  C   UNL     1      -7.251   5.570  71.110  1.00  0.00    -0.075 A  
HETATM   19  C   UNL     1      -8.068   5.260  72.203  1.00  0.00    -0.114 A  
HETATM   20  C   UNL     1      -8.508   3.956  72.404  1.00  0.00    -0.101 A  
HETATM   21  C   UNL     1      -8.126   2.957  71.510  1.00  0.00    -0.056 A  
HETATM   22  O   UNL     1      -8.538   1.671  71.735  1.00  0.00    -0.053 OA 
HETATM   23  C   UNL     1      -7.324   3.260  70.395  1.00  0.00    -0.040 A  
HETATM   24  C   UNL     1      -6.978   2.149  69.465  1.00  0.00    -0.033 C  
HETATM   25  H   UNL     1      -8.278   0.991  71.126  1.00  0.00     0.000 HD 
HETATM   26  O   UNL     1      -6.199   2.234  68.525  1.00  0.00    -0.024 OA 
ENDBRANCH  16  17
ENDBRANCH  15  16
ENDBRANCH  10  15
ENDBRANCH   8   9
ENDBRANCH   2   4
TORSDOF 5
ENDMDL
MODEL      339
REMARK 921   NORMALIZED FREE ENERGY PREDICTED BY IDOCK:   -2.12 KCAL/MOL
REMARK 922        TOTAL FREE ENERGY PREDICTED BY IDOCK:   -3.95 KCAL/MOL
REMARK 923 INTER-LIGAND FREE ENERGY PREDICTED BY IDOCK:   -5.57 KCAL/MOL
REMARK 924 INTRA-LIGAND FREE ENERGY PREDICTED BY IDOCK:    1.62 KCAL/MOL
REMARK 927      BINDING AFFINITY PREDICTED BY RF-SCORE:    0.00 PKD
ROOT
HETATM    1  C   UNL     1      -6.021  13.275  68.517  1.00  0.00    -0.083 C  
HETATM    2  C   UNL     1      -6.365  11.831  68.143  1.00  0.00    -0.051 C  
HETATM    3  C   UNL     1      -5.207  11.192  67.366  1.00  0.00    -0.043 C  
ENDROOT
BRANCH   2   4
HETATM    4  N   UNL     1      -6.686  11.015  69.316  1.00  0.00    -0.087 NA 
HETATM    5  N   UNL     1      -6.113  11.361  70.498  1.00  0.00    -0.309 NA 
HETATM    6  C   UNL     1      -6.302  10.297  71.269  1.00  0.00     0.334 A  
HETATM    7  C   UNL     1      -7.040   9.296  70.620  1.00  0.00    -0.111 A  
HETATM    8  C   UNL     1      -7.376   9.811  69.377  1.00  0.00    -0.087 A  
BRANCH   8   9
HETATM    9  C   UNL     1      -8.331   9.336  68.369  1.00  0.00    -0.119 A  
HETATM   10  C   UNL     1      -8.749  10.026  67.225  1.00  0.00    -0.127 A  
HETATM   11  C   UNL     1      -9.467   7.415  67.697  1.00  0.00    -0.136 A  
HETATM   12  C   UNL     1      -9.587   9.335  66.324  1.00  0.00    -0.313 A  
HETATM   13  N   UNL     1      -8.681   8.041  68.598  1.00  0.00    -0.131 NA 
HETATM   14  C   UNL     1      -9.941   8.014  66.551  1.00  0.00    -0.283 A  
BRANCH  10  15
HETATM   15  C   UNL     1      -8.423  11.455  66.883  1.00  0.00    -0.157 C  
BRANCH  15  16
HETATM   16  O   UNL     1      -9.585  12.246  67.093  1.00  0.00    -0.193 OA 
BRANCH  16  17
HETATM   17  C   UNL     1     -10.381  12.585  66.034  1.00  0.00    -0.256 A  
HETATM   18  C   UNL     1     -10.085  12.274  64.700  1.00  0.00    -0.275 A  
HETATM   19  C   UNL     1     -10.990  12.574  63.676  1.00  0.00    -0.507 A  
HETATM   20  C   UNL     1     -12.191  13.213  63.964  1.00  0.00    -0.482 A  
HETATM   21  C   UNL     1     -12.487  13.556  65.282  1.00  0.00    -0.482 A  
HETATM   22  O   UNL     1     -13.657  14.213  65.550  1.00  0.00    -0.685 OA 
HETATM   23  C   UNL     1     -11.596  13.240  66.323  1.00  0.00    -0.384 A  
HETATM   24  C   UNL     1     -11.990  13.611  67.711  1.00  0.00    -0.352 C  
HETATM   25  H   UNL     1     -13.860  14.447  66.448  1.00  0.00     0.000 HD 
HETATM   26  O   UNL     1     -11.273  13.508  68.698  1.00  0.00    -0.249 OA 
ENDBRANCH  16  17
ENDBRANCH  15  16
ENDBRANCH  10  15
ENDBRANCH   8   9
ENDBRANCH   2   4
TORSDOF 5
ENDMDL
MODEL      340
REMARK 921   NORMALIZED FREE ENERGY PREDICTED BY IDOCK:   -1.88 KCAL/MOL
REMARK 922        TOTAL FREE ENERGY PREDICTED BY IDOCK:   -3.65 KCAL/MOL
REMARK 923 INTER-LIGAND FREE ENERGY PREDICTED BY IDOCK:   -2.98 KCAL/MOL
REMARK 924 INTRA-LIGAND FREE ENERGY PREDICTED BY IDOCK:   -0.67 KCAL/MOL
REMARK 927      BINDING AFFINITY PREDICTED BY RF-SCORE:    0.00 PKD
ROOT
HETATM    1  C   UNL     1     -10.234   4.770  66.348  1.00  0.00    -0.308 C  
HETATM    2  C   UNL     1      -9.600   5.455  67.562  1.00  0.00    -0.126 C  
HETATM    3  C   UNL     1     -10.169   4.871  68.861  1.00  0.00    -0.137 C  
ENDROOT
BRANCH   2   4
HETATM    4  N   UNL     1      -8.140   5.342  67.563  1.00  0.00    -0.100 NA 
HETATM    5  N   UNL     1      -7.548   4.844  66.447  1.00  0.00    -0.087 NA 
HETATM    6  C   UNL     1      -6.316   4.549  66.843  1.00  0.00    -0.037 A  
HETATM    7  C   UNL     1      -6.089   4.906  68.181  1.00  0.00    -0.031 A  
HETATM    8  C   UNL     1      -7.254   5.517  68.618  1.00  0.00    -0.074 A  
BRANCH   8   9
HETATM    9  C   UNL     1      -7.529   6.302  69.827  1.00  0.00    -0.081 A  
HETATM   10  C   UNL     1      -7.723   7.687  69.897  1.00  0.00    -0.097 A  
HETATM   11  C   UNL     1      -8.093   6.051  72.074  1.00  0.00    -0.107 A  
HETATM   12  C   UNL     1      -8.092   8.226  71.148  1.00  0.00    -0.124 A  
HETATM   13  N   UNL     1      -7.720   5.492  70.905  1.00  0.00    -0.090 NA 
HETATM   14  C   UNL     1      -8.293   7.403  72.246  1.00  0.00    -0.117 A  
BRANCH  10  15
HETATM   15  C   UNL     1      -7.533   8.666  68.770  1.00  0.00    -0.091 C  
BRANCH  15  16
HETATM   16  O   UNL     1      -7.559   9.982  69.306  1.00  0.00    -0.087 OA 
BRANCH  16  17
HETATM   17  C   UNL     1      -8.274  10.962  68.676  1.00  0.00    -0.146 A  
HETATM   18  C   UNL     1      -9.671  11.065  68.722  1.00  0.00    -0.199 A  
HETATM   19  C   UNL     1     -10.331  12.146  68.127  1.00  0.00    -0.214 A  
HETATM   20  C   UNL     1      -9.610  13.126  67.454  1.00  0.00    -0.219 A  
HETATM   21  C   UNL     1      -8.222  13.023  67.374  1.00  0.00    -0.183 A  
HETATM   22  O   UNL     1      -7.524  13.976  66.682  1.00  0.00    -0.108 OA 
HETATM   23  C   UNL     1      -7.545  11.954  67.987  1.00  0.00    -0.122 A  
HETATM   24  C   UNL     1      -6.059  11.922  67.884  1.00  0.00    -0.057 C  
HETATM   25  H   UNL     1      -6.579  13.906  66.627  1.00  0.00     0.000 HD 
HETATM   26  O   UNL     1      -5.346  11.000  68.262  1.00  0.00    -0.040 OA 
ENDBRANCH  16  17
ENDBRANCH  15  16
ENDBRANCH  10  15
ENDBRANCH   8   9
ENDBRANCH   2   4
TORSDOF 5
ENDMDL
MODEL      341
REMARK 921   NORMALIZED FREE ENERGY PREDICTED BY IDOCK:   -1.74 KCAL/MOL
REMARK 922        TOTAL FREE ENERGY PREDICTED BY IDOCK:   -3.46 KCAL/MOL
REMARK 923 INTER-LIGAND FREE ENERGY PREDICTED BY IDOCK:   -4.48 KCAL/MOL
REMARK 924 INTRA-LIGAND FREE ENERGY PREDICTED BY IDOCK:    1.02 KCAL/MOL
REMARK 927      BINDING AFFINITY PREDICTED BY RF-SCORE:    0.00 PKD
ROOT
HETATM    1  C   UNL     1      -9.558   4.822  66.411  1.00  0.00    -0.182 C  
HETATM    2  C   UNL     1      -9.639   6.181  67.113  1.00  0.00    -0.124 C  
HETATM    3  C   UNL     1     -11.023   6.373  67.747  1.00  0.00    -0.425 C  
ENDROOT
BRANCH   2   4
HETATM    4  N   UNL     1      -8.599   6.342  68.131  1.00  0.00    -0.118 NA 
HETATM    5  N   UNL     1      -8.428   5.330  69.020  1.00  0.00    -0.095 NA 
HETATM    6  C   UNL     1      -7.694   5.871  69.984  1.00  0.00    -0.088 A  
HETATM    7  C   UNL     1      -7.339   7.198  69.700  1.00  0.00    -0.085 A  
HETATM    8  C   UNL     1      -7.849   7.470  68.439  1.00  0.00    -0.122 A  
BRANCH   8   9
HETATM    9  C   UNL     1      -7.596   8.589  67.524  1.00  0.00    -0.098 A  
HETATM   10  C   UNL     1      -7.143   9.867  67.872  1.00  0.00    -0.086 A  
HETATM   11  C   UNL     1      -7.414   9.079  65.253  1.00  0.00    -0.093 A  
HETATM   12  C   UNL     1      -6.854  10.760  66.818  1.00  0.00    -0.115 A  
HETATM   13  N   UNL     1      -7.723   8.197  66.226  1.00  0.00    -0.092 NA 
HETATM   14  C   UNL     1      -6.976  10.362  65.495  1.00  0.00    -0.134 A  
BRANCH  10  15
HETATM   15  C   UNL     1      -6.975  10.397  69.270  1.00  0.00    -0.080 C  
BRANCH  15  16
HETATM   16  O   UNL     1      -8.043   9.909  70.070  1.00  0.00    -0.173 OA 
BRANCH  16  17
HETATM   17  C   UNL     1      -9.328  10.284  69.795  1.00  0.00    -0.080 A  
HETATM   18  C   UNL     1      -9.687  11.150  68.753  1.00  0.00    -0.194 A  
HETATM   19  C   UNL     1     -11.030  11.420  68.474  1.00  0.00    -0.267 A  
HETATM   20  C   UNL     1     -12.037  10.852  69.247  1.00  0.00    -0.332 A  
HETATM   21  C   UNL     1     -11.697  10.012  70.306  1.00  0.00    -0.251 A  
HETATM   22  O   UNL     1     -12.694   9.484  71.081  1.00  0.00    -0.341 OA 
HETATM   23  C   UNL     1     -10.351   9.715  70.583  1.00  0.00    -0.365 A  
HETATM   24  C   UNL     1     -10.062   8.787  71.713  1.00  0.00    -0.333 C  
HETATM   25  H   UNL     1     -12.463   8.911  71.803  1.00  0.00     0.000 HD 
HETATM   26  O   UNL     1      -8.946   8.529  72.144  1.00  0.00    -0.207 OA 
ENDBRANCH  16  17
ENDBRANCH  15  16
ENDBRANCH  10  15
ENDBRANCH   8   9
ENDBRANCH   2   4
TORSDOF 5
ENDMDL
MODEL      342
REMARK 921   NORMALIZED FREE ENERGY PREDICTED BY IDOCK:   -1.55 KCAL/MOL
REMARK 922        TOTAL FREE ENERGY PREDICTED BY IDOCK:   -3.22 KCAL/MOL
REMARK 923 INTER-LIGAND FREE ENERGY PREDICTED BY IDOCK:   -2.07 KCAL/MOL
REMARK 924 INTRA-LIGAND FREE ENERGY PREDICTED BY IDOCK:   -1.14 KCAL/MOL
REMARK 927      BINDING AFFINITY PREDICTED BY RF-SCORE:    0.00 PKD
ROOT
HETATM    1  C   UNL     1      -5.529   9.558  73.888  1.00  0.00    -0.004 C  
HETATM    2  C   UNL     1      -6.355   8.865  72.801  1.00  0.00     0.052 C  
HETATM    3  C   UNL     1      -5.443   8.385  71.664  1.00  0.00    -0.036 C  
ENDROOT
BRANCH   2   4
HETATM    4  N   UNL     1      -7.130   7.738  73.326  1.00  0.00    -0.082 NA 
HETATM    5  N   UNL     1      -6.585   7.022  74.343  1.00  0.00    -0.086 NA 
HETATM    6  C   UNL     1      -7.315   5.913  74.380  1.00  0.00    -0.087 A  
HETATM    7  C   UNL     1      -8.358   5.933  73.442  1.00  0.00    -0.115 A  
HETATM    8  C   UNL     1      -8.294   7.173  72.823  1.00  0.00    -0.107 A  
BRANCH   8   9
HETATM    9  C   UNL     1      -9.252   7.857  71.947  1.00  0.00    -0.154 A  
HETATM   10  C   UNL     1      -9.552   7.529  70.620  1.00  0.00    -0.171 A  
HETATM   11  C   UNL     1     -10.952   9.451  71.997  1.00  0.00     0.108 A  
HETATM   12  C   UNL     1     -10.593   8.247  69.995  1.00  0.00    -0.235 A  
HETATM   13  N   UNL     1      -9.951   8.805  72.631  1.00  0.00    -0.102 NA 
HETATM   14  C   UNL     1     -11.311   9.209  70.691  1.00  0.00    -0.323 A  
BRANCH  10  15
HETATM   15  C   UNL     1      -8.839   6.505  69.777  1.00  0.00    -0.143 C  
BRANCH  15  16
HETATM   16  O   UNL     1      -7.657   7.095  69.254  1.00  0.00    -0.097 OA 
BRANCH  16  17
HETATM   17  C   UNL     1      -7.441   7.110  67.905  1.00  0.00    -0.099 A  
HETATM   18  C   UNL     1      -8.054   8.011  67.023  1.00  0.00    -0.116 A  
HETATM   19  C   UNL     1      -7.719   8.026  65.665  1.00  0.00    -0.094 A  
HETATM   20  C   UNL     1      -6.787   7.126  65.160  1.00  0.00    -0.051 A  
HETATM   21  C   UNL     1      -6.190   6.204  66.018  1.00  0.00    -0.037 A  
HETATM   22  O   UNL     1      -5.298   5.301  65.506  1.00  0.00    -0.012 OA 
HETATM   23  C   UNL     1      -6.502   6.192  67.389  1.00  0.00    -0.046 A  
HETATM   24  C   UNL     1      -5.805   5.198  68.252  1.00  0.00    -0.017 C  
HETATM   25  H   UNL     1      -4.891   4.672  66.090  1.00  0.00     0.000 HD 
HETATM   26  O   UNL     1      -6.056   4.991  69.433  1.00  0.00    -0.020 OA 
ENDBRANCH  16  17
ENDBRANCH  15  16
ENDBRANCH  10  15
ENDBRANCH   8   9
ENDBRANCH   2   4
TORSDOF 5
ENDMDL
MODEL      343
REMARK 921   NORMALIZED FREE ENERGY PREDICTED BY IDOCK:   -1.30 KCAL/MOL
REMARK 922        TOTAL FREE ENERGY PREDICTED BY IDOCK:   -2.90 KCAL/MOL
REMARK 923 INTER-LIGAND FREE ENERGY PREDICTED BY IDOCK:   -3.14 KCAL/MOL
REMARK 924 INTRA-LIGAND FREE ENERGY PREDICTED BY IDOCK:    0.24 KCAL/MOL
REMARK 927      BINDING AFFINITY PREDICTED BY RF-SCORE:    0.00 PKD
ROOT
HETATM    1  C   UNL     1      -5.311  10.455  69.097  1.00  0.00    -0.038 C  
HETATM    2  C   UNL     1      -6.073   9.137  68.927  1.00  0.00    -0.044 C  
HETATM    3  C   UNL     1      -5.622   8.120  69.984  1.00  0.00    -0.022 C  
ENDROOT
BRANCH   2   4
HETATM    4  N   UNL     1      -7.524   9.321  69.002  1.00  0.00    -0.072 NA 
HETATM    5  N   UNL     1      -7.991  10.305  69.814  1.00  0.00    -0.157 NA 
HETATM    6  C   UNL     1      -9.283  10.028  69.941  1.00  0.00    -0.158 A  
HETATM    7  C   UNL     1      -9.665   8.916  69.176  1.00  0.00    -0.168 A  
HETATM    8  C   UNL     1      -8.532   8.518  68.484  1.00  0.00    -0.131 A  
BRANCH   8   9
HETATM    9  C   UNL     1      -8.371   7.584  67.364  1.00  0.00    -0.112 A  
HETATM   10  C   UNL     1      -8.369   6.186  67.436  1.00  0.00    -0.108 A  
HETATM   11  C   UNL     1      -8.329   7.521  65.035  1.00  0.00    -0.061 A  
HETATM   12  C   UNL     1      -8.317   5.475  66.218  1.00  0.00    -0.112 A  
HETATM   13  N   UNL     1      -8.358   8.244  66.173  1.00  0.00    -0.117 NA 
HETATM   14  C   UNL     1      -8.310   6.145  65.004  1.00  0.00    -0.112 A  
BRANCH  10  15
HETATM   15  C   UNL     1      -8.376   5.363  68.697  1.00  0.00    -0.093 C  
BRANCH  15  16
HETATM   16  O   UNL     1      -8.378   6.245  69.811  1.00  0.00    -0.122 OA 
BRANCH  16  17
HETATM   17  C   UNL     1      -9.171   5.977  70.892  1.00  0.00    -0.154 A  
HETATM   18  C   UNL     1     -10.532   6.302  70.965  1.00  0.00    -0.274 A  
HETATM   19  C   UNL     1     -11.303   5.918  72.067  1.00  0.00    -0.325 A  
HETATM   20  C   UNL     1     -10.723   5.228  73.126  1.00  0.00    -0.314 A  
HETATM   21  C   UNL     1      -9.363   4.923  73.082  1.00  0.00    -0.121 A  
HETATM   22  O   UNL     1      -8.794   4.272  74.144  1.00  0.00    -0.096 OA 
HETATM   23  C   UNL     1      -8.582   5.284  71.970  1.00  0.00    -0.130 A  
HETATM   24  C   UNL     1      -7.142   4.901  71.979  1.00  0.00    -0.067 C  
HETATM   25  H   UNL     1      -7.868   4.064  74.114  1.00  0.00     0.000 HD 
HETATM   26  O   UNL     1      -6.316   5.246  71.143  1.00  0.00    -0.028 OA 
ENDBRANCH  16  17
ENDBRANCH  15  16
ENDBRANCH  10  15
ENDBRANCH   8   9
ENDBRANCH   2   4
TORSDOF 5
ENDMDL
MODEL      344
REMARK 921   NORMALIZED FREE ENERGY PREDICTED BY IDOCK:   -0.55 KCAL/MOL
REMARK 922        TOTAL FREE ENERGY PREDICTED BY IDOCK:   -1.93 KCAL/MOL
REMARK 923 INTER-LIGAND FREE ENERGY PREDICTED BY IDOCK:   -2.08 KCAL/MOL
REMARK 924 INTRA-LIGAND FREE ENERGY PREDICTED BY IDOCK:    0.16 KCAL/MOL
REMARK 927      BINDING AFFINITY PREDICTED BY RF-SCORE:    0.00 PKD
ROOT
HETATM    1  C   UNL     1      -9.947   5.483  68.018  1.00  0.00    -0.189 C  
HETATM    2  C   UNL     1      -8.922   5.640  69.144  1.00  0.00    -0.113 C  
HETATM    3  C   UNL     1      -8.858   4.360  69.988  1.00  0.00    -0.126 C  
ENDROOT
BRANCH   2   4
HETATM    4  N   UNL     1      -7.588   5.970  68.639  1.00  0.00    -0.090 NA 
HETATM    5  N   UNL     1      -6.698   4.953  68.505  1.00  0.00    -0.049 NA 
HETATM    6  C   UNL     1      -5.530   5.567  68.364  1.00  0.00    -0.008 A  
HETATM    7  C   UNL     1      -5.663   6.963  68.344  1.00  0.00    -0.018 A  
HETATM    8  C   UNL     1      -7.023   7.220  68.423  1.00  0.00    -0.079 A  
BRANCH   8   9
HETATM    9  C   UNL     1      -7.779   8.459  68.204  1.00  0.00    -0.103 A  
HETATM   10  C   UNL     1      -7.825   9.570  69.054  1.00  0.00    -0.077 A  
HETATM   11  C   UNL     1      -8.989   9.589  66.564  1.00  0.00    -0.148 A  
HETATM   12  C   UNL     1      -8.524  10.707  68.594  1.00  0.00    -0.142 A  
HETATM   13  N   UNL     1      -8.350   8.472  66.968  1.00  0.00    -0.110 NA 
HETATM   14  C   UNL     1      -9.101  10.726  67.334  1.00  0.00    -0.148 A  
BRANCH  10  15
HETATM   15  C   UNL     1      -7.233   9.655  70.435  1.00  0.00    -0.142 C  
BRANCH  15  16
HETATM   16  O   UNL     1      -8.205  10.213  71.309  1.00  0.00     0.818 OA 
BRANCH  16  17
HETATM   17  C   UNL     1      -9.434   9.627  71.428  1.00  0.00     0.605 A  
HETATM   18  C   UNL     1     -10.600  10.122  70.830  1.00  0.00    -0.073 A  
HETATM   19  C   UNL     1     -11.807   9.421  70.920  1.00  0.00    -0.365 A  
HETATM   20  C   UNL     1     -11.875   8.228  71.632  1.00  0.00    -0.345 A  
HETATM   21  C   UNL     1     -10.731   7.737  72.258  1.00  0.00    -0.269 A  
HETATM   22  O   UNL     1     -10.816   6.578  72.983  1.00  0.00    -0.246 OA 
HETATM   23  C   UNL     1      -9.507   8.421  72.156  1.00  0.00    -0.360 A  
HETATM   24  C   UNL     1      -8.318   7.823  72.827  1.00  0.00    -0.136 C  
HETATM   25  H   UNL     1     -10.037   6.243  73.410  1.00  0.00     0.000 HD 
HETATM   26  O   UNL     1      -7.221   8.358  72.924  1.00  0.00    -0.170 OA 
ENDBRANCH  16  17
ENDBRANCH  15  16
ENDBRANCH  10  15
ENDBRANCH   8   9
ENDBRANCH   2   4
TORSDOF 5
ENDMDL
MODEL      345
REMARK 921   NORMALIZED FREE ENERGY PREDICTED BY IDOCK:   -0.31 KCAL/MOL
REMARK 922        TOTAL FREE ENERGY PREDICTED BY IDOCK:   -1.62 KCAL/MOL
REMARK 923 INTER-LIGAND FREE ENERGY PREDICTED BY IDOCK:   -0.95 KCAL/MOL
REMARK 924 INTRA-LIGAND FREE ENERGY PREDICTED BY IDOCK:   -0.67 KCAL/MOL
REMARK 927      BINDING AFFINITY PREDICTED BY RF-SCORE:    0.00 PKD
ROOT
HETATM    1  C   UNL     1      -6.086  16.983  66.416  1.00  0.00    -0.106 C  
HETATM    2  C   UNL     1      -7.330  17.876  66.401  1.00  0.00    -0.265 C  
HETATM    3  C   UNL     1      -7.234  18.904  65.266  1.00  0.00     0.230 C  
ENDROOT
BRANCH   2   4
HETATM    4  N   UNL     1      -8.567  17.104  66.269  1.00  0.00    -0.400 NA 
HETATM    5  N   UNL     1      -8.553  16.033  65.435  1.00  0.00     0.691 NA 
HETATM    6  C   UNL     1      -9.837  15.746  65.259  1.00  0.00    -0.060 A  
HETATM    7  C   UNL     1     -10.674  16.579  66.016  1.00  0.00    -0.180 A  
HETATM    8  C   UNL     1      -9.834  17.401  66.753  1.00  0.00    -0.296 A  
BRANCH   8   9
HETATM    9  C   UNL     1     -10.116  18.292  67.884  1.00  0.00    -0.361 A  
HETATM   10  C   UNL     1     -10.153  17.938  69.238  1.00  0.00    -0.115 A  
HETATM   11  C   UNL     1     -10.356  20.550  68.410  1.00  0.00     0.099 A  
HETATM   12  C   UNL     1     -10.328  18.978  70.175  1.00  0.00     1.215 A  
HETATM   13  N   UNL     1     -10.210  19.587  67.475  1.00  0.00    -0.395 NA 
HETATM   14  C   UNL     1     -10.418  20.299  69.762  1.00  0.00     0.402 A  
BRANCH  10  15
HETATM   15  C   UNL     1     -10.064  16.540  69.791  1.00  0.00    -0.015 C  
BRANCH  15  16
HETATM   16  O   UNL     1      -9.426  15.713  68.828  1.00  0.00    -0.193 OA 
BRANCH  16  17
HETATM   17  C   UNL     1      -8.124  15.338  69.005  1.00  0.00    -0.202 A  
HETATM   18  C   UNL     1      -7.147  16.153  69.593  1.00  0.00    -0.071 A  
HETATM   19  C   UNL     1      -5.854  15.671  69.823  1.00  0.00    -0.145 A  
HETATM   20  C   UNL     1      -5.508  14.378  69.445  1.00  0.00    -0.089 A  
HETATM   21  C   UNL     1      -6.459  13.565  68.831  1.00  0.00    -0.102 A  
HETATM   22  O   UNL     1      -6.099  12.305  68.434  1.00  0.00    -0.049 OA 
HETATM   23  C   UNL     1      -7.769  14.030  68.615  1.00  0.00    -0.135 A  
HETATM   24  C   UNL     1      -8.741  13.097  67.980  1.00  0.00    -0.190 C  
HETATM   25  H   UNL     1      -6.747  11.751  68.016  1.00  0.00     0.000 HD 
HETATM   26  O   UNL     1      -9.874  13.396  67.623  1.00  0.00    -0.217 OA 
ENDBRANCH  16  17
ENDBRANCH  15  16
ENDBRANCH  10  15
ENDBRANCH   8   9
ENDBRANCH   2   4
TORSDOF 5
ENDMDL
MODEL      346
REMARK 921   NORMALIZED FREE ENERGY PREDICTED BY IDOCK:   -0.29 KCAL/MOL
REMARK 922        TOTAL FREE ENERGY PREDICTED BY IDOCK:   -1.58 KCAL/MOL
REMARK 923 INTER-LIGAND FREE ENERGY PREDICTED BY IDOCK:   -5.76 KCAL/MOL
REMARK 924 INTRA-LIGAND FREE ENERGY PREDICTED BY IDOCK:    4.18 KCAL/MOL
REMARK 927      BINDING AFFINITY PREDICTED BY RF-SCORE:    0.00 PKD
ROOT
HETATM    1  C   UNL     1     -12.006  16.585  73.147  1.00  0.00    -0.469 C  
HETATM    2  C   UNL     1     -12.347  16.250  71.692  1.00  0.00    -0.110 C  
HETATM    3  C   UNL     1     -11.147  16.543  70.782  1.00  0.00    -0.014 C  
ENDROOT
BRANCH   2   4
HETATM    4  N   UNL     1     -12.768  14.857  71.527  1.00  0.00    -0.310 NA 
HETATM    5  N   UNL     1     -13.884  14.456  72.188  1.00  0.00    -0.434 NA 
HETATM    6  C   UNL     1     -13.831  13.131  72.131  1.00  0.00    -0.414 A  
HETATM    7  C   UNL     1     -12.729  12.675  71.392  1.00  0.00    -0.347 A  
HETATM    8  C   UNL     1     -12.091  13.810  70.914  1.00  0.00    -0.287 A  
BRANCH   8   9
HETATM    9  C   UNL     1     -11.044  13.966  69.898  1.00  0.00     0.063 A  
HETATM   10  C   UNL     1     -10.987  13.329  68.652  1.00  0.00    -0.294 A  
HETATM   11  C   UNL     1      -9.198  15.287  69.371  1.00  0.00    -0.233 A  
HETATM   12  C   UNL     1      -9.949  13.711  67.777  1.00  0.00    -0.235 A  
HETATM   13  N   UNL     1     -10.161  14.941  70.250  1.00  0.00     0.097 NA 
HETATM   14  C   UNL     1      -9.052  14.708  68.130  1.00  0.00    -0.187 A  
BRANCH  10  15
HETATM   15  C   UNL     1     -11.908  12.239  68.171  1.00  0.00    -0.311 C  
BRANCH  15  16
HETATM   16  O   UNL     1     -11.144  11.057  67.973  1.00  0.00    -0.240 OA 
BRANCH  16  17
HETATM   17  C   UNL     1     -10.753  10.309  69.047  1.00  0.00    -0.227 A  
HETATM   18  C   UNL     1     -11.451  10.255  70.261  1.00  0.00    -0.395 A  
HETATM   19  C   UNL     1     -11.041   9.398  71.288  1.00  0.00    -0.446 A  
HETATM   20  C   UNL     1      -9.912   8.601  71.129  1.00  0.00    -0.289 A  
HETATM   21  C   UNL     1      -9.189   8.665  69.939  1.00  0.00    -0.155 A  
HETATM   22  O   UNL     1      -8.061   7.900  69.806  1.00  0.00    -0.112 OA 
HETATM   23  C   UNL     1      -9.604   9.505  68.891  1.00  0.00    -0.156 A  
HETATM   24  C   UNL     1      -8.799   9.502  67.637  1.00  0.00    -0.118 C  
HETATM   25  H   UNL     1      -7.568   7.943  68.995  1.00  0.00     0.000 HD 
HETATM   26  O   UNL     1      -8.967  10.260  66.691  1.00  0.00    -0.139 OA 
ENDBRANCH  16  17
ENDBRANCH  15  16
ENDBRANCH  10  15
ENDBRANCH   8   9
ENDBRANCH   2   4
TORSDOF 5
ENDMDL
MODEL      347
REMARK 921   NORMALIZED FREE ENERGY PREDICTED BY IDOCK:    0.20 KCAL/MOL
REMARK 922        TOTAL FREE ENERGY PREDICTED BY IDOCK:   -0.95 KCAL/MOL
REMARK 923 INTER-LIGAND FREE ENERGY PREDICTED BY IDOCK:   -2.01 KCAL/MOL
REMARK 924 INTRA-LIGAND FREE ENERGY PREDICTED BY IDOCK:    1.06 KCAL/MOL
REMARK 927      BINDING AFFINITY PREDICTED BY RF-SCORE:    0.00 PKD
ROOT
HETATM    1  C   UNL     1      -9.533  18.587  68.662  1.00  0.00    -0.373 C  
HETATM    2  C   UNL     1      -9.205  17.098  68.510  1.00  0.00    -0.264 C  
HETATM    3  C   UNL     1      -7.778  16.815  68.995  1.00  0.00    -0.213 C  
ENDROOT
BRANCH   2   4
HETATM    4  N   UNL     1     -10.154  16.245  69.230  1.00  0.00    -0.256 NA 
HETATM    5  N   UNL     1     -11.117  16.858  69.965  1.00  0.00     0.027 NA 
HETATM    6  C   UNL     1     -11.591  15.890  70.740  1.00  0.00    -0.410 A  
HETATM    7  C   UNL     1     -10.989  14.652  70.472  1.00  0.00     0.022 A  
HETATM    8  C   UNL     1     -10.120  14.869  69.413  1.00  0.00    -0.158 A  
BRANCH   8   9
HETATM    9  C   UNL     1      -9.407  13.921  68.549  1.00  0.00    -0.164 A  
HETATM   10  C   UNL     1      -9.616  13.720  67.179  1.00  0.00    -0.244 A  
HETATM   11  C   UNL     1      -7.555  12.507  68.533  1.00  0.00    -0.119 A  
HETATM   12  C   UNL     1      -8.737  12.839  66.514  1.00  0.00     0.015 A  
HETATM   13  N   UNL     1      -8.382  13.325  69.217  1.00  0.00     0.581 NA 
HETATM   14  C   UNL     1      -7.688  12.235  67.190  1.00  0.00    -0.134 A  
BRANCH  10  15
HETATM   15  C   UNL     1     -10.719  14.325  66.353  1.00  0.00    -0.297 C  
BRANCH  15  16
HETATM   16  O   UNL     1     -10.325  14.302  64.987  1.00  0.00    -0.397 OA 
BRANCH  16  17
HETATM   17  C   UNL     1     -10.649  13.231  64.202  1.00  0.00    -0.309 A  
HETATM   18  C   UNL     1      -9.711  12.334  63.674  1.00  0.00    -0.047 A  
HETATM   19  C   UNL     1     -10.121  11.208  62.951  1.00  0.00    -0.235 A  
HETATM   20  C   UNL     1     -11.473  10.975  62.721  1.00  0.00     1.249 A  
HETATM   21  C   UNL     1     -12.418  11.874  63.214  1.00  0.00    -0.384 A  
HETATM   22  O   UNL     1     -13.743  11.652  62.955  1.00  0.00     0.155 OA 
HETATM   23  C   UNL     1     -12.019  12.997  63.961  1.00  0.00    -0.523 A  
HETATM   24  C   UNL     1     -13.084  13.900  64.480  1.00  0.00     0.560 C  
HETATM   25  H   UNL     1     -14.387  12.265  63.290  1.00  0.00     0.000 HD 
HETATM   26  O   UNL     1     -12.888  14.970  65.041  1.00  0.00    -0.094 OA 
ENDBRANCH  16  17
ENDBRANCH  15  16
ENDBRANCH  10  15
ENDBRANCH   8   9
ENDBRANCH   2   4
TORSDOF 5
ENDMDL
MODEL      348
REMARK 921   NORMALIZED FREE ENERGY PREDICTED BY IDOCK:    0.40 KCAL/MOL
REMARK 922        TOTAL FREE ENERGY PREDICTED BY IDOCK:   -0.70 KCAL/MOL
REMARK 923 INTER-LIGAND FREE ENERGY PREDICTED BY IDOCK:   -2.57 KCAL/MOL
REMARK 924 INTRA-LIGAND FREE ENERGY PREDICTED BY IDOCK:    1.87 KCAL/MOL
REMARK 927      BINDING AFFINITY PREDICTED BY RF-SCORE:    0.00 PKD
ROOT
HETATM    1  C   UNL     1      -8.714  19.634  66.472  1.00  0.00    -0.402 C  
HETATM    2  C   UNL     1      -8.697  19.020  67.874  1.00  0.00    -0.301 C  
HETATM    3  C   UNL     1      -9.043  20.083  68.926  1.00  0.00     0.034 C  
ENDROOT
BRANCH   2   4
HETATM    4  N   UNL     1      -9.614  17.885  67.995  1.00  0.00    -0.280 NA 
HETATM    5  N   UNL     1     -10.867  18.033  67.493  1.00  0.00    -0.325 NA 
HETATM    6  C   UNL     1     -11.546  17.024  68.023  1.00  0.00     0.535 A  
HETATM    7  C   UNL     1     -10.734  16.194  68.811  1.00  0.00    -0.294 A  
HETATM    8  C   UNL     1      -9.449  16.704  68.707  1.00  0.00    -0.258 A  
BRANCH   8   9
HETATM    9  C   UNL     1      -8.156  16.132  69.102  1.00  0.00    -0.230 A  
HETATM   10  C   UNL     1      -7.817  14.775  69.131  1.00  0.00    -0.141 A  
HETATM   11  C   UNL     1      -5.961  16.750  69.582  1.00  0.00    -0.218 A  
HETATM   12  C   UNL     1      -6.478  14.449  69.431  1.00  0.00    -0.132 A  
HETATM   13  N   UNL     1      -7.234  17.111  69.319  1.00  0.00    -0.192 NA 
HETATM   14  C   UNL     1      -5.535  15.442  69.646  1.00  0.00    -0.104 A  
BRANCH  10  15
HETATM   15  C   UNL     1      -8.759  13.621  68.912  1.00  0.00     0.184 C  
BRANCH  15  16
HETATM   16  O   UNL     1      -8.938  13.443  67.513  1.00  0.00    -0.186 OA 
BRANCH  16  17
HETATM   17  C   UNL     1     -10.084  13.878  66.910  1.00  0.00    -0.260 A  
HETATM   18  C   UNL     1     -11.356  13.350  67.172  1.00  0.00    -0.344 A  
HETATM   19  C   UNL     1     -12.498  13.904  66.584  1.00  0.00    -0.313 A  
HETATM   20  C   UNL     1     -12.387  14.976  65.705  1.00  0.00     0.258 A  
HETATM   21  C   UNL     1     -11.126  15.494  65.411  1.00  0.00    -0.298 A  
HETATM   22  O   UNL     1     -11.025  16.528  64.520  1.00  0.00    -0.941 OA 
HETATM   23  C   UNL     1      -9.973  14.960  66.013  1.00  0.00    -0.337 A  
HETATM   24  C   UNL     1      -8.661  15.581  65.674  1.00  0.00     0.779 C  
HETATM   25  H   UNL     1     -10.166  16.881  64.319  1.00  0.00     0.000 HD 
HETATM   26  O   UNL     1      -7.568  15.154  66.024  1.00  0.00     1.199 OA 
ENDBRANCH  16  17
ENDBRANCH  15  16
ENDBRANCH  10  15
ENDBRANCH   8   9
ENDBRANCH   2   4
TORSDOF 5
ENDMDL
MODEL      349
REMARK 921   NORMALIZED FREE ENERGY PREDICTED BY IDOCK:    0.94 KCAL/MOL
REMARK 922        TOTAL FREE ENERGY PREDICTED BY IDOCK:   -0.00 KCAL/MOL
REMARK 923 INTER-LIGAND FREE ENERGY PREDICTED BY IDOCK:   -2.18 KCAL/MOL
REMARK 924 INTRA-LIGAND FREE ENERGY PREDICTED BY IDOCK:    2.18 KCAL/MOL
REMARK 927      BINDING AFFINITY PREDICTED BY RF-SCORE:    0.00 PKD
ROOT
HETATM    1  C   UNL     1      -5.512  14.899  69.890  1.00  0.00    -0.102 C  
HETATM    2  C   UNL     1      -6.591  14.413  68.918  1.00  0.00    -0.094 C  
HETATM    3  C   UNL     1      -6.098  14.535  67.470  1.00  0.00     0.041 C  
ENDROOT
BRANCH   2   4
HETATM    4  N   UNL     1      -7.002  13.034  69.189  1.00  0.00    -0.065 NA 
HETATM    5  N   UNL     1      -6.123  12.235  69.846  1.00  0.00    -0.144 NA 
HETATM    6  C   UNL     1      -6.600  11.011  69.656  1.00  0.00    -0.132 A  
HETATM    7  C   UNL     1      -7.806  11.017  68.939  1.00  0.00    -0.138 A  
HETATM    8  C   UNL     1      -8.117  12.351  68.723  1.00  0.00     0.074 A  
BRANCH   8   9
HETATM    9  C   UNL     1      -9.356  12.982  68.252  1.00  0.00    -0.199 A  
HETATM   10  C   UNL     1     -10.047  12.686  67.071  1.00  0.00    -0.228 A  
HETATM   11  C   UNL     1     -11.057  14.408  68.959  1.00  0.00    -0.261 A  
HETATM   12  C   UNL     1     -11.284  13.332  66.867  1.00  0.00    -0.332 A  
HETATM   13  N   UNL     1      -9.860  13.830  69.190  1.00  0.00     0.123 NA 
HETATM   14  C   UNL     1     -11.804  14.192  67.823  1.00  0.00    -0.414 A  
BRANCH  10  15
HETATM   15  C   UNL     1      -9.575  11.771  65.973  1.00  0.00    -0.230 C  
BRANCH  15  16
HETATM   16  O   UNL     1      -8.189  11.517  66.161  1.00  0.00    -0.107 OA 
BRANCH  16  17
HETATM   17  C   UNL     1      -7.507  10.753  65.257  1.00  0.00     0.094 A  
HETATM   18  C   UNL     1      -6.352  11.177  64.585  1.00  0.00     0.920 A  
HETATM   19  C   UNL     1      -5.654  10.309  63.739  1.00  0.00    -0.143 A  
HETATM   20  C   UNL     1      -6.112   9.013  63.528  1.00  0.00    -0.088 A  
HETATM   21  C   UNL     1      -7.276   8.585  64.165  1.00  0.00    -0.092 A  
HETATM   22  O   UNL     1      -7.735   7.318  63.926  1.00  0.00    -0.110 OA 
HETATM   23  C   UNL     1      -7.974   9.440  65.035  1.00  0.00    -0.118 A  
HETATM   24  C   UNL     1      -9.194   8.906  65.704  1.00  0.00    -0.204 C  
HETATM   25  H   UNL     1      -8.528   7.025  64.359  1.00  0.00     0.000 HD 
HETATM   26  O   UNL     1      -9.965   9.564  66.391  1.00  0.00    -0.236 OA 
ENDBRANCH  16  17
ENDBRANCH  15  16
ENDBRANCH  10  15
ENDBRANCH   8   9
ENDBRANCH   2   4
TORSDOF 5
ENDMDL
MODEL      350
REMARK 921   NORMALIZED FREE ENERGY PREDICTED BY IDOCK:    0.99 KCAL/MOL
REMARK 922        TOTAL FREE ENERGY PREDICTED BY IDOCK:    0.07 KCAL/MOL
REMARK 923 INTER-LIGAND FREE ENERGY PREDICTED BY IDOCK:   -3.63 KCAL/MOL
REMARK 924 INTRA-LIGAND FREE ENERGY PREDICTED BY IDOCK:    3.69 KCAL/MOL
REMARK 927      BINDING AFFINITY PREDICTED BY RF-SCORE:    0.00 PKD
ROOT
HETATM    1  C   UNL     1      -7.450   7.056  69.106  1.00  0.00    -0.095 C  
HETATM    2  C   UNL     1      -7.989   8.456  68.799  1.00  0.00    -0.120 C  
HETATM    3  C   UNL     1      -6.836   9.466  68.723  1.00  0.00    -0.053 C  
ENDROOT
BRANCH   2   4
HETATM    4  N   UNL     1      -8.764   8.493  67.558  1.00  0.00    -0.135 NA 
HETATM    5  N   UNL     1      -8.579   7.481  66.671  1.00  0.00    -0.125 NA 
HETATM    6  C   UNL     1      -9.125   7.934  65.549  1.00  0.00     0.114 A  
HETATM    7  C   UNL     1      -9.711   9.197  65.717  1.00  0.00    -0.299 A  
HETATM    8  C   UNL     1      -9.562   9.515  67.059  1.00  0.00    -0.164 A  
BRANCH   8   9
HETATM    9  C   UNL     1     -10.175  10.575  67.868  1.00  0.00    -0.183 A  
HETATM   10  C   UNL     1     -10.214  11.941  67.564  1.00  0.00    -0.212 A  
HETATM   11  C   UNL     1     -11.569  10.886  69.709  1.00  0.00    -0.322 A  
HETATM   12  C   UNL     1     -10.959  12.774  68.424  1.00  0.00    -0.281 A  
HETATM   13  N   UNL     1     -10.852  10.052  68.927  1.00  0.00    -0.219 NA 
HETATM   14  C   UNL     1     -11.655  12.244  69.501  1.00  0.00    -0.366 A  
BRANCH  10  15
HETATM   15  C   UNL     1      -9.499  12.615  66.424  1.00  0.00    -0.231 C  
BRANCH  15  16
HETATM   16  O   UNL     1     -10.144  13.853  66.155  1.00  0.00    -0.291 OA 
BRANCH  16  17
HETATM   17  C   UNL     1     -10.336  14.756  67.163  1.00  0.00    -0.255 A  
HETATM   18  C   UNL     1     -11.585  15.044  67.730  1.00  0.00    -0.336 A  
HETATM   19  C   UNL     1     -11.695  15.915  68.819  1.00  0.00    -0.355 A  
HETATM   20  C   UNL     1     -10.564  16.532  69.343  1.00  0.00    -0.329 A  
HETATM   21  C   UNL     1      -9.318  16.279  68.772  1.00  0.00    -0.235 A  
HETATM   22  O   UNL     1      -8.215  16.916  69.275  1.00  0.00    -0.128 OA 
HETATM   23  C   UNL     1      -9.191  15.389  67.691  1.00  0.00    -0.187 A  
HETATM   24  C   UNL     1      -7.825  15.144  67.149  1.00  0.00    -0.205 C  
HETATM   25  H   UNL     1      -7.366  16.743  68.886  1.00  0.00     0.000 HD 
HETATM   26  O   UNL     1      -7.573  14.492  66.143  1.00  0.00     1.386 OA 
ENDBRANCH  16  17
ENDBRANCH  15  16
ENDBRANCH  10  15
ENDBRANCH   8   9
ENDBRANCH   2   4
TORSDOF 5
ENDMDL
MODEL      351
REMARK 921   NORMALIZED FREE ENERGY PREDICTED BY IDOCK:    1.18 KCAL/MOL
REMARK 922        TOTAL FREE ENERGY PREDICTED BY IDOCK:    0.31 KCAL/MOL
REMARK 923 INTER-LIGAND FREE ENERGY PREDICTED BY IDOCK:    0.55 KCAL/MOL
REMARK 924 INTRA-LIGAND FREE ENERGY PREDICTED BY IDOCK:   -0.24 KCAL/MOL
REMARK 927      BINDING AFFINITY PREDICTED BY RF-SCORE:    0.00 PKD
ROOT
HETATM    1  C   UNL     1      -9.801  17.350  68.235  1.00  0.00    -0.310 C  
HETATM    2  C   UNL     1     -10.249  15.887  68.180  1.00  0.00    -0.232 C  
HETATM    3  C   UNL     1      -9.091  14.960  68.571  1.00  0.00    -0.191 C  
ENDROOT
BRANCH   2   4
HETATM    4  N   UNL     1     -11.406  15.628  69.039  1.00  0.00    -0.306 NA 
HETATM    5  N   UNL     1     -12.056  16.701  69.558  1.00  0.00     0.549 NA 
HETATM    6  C   UNL     1     -12.808  16.185  70.522  1.00  0.00     0.813 A  
HETATM    7  C   UNL     1     -12.697  14.788  70.591  1.00  0.00    -0.415 A  
HETATM    8  C   UNL     1     -11.855  14.418  69.553  1.00  0.00    -0.329 A  
BRANCH   8   9
HETATM    9  C   UNL     1     -11.564  13.099  68.979  1.00  0.00    -0.312 A  
HETATM   10  C   UNL     1     -11.899  12.655  67.695  1.00  0.00    -0.390 A  
HETATM   11  C   UNL     1     -10.326  11.168  69.387  1.00  0.00    -0.057 A  
HETATM   12  C   UNL     1     -11.419  11.387  67.303  1.00  0.00    -0.301 A  
HETATM   13  N   UNL     1     -10.779  12.365  69.814  1.00  0.00     0.432 NA 
HETATM   14  C   UNL     1     -10.614  10.639  68.149  1.00  0.00    -0.237 A  
BRANCH  10  15
HETATM   15  C   UNL     1     -12.762  13.386  66.701  1.00  0.00     0.278 C  
BRANCH  15  16
HETATM   16  O   UNL     1     -11.973  13.702  65.563  1.00  0.00    -0.346 OA 
BRANCH  16  17
HETATM   17  C   UNL     1     -11.809  12.780  64.568  1.00  0.00    -0.379 A  
HETATM   18  C   UNL     1     -12.869  12.162  63.889  1.00  0.00    -0.420 A  
HETATM   19  C   UNL     1     -12.627  11.294  62.820  1.00  0.00     1.320 A  
HETATM   20  C   UNL     1     -11.325  11.006  62.428  1.00  0.00     1.985 A  
HETATM   21  C   UNL     1     -10.258  11.589  63.111  1.00  0.00    -0.345 A  
HETATM   22  O   UNL     1      -8.979  11.274  62.738  1.00  0.00    -0.406 OA 
HETATM   23  C   UNL     1     -10.488  12.481  64.173  1.00  0.00    -0.429 A  
HETATM   24  C   UNL     1      -9.302  13.088  64.840  1.00  0.00     0.686 C  
HETATM   25  H   UNL     1      -8.253  11.671  63.204  1.00  0.00     0.000 HD 
HETATM   26  O   UNL     1      -9.340  13.785  65.846  1.00  0.00    -0.109 OA 
ENDBRANCH  16  17
ENDBRANCH  15  16
ENDBRANCH  10  15
ENDBRANCH   8   9
ENDBRANCH   2   4
TORSDOF 5
ENDMDL
MODEL      352
REMARK 921   NORMALIZED FREE ENERGY PREDICTED BY IDOCK:    3.09 KCAL/MOL
REMARK 922        TOTAL FREE ENERGY PREDICTED BY IDOCK:    2.77 KCAL/MOL
REMARK 923 INTER-LIGAND FREE ENERGY PREDICTED BY IDOCK:   -1.98 KCAL/MOL
REMARK 924 INTRA-LIGAND FREE ENERGY PREDICTED BY IDOCK:    4.76 KCAL/MOL
REMARK 927      BINDING AFFINITY PREDICTED BY RF-SCORE:    0.00 PKD
ROOT
HETATM    1  C   UNL     1     -11.255   4.910  68.494  1.00  0.00     2.183 C  
HETATM    2  C   UNL     1     -10.362   5.893  69.257  1.00  0.00    -0.246 C  
HETATM    3  C   UNL     1      -9.683   5.188  70.439  1.00  0.00    -0.270 C  
ENDROOT
BRANCH   2   4
HETATM    4  N   UNL     1      -9.349   6.506  68.395  1.00  0.00    -0.123 NA 
HETATM    5  N   UNL     1      -8.520   5.676  67.712  1.00  0.00    -0.103 NA 
HETATM    6  C   UNL     1      -7.536   6.469  67.306  1.00  0.00    -0.088 A  
HETATM    7  C   UNL     1      -7.750   7.807  67.666  1.00  0.00    -0.121 A  
HETATM    8  C   UNL     1      -8.988   7.843  68.292  1.00  0.00    -0.132 A  
BRANCH   8   9
HETATM    9  C   UNL     1      -9.843   8.977  68.661  1.00  0.00    -0.165 A  
HETATM   10  C   UNL     1      -9.744   9.755  69.820  1.00  0.00    -0.256 A  
HETATM   11  C   UNL     1     -11.477  10.388  67.784  1.00  0.00     0.028 A  
HETATM   12  C   UNL     1     -10.596  10.874  69.923  1.00  0.00    -0.042 A  
HETATM   13  N   UNL     1     -10.697   9.296  67.649  1.00  0.00    -0.255 NA 
HETATM   14  C   UNL     1     -11.463  11.205  68.892  1.00  0.00    -0.363 A  
BRANCH  10  15
HETATM   15  C   UNL     1      -8.841   9.485  70.994  1.00  0.00     0.160 C  
BRANCH  15  16
HETATM   16  O   UNL     1      -9.590   8.812  71.996  1.00  0.00    -0.290 OA 
BRANCH  16  17
HETATM   17  C   UNL     1     -10.917   8.552  71.797  1.00  0.00    -0.306 A  
HETATM   18  C   UNL     1     -11.799   9.428  71.151  1.00  0.00    -0.413 A  
HETATM   19  C   UNL     1     -13.125   9.058  70.904  1.00  0.00     0.068 A  
HETATM   20  C   UNL     1     -13.599   7.819  71.321  1.00  0.00    -0.255 A  
HETATM   21  C   UNL     1     -12.743   6.948  71.992  1.00  0.00    -0.193 A  
HETATM   22  O   UNL     1     -13.228   5.744  72.426  1.00  0.00    -0.141 OA 
HETATM   23  C   UNL     1     -11.402   7.299  72.227  1.00  0.00    -0.310 A  
HETATM   24  C   UNL     1     -10.536   6.307  72.924  1.00  0.00    -0.218 C  
HETATM   25  H   UNL     1     -12.645   5.150  72.883  1.00  0.00     0.000 HD 
HETATM   26  O   UNL     1      -9.389   6.514  73.300  1.00  0.00    -0.131 OA 
ENDBRANCH  16  17
ENDBRANCH  15  16
ENDBRANCH  10  15
ENDBRANCH   8   9
ENDBRANCH   2   4
TORSDOF 5
ENDMDL
MODEL      353
REMARK 921   NORMALIZED FREE ENERGY PREDICTED BY IDOCK:    5.25 KCAL/MOL
REMARK 922        TOTAL FREE ENERGY PREDICTED BY IDOCK:    5.57 KCAL/MOL
REMARK 923 INTER-LIGAND FREE ENERGY PREDICTED BY IDOCK:    0.08 KCAL/MOL
REMARK 924 INTRA-LIGAND FREE ENERGY PREDICTED BY IDOCK:    5.49 KCAL/MOL
REMARK 927      BINDING AFFINITY PREDICTED BY RF-SCORE:    0.00 PKD
ROOT
HETATM    1  C   UNL     1      -5.125   4.047  68.943  1.00  0.00    -0.004 C  
HETATM    2  C   UNL     1      -6.410   4.748  69.394  1.00  0.00    -0.031 C  
HETATM    3  C   UNL     1      -6.105   6.182  69.845  1.00  0.00    -0.026 C  
ENDROOT
BRANCH   2   4
HETATM    4  N   UNL     1      -7.431   4.764  68.344  1.00  0.00    -0.069 NA 
HETATM    5  N   UNL     1      -7.042   4.438  67.084  1.00  0.00    -0.067 NA 
HETATM    6  C   UNL     1      -8.047   4.851  66.322  1.00  0.00    -0.107 A  
HETATM    7  C   UNL     1      -9.103   5.383  67.078  1.00  0.00    -0.112 A  
HETATM    8  C   UNL     1      -8.738   5.231  68.407  1.00  0.00    -0.098 A  
BRANCH   8   9
HETATM    9  C   UNL     1      -9.523   5.372  69.639  1.00  0.00    -0.144 A  
HETATM   10  C   UNL     1      -9.151   6.075  70.791  1.00  0.00    -0.161 A  
HETATM   11  C   UNL     1     -11.655   4.982  70.496  1.00  0.00     2.501 A  
HETATM   12  C   UNL     1     -10.108   6.181  71.822  1.00  0.00    -0.214 A  
HETATM   13  N   UNL     1     -10.766   4.837  69.491  1.00  0.00     0.398 NA 
HETATM   14  C   UNL     1     -11.378   5.642  71.671  1.00  0.00    -0.150 A  
BRANCH  10  15
HETATM   15  C   UNL     1      -7.805   6.696  71.054  1.00  0.00    -0.102 C  
BRANCH  15  16
HETATM   16  O   UNL     1      -7.774   7.981  70.447  1.00  0.00    -0.082 OA 
BRANCH  16  17
HETATM   17  C   UNL     1      -8.917   8.727  70.370  1.00  0.00    -0.169 A  
HETATM   18  C   UNL     1      -9.609   9.219  71.485  1.00  0.00    -0.162 A  
HETATM   19  C   UNL     1     -10.722  10.051  71.329  1.00  0.00     0.167 A  
HETATM   20  C   UNL     1     -11.179  10.384  70.059  1.00  0.00    -0.385 A  
HETATM   21  C   UNL     1     -10.520   9.879  68.939  1.00  0.00    -0.211 A  
HETATM   22  O   UNL     1     -10.997  10.187  67.693  1.00  0.00    -0.289 OA 
HETATM   23  C   UNL     1      -9.386   9.060  69.082  1.00  0.00    -0.148 A  
HETATM   24  C   UNL     1      -8.716   8.579  67.841  1.00  0.00    -0.138 C  
HETATM   25  H   UNL     1     -10.548   9.843  66.930  1.00  0.00     0.000 HD 
HETATM   26  O   UNL     1      -7.797   7.770  67.806  1.00  0.00    -0.118 OA 
ENDBRANCH  16  17
ENDBRANCH  15  16
ENDBRANCH  10  15
ENDBRANCH   8   9
ENDBRANCH   2   4
TORSDOF 5
ENDMDL
MODEL      354
REMARK 921   NORMALIZED FREE ENERGY PREDICTED BY IDOCK:    5.71 KCAL/MOL
REMARK 922        TOTAL FREE ENERGY PREDICTED BY IDOCK:    6.16 KCAL/MOL
REMARK 923 INTER-LIGAND FREE ENERGY PREDICTED BY IDOCK:    1.34 KCAL/MOL
REMARK 924 INTRA-LIGAND FREE ENERGY PREDICTED BY IDOCK:    4.82 KCAL/MOL
REMARK 927      BINDING AFFINITY PREDICTED BY RF-SCORE:    0.00 PKD
ROOT
HETATM    1  C   UNL     1     -12.137   5.578  68.043  1.00  0.00     5.176 C  
HETATM    2  C   UNL     1     -11.120   6.543  68.658  1.00  0.00    -0.270 C  
HETATM    3  C   UNL     1     -10.641   6.016  70.018  1.00  0.00    -0.340 C  
ENDROOT
BRANCH   2   4
HETATM    4  N   UNL     1      -9.970   6.772  67.781  1.00  0.00    -0.132 NA 
HETATM    5  N   UNL     1      -9.365   5.682  67.242  1.00  0.00    -0.112 NA 
HETATM    6  C   UNL     1      -8.206   6.149  66.793  1.00  0.00    -0.109 A  
HETATM    7  C   UNL     1      -8.083   7.533  66.982  1.00  0.00    -0.117 A  
HETATM    8  C   UNL     1      -9.282   7.953  67.537  1.00  0.00    -0.136 A  
BRANCH   8   9
HETATM    9  C   UNL     1      -9.831   9.301  67.728  1.00  0.00    -0.171 A  
HETATM   10  C   UNL     1      -9.610  10.146  68.821  1.00  0.00    -0.170 A  
HETATM   11  C   UNL     1     -10.971  10.983  66.586  1.00  0.00    -0.190 A  
HETATM   12  C   UNL     1     -10.141  11.451  68.748  1.00  0.00    -0.199 A  
HETATM   13  N   UNL     1     -10.499   9.719  66.618  1.00  0.00    -0.196 NA 
HETATM   14  C   UNL     1     -10.817  11.882  67.617  1.00  0.00    -0.271 A  
BRANCH  10  15
HETATM   15  C   UNL     1      -8.891   9.781  70.092  1.00  0.00    -0.188 C  
BRANCH  15  16
HETATM   16  O   UNL     1      -7.606  10.389  70.076  1.00  0.00    -0.152 OA 
BRANCH  16  17
HETATM   17  C   UNL     1      -7.331  11.377  69.174  1.00  0.00    -0.081 A  
HETATM   18  C   UNL     1      -7.947  11.488  67.920  1.00  0.00    -0.126 A  
HETATM   19  C   UNL     1      -7.680  12.577  67.083  1.00  0.00    -0.109 A  
HETATM   20  C   UNL     1      -6.774  13.558  67.471  1.00  0.00    -0.144 A  
HETATM   21  C   UNL     1      -6.130  13.447  68.703  1.00  0.00    -0.086 A  
HETATM   22  O   UNL     1      -5.216  14.401  69.062  1.00  0.00    -0.081 OA 
HETATM   23  C   UNL     1      -6.406  12.370  69.563  1.00  0.00    -0.116 A  
HETATM   24  C   UNL     1      -5.702  12.330  70.875  1.00  0.00    -0.028 C  
HETATM   25  H   UNL     1      -4.777  14.326  69.901  1.00  0.00     0.000 HD 
HETATM   26  O   UNL     1      -5.750  11.402  71.673  1.00  0.00    -0.313 OA 
ENDBRANCH  16  17
ENDBRANCH  15  16
ENDBRANCH  10  15
ENDBRANCH   8   9
ENDBRANCH   2   4
TORSDOF 5
ENDMDL
MODEL      355
REMARK 921   NORMALIZED FREE ENERGY PREDICTED BY IDOCK:    7.29 KCAL/MOL
REMARK 922        TOTAL FREE ENERGY PREDICTED BY IDOCK:    8.21 KCAL/MOL
REMARK 923 INTER-LIGAND FREE ENERGY PREDICTED BY IDOCK:    6.13 KCAL/MOL
REMARK 924 INTRA-LIGAND FREE ENERGY PREDICTED BY IDOCK:    2.08 KCAL/MOL
REMARK 927      BINDING AFFINITY PREDICTED BY RF-SCORE:    0.00 PKD
ROOT
HETATM    1  C   UNL     1      -9.899   4.944  66.151  1.00  0.00    -0.222 C  
HETATM    2  C   UNL     1     -10.303   6.326  66.673  1.00  0.00    -0.170 C  
HETATM    3  C   UNL     1     -11.500   6.206  67.626  1.00  0.00     0.430 C  
ENDROOT
BRANCH   2   4
HETATM    4  N   UNL     1      -9.198   7.010  67.347  1.00  0.00    -0.125 NA 
HETATM    5  N   UNL     1      -7.937   6.587  67.074  1.00  0.00    -0.111 NA 
HETATM    6  C   UNL     1      -7.202   7.129  68.037  1.00  0.00    -0.091 A  
HETATM    7  C   UNL     1      -7.961   7.943  68.890  1.00  0.00    -0.123 A  
HETATM    8  C   UNL     1      -9.249   7.943  68.375  1.00  0.00    -0.134 A  
BRANCH   8   9
HETATM    9  C   UNL     1     -10.406   8.790  68.686  1.00  0.00    -0.205 A  
HETATM   10  C   UNL     1     -10.904   9.843  67.909  1.00  0.00    -0.312 A  
HETATM   11  C   UNL     1     -12.211   8.943  70.152  1.00  0.00     0.582 A  
HETATM   12  C   UNL     1     -12.101  10.454  68.338  1.00  0.00     0.682 A  
HETATM   13  N   UNL     1     -11.058   8.341  69.793  1.00  0.00    -0.125 NA 
HETATM   14  C   UNL     1     -12.771   9.994  69.462  1.00  0.00     0.886 A  
BRANCH  10  15
HETATM   15  C   UNL     1     -10.259  10.416  66.676  1.00  0.00    -0.234 C  
BRANCH  15  16
HETATM   16  O   UNL     1      -8.974   9.828  66.523  1.00  0.00    -0.146 OA 
BRANCH  16  17
HETATM   17  C   UNL     1      -7.985  10.508  65.869  1.00  0.00    -0.154 A  
HETATM   18  C   UNL     1      -6.789  10.923  66.471  1.00  0.00    -0.132 A  
HETATM   19  C   UNL     1      -5.783  11.537  65.718  1.00  0.00     0.527 A  
HETATM   20  C   UNL     1      -5.964  11.772  64.360  1.00  0.00     3.444 A  
HETATM   21  C   UNL     1      -7.160  11.392  63.752  1.00  0.00     1.845 A  
HETATM   22  O   UNL     1      -7.341  11.656  62.421  1.00  0.00    -0.348 OA 
HETATM   23  C   UNL     1      -8.170  10.754  64.492  1.00  0.00     0.092 A  
HETATM   24  C   UNL     1      -9.410  10.350  63.772  1.00  0.00    -0.288 C  
HETATM   25  H   UNL     1      -8.155  11.397  62.006  1.00  0.00     0.000 HD 
HETATM   26  O   UNL     1     -10.416   9.896  64.302  1.00  0.00     0.564 OA 
ENDBRANCH  16  17
ENDBRANCH  15  16
ENDBRANCH  10  15
ENDBRANCH   8   9
ENDBRANCH   2   4
TORSDOF 5
ENDMDL
MODEL      356
REMARK 921   NORMALIZED FREE ENERGY PREDICTED BY IDOCK:   23.73 KCAL/MOL
REMARK 922        TOTAL FREE ENERGY PREDICTED BY IDOCK:   29.45 KCAL/MOL
REMARK 923 INTER-LIGAND FREE ENERGY PREDICTED BY IDOCK:   15.63 KCAL/MOL
REMARK 924 INTRA-LIGAND FREE ENERGY PREDICTED BY IDOCK:   13.82 KCAL/MOL
REMARK 927      BINDING AFFINITY PREDICTED BY RF-SCORE:    0.00 PKD
ROOT
HETATM    1  C   UNL     1     -10.965  15.849  67.139  1.00  0.00    -0.214 C  
HETATM    2  C   UNL     1     -11.538  16.906  66.191  1.00  0.00     1.428 C  
HETATM    3  C   UNL     1     -13.071  16.890  66.240  1.00  0.00     7.871 C  
ENDROOT
BRANCH   2   4
HETATM    4  N   UNL     1     -11.044  18.251  66.495  1.00  0.00     0.265 NA 
HETATM    5  N   UNL     1     -11.579  19.288  65.802  1.00  0.00     1.000 NA 
HETATM    6  C   UNL     1     -10.742  20.292  66.030  1.00  0.00    -0.018 A  
HETATM    7  C   UNL     1      -9.709  19.932  66.908  1.00  0.00    -0.532 A  
HETATM    8  C   UNL     1      -9.968  18.624  67.290  1.00  0.00    -0.329 A  
BRANCH   8   9
HETATM    9  C   UNL     1      -9.387  17.805  68.360  1.00  0.00    -0.294 A  
HETATM   10  C   UNL     1      -8.662  16.618  68.204  1.00  0.00    -0.201 A  
HETATM   11  C   UNL     1      -8.937  17.847  70.646  1.00  0.00     4.698 A  
HETATM   12  C   UNL     1      -8.092  16.051  69.364  1.00  0.00    -0.139 A  
HETATM   13  N   UNL     1      -9.517  18.417  69.570  1.00  0.00     0.289 NA 
HETATM   14  C   UNL     1      -8.217  16.675  70.596  1.00  0.00     3.865 A  
BRANCH  10  15
HETATM   15  C   UNL     1      -8.465  15.863  66.917  1.00  0.00    -0.240 C  
BRANCH  15  16
HETATM   16  O   UNL     1      -9.741  15.514  66.398  1.00  0.00    -0.247 OA 
BRANCH  16  17
HETATM   17  C   UNL     1      -9.986  14.232  65.994  1.00  0.00    -0.319 A  
HETATM   18  C   UNL     1      -9.676  13.097  66.755  1.00  0.00    -0.246 A  
HETATM   19  C   UNL     1     -10.037  11.818  66.318  1.00  0.00    -0.248 A  
HETATM   20  C   UNL     1     -10.689  11.649  65.101  1.00  0.00    -0.351 A  
HETATM   21  C   UNL     1     -10.978  12.765  64.317  1.00  0.00    -0.379 A  
HETATM   22  O   UNL     1     -11.592  12.585  63.107  1.00  0.00    -0.691 OA 
HETATM   23  C   UNL     1     -10.641  14.057  64.756  1.00  0.00    -0.441 A  
HETATM   24  C   UNL     1     -11.006  15.206  63.881  1.00  0.00     1.168 C  
HETATM   25  H   UNL     1     -11.789  13.345  62.572  1.00  0.00     0.000 HD 
HETATM   26  O   UNL     1     -10.676  16.370  64.072  1.00  0.00    -0.069 OA 
ENDBRANCH  16  17
ENDBRANCH  15  16
ENDBRANCH  10  15
ENDBRANCH   8   9
ENDBRANCH   2   4
TORSDOF 5
ENDMDL
MODEL      357
REMARK 921   NORMALIZED FREE ENERGY PREDICTED BY IDOCK:   31.60 KCAL/MOL
REMARK 922        TOTAL FREE ENERGY PREDICTED BY IDOCK:   39.62 KCAL/MOL
REMARK 923 INTER-LIGAND FREE ENERGY PREDICTED BY IDOCK:   36.77 KCAL/MOL
REMARK 924 INTRA-LIGAND FREE ENERGY PREDICTED BY IDOCK:    2.85 KCAL/MOL
REMARK 927      BINDING AFFINITY PREDICTED BY RF-SCORE:    0.00 PKD
ROOT
HETATM    1  C   UNL     1      -8.120  17.345  68.635  1.00  0.00    -0.264 C  
HETATM    2  C   UNL     1      -9.426  17.392  69.433  1.00  0.00     0.214 C  
HETATM    3  C   UNL     1      -9.139  17.706  70.908  1.00  0.00     5.837 C  
ENDROOT
BRANCH   2   4
HETATM    4  N   UNL     1     -10.372  18.370  68.892  1.00  0.00    -0.255 NA 
HETATM    5  N   UNL     1      -9.998  19.675  68.898  1.00  0.00    -0.461 NA 
HETATM    6  C   UNL     1     -11.130  20.333  68.680  1.00  0.00     1.247 A  
HETATM    7  C   UNL     1     -12.215  19.469  68.473  1.00  0.00     5.116 A  
HETATM    8  C   UNL     1     -11.696  18.184  68.513  1.00  0.00     2.496 A  
BRANCH   8   9
HETATM    9  C   UNL     1     -12.288  16.898  68.128  1.00  0.00     2.112 A  
HETATM   10  C   UNL     1     -11.605  15.773  67.651  1.00  0.00    -0.029 A  
HETATM   11  C   UNL     1     -14.289  15.708  68.236  1.00  0.00    11.171 A  
HETATM   12  C   UNL     1     -12.357  14.596  67.450  1.00  0.00     0.095 A  
HETATM   13  N   UNL     1     -13.616  16.863  68.424  1.00  0.00     5.207 NA 
HETATM   14  C   UNL     1     -13.709  14.555  67.756  1.00  0.00     7.077 A  
BRANCH  10  15
HETATM   15  C   UNL     1     -10.145  15.710  67.289  1.00  0.00    -0.255 C  
BRANCH  15  16
HETATM   16  O   UNL     1      -9.729  14.352  67.325  1.00  0.00    -0.226 OA 
BRANCH  16  17
HETATM   17  C   UNL     1     -10.220  13.463  66.410  1.00  0.00    -0.293 A  
HETATM   18  C   UNL     1     -10.887  13.835  65.235  1.00  0.00    -0.326 A  
HETATM   19  C   UNL     1     -11.285  12.874  64.300  1.00  0.00    -0.408 A  
HETATM   20  C   UNL     1     -11.047  11.524  64.534  1.00  0.00    -0.340 A  
HETATM   21  C   UNL     1     -10.411  11.135  65.712  1.00  0.00    -0.260 A  
HETATM   22  O   UNL     1     -10.210   9.801  65.948  1.00  0.00    -0.259 OA 
HETATM   23  C   UNL     1      -9.986  12.093  66.650  1.00  0.00    -0.222 A  
HETATM   24  C   UNL     1      -9.288  11.606  67.873  1.00  0.00    -0.174 C  
HETATM   25  H   UNL     1      -9.777   9.535  66.750  1.00  0.00     0.000 HD 
HETATM   26  O   UNL     1      -8.968  12.305  68.826  1.00  0.00    -0.028 OA 
ENDBRANCH  16  17
ENDBRANCH  15  16
ENDBRANCH  10  15
ENDBRANCH   8   9
ENDBRANCH   2   4
TORSDOF 5
ENDMDL
MODEL      358
REMARK 921   NORMALIZED FREE ENERGY PREDICTED BY IDOCK:   52.35 KCAL/MOL
REMARK 922        TOTAL FREE ENERGY PREDICTED BY IDOCK:   66.44 KCAL/MOL
REMARK 923 INTER-LIGAND FREE ENERGY PREDICTED BY IDOCK:   60.83 KCAL/MOL
REMARK 924 INTRA-LIGAND FREE ENERGY PREDICTED BY IDOCK:    5.61 KCAL/MOL
REMARK 927      BINDING AFFINITY PREDICTED BY RF-SCORE:    0.00 PKD
ROOT
HETATM    1  C   UNL     1      -5.216  16.274  65.090  1.00  0.00     5.302 C  
HETATM    2  C   UNL     1      -6.519  15.817  64.427  1.00  0.00    15.737 C  
HETATM    3  C   UNL     1      -6.491  14.302  64.185  1.00  0.00    24.790 C  
ENDROOT
BRANCH   2   4
HETATM    4  N   UNL     1      -7.699  16.172  65.218  1.00  0.00     2.719 NA 
HETATM    5  N   UNL     1      -7.751  17.424  65.740  1.00  0.00    -0.463 NA 
HETATM    6  C   UNL     1      -8.718  17.353  66.647  1.00  0.00    -0.260 A  
HETATM    7  C   UNL     1      -9.329  16.090  66.673  1.00  0.00    -0.268 A  
HETATM    8  C   UNL     1      -8.726  15.351  65.666  1.00  0.00     0.882 A  
BRANCH   8   9
HETATM    9  C   UNL     1      -9.103  14.068  65.062  1.00  0.00     1.826 A  
HETATM   10  C   UNL     1      -9.961  13.107  65.609  1.00  0.00    -0.237 A  
HETATM   11  C   UNL     1      -8.968  12.889  63.056  1.00  0.00     4.686 A  
HETATM   12  C   UNL     1     -10.280  11.992  64.806  1.00  0.00    -0.311 A  
HETATM   13  N   UNL     1      -8.617  13.963  63.794  1.00  0.00     7.687 NA 
HETATM   14  C   UNL     1      -9.792  11.885  63.512  1.00  0.00    -0.359 A  
BRANCH  10  15
HETATM   15  C   UNL     1     -10.545  13.128  66.997  1.00  0.00    -0.258 C  
BRANCH  15  16
HETATM   16  O   UNL     1      -9.688  12.391  67.859  1.00  0.00    -0.191 OA 
BRANCH  16  17
HETATM   17  C   UNL     1     -10.216  11.681  68.901  1.00  0.00    -0.125 A  
HETATM   18  C   UNL     1      -9.921  10.336  69.163  1.00  0.00    -0.235 A  
HETATM   19  C   UNL     1     -10.429   9.698  70.299  1.00  0.00    -0.338 A  
HETATM   20  C   UNL     1     -11.260  10.384  71.178  1.00  0.00     0.041 A  
HETATM   21  C   UNL     1     -11.588  11.714  70.917  1.00  0.00     0.628 A  
HETATM   22  O   UNL     1     -12.432  12.370  71.771  1.00  0.00    -0.056 OA 
HETATM   23  C   UNL     1     -11.066  12.373  69.790  1.00  0.00     0.102 A  
HETATM   24  C   UNL     1     -11.435  13.802  69.588  1.00  0.00    -0.237 C  
HETATM   25  H   UNL     1     -12.656  13.276  71.593  1.00  0.00     0.000 HD 
HETATM   26  O   UNL     1     -11.156  14.469  68.599  1.00  0.00    -0.237 OA 
ENDBRANCH  16  17
ENDBRANCH  15  16
ENDBRANCH  10  15
ENDBRANCH   8   9
ENDBRANCH   2   4
TORSDOF 5
ENDMDL
