MODEL        1
REMARK 921   NORMALIZED FREE ENERGY PREDICTED BY IDOCK:   -8.17 KCAL/MOL
REMARK 922        TOTAL FREE ENERGY PREDICTED BY IDOCK:   -8.97 KCAL/MOL
REMARK 923 INTER-LIGAND FREE ENERGY PREDICTED BY IDOCK:   -8.65 KCAL/MOL
REMARK 924 INTRA-LIGAND FREE ENERGY PREDICTED BY IDOCK:   -0.32 KCAL/MOL
REMARK 927      BINDING AFFINITY PREDICTED BY RF-SCORE:    0.00 PKD
ROOT
HETATM    1  C   UNL     1     -11.242  12.484  64.574  1.00  0.00    -0.370 C  
HETATM    2  C   UNL     1     -12.056  13.727  64.817  1.00  0.00    -0.410 C  
HETATM    3  O   UNL     1     -12.438  14.435  63.883  1.00  0.00    -0.798 OA 
ENDROOT
BRANCH   2   4
HETATM    4  C   UNL     1     -12.398  14.088  66.250  1.00  0.00    -0.482 C  
HETATM    5  C   UNL     1     -11.198  13.960  67.203  1.00  0.00    -0.328 C  
HETATM    6  C   UNL     1      -9.985  14.841  66.883  1.00  0.00    -0.246 A  
HETATM    7  C   UNL     1     -11.684  14.065  68.659  1.00  0.00    -0.389 C  
HETATM    8  C   UNL     1     -10.069  16.047  66.168  1.00  0.00    -0.346 A  
HETATM    9  C   UNL     1     -11.736  15.154  69.448  1.00  0.00    -0.332 C  
HETATM   10  C   UNL     1     -12.106  15.043  70.858  1.00  0.00    -0.380 A  
HETATM   11  O   UNL     1     -11.483  16.446  69.049  1.00  0.00    -0.300 OA 
HETATM   12  C   UNL     1      -8.935  16.844  65.974  1.00  0.00    -0.198 A  
HETATM   13  H   UNL     1     -11.519  17.215  69.606  1.00  0.00     0.000 HD 
HETATM   14  C   UNL     1     -12.647  13.850  71.314  1.00  0.00    -0.371 A  
HETATM   15  C   UNL     1      -7.698  16.430  66.457  1.00  0.00    -0.295 A  
HETATM   16  C   UNL     1     -13.068  13.686  72.634  1.00  0.00    -0.452 A  
HETATM   17  O   UNL     1     -12.744  12.742  70.464  1.00  0.00    -0.144 OA 
HETATM   18  C   UNL     1      -7.585  15.218  67.130  1.00  0.00    -0.224 A  
HETATM   19  C   UNL     1      -8.720  14.435  67.349  1.00  0.00    -0.214 A  
HETATM   20  C   UNL     1     -12.142  12.751  69.215  1.00  0.00    -0.172 C  
HETATM   21  C   UNL     1     -12.894  14.731  73.539  1.00  0.00    -0.533 A  
HETATM   22  C   UNL     1     -12.308  15.924  73.117  1.00  0.00    -0.619 A  
HETATM   23  O   UNL     1     -12.064  11.717  68.556  1.00  0.00    -0.454 OA 
HETATM   24  C   UNL     1     -11.928  16.083  71.780  1.00  0.00    -0.592 A  
ENDBRANCH   2   4
TORSDOF 1
ENDMDL
MODEL        2
REMARK 921   NORMALIZED FREE ENERGY PREDICTED BY IDOCK:   -7.69 KCAL/MOL
REMARK 922        TOTAL FREE ENERGY PREDICTED BY IDOCK:   -8.47 KCAL/MOL
REMARK 923 INTER-LIGAND FREE ENERGY PREDICTED BY IDOCK:   -8.12 KCAL/MOL
REMARK 924 INTRA-LIGAND FREE ENERGY PREDICTED BY IDOCK:   -0.35 KCAL/MOL
REMARK 927      BINDING AFFINITY PREDICTED BY RF-SCORE:    0.00 PKD
ROOT
HETATM    1  C   UNL     1     -12.269  11.862  63.432  1.00  0.00    -0.561 C  
HETATM    2  C   UNL     1     -10.786  12.049  63.613  1.00  0.00    -0.449 C  
HETATM    3  O   UNL     1      -9.992  11.133  63.385  1.00  0.00    -0.314 OA 
ENDROOT
BRANCH   2   4
HETATM    4  C   UNL     1     -10.288  13.403  64.083  1.00  0.00    -0.104 C  
HETATM    5  C   UNL     1     -11.034  13.915  65.327  1.00  0.00    -0.331 C  
HETATM    6  C   UNL     1     -10.941  13.036  66.579  1.00  0.00    -0.307 A  
HETATM    7  C   UNL     1     -10.675  15.392  65.568  1.00  0.00    -0.397 C  
HETATM    8  C   UNL     1      -9.883  12.147  66.827  1.00  0.00    -0.218 A  
HETATM    9  C   UNL     1      -9.723  15.902  66.371  1.00  0.00    -0.287 C  
HETATM   10  C   UNL     1      -9.609  17.345  66.579  1.00  0.00    -0.292 A  
HETATM   11  O   UNL     1      -8.770  15.175  67.047  1.00  0.00    -0.205 OA 
HETATM   12  C   UNL     1      -9.820  11.427  68.026  1.00  0.00    -0.191 A  
HETATM   13  H   UNL     1      -8.098  15.535  67.614  1.00  0.00     0.000 HD 
HETATM   14  C   UNL     1     -10.323  18.197  65.749  1.00  0.00    -0.172 A  
HETATM   15  C   UNL     1     -10.829  11.557  68.974  1.00  0.00    -0.258 A  
HETATM   16  C   UNL     1     -10.227  19.584  65.856  1.00  0.00    -0.508 A  
HETATM   17  O   UNL     1     -11.212  17.683  64.798  1.00  0.00    -0.834 OA 
HETATM   18  C   UNL     1     -11.908  12.399  68.729  1.00  0.00    -0.358 A  
HETATM   19  C   UNL     1     -11.960  13.139  67.546  1.00  0.00    -0.367 A  
HETATM   20  C   UNL     1     -11.535  16.335  64.783  1.00  0.00    -0.121 C  
HETATM   21  C   UNL     1      -9.433  20.137  66.858  1.00  0.00    -0.543 A  
HETATM   22  C   UNL     1      -8.743  19.301  67.736  1.00  0.00    -0.345 A  
HETATM   23  O   UNL     1     -12.454  15.924  64.079  1.00  0.00    -0.710 OA 
HETATM   24  C   UNL     1      -8.821  17.912  67.588  1.00  0.00    -0.250 A  
ENDBRANCH   2   4
TORSDOF 1
ENDMDL
MODEL        3
REMARK 921   NORMALIZED FREE ENERGY PREDICTED BY IDOCK:   -7.68 KCAL/MOL
REMARK 922        TOTAL FREE ENERGY PREDICTED BY IDOCK:   -8.45 KCAL/MOL
REMARK 923 INTER-LIGAND FREE ENERGY PREDICTED BY IDOCK:   -8.15 KCAL/MOL
REMARK 924 INTRA-LIGAND FREE ENERGY PREDICTED BY IDOCK:   -0.30 KCAL/MOL
REMARK 927      BINDING AFFINITY PREDICTED BY RF-SCORE:    0.00 PKD
ROOT
HETATM    1  C   UNL     1     -11.768  12.683  63.562  1.00  0.00    -0.604 C  
HETATM    2  C   UNL     1     -11.200  12.183  64.864  1.00  0.00    -0.323 C  
HETATM    3  O   UNL     1     -10.233  11.419  64.890  1.00  0.00    -0.247 OA 
ENDROOT
BRANCH   2   4
HETATM    4  C   UNL     1     -11.850  12.650  66.152  1.00  0.00    -0.477 C  
HETATM    5  C   UNL     1     -10.829  13.102  67.209  1.00  0.00    -0.270 C  
HETATM    6  C   UNL     1      -9.920  14.272  66.813  1.00  0.00    -0.266 A  
HETATM    7  C   UNL     1     -11.537  13.288  68.562  1.00  0.00    -0.368 C  
HETATM    8  C   UNL     1     -10.269  15.235  65.852  1.00  0.00    -0.353 A  
HETATM    9  C   UNL     1     -12.047  14.415  69.093  1.00  0.00    -0.281 C  
HETATM   10  C   UNL     1     -12.572  14.432  70.457  1.00  0.00    -0.417 A  
HETATM   11  O   UNL     1     -12.155  15.626  68.450  1.00  0.00    -0.497 OA 
HETATM   12  C   UNL     1      -9.427  16.321  65.589  1.00  0.00    -0.097 A  
HETATM   13  H   UNL     1     -12.514  16.422  68.824  1.00  0.00     0.000 HD 
HETATM   14  C   UNL     1     -12.774  13.226  71.110  1.00  0.00    -0.320 A  
HETATM   15  C   UNL     1      -8.210  16.439  66.253  1.00  0.00    -0.343 A  
HETATM   16  C   UNL     1     -13.316  13.161  72.393  1.00  0.00    -0.591 A  
HETATM   17  O   UNL     1     -12.388  12.019  70.512  1.00  0.00    -0.336 OA 
HETATM   18  C   UNL     1      -7.826  15.473  67.177  1.00  0.00    -0.256 A  
HETATM   19  C   UNL     1      -8.677  14.404  67.461  1.00  0.00    -0.203 A  
HETATM   20  C   UNL     1     -11.639  12.015  69.345  1.00  0.00    -0.330 C  
HETATM   21  C   UNL     1     -13.617  14.343  73.065  1.00  0.00    -0.254 A  
HETATM   22  C   UNL     1     -13.378  15.571  72.450  1.00  0.00    -0.577 A  
HETATM   23  O   UNL     1     -11.141  10.970  68.931  1.00  0.00    -0.200 OA 
HETATM   24  C   UNL     1     -12.870  15.615  71.147  1.00  0.00    -0.540 A  
ENDBRANCH   2   4
TORSDOF 1
ENDMDL
MODEL        4
REMARK 921   NORMALIZED FREE ENERGY PREDICTED BY IDOCK:   -7.67 KCAL/MOL
REMARK 922        TOTAL FREE ENERGY PREDICTED BY IDOCK:   -8.45 KCAL/MOL
REMARK 923 INTER-LIGAND FREE ENERGY PREDICTED BY IDOCK:   -8.11 KCAL/MOL
REMARK 924 INTRA-LIGAND FREE ENERGY PREDICTED BY IDOCK:   -0.33 KCAL/MOL
REMARK 927      BINDING AFFINITY PREDICTED BY RF-SCORE:    0.00 PKD
ROOT
HETATM    1  C   UNL     1      -9.974  20.420  67.108  1.00  0.00    -0.568 C  
HETATM    2  C   UNL     1     -10.224  19.380  68.169  1.00  0.00    -0.431 C  
HETATM    3  O   UNL     1     -10.209  19.669  69.367  1.00  0.00    -0.328 OA 
ENDROOT
BRANCH   2   4
HETATM    4  C   UNL     1     -10.499  17.957  67.721  1.00  0.00    -0.409 C  
HETATM    5  C   UNL     1      -9.500  17.457  66.664  1.00  0.00    -0.285 C  
HETATM    6  C   UNL     1      -8.027  17.429  67.088  1.00  0.00    -0.226 A  
HETATM    7  C   UNL     1     -10.006  16.134  66.064  1.00  0.00    -0.373 C  
HETATM    8  C   UNL     1      -7.605  17.322  68.424  1.00  0.00    -0.241 A  
HETATM    9  C   UNL     1      -9.698  14.876  66.431  1.00  0.00    -0.285 C  
HETATM   10  C   UNL     1     -10.174  13.730  65.657  1.00  0.00    -0.326 A  
HETATM   11  O   UNL     1      -8.953  14.521  67.531  1.00  0.00    -0.174 OA 
HETATM   12  C   UNL     1      -6.245  17.226  68.739  1.00  0.00    -0.176 A  
HETATM   13  H   UNL     1      -8.735  13.633  67.790  1.00  0.00     0.000 HD 
HETATM   14  C   UNL     1     -11.152  13.935  64.695  1.00  0.00    -0.385 A  
HETATM   15  C   UNL     1      -5.289  17.274  67.730  1.00  0.00    -0.122 A  
HETATM   16  C   UNL     1     -11.689  12.884  63.952  1.00  0.00    -0.526 A  
HETATM   17  O   UNL     1     -11.601  15.228  64.400  1.00  0.00    -0.358 OA 
HETATM   18  C   UNL     1      -5.683  17.423  66.405  1.00  0.00    -0.241 A  
HETATM   19  C   UNL     1      -7.040  17.491  66.086  1.00  0.00    -0.341 A  
HETATM   20  C   UNL     1     -10.959  16.338  64.926  1.00  0.00    -0.307 C  
HETATM   21  C   UNL     1     -11.197  11.595  64.141  1.00  0.00    -0.421 A  
HETATM   22  C   UNL     1     -10.179  11.370  65.068  1.00  0.00    -0.333 A  
HETATM   23  O   UNL     1     -11.231  17.465  64.517  1.00  0.00    -1.018 OA 
HETATM   24  C   UNL     1      -9.680  12.431  65.831  1.00  0.00    -0.237 A  
ENDBRANCH   2   4
TORSDOF 1
ENDMDL
MODEL        5
REMARK 921   NORMALIZED FREE ENERGY PREDICTED BY IDOCK:   -7.30 KCAL/MOL
REMARK 922        TOTAL FREE ENERGY PREDICTED BY IDOCK:   -8.05 KCAL/MOL
REMARK 923 INTER-LIGAND FREE ENERGY PREDICTED BY IDOCK:   -7.70 KCAL/MOL
REMARK 924 INTRA-LIGAND FREE ENERGY PREDICTED BY IDOCK:   -0.35 KCAL/MOL
REMARK 927      BINDING AFFINITY PREDICTED BY RF-SCORE:    0.00 PKD
ROOT
HETATM    1  C   UNL     1     -10.373  17.416  66.468  1.00  0.00    -0.312 C  
HETATM    2  C   UNL     1      -9.379  16.313  66.723  1.00  0.00    -0.237 C  
HETATM    3  O   UNL     1      -8.285  16.292  66.156  1.00  0.00    -0.315 OA 
ENDROOT
BRANCH   2   4
HETATM    4  C   UNL     1      -9.761  15.223  67.706  1.00  0.00    -0.215 C  
HETATM    5  C   UNL     1     -11.133  14.598  67.405  1.00  0.00    -0.331 C  
HETATM    6  C   UNL     1     -11.282  13.925  66.036  1.00  0.00    -0.300 A  
HETATM    7  C   UNL     1     -11.567  13.716  68.588  1.00  0.00    -0.364 C  
HETATM    8  C   UNL     1     -10.202  13.403  65.304  1.00  0.00    -0.312 A  
HETATM    9  C   UNL     1     -11.399  12.390  68.750  1.00  0.00    -0.293 C  
HETATM   10  C   UNL     1     -11.997  11.691  69.888  1.00  0.00    -0.414 A  
HETATM   11  O   UNL     1     -10.668  11.567  67.926  1.00  0.00    -0.185 OA 
HETATM   12  C   UNL     1     -10.415  12.734  64.094  1.00  0.00    -0.437 A  
HETATM   13  H   UNL     1     -10.550  10.631  68.040  1.00  0.00     0.000 HD 
HETATM   14  C   UNL     1     -12.521  12.439  70.930  1.00  0.00    -0.274 A  
HETATM   15  C   UNL     1     -11.700  12.611  63.579  1.00  0.00    -0.604 A  
HETATM   16  C   UNL     1     -13.063  11.843  72.069  1.00  0.00    -0.441 A  
HETATM   17  O   UNL     1     -12.568  13.837  70.850  1.00  0.00    -0.336 OA 
HETATM   18  C   UNL     1     -12.779  13.158  64.266  1.00  0.00    -0.191 A  
HETATM   19  C   UNL     1     -12.573  13.801  65.487  1.00  0.00    -0.551 A  
HETATM   20  C   UNL     1     -12.264  14.489  69.666  1.00  0.00    -0.292 C  
HETATM   21  C   UNL     1     -13.130  10.454  72.143  1.00  0.00    -0.427 A  
HETATM   22  C   UNL     1     -12.653   9.679  71.087  1.00  0.00    -0.411 A  
HETATM   23  O   UNL     1     -12.491  15.691  69.543  1.00  0.00    -0.226 OA 
HETATM   24  C   UNL     1     -12.078  10.295  69.970  1.00  0.00    -0.230 A  
ENDBRANCH   2   4
TORSDOF 1
ENDMDL
MODEL        6
REMARK 921   NORMALIZED FREE ENERGY PREDICTED BY IDOCK:   -7.23 KCAL/MOL
REMARK 922        TOTAL FREE ENERGY PREDICTED BY IDOCK:   -7.97 KCAL/MOL
REMARK 923 INTER-LIGAND FREE ENERGY PREDICTED BY IDOCK:   -7.84 KCAL/MOL
REMARK 924 INTRA-LIGAND FREE ENERGY PREDICTED BY IDOCK:   -0.13 KCAL/MOL
REMARK 927      BINDING AFFINITY PREDICTED BY RF-SCORE:    0.00 PKD
ROOT
HETATM    1  C   UNL     1     -12.256  12.173  63.480  1.00  0.00    -0.670 C  
HETATM    2  C   UNL     1     -12.227  13.309  64.469  1.00  0.00    -0.400 C  
HETATM    3  O   UNL     1     -13.263  13.745  64.975  1.00  0.00    -0.733 OA 
ENDROOT
BRANCH   2   4
HETATM    4  C   UNL     1     -10.880  13.905  64.832  1.00  0.00    -0.413 C  
HETATM    5  C   UNL     1     -10.886  14.610  66.198  1.00  0.00    -0.321 C  
HETATM    6  C   UNL     1     -11.237  13.736  67.408  1.00  0.00    -0.330 A  
HETATM    7  C   UNL     1      -9.589  15.420  66.364  1.00  0.00    -0.319 C  
HETATM    8  C   UNL     1     -11.047  12.344  67.441  1.00  0.00    -0.320 A  
HETATM    9  C   UNL     1      -8.441  15.049  66.963  1.00  0.00    -0.229 C  
HETATM   10  C   UNL     1      -7.347  16.002  67.144  1.00  0.00    -0.257 A  
HETATM   11  O   UNL     1      -8.154  13.790  67.437  1.00  0.00    -0.171 OA 
HETATM   12  C   UNL     1     -11.317  11.613  68.603  1.00  0.00    -0.326 A  
HETATM   13  H   UNL     1      -7.344  13.529  67.859  1.00  0.00     0.000 HD 
HETATM   14  C   UNL     1      -7.400  17.215  66.473  1.00  0.00    -0.276 A  
HETATM   15  C   UNL     1     -11.817  12.253  69.732  1.00  0.00    -0.388 A  
HETATM   16  C   UNL     1      -6.371  18.153  66.560  1.00  0.00    -0.232 A  
HETATM   17  O   UNL     1      -8.526  17.561  65.716  1.00  0.00    -0.530 OA 
HETATM   18  C   UNL     1     -12.053  13.624  69.706  1.00  0.00    -0.396 A  
HETATM   19  C   UNL     1     -11.758  14.360  68.557  1.00  0.00    -0.370 A  
HETATM   20  C   UNL     1      -9.677  16.790  65.766  1.00  0.00    -0.128 C  
HETATM   21  C   UNL     1      -5.280  17.892  67.384  1.00  0.00    -0.145 A  
HETATM   22  C   UNL     1      -5.225  16.701  68.108  1.00  0.00    -0.114 A  
HETATM   23  O   UNL     1     -10.719  17.198  65.257  1.00  0.00    -0.629 OA 
HETATM   24  C   UNL     1      -6.248  15.755  67.978  1.00  0.00    -0.148 A  
ENDBRANCH   2   4
TORSDOF 1
ENDMDL
MODEL        7
REMARK 921   NORMALIZED FREE ENERGY PREDICTED BY IDOCK:   -6.93 KCAL/MOL
REMARK 922        TOTAL FREE ENERGY PREDICTED BY IDOCK:   -7.66 KCAL/MOL
REMARK 923 INTER-LIGAND FREE ENERGY PREDICTED BY IDOCK:   -7.38 KCAL/MOL
REMARK 924 INTRA-LIGAND FREE ENERGY PREDICTED BY IDOCK:   -0.28 KCAL/MOL
REMARK 927      BINDING AFFINITY PREDICTED BY RF-SCORE:    0.00 PKD
ROOT
HETATM    1  C   UNL     1     -14.381   7.355  71.765  1.00  0.00    -0.586 C  
HETATM    2  C   UNL     1     -13.804   8.721  72.024  1.00  0.00    -0.451 C  
HETATM    3  O   UNL     1     -13.549   9.104  73.167  1.00  0.00    -0.179 OA 
ENDROOT
BRANCH   2   4
HETATM    4  C   UNL     1     -13.539   9.622  70.832  1.00  0.00    -0.070 C  
HETATM    5  C   UNL     1     -12.080  10.100  70.755  1.00  0.00    -0.438 C  
HETATM    6  C   UNL     1     -11.016   9.004  70.629  1.00  0.00    -0.308 A  
HETATM    7  C   UNL     1     -11.960  11.215  69.702  1.00  0.00    -0.429 C  
HETATM    8  C   UNL     1     -11.270   7.733  70.085  1.00  0.00    -0.168 A  
HETATM    9  C   UNL     1     -11.616  11.109  68.405  1.00  0.00    -0.306 C  
HETATM   10  C   UNL     1     -11.424  12.300  67.578  1.00  0.00    -0.414 A  
HETATM   11  O   UNL     1     -11.432   9.931  67.718  1.00  0.00    -0.553 OA 
HETATM   12  C   UNL     1     -10.237   6.803  69.930  1.00  0.00    -0.211 A  
HETATM   13  H   UNL     1     -11.189   9.856  66.802  1.00  0.00     0.000 HD 
HETATM   14  C   UNL     1     -11.843  13.527  68.069  1.00  0.00    -0.365 A  
HETATM   15  C   UNL     1      -8.947   7.112  70.349  1.00  0.00    -0.155 A  
HETATM   16  C   UNL     1     -11.737  14.698  67.319  1.00  0.00    -0.406 A  
HETATM   17  O   UNL     1     -12.348  13.639  69.370  1.00  0.00    -0.292 OA 
HETATM   18  C   UNL     1      -8.683   8.347  70.930  1.00  0.00    -0.178 A  
HETATM   19  C   UNL     1      -9.706   9.288  71.061  1.00  0.00    -0.341 A  
HETATM   20  C   UNL     1     -12.274  12.572  70.253  1.00  0.00    -0.267 C  
HETATM   21  C   UNL     1     -11.145  14.649  66.060  1.00  0.00    -0.332 A  
HETATM   22  C   UNL     1     -10.671  13.435  65.563  1.00  0.00    -0.301 A  
HETATM   23  O   UNL     1     -12.539  12.732  71.443  1.00  0.00    -0.316 OA 
HETATM   24  C   UNL     1     -10.822  12.264  66.314  1.00  0.00    -0.313 A  
ENDBRANCH   2   4
TORSDOF 1
ENDMDL
MODEL        8
REMARK 921   NORMALIZED FREE ENERGY PREDICTED BY IDOCK:   -6.92 KCAL/MOL
REMARK 922        TOTAL FREE ENERGY PREDICTED BY IDOCK:   -7.65 KCAL/MOL
REMARK 923 INTER-LIGAND FREE ENERGY PREDICTED BY IDOCK:   -7.34 KCAL/MOL
REMARK 924 INTRA-LIGAND FREE ENERGY PREDICTED BY IDOCK:   -0.31 KCAL/MOL
REMARK 927      BINDING AFFINITY PREDICTED BY RF-SCORE:    0.00 PKD
ROOT
HETATM    1  C   UNL     1     -10.731  11.814  63.853  1.00  0.00    -0.457 C  
HETATM    2  C   UNL     1     -11.279  13.175  64.192  1.00  0.00    -0.397 C  
HETATM    3  O   UNL     1     -12.474  13.440  64.047  1.00  0.00    -0.632 OA 
ENDROOT
BRANCH   2   4
HETATM    4  C   UNL     1     -10.316  14.220  64.725  1.00  0.00    -0.373 C  
HETATM    5  C   UNL     1     -10.838  14.926  65.987  1.00  0.00    -0.328 C  
HETATM    6  C   UNL     1     -11.111  14.028  67.200  1.00  0.00    -0.313 A  
HETATM    7  C   UNL     1      -9.952  16.145  66.296  1.00  0.00    -0.336 C  
HETATM    8  C   UNL     1     -10.473  12.795  67.412  1.00  0.00    -0.234 A  
HETATM    9  C   UNL     1      -8.894  16.224  67.125  1.00  0.00    -0.193 C  
HETATM   10  C   UNL     1      -8.247  17.506  67.398  1.00  0.00    -0.217 A  
HETATM   11  O   UNL     1      -8.302  15.164  67.771  1.00  0.00    -0.140 OA 
HETATM   12  C   UNL     1     -10.712  12.057  68.577  1.00  0.00    -0.261 A  
HETATM   13  H   UNL     1      -7.555  15.219  68.357  1.00  0.00     0.000 HD 
HETATM   14  C   UNL     1      -8.568  18.598  66.605  1.00  0.00    -0.297 A  
HETATM   15  C   UNL     1     -11.616  12.522  69.525  1.00  0.00    -0.348 A  
HETATM   16  C   UNL     1      -7.957  19.840  66.775  1.00  0.00    -0.323 A  
HETATM   17  O   UNL     1      -9.566  18.499  65.628  1.00  0.00    -0.365 OA 
HETATM   18  C   UNL     1     -12.291  13.719  69.315  1.00  0.00    -0.185 A  
HETATM   19  C   UNL     1     -12.034  14.470  68.166  1.00  0.00    -0.296 A  
HETATM   20  C   UNL     1     -10.374  17.375  65.552  1.00  0.00    -0.060 C  
HETATM   21  C   UNL     1      -7.033  20.009  67.804  1.00  0.00    -0.305 A  
HETATM   22  C   UNL     1      -6.729  18.940  68.646  1.00  0.00    -0.294 A  
HETATM   23  O   UNL     1     -11.366  17.372  64.826  1.00  0.00    -0.742 OA 
HETATM   24  C   UNL     1      -7.323  17.691  68.435  1.00  0.00    -0.243 A  
ENDBRANCH   2   4
TORSDOF 1
ENDMDL
MODEL        9
REMARK 921   NORMALIZED FREE ENERGY PREDICTED BY IDOCK:   -6.81 KCAL/MOL
REMARK 922        TOTAL FREE ENERGY PREDICTED BY IDOCK:   -7.53 KCAL/MOL
REMARK 923 INTER-LIGAND FREE ENERGY PREDICTED BY IDOCK:   -7.30 KCAL/MOL
REMARK 924 INTRA-LIGAND FREE ENERGY PREDICTED BY IDOCK:   -0.22 KCAL/MOL
REMARK 927      BINDING AFFINITY PREDICTED BY RF-SCORE:    0.00 PKD
ROOT
HETATM    1  C   UNL     1      -8.794  16.125  66.335  1.00  0.00    -0.355 C  
HETATM    2  C   UNL     1      -9.982  15.875  67.227  1.00  0.00    -0.240 C  
HETATM    3  O   UNL     1     -10.902  16.690  67.312  1.00  0.00    -0.273 OA 
ENDROOT
BRANCH   2   4
HETATM    4  C   UNL     1     -10.020  14.582  68.020  1.00  0.00    -0.222 C  
HETATM    5  C   UNL     1     -11.211  13.684  67.646  1.00  0.00    -0.303 C  
HETATM    6  C   UNL     1     -11.275  13.220  66.186  1.00  0.00    -0.317 A  
HETATM    7  C   UNL     1     -11.339  12.546  68.673  1.00  0.00    -0.329 C  
HETATM    8  C   UNL     1     -10.147  13.113  65.355  1.00  0.00    -0.260 A  
HETATM    9  C   UNL     1     -10.839  11.298  68.606  1.00  0.00    -0.204 C  
HETATM   10  C   UNL     1     -11.173  10.300  69.621  1.00  0.00    -0.322 A  
HETATM   11  O   UNL     1      -9.980  10.829  67.639  1.00  0.00    -0.168 OA 
HETATM   12  C   UNL     1     -10.263  12.611  64.054  1.00  0.00    -0.363 A  
HETATM   13  H   UNL     1      -9.627   9.948  67.592  1.00  0.00     0.000 HD 
HETATM   14  C   UNL     1     -11.799  10.716  70.786  1.00  0.00    -0.357 A  
HETATM   15  C   UNL     1     -11.508  12.247  63.553  1.00  0.00    -0.558 A  
HETATM   16  C   UNL     1     -12.105   9.830  71.818  1.00  0.00    -0.425 A  
HETATM   17  O   UNL     1     -12.196  12.050  70.943  1.00  0.00    -0.352 OA 
HETATM   18  C   UNL     1     -12.643  12.387  64.344  1.00  0.00    -0.489 A  
HETATM   19  C   UNL     1     -12.527  12.861  65.652  1.00  0.00    -0.400 A  
HETATM   20  C   UNL     1     -12.136  12.937  69.879  1.00  0.00    -0.265 C  
HETATM   21  C   UNL     1     -11.821   8.476  71.659  1.00  0.00    -0.370 A  
HETATM   22  C   UNL     1     -11.235   8.024  70.477  1.00  0.00    -0.252 A  
HETATM   23  O   UNL     1     -12.661  14.045  69.965  1.00  0.00    -0.317 OA 
HETATM   24  C   UNL     1     -10.901   8.934  69.469  1.00  0.00    -0.163 A  
ENDBRANCH   2   4
TORSDOF 1
ENDMDL
MODEL       10
REMARK 921   NORMALIZED FREE ENERGY PREDICTED BY IDOCK:   -6.76 KCAL/MOL
REMARK 922        TOTAL FREE ENERGY PREDICTED BY IDOCK:   -7.47 KCAL/MOL
REMARK 923 INTER-LIGAND FREE ENERGY PREDICTED BY IDOCK:   -7.15 KCAL/MOL
REMARK 924 INTRA-LIGAND FREE ENERGY PREDICTED BY IDOCK:   -0.33 KCAL/MOL
REMARK 927      BINDING AFFINITY PREDICTED BY RF-SCORE:    0.00 PKD
ROOT
HETATM    1  C   UNL     1     -10.787  13.632  64.475  1.00  0.00    -0.416 C  
HETATM    2  C   UNL     1     -12.098  13.415  65.183  1.00  0.00    -0.409 C  
HETATM    3  O   UNL     1     -13.103  14.064  64.885  1.00  0.00    -0.693 OA 
ENDROOT
BRANCH   2   4
HETATM    4  C   UNL     1     -12.152  12.368  66.280  1.00  0.00    -0.256 C  
HETATM    5  C   UNL     1     -10.966  12.460  67.255  1.00  0.00    -0.302 C  
HETATM    6  C   UNL     1     -10.820  13.782  68.017  1.00  0.00    -0.263 A  
HETATM    7  C   UNL     1     -10.942  11.211  68.152  1.00  0.00    -0.292 C  
HETATM    8  C   UNL     1     -11.893  14.650  68.280  1.00  0.00    -0.333 A  
HETATM    9  C   UNL     1     -11.473  11.051  69.379  1.00  0.00    -0.294 C  
HETATM   10  C   UNL     1     -11.238   9.828  70.146  1.00  0.00    -0.324 A  
HETATM   11  O   UNL     1     -12.280  11.956  70.028  1.00  0.00    -0.273 OA 
HETATM   12  C   UNL     1     -11.706  15.805  69.047  1.00  0.00    -0.405 A  
HETATM   13  H   UNL     1     -12.655  11.843  70.894  1.00  0.00     0.000 HD 
HETATM   14  C   UNL     1     -10.678   8.735  69.502  1.00  0.00    -0.188 A  
HETATM   15  C   UNL     1     -10.442  16.129  69.528  1.00  0.00    -0.295 A  
HETATM   16  C   UNL     1     -10.469   7.520  70.155  1.00  0.00    -0.226 A  
HETATM   17  O   UNL     1     -10.253   8.832  68.172  1.00  0.00    -0.189 OA 
HETATM   18  C   UNL     1      -9.358  15.306  69.242  1.00  0.00    -0.239 A  
HETATM   19  C   UNL     1      -9.547  14.139  68.501  1.00  0.00    -0.214 A  
HETATM   20  C   UNL     1     -10.214  10.060  67.528  1.00  0.00    -0.212 C  
HETATM   21  C   UNL     1     -10.782   7.412  71.508  1.00  0.00    -0.243 A  
HETATM   22  C   UNL     1     -11.302   8.511  72.190  1.00  0.00    -0.442 A  
HETATM   23  O   UNL     1      -9.664  10.171  66.435  1.00  0.00    -0.185 OA 
HETATM   24  C   UNL     1     -11.541   9.709  71.508  1.00  0.00    -0.451 A  
ENDBRANCH   2   4
TORSDOF 1
ENDMDL
MODEL       11
REMARK 921   NORMALIZED FREE ENERGY PREDICTED BY IDOCK:   -6.55 KCAL/MOL
REMARK 922        TOTAL FREE ENERGY PREDICTED BY IDOCK:   -7.26 KCAL/MOL
REMARK 923 INTER-LIGAND FREE ENERGY PREDICTED BY IDOCK:   -6.94 KCAL/MOL
REMARK 924 INTRA-LIGAND FREE ENERGY PREDICTED BY IDOCK:   -0.32 KCAL/MOL
REMARK 927      BINDING AFFINITY PREDICTED BY RF-SCORE:    0.00 PKD
ROOT
HETATM    1  C   UNL     1     -10.409  20.048  65.734  1.00  0.00    -0.474 C  
HETATM    2  C   UNL     1     -10.452  19.532  67.149  1.00  0.00    -0.474 C  
HETATM    3  O   UNL     1     -10.341  20.292  68.112  1.00  0.00    -0.358 OA 
ENDROOT
BRANCH   2   4
HETATM    4  C   UNL     1     -10.639  18.041  67.359  1.00  0.00    -0.378 C  
HETATM    5  C   UNL     1      -9.503  17.203  66.749  1.00  0.00    -0.278 C  
HETATM    6  C   UNL     1      -8.096  17.476  67.294  1.00  0.00    -0.219 A  
HETATM    7  C   UNL     1      -9.901  15.717  66.754  1.00  0.00    -0.256 C  
HETATM    8  C   UNL     1      -7.846  18.002  68.573  1.00  0.00    -0.310 A  
HETATM    9  C   UNL     1      -9.616  14.777  67.675  1.00  0.00    -0.208 C  
HETATM   10  C   UNL     1      -9.966  13.375  67.450  1.00  0.00    -0.230 A  
HETATM   11  O   UNL     1      -9.012  15.002  68.890  1.00  0.00    -0.187 OA 
HETATM   12  C   UNL     1      -6.537  18.157  69.039  1.00  0.00    -0.253 A  
HETATM   13  H   UNL     1      -8.811  14.338  69.540  1.00  0.00     0.000 HD 
HETATM   14  C   UNL     1     -10.817  13.060  66.401  1.00  0.00    -0.278 A  
HETATM   15  C   UNL     1      -5.460  17.827  68.223  1.00  0.00    -0.154 A  
HETATM   16  C   UNL     1     -11.233  11.752  66.155  1.00  0.00    -0.363 A  
HETATM   17  O   UNL     1     -11.250  14.052  65.514  1.00  0.00    -0.303 OA 
HETATM   18  C   UNL     1      -5.684  17.346  66.938  1.00  0.00    -0.202 A  
HETATM   19  C   UNL     1      -6.990  17.163  66.481  1.00  0.00    -0.296 A  
HETATM   20  C   UNL     1     -10.703  15.326  65.552  1.00  0.00    -0.371 C  
HETATM   21  C   UNL     1     -10.742  10.720  66.951  1.00  0.00    -0.309 A  
HETATM   22  C   UNL     1      -9.848  11.005  67.983  1.00  0.00    -0.183 A  
HETATM   23  O   UNL     1     -10.944  16.131  64.656  1.00  0.00    -0.642 OA 
HETATM   24  C   UNL     1      -9.472  12.328  68.239  1.00  0.00    -0.209 A  
ENDBRANCH   2   4
TORSDOF 1
ENDMDL
MODEL       12
REMARK 921   NORMALIZED FREE ENERGY PREDICTED BY IDOCK:   -6.51 KCAL/MOL
REMARK 922        TOTAL FREE ENERGY PREDICTED BY IDOCK:   -7.22 KCAL/MOL
REMARK 923 INTER-LIGAND FREE ENERGY PREDICTED BY IDOCK:   -6.87 KCAL/MOL
REMARK 924 INTRA-LIGAND FREE ENERGY PREDICTED BY IDOCK:   -0.35 KCAL/MOL
REMARK 927      BINDING AFFINITY PREDICTED BY RF-SCORE:    0.00 PKD
ROOT
HETATM    1  C   UNL     1     -10.039  10.597  68.767  1.00  0.00    -0.203 C  
HETATM    2  C   UNL     1     -11.259  11.479  68.805  1.00  0.00    -0.249 C  
HETATM    3  O   UNL     1     -12.391  11.003  68.910  1.00  0.00    -0.516 OA 
ENDROOT
BRANCH   2   4
HETATM    4  C   UNL     1     -11.058  12.980  68.712  1.00  0.00    -0.311 C  
HETATM    5  C   UNL     1     -10.207  13.397  67.501  1.00  0.00    -0.226 C  
HETATM    6  C   UNL     1     -10.762  13.016  66.123  1.00  0.00    -0.288 A  
HETATM    7  C   UNL     1      -9.817  14.879  67.633  1.00  0.00    -0.217 C  
HETATM    8  C   UNL     1     -12.127  12.808  65.866  1.00  0.00    -0.485 A  
HETATM    9  C   UNL     1     -10.436  15.957  67.116  1.00  0.00    -0.313 C  
HETATM   10  C   UNL     1      -9.846  17.290  67.234  1.00  0.00    -0.267 A  
HETATM   11  O   UNL     1     -11.646  15.950  66.462  1.00  0.00     0.214 OA 
HETATM   12  C   UNL     1     -12.577  12.536  64.570  1.00  0.00    -0.503 A  
HETATM   13  H   UNL     1     -12.083  16.711  66.097  1.00  0.00     0.000 HD 
HETATM   14  C   UNL     1      -8.778  17.473  68.099  1.00  0.00    -0.262 A  
HETATM   15  C   UNL     1     -11.669  12.429  63.522  1.00  0.00    -0.592 A  
HETATM   16  C   UNL     1      -8.195  18.724  68.300  1.00  0.00    -0.355 A  
HETATM   17  O   UNL     1      -8.210  16.382  68.769  1.00  0.00    -0.211 OA 
HETATM   18  C   UNL     1     -10.309  12.588  63.763  1.00  0.00    -0.418 A  
HETATM   19  C   UNL     1      -9.860  12.888  65.050  1.00  0.00    -0.067 A  
HETATM   20  C   UNL     1      -8.579  15.084  68.451  1.00  0.00    -0.162 C  
HETATM   21  C   UNL     1      -8.662  19.817  67.574  1.00  0.00    -0.388 A  
HETATM   22  C   UNL     1      -9.704  19.650  66.662  1.00  0.00    -0.494 A  
HETATM   23  O   UNL     1      -7.946  14.131  68.899  1.00  0.00    -0.126 OA 
HETATM   24  C   UNL     1     -10.301  18.395  66.503  1.00  0.00    -0.426 A  
ENDBRANCH   2   4
TORSDOF 1
ENDMDL
MODEL       13
REMARK 921   NORMALIZED FREE ENERGY PREDICTED BY IDOCK:   -6.48 KCAL/MOL
REMARK 922        TOTAL FREE ENERGY PREDICTED BY IDOCK:   -7.19 KCAL/MOL
REMARK 923 INTER-LIGAND FREE ENERGY PREDICTED BY IDOCK:   -6.86 KCAL/MOL
REMARK 924 INTRA-LIGAND FREE ENERGY PREDICTED BY IDOCK:   -0.33 KCAL/MOL
REMARK 927      BINDING AFFINITY PREDICTED BY RF-SCORE:    0.00 PKD
ROOT
HETATM    1  C   UNL     1      -7.640  10.016  63.965  1.00  0.00    -0.139 C  
HETATM    2  C   UNL     1      -9.134  10.205  63.959  1.00  0.00    -0.254 C  
HETATM    3  O   UNL     1      -9.734  10.541  62.936  1.00  0.00    -0.317 OA 
ENDROOT
BRANCH   2   4
HETATM    4  C   UNL     1      -9.888   9.968  65.254  1.00  0.00    -0.388 C  
HETATM    5  C   UNL     1      -9.444  10.907  66.387  1.00  0.00    -0.214 C  
HETATM    6  C   UNL     1      -9.623  12.408  66.129  1.00  0.00    -0.238 A  
HETATM    7  C   UNL     1     -10.041  10.424  67.719  1.00  0.00    -0.212 C  
HETATM    8  C   UNL     1     -10.573  12.935  65.238  1.00  0.00    -0.316 A  
HETATM    9  C   UNL     1     -11.178  10.821  68.321  1.00  0.00    -0.297 C  
HETATM   10  C   UNL     1     -11.527  10.345  69.659  1.00  0.00    -0.326 A  
HETATM   11  O   UNL     1     -12.120  11.664  67.778  1.00  0.00    -0.613 OA 
HETATM   12  C   UNL     1     -10.737  14.318  65.104  1.00  0.00    -0.407 A  
HETATM   13  H   UNL     1     -12.923  11.945  68.202  1.00  0.00     0.000 HD 
HETATM   14  C   UNL     1     -10.809   9.288  70.198  1.00  0.00    -0.242 A  
HETATM   15  C   UNL     1      -9.931  15.191  65.826  1.00  0.00    -0.375 A  
HETATM   16  C   UNL     1     -11.115   8.749  71.448  1.00  0.00    -0.361 A  
HETATM   17  O   UNL     1      -9.708   8.754  69.518  1.00  0.00    -0.168 OA 
HETATM   18  C   UNL     1      -8.955  14.691  66.681  1.00  0.00    -0.267 A  
HETATM   19  C   UNL     1      -8.808  13.311  66.838  1.00  0.00    -0.186 A  
HETATM   20  C   UNL     1      -9.202   9.378  68.388  1.00  0.00    -0.127 C  
HETATM   21  C   UNL     1     -12.137   9.318  72.203  1.00  0.00    -0.353 A  
HETATM   22  C   UNL     1     -12.842  10.413  71.704  1.00  0.00    -0.579 A  
HETATM   23  O   UNL     1      -8.129   9.020  67.909  1.00  0.00    -0.105 OA 
HETATM   24  C   UNL     1     -12.546  10.915  70.432  1.00  0.00    -0.376 A  
ENDBRANCH   2   4
TORSDOF 1
ENDMDL
MODEL       14
REMARK 921   NORMALIZED FREE ENERGY PREDICTED BY IDOCK:   -6.37 KCAL/MOL
REMARK 922        TOTAL FREE ENERGY PREDICTED BY IDOCK:   -7.07 KCAL/MOL
REMARK 923 INTER-LIGAND FREE ENERGY PREDICTED BY IDOCK:   -6.74 KCAL/MOL
REMARK 924 INTRA-LIGAND FREE ENERGY PREDICTED BY IDOCK:   -0.33 KCAL/MOL
REMARK 927      BINDING AFFINITY PREDICTED BY RF-SCORE:    0.00 PKD
ROOT
HETATM    1  C   UNL     1      -9.095  15.298  66.346  1.00  0.00    -0.347 C  
HETATM    2  C   UNL     1      -8.196  14.524  67.273  1.00  0.00    -0.208 C  
HETATM    3  O   UNL     1      -6.969  14.626  67.210  1.00  0.00    -0.221 OA 
ENDROOT
BRANCH   2   4
HETATM    4  C   UNL     1      -8.843  13.611  68.297  1.00  0.00    -0.179 C  
HETATM    5  C   UNL     1      -9.941  12.718  67.695  1.00  0.00    -0.217 C  
HETATM    6  C   UNL     1      -9.497  11.762  66.581  1.00  0.00    -0.215 A  
HETATM    7  C   UNL     1     -10.729  12.039  68.827  1.00  0.00    -0.252 C  
HETATM    8  C   UNL     1      -8.182  11.289  66.441  1.00  0.00    -0.150 A  
HETATM    9  C   UNL     1     -10.537  10.821  69.369  1.00  0.00    -0.221 C  
HETATM   10  C   UNL     1     -11.472  10.281  70.355  1.00  0.00    -0.415 A  
HETATM   11  O   UNL     1      -9.483   9.980  69.097  1.00  0.00    -0.183 OA 
HETATM   12  C   UNL     1      -7.859  10.359  65.446  1.00  0.00    -0.143 A  
HETATM   13  H   UNL     1      -9.347   9.120  69.479  1.00  0.00     0.000 HD 
HETATM   14  C   UNL     1     -12.414  11.130  70.916  1.00  0.00    -0.409 A  
HETATM   15  C   UNL     1      -8.832   9.920  64.556  1.00  0.00    -0.238 A  
HETATM   16  C   UNL     1     -13.307  10.699  71.897  1.00  0.00    -0.454 A  
HETATM   17  O   UNL     1     -12.533  12.453  70.473  1.00  0.00    -0.278 OA 
HETATM   18  C   UNL     1     -10.131  10.409  64.649  1.00  0.00    -0.378 A  
HETATM   19  C   UNL     1     -10.463  11.315  65.658  1.00  0.00    -0.317 A  
HETATM   20  C   UNL     1     -11.845  12.890  69.351  1.00  0.00    -0.312 C  
HETATM   21  C   UNL     1     -13.291   9.364  72.292  1.00  0.00    -0.539 A  
HETATM   22  C   UNL     1     -12.385   8.478  71.709  1.00  0.00    -0.388 A  
HETATM   23  O   UNL     1     -12.098  13.986  68.855  1.00  0.00    -0.351 OA 
HETATM   24  C   UNL     1     -11.472   8.938  70.754  1.00  0.00    -0.319 A  
ENDBRANCH   2   4
TORSDOF 1
ENDMDL
MODEL       15
REMARK 921   NORMALIZED FREE ENERGY PREDICTED BY IDOCK:   -6.35 KCAL/MOL
REMARK 922        TOTAL FREE ENERGY PREDICTED BY IDOCK:   -7.04 KCAL/MOL
REMARK 923 INTER-LIGAND FREE ENERGY PREDICTED BY IDOCK:   -6.71 KCAL/MOL
REMARK 924 INTRA-LIGAND FREE ENERGY PREDICTED BY IDOCK:   -0.34 KCAL/MOL
REMARK 927      BINDING AFFINITY PREDICTED BY RF-SCORE:    0.00 PKD
ROOT
HETATM    1  C   UNL     1     -10.602   9.730  68.191  1.00  0.00    -0.276 C  
HETATM    2  C   UNL     1     -11.301  11.008  68.574  1.00  0.00    -0.287 C  
HETATM    3  O   UNL     1     -12.460  11.004  68.993  1.00  0.00    -0.449 OA 
ENDROOT
BRANCH   2   4
HETATM    4  C   UNL     1     -10.535  12.310  68.434  1.00  0.00    -0.244 C  
HETATM    5  C   UNL     1      -9.834  12.449  67.073  1.00  0.00    -0.214 C  
HETATM    6  C   UNL     1     -10.744  12.425  65.839  1.00  0.00    -0.299 A  
HETATM    7  C   UNL     1      -8.864  13.642  67.114  1.00  0.00    -0.237 C  
HETATM    8  C   UNL     1     -12.100  12.794  65.867  1.00  0.00    -0.485 A  
HETATM    9  C   UNL     1      -9.082  14.913  66.728  1.00  0.00    -0.270 C  
HETATM   10  C   UNL     1      -7.996  15.892  66.716  1.00  0.00    -0.287 A  
HETATM   11  O   UNL     1     -10.293  15.435  66.335  1.00  0.00    -0.276 OA 
HETATM   12  C   UNL     1     -12.857  12.822  64.691  1.00  0.00    -0.355 A  
HETATM   13  H   UNL     1     -10.447  16.332  66.062  1.00  0.00     0.000 HD 
HETATM   14  C   UNL     1      -6.802  15.571  67.343  1.00  0.00    -0.189 A  
HETATM   15  C   UNL     1     -12.285  12.447  63.481  1.00  0.00    -0.661 A  
HETATM   16  C   UNL     1      -5.739  16.471  67.415  1.00  0.00    -0.188 A  
HETATM   17  O   UNL     1      -6.605  14.297  67.890  1.00  0.00    -0.134 OA 
HETATM   18  C   UNL     1     -10.956  12.037  63.438  1.00  0.00    -0.475 A  
HETATM   19  C   UNL     1     -10.190  12.035  64.605  1.00  0.00    -0.313 A  
HETATM   20  C   UNL     1      -7.517  13.279  67.661  1.00  0.00    -0.171 C  
HETATM   21  C   UNL     1      -5.855  17.712  66.793  1.00  0.00    -0.203 A  
HETATM   22  C   UNL     1      -7.028  18.041  66.114  1.00  0.00    -0.324 A  
HETATM   23  O   UNL     1      -7.248  12.122  67.976  1.00  0.00    -0.083 OA 
HETATM   24  C   UNL     1      -8.098  17.140  66.087  1.00  0.00    -0.283 A  
ENDBRANCH   2   4
TORSDOF 1
ENDMDL
MODEL       16
REMARK 921   NORMALIZED FREE ENERGY PREDICTED BY IDOCK:   -6.24 KCAL/MOL
REMARK 922        TOTAL FREE ENERGY PREDICTED BY IDOCK:   -6.92 KCAL/MOL
REMARK 923 INTER-LIGAND FREE ENERGY PREDICTED BY IDOCK:   -6.64 KCAL/MOL
REMARK 924 INTRA-LIGAND FREE ENERGY PREDICTED BY IDOCK:   -0.29 KCAL/MOL
REMARK 927      BINDING AFFINITY PREDICTED BY RF-SCORE:    0.00 PKD
ROOT
HETATM    1  C   UNL     1     -14.242   8.355  71.923  1.00  0.00    -0.541 C  
HETATM    2  C   UNL     1     -13.511   9.645  71.658  1.00  0.00    -0.374 C  
HETATM    3  O   UNL     1     -13.212  10.412  72.575  1.00  0.00    -0.163 OA 
ENDROOT
BRANCH   2   4
HETATM    4  C   UNL     1     -13.146   9.976  70.224  1.00  0.00     0.123 C  
HETATM    5  C   UNL     1     -11.647  10.266  70.039  1.00  0.00    -0.349 C  
HETATM    6  C   UNL     1     -10.689   9.128  70.407  1.00  0.00    -0.282 A  
HETATM    7  C   UNL     1     -11.407  10.861  68.641  1.00  0.00    -0.360 C  
HETATM    8  C   UNL     1     -11.053   7.771  70.393  1.00  0.00    -0.259 A  
HETATM    9  C   UNL     1     -11.056  10.224  67.508  1.00  0.00    -0.232 C  
HETATM   10  C   UNL     1     -10.741  10.972  66.292  1.00  0.00    -0.273 A  
HETATM   11  O   UNL     1     -10.973   8.860  67.348  1.00  0.00    -0.441 OA 
HETATM   12  C   UNL     1     -10.109   6.774  70.667  1.00  0.00    -0.204 A  
HETATM   13  H   UNL     1     -10.726   8.410  66.549  1.00  0.00     0.000 HD 
HETATM   14  C   UNL     1     -11.051  12.322  66.240  1.00  0.00    -0.302 A  
HETATM   15  C   UNL     1      -8.803   7.119  70.996  1.00  0.00    -0.145 A  
HETATM   16  C   UNL     1     -10.824  13.090  65.098  1.00  0.00    -0.320 A  
HETATM   17  O   UNL     1     -11.562  12.979  67.367  1.00  0.00    -0.314 OA 
HETATM   18  C   UNL     1      -8.433   8.458  71.059  1.00  0.00    -0.167 A  
HETATM   19  C   UNL     1      -9.365   9.453  70.758  1.00  0.00    -0.292 A  
HETATM   20  C   UNL     1     -11.601  12.346  68.599  1.00  0.00    -0.319 C  
HETATM   21  C   UNL     1     -10.221  12.499  63.990  1.00  0.00    -0.390 A  
HETATM   22  C   UNL     1      -9.856  11.154  64.034  1.00  0.00    -0.349 A  
HETATM   23  O   UNL     1     -11.867  12.983  69.616  1.00  0.00    -0.305 OA 
HETATM   24  C   UNL     1     -10.127  10.391  65.175  1.00  0.00    -0.379 A  
ENDBRANCH   2   4
TORSDOF 1
ENDMDL
MODEL       17
REMARK 921   NORMALIZED FREE ENERGY PREDICTED BY IDOCK:   -6.20 KCAL/MOL
REMARK 922        TOTAL FREE ENERGY PREDICTED BY IDOCK:   -6.89 KCAL/MOL
REMARK 923 INTER-LIGAND FREE ENERGY PREDICTED BY IDOCK:   -6.54 KCAL/MOL
REMARK 924 INTRA-LIGAND FREE ENERGY PREDICTED BY IDOCK:   -0.35 KCAL/MOL
REMARK 927      BINDING AFFINITY PREDICTED BY RF-SCORE:    0.00 PKD
ROOT
HETATM    1  C   UNL     1     -11.158  16.253  68.632  1.00  0.00    -0.356 C  
HETATM    2  C   UNL     1      -9.884  15.486  68.392  1.00  0.00    -0.210 C  
HETATM    3  O   UNL     1      -8.905  16.019  67.866  1.00  0.00    -0.179 OA 
ENDROOT
BRANCH   2   4
HETATM    4  C   UNL     1      -9.834  14.032  68.820  1.00  0.00    -0.141 C  
HETATM    5  C   UNL     1     -10.986  13.196  68.237  1.00  0.00    -0.278 C  
HETATM    6  C   UNL     1     -11.062  13.125  66.707  1.00  0.00    -0.314 A  
HETATM    7  C   UNL     1     -11.029  11.825  68.932  1.00  0.00    -0.288 C  
HETATM    8  C   UNL     1      -9.951  13.302  65.866  1.00  0.00    -0.280 A  
HETATM    9  C   UNL     1     -10.467  10.667  68.536  1.00  0.00    -0.191 C  
HETATM   10  C   UNL     1     -10.723   9.422  69.258  1.00  0.00    -0.228 A  
HETATM   11  O   UNL     1      -9.608  10.516  67.471  1.00  0.00    -0.158 OA 
HETATM   12  C   UNL     1     -10.072  13.151  64.480  1.00  0.00    -0.244 A  
HETATM   13  H   UNL     1      -9.211   9.699  67.192  1.00  0.00     0.000 HD 
HETATM   14  C   UNL     1     -11.341   9.485  70.497  1.00  0.00    -0.283 A  
HETATM   15  C   UNL     1     -11.308  12.860  63.914  1.00  0.00    -0.489 A  
HETATM   16  C   UNL     1     -11.575   8.344  71.266  1.00  0.00    -0.326 A  
HETATM   17  O   UNL     1     -11.803  10.707  71.002  1.00  0.00    -0.336 OA 
HETATM   18  C   UNL     1     -12.430  12.724  64.725  1.00  0.00    -0.539 A  
HETATM   19  C   UNL     1     -12.306  12.847  66.110  1.00  0.00    -0.266 A  
HETATM   20  C   UNL     1     -11.816  11.842  70.206  1.00  0.00    -0.295 C  
HETATM   21  C   UNL     1     -11.225   7.096  70.755  1.00  0.00    -0.309 A  
HETATM   22  C   UNL     1     -10.645   7.002  69.490  1.00  0.00    -0.253 A  
HETATM   23  O   UNL     1     -12.395  12.858  70.584  1.00  0.00    -0.358 OA 
HETATM   24  C   UNL     1     -10.384   8.160  68.751  1.00  0.00    -0.220 A  
ENDBRANCH   2   4
TORSDOF 1
ENDMDL
MODEL       18
REMARK 921   NORMALIZED FREE ENERGY PREDICTED BY IDOCK:   -6.17 KCAL/MOL
REMARK 922        TOTAL FREE ENERGY PREDICTED BY IDOCK:   -6.85 KCAL/MOL
REMARK 923 INTER-LIGAND FREE ENERGY PREDICTED BY IDOCK:   -6.76 KCAL/MOL
REMARK 924 INTRA-LIGAND FREE ENERGY PREDICTED BY IDOCK:   -0.09 KCAL/MOL
REMARK 927      BINDING AFFINITY PREDICTED BY RF-SCORE:    0.00 PKD
ROOT
HETATM    1  C   UNL     1     -10.843  11.539  63.485  1.00  0.00    -0.473 C  
HETATM    2  C   UNL     1      -9.811  10.888  64.367  1.00  0.00    -0.309 C  
HETATM    3  O   UNL     1      -8.616  10.889  64.064  1.00  0.00    -0.085 OA 
ENDROOT
BRANCH   2   4
HETATM    4  C   UNL     1     -10.281  10.229  65.650  1.00  0.00    -0.301 C  
HETATM    5  C   UNL     1      -9.862  11.004  66.910  1.00  0.00    -0.222 C  
HETATM    6  C   UNL     1     -10.385  12.441  67.024  1.00  0.00    -0.235 A  
HETATM    7  C   UNL     1     -10.125  10.141  68.156  1.00  0.00    -0.178 C  
HETATM    8  C   UNL     1     -11.554  12.895  66.390  1.00  0.00    -0.425 A  
HETATM    9  C   UNL     1     -11.207  10.133  68.957  1.00  0.00    -0.173 C  
HETATM   10  C   UNL     1     -11.229   9.334  70.181  1.00  0.00    -0.237 A  
HETATM   11  O   UNL     1     -12.377  10.820  68.731  1.00  0.00    -0.812 OA 
HETATM   12  C   UNL     1     -12.018  14.199  66.594  1.00  0.00    -0.470 A  
HETATM   13  H   UNL     1     -13.140  10.815  69.296  1.00  0.00     0.000 HD 
HETATM   14  C   UNL     1     -10.233   8.390  70.381  1.00  0.00    -0.197 A  
HETATM   15  C   UNL     1     -11.303  15.077  67.401  1.00  0.00    -0.338 A  
HETATM   16  C   UNL     1     -10.215   7.559  71.500  1.00  0.00    -0.208 A  
HETATM   17  O   UNL     1      -9.170   8.275  69.476  1.00  0.00    -0.156 OA 
HETATM   18  C   UNL     1     -10.120  14.662  68.003  1.00  0.00    -0.227 A  
HETATM   19  C   UNL     1      -9.670  13.353  67.823  1.00  0.00    -0.216 A  
HETATM   20  C   UNL     1      -8.992   9.211  68.469  1.00  0.00    -0.133 C  
HETATM   21  C   UNL     1     -11.197   7.711  72.476  1.00  0.00    -0.399 A  
HETATM   22  C   UNL     1     -12.183   8.685  72.323  1.00  0.00    -0.447 A  
HETATM   23  O   UNL     1      -7.959   9.218  67.803  1.00  0.00    -0.099 OA 
HETATM   24  C   UNL     1     -12.206   9.484  71.174  1.00  0.00    -0.421 A  
ENDBRANCH   2   4
TORSDOF 1
ENDMDL
MODEL       19
REMARK 921   NORMALIZED FREE ENERGY PREDICTED BY IDOCK:   -6.13 KCAL/MOL
REMARK 922        TOTAL FREE ENERGY PREDICTED BY IDOCK:   -6.81 KCAL/MOL
REMARK 923 INTER-LIGAND FREE ENERGY PREDICTED BY IDOCK:   -6.55 KCAL/MOL
REMARK 924 INTRA-LIGAND FREE ENERGY PREDICTED BY IDOCK:   -0.26 KCAL/MOL
REMARK 927      BINDING AFFINITY PREDICTED BY RF-SCORE:    0.00 PKD
ROOT
HETATM    1  C   UNL     1     -12.245  13.306  63.269  1.00  0.00    -0.387 C  
HETATM    2  C   UNL     1     -11.221  12.318  63.763  1.00  0.00    -0.440 C  
HETATM    3  O   UNL     1     -10.185  12.099  63.132  1.00  0.00    -0.391 OA 
ENDROOT
BRANCH   2   4
HETATM    4  C   UNL     1     -11.498  11.597  65.069  1.00  0.00    -0.189 C  
HETATM    5  C   UNL     1     -10.401  11.824  66.122  1.00  0.00    -0.266 C  
HETATM    6  C   UNL     1     -10.165  13.277  66.550  1.00  0.00    -0.283 A  
HETATM    7  C   UNL     1     -10.606  10.850  67.295  1.00  0.00    -0.296 C  
HETATM    8  C   UNL     1     -11.146  14.280  66.466  1.00  0.00    -0.323 A  
HETATM    9  C   UNL     1     -11.260  11.059  68.453  1.00  0.00    -0.274 C  
HETATM   10  C   UNL     1     -11.242  10.057  69.518  1.00  0.00    -0.254 A  
HETATM   11  O   UNL     1     -12.007  12.172  68.762  1.00  0.00    -0.306 OA 
HETATM   12  C   UNL     1     -10.891  15.570  66.942  1.00  0.00    -0.301 A  
HETATM   13  H   UNL     1     -12.469  12.320  69.579  1.00  0.00     0.000 HD 
HETATM   14  C   UNL     1     -10.762   8.788  69.232  1.00  0.00    -0.151 A  
HETATM   15  C   UNL     1      -9.645  15.887  67.472  1.00  0.00    -0.221 A  
HETATM   16  C   UNL     1     -10.759   7.767  70.182  1.00  0.00    -0.242 A  
HETATM   17  O   UNL     1     -10.211   8.501  67.976  1.00  0.00    -0.195 OA 
HETATM   18  C   UNL     1      -8.646  14.921  67.525  1.00  0.00    -0.195 A  
HETATM   19  C   UNL     1      -8.907  13.625  67.076  1.00  0.00    -0.233 A  
HETATM   20  C   UNL     1      -9.969   9.514  67.061  1.00  0.00    -0.213 C  
HETATM   21  C   UNL     1     -11.202   8.039  71.474  1.00  0.00    -0.296 A  
HETATM   22  C   UNL     1     -11.645   9.320  71.801  1.00  0.00    -0.458 A  
HETATM   23  O   UNL     1      -9.314   9.289  66.046  1.00  0.00    -0.186 OA 
HETATM   24  C   UNL     1     -11.677  10.320  70.823  1.00  0.00    -0.453 A  
ENDBRANCH   2   4
TORSDOF 1
ENDMDL
MODEL       20
REMARK 921   NORMALIZED FREE ENERGY PREDICTED BY IDOCK:   -6.13 KCAL/MOL
REMARK 922        TOTAL FREE ENERGY PREDICTED BY IDOCK:   -6.81 KCAL/MOL
REMARK 923 INTER-LIGAND FREE ENERGY PREDICTED BY IDOCK:   -6.46 KCAL/MOL
REMARK 924 INTRA-LIGAND FREE ENERGY PREDICTED BY IDOCK:   -0.35 KCAL/MOL
REMARK 927      BINDING AFFINITY PREDICTED BY RF-SCORE:    0.00 PKD
ROOT
HETATM    1  C   UNL     1      -9.520   9.895  64.786  1.00  0.00    -0.356 C  
HETATM    2  C   UNL     1      -8.460  10.434  65.710  1.00  0.00    -0.166 C  
HETATM    3  O   UNL     1      -7.567   9.709  66.153  1.00  0.00    -0.099 OA 
ENDROOT
BRANCH   2   4
HETATM    4  C   UNL     1      -8.516  11.904  66.080  1.00  0.00     0.110 C  
HETATM    5  C   UNL     1      -9.893  12.336  66.610  1.00  0.00    -0.230 C  
HETATM    6  C   UNL     1     -10.385  11.621  67.874  1.00  0.00    -0.206 A  
HETATM    7  C   UNL     1      -9.953  13.871  66.694  1.00  0.00    -0.279 C  
HETATM    8  C   UNL     1      -9.527  11.033  68.818  1.00  0.00    -0.190 A  
HETATM    9  C   UNL     1      -9.697  14.662  67.752  1.00  0.00    -0.215 C  
HETATM   10  C   UNL     1      -9.934  16.104  67.687  1.00  0.00    -0.241 A  
HETATM   11  O   UNL     1      -9.188  14.246  68.960  1.00  0.00    -0.372 OA 
HETATM   12  C   UNL     1     -10.036  10.460  69.988  1.00  0.00    -0.078 A  
HETATM   13  H   UNL     1      -9.008  14.805  69.708  1.00  0.00     0.000 HD 
HETATM   14  C   UNL     1     -10.182  16.684  66.452  1.00  0.00    -0.315 A  
HETATM   15  C   UNL     1     -11.408  10.432  70.214  1.00  0.00    -0.406 A  
HETATM   16  C   UNL     1     -10.369  18.058  66.305  1.00  0.00    -0.384 A  
HETATM   17  O   UNL     1     -10.303  15.891  65.304  1.00  0.00    -0.418 OA 
HETATM   18  C   UNL     1     -12.278  10.970  69.272  1.00  0.00    -0.280 A  
HETATM   19  C   UNL     1     -11.771  11.566  68.116  1.00  0.00    -0.357 A  
HETATM   20  C   UNL     1     -10.358  14.509  65.401  1.00  0.00    -0.382 C  
HETATM   21  C   UNL     1     -10.359  18.871  67.436  1.00  0.00    -0.496 A  
HETATM   22  C   UNL     1     -10.160  18.306  68.695  1.00  0.00    -0.407 A  
HETATM   23  O   UNL     1     -10.656  13.830  64.420  1.00  0.00    -0.418 OA 
HETATM   24  C   UNL     1      -9.936  16.931  68.818  1.00  0.00    -0.276 A  
ENDBRANCH   2   4
TORSDOF 1
ENDMDL
MODEL       21
REMARK 921   NORMALIZED FREE ENERGY PREDICTED BY IDOCK:   -6.08 KCAL/MOL
REMARK 922        TOTAL FREE ENERGY PREDICTED BY IDOCK:   -6.76 KCAL/MOL
REMARK 923 INTER-LIGAND FREE ENERGY PREDICTED BY IDOCK:   -6.46 KCAL/MOL
REMARK 924 INTRA-LIGAND FREE ENERGY PREDICTED BY IDOCK:   -0.30 KCAL/MOL
REMARK 927      BINDING AFFINITY PREDICTED BY RF-SCORE:    0.00 PKD
ROOT
HETATM    1  C   UNL     1      -5.486  16.918  69.253  1.00  0.00    -0.143 C  
HETATM    2  C   UNL     1      -5.774  17.355  67.840  1.00  0.00    -0.132 C  
HETATM    3  O   UNL     1      -5.208  18.330  67.343  1.00  0.00    -0.137 OA 
ENDROOT
BRANCH   2   4
HETATM    4  C   UNL     1      -6.784  16.557  67.038  1.00  0.00    -0.240 C  
HETATM    5  C   UNL     1      -8.203  16.622  67.628  1.00  0.00    -0.183 C  
HETATM    6  C   UNL     1      -8.831  18.018  67.722  1.00  0.00    -0.255 A  
HETATM    7  C   UNL     1      -9.096  15.578  66.936  1.00  0.00    -0.264 C  
HETATM    8  C   UNL     1      -8.466  19.092  66.893  1.00  0.00    -0.302 A  
HETATM    9  C   UNL     1      -9.914  15.744  65.880  1.00  0.00    -0.352 C  
HETATM   10  C   UNL     1     -10.794  14.663  65.434  1.00  0.00    -0.365 A  
HETATM   11  O   UNL     1     -10.011  16.880  65.111  1.00  0.00    -0.362 OA 
HETATM   12  C   UNL     1      -9.130  20.320  66.980  1.00  0.00    -0.481 A  
HETATM   13  H   UNL     1     -10.589  16.997  64.365  1.00  0.00     0.000 HD 
HETATM   14  C   UNL     1     -10.597  13.389  65.945  1.00  0.00    -0.283 A  
HETATM   15  C   UNL     1     -10.139  20.505  67.919  1.00  0.00    -0.318 A  
HETATM   16  C   UNL     1     -11.364  12.300  65.532  1.00  0.00    -0.394 A  
HETATM   17  O   UNL     1      -9.641  13.162  66.943  1.00  0.00    -0.233 OA 
HETATM   18  C   UNL     1     -10.487  19.469  68.778  1.00  0.00    -0.153 A  
HETATM   19  C   UNL     1      -9.845  18.233  68.675  1.00  0.00    -0.400 A  
HETATM   20  C   UNL     1      -9.002  14.222  67.566  1.00  0.00    -0.196 C  
HETATM   21  C   UNL     1     -12.395  12.502  64.617  1.00  0.00    -0.547 A  
HETATM   22  C   UNL     1     -12.645  13.783  64.125  1.00  0.00    -0.159 A  
HETATM   23  O   UNL     1      -8.312  14.031  68.566  1.00  0.00    -0.154 OA 
HETATM   24  C   UNL     1     -11.840  14.856  64.522  1.00  0.00    -0.404 A  
ENDBRANCH   2   4
TORSDOF 1
ENDMDL
MODEL       22
REMARK 921   NORMALIZED FREE ENERGY PREDICTED BY IDOCK:   -6.06 KCAL/MOL
REMARK 922        TOTAL FREE ENERGY PREDICTED BY IDOCK:   -6.74 KCAL/MOL
REMARK 923 INTER-LIGAND FREE ENERGY PREDICTED BY IDOCK:   -6.52 KCAL/MOL
REMARK 924 INTRA-LIGAND FREE ENERGY PREDICTED BY IDOCK:   -0.22 KCAL/MOL
REMARK 927      BINDING AFFINITY PREDICTED BY RF-SCORE:    0.00 PKD
ROOT
HETATM    1  C   UNL     1     -12.090  11.496  70.412  1.00  0.00    -0.471 C  
HETATM    2  C   UNL     1     -12.024  11.751  68.930  1.00  0.00    -0.271 C  
HETATM    3  O   UNL     1     -12.190  10.842  68.114  1.00  0.00    -0.503 OA 
ENDROOT
BRANCH   2   4
HETATM    4  C   UNL     1     -11.749  13.168  68.461  1.00  0.00    -0.387 C  
HETATM    5  C   UNL     1     -10.295  13.607  68.704  1.00  0.00    -0.223 C  
HETATM    6  C   UNL     1      -9.213  12.774  68.007  1.00  0.00    -0.208 A  
HETATM    7  C   UNL     1     -10.170  15.122  68.469  1.00  0.00    -0.231 C  
HETATM    8  C   UNL     1      -9.437  12.034  66.835  1.00  0.00    -0.206 A  
HETATM    9  C   UNL     1      -9.799  15.768  67.347  1.00  0.00    -0.233 C  
HETATM   10  C   UNL     1      -9.608  17.218  67.343  1.00  0.00    -0.252 A  
HETATM   11  O   UNL     1      -9.584  15.184  66.120  1.00  0.00    -0.272 OA 
HETATM   12  C   UNL     1      -8.388  11.354  66.207  1.00  0.00    -0.111 A  
HETATM   13  H   UNL     1      -9.322  15.640  65.328  1.00  0.00     0.000 HD 
HETATM   14  C   UNL     1     -10.055  17.952  68.430  1.00  0.00    -0.383 A  
HETATM   15  C   UNL     1      -7.112  11.373  66.759  1.00  0.00    -0.132 A  
HETATM   16  C   UNL     1      -9.951  19.343  68.476  1.00  0.00    -0.520 A  
HETATM   17  O   UNL     1     -10.588  17.309  69.554  1.00  0.00    -0.264 OA 
HETATM   18  C   UNL     1      -6.878  12.065  67.943  1.00  0.00    -0.087 A  
HETATM   19  C   UNL     1      -7.916  12.766  68.557  1.00  0.00    -0.095 A  
HETATM   20  C   UNL     1     -10.515  15.930  69.682  1.00  0.00    -0.295 C  
HETATM   21  C   UNL     1      -9.333  20.014  67.424  1.00  0.00    -0.492 A  
HETATM   22  C   UNL     1      -8.832  19.293  66.340  1.00  0.00    -0.365 A  
HETATM   23  O   UNL     1     -10.806  15.389  70.747  1.00  0.00    -0.323 OA 
HETATM   24  C   UNL     1      -8.980  17.903  66.294  1.00  0.00    -0.192 A  
ENDBRANCH   2   4
TORSDOF 1
ENDMDL
MODEL       23
REMARK 921   NORMALIZED FREE ENERGY PREDICTED BY IDOCK:   -6.04 KCAL/MOL
REMARK 922        TOTAL FREE ENERGY PREDICTED BY IDOCK:   -6.72 KCAL/MOL
REMARK 923 INTER-LIGAND FREE ENERGY PREDICTED BY IDOCK:   -6.40 KCAL/MOL
REMARK 924 INTRA-LIGAND FREE ENERGY PREDICTED BY IDOCK:   -0.32 KCAL/MOL
REMARK 927      BINDING AFFINITY PREDICTED BY RF-SCORE:    0.00 PKD
ROOT
HETATM    1  C   UNL     1     -12.584  15.088  70.168  1.00  0.00    -0.312 C  
HETATM    2  C   UNL     1     -11.159  15.159  69.685  1.00  0.00    -0.270 C  
HETATM    3  O   UNL     1     -10.517  16.210  69.736  1.00  0.00    -0.282 OA 
ENDROOT
BRANCH   2   4
HETATM    4  C   UNL     1     -10.528  13.895  69.133  1.00  0.00    -0.074 C  
HETATM    5  C   UNL     1     -11.252  13.360  67.886  1.00  0.00    -0.303 C  
HETATM    6  C   UNL     1     -11.301  14.302  66.678  1.00  0.00    -0.356 A  
HETATM    7  C   UNL     1     -10.737  11.947  67.560  1.00  0.00    -0.263 C  
HETATM    8  C   UNL     1     -10.358  15.318  66.446  1.00  0.00    -0.296 A  
HETATM    9  C   UNL     1      -9.760  11.588  66.706  1.00  0.00    -0.199 C  
HETATM   10  C   UNL     1      -9.491  10.179  66.422  1.00  0.00    -0.223 A  
HETATM   11  O   UNL     1      -8.919  12.450  66.042  1.00  0.00    -0.421 OA 
HETATM   12  C   UNL     1     -10.417  16.096  65.285  1.00  0.00    -0.356 A  
HETATM   13  H   UNL     1      -8.229  12.197  65.439  1.00  0.00     0.000 HD 
HETATM   14  C   UNL     1     -10.076   9.213  67.226  1.00  0.00    -0.233 A  
HETATM   15  C   UNL     1     -11.436  15.897  64.360  1.00  0.00    -0.268 A  
HETATM   16  C   UNL     1      -9.828   7.852  67.046  1.00  0.00    -0.293 A  
HETATM   17  O   UNL     1     -10.986   9.575  68.227  1.00  0.00    -0.182 OA 
HETATM   18  C   UNL     1     -12.404  14.926  64.591  1.00  0.00    -0.290 A  
HETATM   19  C   UNL     1     -12.332  14.129  65.735  1.00  0.00    -0.481 A  
HETATM   20  C   UNL     1     -11.458  10.875  68.319  1.00  0.00    -0.305 C  
HETATM   21  C   UNL     1      -9.010   7.442  65.995  1.00  0.00    -0.156 A  
HETATM   22  C   UNL     1      -8.448   8.392  65.142  1.00  0.00    -0.179 A  
HETATM   23  O   UNL     1     -12.393  11.145  69.069  1.00  0.00    -0.479 OA 
HETATM   24  C   UNL     1      -8.677   9.754  65.363  1.00  0.00    -0.176 A  
ENDBRANCH   2   4
TORSDOF 1
ENDMDL
MODEL       24
REMARK 921   NORMALIZED FREE ENERGY PREDICTED BY IDOCK:   -6.01 KCAL/MOL
REMARK 922        TOTAL FREE ENERGY PREDICTED BY IDOCK:   -6.69 KCAL/MOL
REMARK 923 INTER-LIGAND FREE ENERGY PREDICTED BY IDOCK:   -6.34 KCAL/MOL
REMARK 924 INTRA-LIGAND FREE ENERGY PREDICTED BY IDOCK:   -0.34 KCAL/MOL
REMARK 927      BINDING AFFINITY PREDICTED BY RF-SCORE:    0.00 PKD
ROOT
HETATM    1  C   UNL     1      -6.921  11.600  67.404  1.00  0.00    -0.117 C  
HETATM    2  C   UNL     1      -8.062  12.030  68.288  1.00  0.00    -0.155 C  
HETATM    3  O   UNL     1      -8.718  11.209  68.932  1.00  0.00    -0.151 OA 
ENDROOT
BRANCH   2   4
HETATM    4  C   UNL     1      -8.384  13.511  68.369  1.00  0.00    -0.140 C  
HETATM    5  C   UNL     1      -8.708  14.129  66.999  1.00  0.00    -0.222 C  
HETATM    6  C   UNL     1      -9.911  13.533  66.257  1.00  0.00    -0.306 A  
HETATM    7  C   UNL     1      -8.744  15.662  67.122  1.00  0.00    -0.233 C  
HETATM    8  C   UNL     1     -10.978  12.886  66.902  1.00  0.00    -0.294 A  
HETATM    9  C   UNL     1      -9.807  16.461  67.333  1.00  0.00    -0.244 C  
HETATM   10  C   UNL     1      -9.672  17.916  67.291  1.00  0.00    -0.289 A  
HETATM   11  O   UNL     1     -11.083  16.037  67.621  1.00  0.00    -0.317 OA 
HETATM   12  C   UNL     1     -12.082  12.430  66.173  1.00  0.00    -0.295 A  
HETATM   13  H   UNL     1     -11.834  16.601  67.770  1.00  0.00     0.000 HD 
HETATM   14  C   UNL     1      -8.401  18.469  67.285  1.00  0.00    -0.253 A  
HETATM   15  C   UNL     1     -12.118  12.578  64.791  1.00  0.00    -0.497 A  
HETATM   16  C   UNL     1      -8.194  19.848  67.294  1.00  0.00    -0.350 A  
HETATM   17  O   UNL     1      -7.268  17.648  67.218  1.00  0.00    -0.175 OA 
HETATM   18  C   UNL     1     -11.052  13.177  64.129  1.00  0.00    -0.426 A  
HETATM   19  C   UNL     1      -9.962  13.658  64.856  1.00  0.00    -0.183 A  
HETATM   20  C   UNL     1      -7.391  16.289  66.976  1.00  0.00    -0.229 C  
HETATM   21  C   UNL     1      -9.294  20.702  67.255  1.00  0.00    -0.480 A  
HETATM   22  C   UNL     1     -10.583  20.170  67.212  1.00  0.00    -0.340 A  
HETATM   23  O   UNL     1      -6.397  15.610  66.728  1.00  0.00    -0.158 OA 
HETATM   24  C   UNL     1     -10.771  18.784  67.243  1.00  0.00    -0.490 A  
ENDBRANCH   2   4
TORSDOF 1
ENDMDL
MODEL       25
REMARK 921   NORMALIZED FREE ENERGY PREDICTED BY IDOCK:   -5.97 KCAL/MOL
REMARK 922        TOTAL FREE ENERGY PREDICTED BY IDOCK:   -6.65 KCAL/MOL
REMARK 923 INTER-LIGAND FREE ENERGY PREDICTED BY IDOCK:   -6.36 KCAL/MOL
REMARK 924 INTRA-LIGAND FREE ENERGY PREDICTED BY IDOCK:   -0.29 KCAL/MOL
REMARK 927      BINDING AFFINITY PREDICTED BY RF-SCORE:    0.00 PKD
ROOT
HETATM    1  C   UNL     1      -7.642   9.059  66.226  1.00  0.00    -0.092 C  
HETATM    2  C   UNL     1      -8.852   9.885  65.875  1.00  0.00    -0.148 C  
HETATM    3  O   UNL     1      -9.852   9.374  65.367  1.00  0.00    -0.270 OA 
ENDROOT
BRANCH   2   4
HETATM    4  C   UNL     1      -8.809  11.373  66.169  1.00  0.00    -0.186 C  
HETATM    5  C   UNL     1     -10.119  11.901  66.779  1.00  0.00    -0.225 C  
HETATM    6  C   UNL     1     -10.542  11.276  68.113  1.00  0.00    -0.225 A  
HETATM    7  C   UNL     1     -10.099  13.439  66.784  1.00  0.00    -0.260 C  
HETATM    8  C   UNL     1      -9.640  10.693  69.019  1.00  0.00    -0.207 A  
HETATM    9  C   UNL     1      -9.724  14.268  67.775  1.00  0.00    -0.222 C  
HETATM   10  C   UNL     1      -9.897  15.715  67.651  1.00  0.00    -0.227 A  
HETATM   11  O   UNL     1      -9.141  13.888  68.962  1.00  0.00    -0.388 OA 
HETATM   12  C   UNL     1     -10.082  10.207  70.254  1.00  0.00    -0.131 A  
HETATM   13  H   UNL     1      -8.875  14.473  69.662  1.00  0.00     0.000 HD 
HETATM   14  C   UNL     1     -10.213  16.244  66.409  1.00  0.00    -0.313 A  
HETATM   15  C   UNL     1     -11.431  10.260  70.585  1.00  0.00    -0.435 A  
HETATM   16  C   UNL     1     -10.347  17.617  66.202  1.00  0.00    -0.334 A  
HETATM   17  O   UNL     1     -10.462  15.402  65.318  1.00  0.00    -0.367 OA 
HETATM   18  C   UNL     1     -12.347  10.793  69.685  1.00  0.00    -0.262 A  
HETATM   19  C   UNL     1     -11.906  11.305  68.463  1.00  0.00    -0.355 A  
HETATM   20  C   UNL     1     -10.575  14.031  65.493  1.00  0.00    -0.318 C  
HETATM   21  C   UNL     1     -10.210  18.484  67.284  1.00  0.00    -0.400 A  
HETATM   22  C   UNL     1      -9.938  17.974  68.553  1.00  0.00    -0.395 A  
HETATM   23  O   UNL     1     -10.981  13.320  64.576  1.00  0.00    -0.343 OA 
HETATM   24  C   UNL     1      -9.770  16.596  68.732  1.00  0.00    -0.254 A  
ENDBRANCH   2   4
TORSDOF 1
ENDMDL
MODEL       26
REMARK 921   NORMALIZED FREE ENERGY PREDICTED BY IDOCK:   -5.86 KCAL/MOL
REMARK 922        TOTAL FREE ENERGY PREDICTED BY IDOCK:   -6.53 KCAL/MOL
REMARK 923 INTER-LIGAND FREE ENERGY PREDICTED BY IDOCK:   -6.23 KCAL/MOL
REMARK 924 INTRA-LIGAND FREE ENERGY PREDICTED BY IDOCK:   -0.30 KCAL/MOL
REMARK 927      BINDING AFFINITY PREDICTED BY RF-SCORE:    0.00 PKD
ROOT
HETATM    1  C   UNL     1     -10.711   5.774  67.834  1.00  0.00    -0.295 C  
HETATM    2  C   UNL     1     -10.762   6.328  69.233  1.00  0.00    -0.305 C  
HETATM    3  O   UNL     1     -10.295   5.703  70.187  1.00  0.00    -0.224 OA 
ENDROOT
BRANCH   2   4
HETATM    4  C   UNL     1     -11.406   7.686  69.441  1.00  0.00     0.242 C  
HETATM    5  C   UNL     1     -10.578   8.608  70.351  1.00  0.00    -0.244 C  
HETATM    6  C   UNL     1      -9.164   8.944  69.865  1.00  0.00    -0.171 A  
HETATM    7  C   UNL     1     -11.418   9.838  70.736  1.00  0.00    -0.417 C  
HETATM    8  C   UNL     1      -8.780   8.919  68.514  1.00  0.00    -0.134 A  
HETATM    9  C   UNL     1     -11.452  11.048  70.146  1.00  0.00    -0.296 C  
HETATM   10  C   UNL     1     -12.218  12.148  70.731  1.00  0.00    -0.367 A  
HETATM   11  O   UNL     1     -10.824  11.383  68.969  1.00  0.00    -0.205 OA 
HETATM   12  C   UNL     1      -7.493   9.308  68.128  1.00  0.00    -0.083 A  
HETATM   13  H   UNL     1     -10.848  12.237  68.552  1.00  0.00     0.000 HD 
HETATM   14  C   UNL     1     -13.110  11.870  71.755  1.00  0.00    -0.360 A  
HETATM   15  C   UNL     1      -6.562   9.691  69.087  1.00  0.00    -0.049 A  
HETATM   16  C   UNL     1     -13.909  12.859  72.329  1.00  0.00    -0.464 A  
HETATM   17  O   UNL     1     -13.202  10.578  72.287  1.00  0.00    -0.402 OA 
HETATM   18  C   UNL     1      -6.907   9.682  70.434  1.00  0.00    -0.120 A  
HETATM   19  C   UNL     1      -8.199   9.320  70.819  1.00  0.00    -0.210 A  
HETATM   20  C   UNL     1     -12.287   9.598  71.933  1.00  0.00    -0.357 C  
HETATM   21  C   UNL     1     -13.773  14.177  71.900  1.00  0.00    -0.525 A  
HETATM   22  C   UNL     1     -12.848  14.491  70.904  1.00  0.00    -0.425 A  
HETATM   23  O   UNL     1     -12.253   8.531  72.541  1.00  0.00    -0.389 OA 
HETATM   24  C   UNL     1     -12.084  13.479  70.314  1.00  0.00    -0.425 A  
ENDBRANCH   2   4
TORSDOF 1
ENDMDL
MODEL       27
REMARK 921   NORMALIZED FREE ENERGY PREDICTED BY IDOCK:   -5.85 KCAL/MOL
REMARK 922        TOTAL FREE ENERGY PREDICTED BY IDOCK:   -6.52 KCAL/MOL
REMARK 923 INTER-LIGAND FREE ENERGY PREDICTED BY IDOCK:   -6.21 KCAL/MOL
REMARK 924 INTRA-LIGAND FREE ENERGY PREDICTED BY IDOCK:   -0.31 KCAL/MOL
REMARK 927      BINDING AFFINITY PREDICTED BY RF-SCORE:    0.00 PKD
ROOT
HETATM    1  C   UNL     1     -12.216  11.945  63.016  1.00  0.00    -0.116 C  
HETATM    2  C   UNL     1     -12.424  12.618  64.347  1.00  0.00    -0.428 C  
HETATM    3  O   UNL     1     -13.523  12.609  64.905  1.00  0.00    -0.599 OA 
ENDROOT
BRANCH   2   4
HETATM    4  C   UNL     1     -11.237  13.310  64.990  1.00  0.00    -0.325 C  
HETATM    5  C   UNL     1     -11.052  12.930  66.469  1.00  0.00    -0.318 C  
HETATM    6  C   UNL     1     -10.810  11.444  66.758  1.00  0.00    -0.336 A  
HETATM    7  C   UNL     1     -10.021  13.871  67.116  1.00  0.00    -0.239 C  
HETATM    8  C   UNL     1     -10.257  10.551  65.826  1.00  0.00    -0.310 A  
HETATM    9  C   UNL     1      -8.697  13.683  67.273  1.00  0.00    -0.218 C  
HETATM   10  C   UNL     1      -7.888  14.634  68.034  1.00  0.00    -0.136 A  
HETATM   11  O   UNL     1      -7.968  12.641  66.750  1.00  0.00    -0.390 OA 
HETATM   12  C   UNL     1      -9.992   9.223  66.177  1.00  0.00    -0.348 A  
HETATM   13  H   UNL     1      -7.034  12.508  66.861  1.00  0.00     0.000 HD 
HETATM   14  C   UNL     1      -8.444  15.858  68.376  1.00  0.00    -0.176 A  
HETATM   15  C   UNL     1     -10.311   8.759  67.449  1.00  0.00    -0.349 A  
HETATM   16  C   UNL     1      -7.718  16.834  69.059  1.00  0.00    -0.213 A  
HETATM   17  O   UNL     1      -9.785  16.138  68.086  1.00  0.00    -0.218 OA 
HETATM   18  C   UNL     1     -10.899   9.616  68.374  1.00  0.00    -0.212 A  
HETATM   19  C   UNL     1     -11.138  10.948  68.034  1.00  0.00    -0.351 A  
HETATM   20  C   UNL     1     -10.631  15.143  67.620  1.00  0.00    -0.263 C  
HETATM   21  C   UNL     1      -6.412  16.557  69.458  1.00  0.00    -0.223 A  
HETATM   22  C   UNL     1      -5.847  15.315  69.168  1.00  0.00    -0.099 A  
HETATM   23  O   UNL     1     -11.842  15.341  67.551  1.00  0.00    -0.241 OA 
HETATM   24  C   UNL     1      -6.578  14.364  68.448  1.00  0.00    -0.104 A  
ENDBRANCH   2   4
TORSDOF 1
ENDMDL
MODEL       28
REMARK 921   NORMALIZED FREE ENERGY PREDICTED BY IDOCK:   -5.82 KCAL/MOL
REMARK 922        TOTAL FREE ENERGY PREDICTED BY IDOCK:   -6.48 KCAL/MOL
REMARK 923 INTER-LIGAND FREE ENERGY PREDICTED BY IDOCK:   -6.47 KCAL/MOL
REMARK 924 INTRA-LIGAND FREE ENERGY PREDICTED BY IDOCK:   -0.01 KCAL/MOL
REMARK 927      BINDING AFFINITY PREDICTED BY RF-SCORE:    0.00 PKD
ROOT
HETATM    1  C   UNL     1      -8.493   7.554  66.266  1.00  0.00    -0.141 C  
HETATM    2  C   UNL     1      -9.667   8.442  66.581  1.00  0.00    -0.251 C  
HETATM    3  O   UNL     1     -10.777   7.971  66.838  1.00  0.00    -0.322 OA 
ENDROOT
BRANCH   2   4
HETATM    4  C   UNL     1      -9.448   9.943  66.579  1.00  0.00    -0.230 C  
HETATM    5  C   UNL     1     -10.597  10.718  67.245  1.00  0.00    -0.304 C  
HETATM    6  C   UNL     1     -10.867  10.390  68.718  1.00  0.00    -0.269 A  
HETATM    7  C   UNL     1     -10.440  12.220  66.955  1.00  0.00    -0.240 C  
HETATM    8  C   UNL     1      -9.894   9.875  69.590  1.00  0.00    -0.255 A  
HETATM    9  C   UNL     1      -9.845  13.162  67.711  1.00  0.00    -0.228 C  
HETATM   10  C   UNL     1      -9.905  14.574  67.338  1.00  0.00    -0.227 A  
HETATM   11  O   UNL     1      -9.125  12.930  68.860  1.00  0.00    -0.380 OA 
HETATM   12  C   UNL     1     -10.184   9.667  70.943  1.00  0.00    -0.303 A  
HETATM   13  H   UNL     1      -8.705  13.595  69.394  1.00  0.00     0.000 HD 
HETATM   14  C   UNL     1     -10.359  14.911  66.071  1.00  0.00    -0.299 A  
HETATM   15  C   UNL     1     -11.457   9.934  71.434  1.00  0.00    -0.393 A  
HETATM   16  C   UNL     1     -10.399  16.232  65.627  1.00  0.00    -0.385 A  
HETATM   17  O   UNL     1     -10.845  13.924  65.204  1.00  0.00    -0.320 OA 
HETATM   18  C   UNL     1     -12.448  10.403  70.579  1.00  0.00    -0.403 A  
HETATM   19  C   UNL     1     -12.153  10.638  69.235  1.00  0.00    -0.206 A  
HETATM   20  C   UNL     1     -11.052  12.628  65.649  1.00  0.00    -0.292 C  
HETATM   21  C   UNL     1     -10.022  17.254  66.495  1.00  0.00    -0.310 A  
HETATM   22  C   UNL     1      -9.608  16.946  67.791  1.00  0.00    -0.249 A  
HETATM   23  O   UNL     1     -11.654  11.819  64.947  1.00  0.00    -0.261 OA 
HETATM   24  C   UNL     1      -9.538  15.611  68.205  1.00  0.00    -0.200 A  
ENDBRANCH   2   4
TORSDOF 1
ENDMDL
MODEL       29
REMARK 921   NORMALIZED FREE ENERGY PREDICTED BY IDOCK:   -5.79 KCAL/MOL
REMARK 922        TOTAL FREE ENERGY PREDICTED BY IDOCK:   -6.45 KCAL/MOL
REMARK 923 INTER-LIGAND FREE ENERGY PREDICTED BY IDOCK:   -6.16 KCAL/MOL
REMARK 924 INTRA-LIGAND FREE ENERGY PREDICTED BY IDOCK:   -0.30 KCAL/MOL
REMARK 927      BINDING AFFINITY PREDICTED BY RF-SCORE:    0.00 PKD
ROOT
HETATM    1  C   UNL     1     -11.264   6.707  71.289  1.00  0.00    -0.329 C  
HETATM    2  C   UNL     1     -11.249   8.210  71.204  1.00  0.00    -0.257 C  
HETATM    3  O   UNL     1     -11.042   8.907  72.199  1.00  0.00    -0.362 OA 
ENDROOT
BRANCH   2   4
HETATM    4  C   UNL     1     -11.494   8.850  69.850  1.00  0.00     0.104 C  
HETATM    5  C   UNL     1     -10.399   9.855  69.456  1.00  0.00    -0.248 C  
HETATM    6  C   UNL     1      -8.976   9.294  69.344  1.00  0.00    -0.147 A  
HETATM    7  C   UNL     1     -10.856  10.657  68.226  1.00  0.00    -0.287 C  
HETATM    8  C   UNL     1      -8.693   7.946  69.070  1.00  0.00    -0.138 A  
HETATM    9  C   UNL     1     -10.600  10.416  66.926  1.00  0.00    -0.230 C  
HETATM   10  C   UNL     1     -11.009  11.365  65.891  1.00  0.00    -0.268 A  
HETATM   11  O   UNL     1      -9.975   9.298  66.426  1.00  0.00    -0.255 OA 
HETATM   12  C   UNL     1      -7.373   7.512  68.906  1.00  0.00    -0.094 A  
HETATM   13  H   UNL     1      -9.794   9.127  65.509  1.00  0.00     0.000 HD 
HETATM   14  C   UNL     1     -11.882  12.387  66.231  1.00  0.00    -0.364 A  
HETATM   15  C   UNL     1      -6.319   8.407  69.050  1.00  0.00    -0.044 A  
HETATM   16  C   UNL     1     -12.353  13.301  65.288  1.00  0.00    -0.525 A  
HETATM   17  O   UNL     1     -12.285  12.568  67.560  1.00  0.00    -0.418 OA 
HETATM   18  C   UNL     1      -6.575   9.737  69.364  1.00  0.00    -0.049 A  
HETATM   19  C   UNL     1      -7.893  10.179  69.501  1.00  0.00    -0.165 A  
HETATM   20  C   UNL     1     -11.686  11.851  68.585  1.00  0.00    -0.323 C  
HETATM   21  C   UNL     1     -11.896  13.220  63.975  1.00  0.00    -0.512 A  
HETATM   22  C   UNL     1     -10.981  12.230  63.618  1.00  0.00    -0.532 A  
HETATM   23  O   UNL     1     -11.903  12.147  69.758  1.00  0.00    -0.314 OA 
HETATM   24  C   UNL     1     -10.549  11.300  64.569  1.00  0.00    -0.401 A  
ENDBRANCH   2   4
TORSDOF 1
ENDMDL
MODEL       30
REMARK 921   NORMALIZED FREE ENERGY PREDICTED BY IDOCK:   -5.76 KCAL/MOL
REMARK 922        TOTAL FREE ENERGY PREDICTED BY IDOCK:   -6.42 KCAL/MOL
REMARK 923 INTER-LIGAND FREE ENERGY PREDICTED BY IDOCK:   -6.09 KCAL/MOL
REMARK 924 INTRA-LIGAND FREE ENERGY PREDICTED BY IDOCK:   -0.34 KCAL/MOL
REMARK 927      BINDING AFFINITY PREDICTED BY RF-SCORE:    0.00 PKD
ROOT
HETATM    1  C   UNL     1     -10.194   5.764  69.107  1.00  0.00    -0.289 C  
HETATM    2  C   UNL     1     -10.464   5.825  67.627  1.00  0.00    -0.235 C  
HETATM    3  O   UNL     1     -10.375   4.822  66.917  1.00  0.00    -0.216 OA 
ENDROOT
BRANCH   2   4
HETATM    4  C   UNL     1     -10.855   7.163  67.028  1.00  0.00    -0.382 C  
HETATM    5  C   UNL     1      -9.789   8.250  67.243  1.00  0.00    -0.258 C  
HETATM    6  C   UNL     1      -8.407   7.969  66.641  1.00  0.00    -0.120 A  
HETATM    7  C   UNL     1     -10.371   9.623  66.864  1.00  0.00    -0.307 C  
HETATM    8  C   UNL     1      -8.197   7.119  65.543  1.00  0.00    -0.139 A  
HETATM    9  C   UNL     1     -10.283  10.275  65.690  1.00  0.00    -0.231 C  
HETATM   10  C   UNL     1     -10.789  11.640  65.549  1.00  0.00    -0.334 A  
HETATM   11  O   UNL     1      -9.754   9.765  64.527  1.00  0.00    -0.415 OA 
HETATM   12  C   UNL     1      -6.919   6.963  64.995  1.00  0.00    -0.051 A  
HETATM   13  H   UNL     1      -9.692  10.225  63.698  1.00  0.00     0.000 HD 
HETATM   14  C   UNL     1     -11.585  12.164  66.556  1.00  0.00    -0.359 A  
HETATM   15  C   UNL     1      -5.831   7.622  65.557  1.00  0.00    -0.038 A  
HETATM   16  C   UNL     1     -12.143  13.439  66.469  1.00  0.00    -0.444 A  
HETATM   17  O   UNL     1     -11.817  11.438  67.730  1.00  0.00    -0.595 OA 
HETATM   18  C   UNL     1      -6.010   8.434  66.671  1.00  0.00    -0.049 A  
HETATM   19  C   UNL     1      -7.288   8.614  67.203  1.00  0.00    -0.088 A  
HETATM   20  C   UNL     1     -11.118  10.269  67.991  1.00  0.00    -0.274 C  
HETATM   21  C   UNL     1     -11.852  14.235  65.364  1.00  0.00    -0.363 A  
HETATM   22  C   UNL     1     -11.015  13.750  64.359  1.00  0.00    -0.356 A  
HETATM   23  O   UNL     1     -11.182   9.742  69.099  1.00  0.00    -0.172 OA 
HETATM   24  C   UNL     1     -10.496  12.453  64.446  1.00  0.00    -0.371 A  
ENDBRANCH   2   4
TORSDOF 1
ENDMDL
MODEL       31
REMARK 921   NORMALIZED FREE ENERGY PREDICTED BY IDOCK:   -5.74 KCAL/MOL
REMARK 922        TOTAL FREE ENERGY PREDICTED BY IDOCK:   -6.40 KCAL/MOL
REMARK 923 INTER-LIGAND FREE ENERGY PREDICTED BY IDOCK:   -6.13 KCAL/MOL
REMARK 924 INTRA-LIGAND FREE ENERGY PREDICTED BY IDOCK:   -0.27 KCAL/MOL
REMARK 927      BINDING AFFINITY PREDICTED BY RF-SCORE:    0.00 PKD
ROOT
HETATM    1  C   UNL     1     -10.076   6.593  68.829  1.00  0.00    -0.168 C  
HETATM    2  C   UNL     1     -10.415   7.662  67.825  1.00  0.00    -0.216 C  
HETATM    3  O   UNL     1     -10.103   7.548  66.637  1.00  0.00    -0.235 OA 
ENDROOT
BRANCH   2   4
HETATM    4  C   UNL     1     -11.158   8.891  68.314  1.00  0.00     0.201 C  
HETATM    5  C   UNL     1     -10.311   9.769  69.251  1.00  0.00    -0.230 C  
HETATM    6  C   UNL     1      -9.016  10.336  68.658  1.00  0.00    -0.144 A  
HETATM    7  C   UNL     1     -11.210  10.824  69.918  1.00  0.00    -0.371 C  
HETATM    8  C   UNL     1      -8.818  10.545  67.283  1.00  0.00    -0.138 A  
HETATM    9  C   UNL     1     -11.445  12.091  69.529  1.00  0.00    -0.282 C  
HETATM   10  C   UNL     1     -12.231  13.000  70.363  1.00  0.00    -0.386 A  
HETATM   11  O   UNL     1     -11.018  12.661  68.352  1.00  0.00    -0.233 OA 
HETATM   12  C   UNL     1      -7.640  11.136  66.812  1.00  0.00    -0.146 A  
HETATM   13  H   UNL     1     -11.183  13.556  68.077  1.00  0.00     0.000 HD 
HETATM   14  C   UNL     1     -12.944  12.477  71.431  1.00  0.00    -0.251 A  
HETATM   15  C   UNL     1      -6.631  11.489  67.701  1.00  0.00    -0.078 A  
HETATM   16  C   UNL     1     -13.753  13.273  72.241  1.00  0.00    -0.686 A  
HETATM   17  O   UNL     1     -12.834  11.121  71.765  1.00  0.00    -0.422 OA 
HETATM   18  C   UNL     1      -6.789  11.250  69.062  1.00  0.00    -0.099 A  
HETATM   19  C   UNL     1      -7.974  10.687  69.537  1.00  0.00    -0.079 A  
HETATM   20  C   UNL     1     -11.881  10.317  71.157  1.00  0.00    -0.362 C  
HETATM   21  C   UNL     1     -13.810  14.645  72.007  1.00  0.00    -0.557 A  
HETATM   22  C   UNL     1     -13.064  15.203  70.969  1.00  0.00    -0.513 A  
HETATM   23  O   UNL     1     -11.659   9.187  71.586  1.00  0.00    -0.330 OA 
HETATM   24  C   UNL     1     -12.288  14.382  70.143  1.00  0.00    -0.406 A  
ENDBRANCH   2   4
TORSDOF 1
ENDMDL
MODEL       32
REMARK 921   NORMALIZED FREE ENERGY PREDICTED BY IDOCK:   -5.69 KCAL/MOL
REMARK 922        TOTAL FREE ENERGY PREDICTED BY IDOCK:   -6.35 KCAL/MOL
REMARK 923 INTER-LIGAND FREE ENERGY PREDICTED BY IDOCK:   -6.00 KCAL/MOL
REMARK 924 INTRA-LIGAND FREE ENERGY PREDICTED BY IDOCK:   -0.35 KCAL/MOL
REMARK 927      BINDING AFFINITY PREDICTED BY RF-SCORE:    0.00 PKD
ROOT
HETATM    1  C   UNL     1      -7.584   5.834  68.781  1.00  0.00    -0.089 C  
HETATM    2  C   UNL     1      -7.189   7.162  69.371  1.00  0.00    -0.084 C  
HETATM    3  O   UNL     1      -6.365   7.238  70.285  1.00  0.00    -0.033 OA 
ENDROOT
BRANCH   2   4
HETATM    4  C   UNL     1      -7.832   8.415  68.806  1.00  0.00    -0.115 C  
HETATM    5  C   UNL     1      -9.368   8.332  68.765  1.00  0.00    -0.143 C  
HETATM    6  C   UNL     1     -10.070   8.136  70.113  1.00  0.00    -0.194 A  
HETATM    7  C   UNL     1      -9.922   9.501  67.932  1.00  0.00    -0.209 C  
HETATM    8  C   UNL     1      -9.514   8.527  71.343  1.00  0.00    -0.279 A  
HETATM    9  C   UNL     1     -10.356  10.702  68.359  1.00  0.00    -0.175 C  
HETATM   10  C   UNL     1     -10.977  11.649  67.434  1.00  0.00    -0.313 A  
HETATM   11  O   UNL     1     -10.259  11.178  69.646  1.00  0.00    -0.438 OA 
HETATM   12  C   UNL     1     -10.239   8.388  72.531  1.00  0.00    -0.369 A  
HETATM   13  H   UNL     1     -10.566  12.025  69.948  1.00  0.00     0.000 HD 
HETATM   14  C   UNL     1     -10.887  11.407  66.072  1.00  0.00    -0.249 A  
HETATM   15  C   UNL     1     -11.509   7.823  72.514  1.00  0.00    -0.428 A  
HETATM   16  C   UNL     1     -11.412  12.289  65.128  1.00  0.00    -0.390 A  
HETATM   17  O   UNL     1     -10.300  10.228  65.595  1.00  0.00    -0.243 OA 
HETATM   18  C   UNL     1     -12.060   7.389  71.314  1.00  0.00    -0.359 A  
HETATM   19  C   UNL     1     -11.351   7.552  70.123  1.00  0.00    -0.170 A  
HETATM   20  C   UNL     1      -9.963   9.202  66.465  1.00  0.00    -0.288 C  
HETATM   21  C   UNL     1     -12.095  13.423  65.562  1.00  0.00    -0.467 A  
HETATM   22  C   UNL     1     -12.242  13.664  66.928  1.00  0.00    -0.398 A  
HETATM   23  O   UNL     1      -9.631   8.103  66.028  1.00  0.00    -0.158 OA 
HETATM   24  C   UNL     1     -11.674  12.787  67.859  1.00  0.00    -0.408 A  
ENDBRANCH   2   4
TORSDOF 1
ENDMDL
MODEL       33
REMARK 921   NORMALIZED FREE ENERGY PREDICTED BY IDOCK:   -5.69 KCAL/MOL
REMARK 922        TOTAL FREE ENERGY PREDICTED BY IDOCK:   -6.34 KCAL/MOL
REMARK 923 INTER-LIGAND FREE ENERGY PREDICTED BY IDOCK:   -6.12 KCAL/MOL
REMARK 924 INTRA-LIGAND FREE ENERGY PREDICTED BY IDOCK:   -0.22 KCAL/MOL
REMARK 927      BINDING AFFINITY PREDICTED BY RF-SCORE:    0.00 PKD
ROOT
HETATM    1  C   UNL     1     -11.920  12.850  63.412  1.00  0.00    -0.612 C  
HETATM    2  C   UNL     1     -12.486  13.005  64.799  1.00  0.00    -0.427 C  
HETATM    3  O   UNL     1     -13.248  13.933  65.080  1.00  0.00    -0.768 OA 
ENDROOT
BRANCH   2   4
HETATM    4  C   UNL     1     -12.096  11.982  65.848  1.00  0.00     0.029 C  
HETATM    5  C   UNL     1     -10.639  12.132  66.318  1.00  0.00    -0.285 C  
HETATM    6  C   UNL     1     -10.272  13.474  66.961  1.00  0.00    -0.249 A  
HETATM    7  C   UNL     1     -10.240  10.904  67.155  1.00  0.00    -0.249 C  
HETATM    8  C   UNL     1     -11.205  14.313  67.593  1.00  0.00    -0.321 A  
HETATM    9  C   UNL     1     -10.279  10.754  68.492  1.00  0.00    -0.178 C  
HETATM   10  C   UNL     1      -9.734   9.556  69.130  1.00  0.00    -0.178 A  
HETATM   11  O   UNL     1     -10.824  11.648  69.384  1.00  0.00    -0.388 OA 
HETATM   12  C   UNL     1     -10.793  15.491  68.227  1.00  0.00    -0.292 A  
HETATM   13  H   UNL     1     -10.851  11.542  70.328  1.00  0.00     0.000 HD 
HETATM   14  C   UNL     1      -9.408   8.467  68.335  1.00  0.00    -0.134 A  
HETATM   15  C   UNL     1      -9.454  15.864  68.206  1.00  0.00    -0.201 A  
HETATM   16  C   UNL     1      -8.929   7.274  68.877  1.00  0.00    -0.133 A  
HETATM   17  O   UNL     1      -9.505   8.549  66.941  1.00  0.00    -0.158 OA 
HETATM   18  C   UNL     1      -8.521  15.070  67.550  1.00  0.00    -0.188 A  
HETATM   19  C   UNL     1      -8.924  13.881  66.940  1.00  0.00    -0.236 A  
HETATM   20  C   UNL     1      -9.751   9.763  66.317  1.00  0.00    -0.234 C  
HETATM   21  C   UNL     1      -8.720   7.186  70.251  1.00  0.00    -0.144 A  
HETATM   22  C   UNL     1      -8.994   8.284  71.066  1.00  0.00    -0.183 A  
HETATM   23  O   UNL     1      -9.644   9.867  65.097  1.00  0.00    -0.264 OA 
HETATM   24  C   UNL     1      -9.510   9.458  70.509  1.00  0.00    -0.327 A  
ENDBRANCH   2   4
TORSDOF 1
ENDMDL
MODEL       34
REMARK 921   NORMALIZED FREE ENERGY PREDICTED BY IDOCK:   -5.68 KCAL/MOL
REMARK 922        TOTAL FREE ENERGY PREDICTED BY IDOCK:   -6.34 KCAL/MOL
REMARK 923 INTER-LIGAND FREE ENERGY PREDICTED BY IDOCK:   -6.01 KCAL/MOL
REMARK 924 INTRA-LIGAND FREE ENERGY PREDICTED BY IDOCK:   -0.33 KCAL/MOL
REMARK 927      BINDING AFFINITY PREDICTED BY RF-SCORE:    0.00 PKD
ROOT
HETATM    1  C   UNL     1      -9.919  14.829  65.689  1.00  0.00    -0.390 C  
HETATM    2  C   UNL     1      -8.951  14.672  66.832  1.00  0.00    -0.253 C  
HETATM    3  O   UNL     1      -7.884  15.287  66.857  1.00  0.00    -0.209 OA 
ENDROOT
BRANCH   2   4
HETATM    4  C   UNL     1      -9.327  13.731  67.962  1.00  0.00    -0.199 C  
HETATM    5  C   UNL     1      -9.528  12.281  67.492  1.00  0.00    -0.182 C  
HETATM    6  C   UNL     1      -8.312  11.607  66.844  1.00  0.00    -0.169 A  
HETATM    7  C   UNL     1     -10.172  11.460  68.622  1.00  0.00    -0.217 C  
HETATM    8  C   UNL     1      -6.984  11.985  67.103  1.00  0.00    -0.134 A  
HETATM    9  C   UNL     1      -9.569  10.696  69.552  1.00  0.00    -0.031 C  
HETATM   10  C   UNL     1     -10.353   9.875  70.474  1.00  0.00    -0.298 A  
HETATM   11  O   UNL     1      -8.212  10.608  69.759  1.00  0.00    -0.375 OA 
HETATM   12  C   UNL     1      -5.917  11.281  66.536  1.00  0.00    -0.144 A  
HETATM   13  H   UNL     1      -7.786  10.069  70.416  1.00  0.00     0.000 HD 
HETATM   14  C   UNL     1     -11.721  10.082  70.553  1.00  0.00    -0.318 A  
HETATM   15  C   UNL     1      -6.160  10.216  65.675  1.00  0.00    -0.095 A  
HETATM   16  C   UNL     1     -12.527   9.372  71.443  1.00  0.00    -0.435 A  
HETATM   17  O   UNL     1     -12.355  10.989  69.693  1.00  0.00    -0.321 OA 
HETATM   18  C   UNL     1      -7.467   9.853  65.371  1.00  0.00    -0.132 A  
HETATM   19  C   UNL     1      -8.534  10.536  65.957  1.00  0.00    -0.157 A  
HETATM   20  C   UNL     1     -11.667  11.560  68.634  1.00  0.00    -0.326 C  
HETATM   21  C   UNL     1     -11.952   8.388  72.243  1.00  0.00    -0.455 A  
HETATM   22  C   UNL     1     -10.585   8.127  72.149  1.00  0.00    -0.358 A  
HETATM   23  O   UNL     1     -12.270  12.199  67.774  1.00  0.00    -0.451 OA 
HETATM   24  C   UNL     1      -9.788   8.876  71.278  1.00  0.00    -0.361 A  
ENDBRANCH   2   4
TORSDOF 1
ENDMDL
MODEL       35
REMARK 921   NORMALIZED FREE ENERGY PREDICTED BY IDOCK:   -5.54 KCAL/MOL
REMARK 922        TOTAL FREE ENERGY PREDICTED BY IDOCK:   -6.18 KCAL/MOL
REMARK 923 INTER-LIGAND FREE ENERGY PREDICTED BY IDOCK:   -5.85 KCAL/MOL
REMARK 924 INTRA-LIGAND FREE ENERGY PREDICTED BY IDOCK:   -0.34 KCAL/MOL
REMARK 927      BINDING AFFINITY PREDICTED BY RF-SCORE:    0.00 PKD
ROOT
HETATM    1  C   UNL     1      -9.709   6.694  74.530  1.00  0.00    -0.315 C  
HETATM    2  C   UNL     1      -9.146   7.617  73.482  1.00  0.00    -0.262 C  
HETATM    3  O   UNL     1      -8.754   8.750  73.768  1.00  0.00    -0.175 OA 
ENDROOT
BRANCH   2   4
HETATM    4  C   UNL     1      -9.068   7.111  72.053  1.00  0.00    -0.142 C  
HETATM    5  C   UNL     1     -10.375   6.453  71.579  1.00  0.00    -0.239 C  
HETATM    6  C   UNL     1     -11.620   7.347  71.584  1.00  0.00    -0.302 A  
HETATM    7  C   UNL     1     -10.129   5.725  70.246  1.00  0.00    -0.273 C  
HETATM    8  C   UNL     1     -11.572   8.748  71.484  1.00  0.00    -0.374 A  
HETATM    9  C   UNL     1     -10.325   6.181  68.995  1.00  0.00    -0.211 C  
HETATM   10  C   UNL     1     -10.162   5.299  67.840  1.00  0.00    -0.203 A  
HETATM   11  O   UNL     1     -10.665   7.470  68.655  1.00  0.00    -0.327 OA 
HETATM   12  C   UNL     1     -12.749   9.501  71.418  1.00  0.00    -0.445 A  
HETATM   13  H   UNL     1     -10.803   7.792  67.771  1.00  0.00     0.000 HD 
HETATM   14  C   UNL     1      -9.559   4.064  68.024  1.00  0.00    -0.136 A  
HETATM   15  C   UNL     1     -13.987   8.872  71.490  1.00  0.00    -0.365 A  
HETATM   16  C   UNL     1      -9.326   3.189  66.963  1.00  0.00    -0.180 A  
HETATM   17  O   UNL     1      -9.206   3.628  69.307  1.00  0.00    -0.133 OA 
HETATM   18  C   UNL     1     -14.057   7.491  71.633  1.00  0.00    -0.562 A  
HETATM   19  C   UNL     1     -12.885   6.734  71.671  1.00  0.00    -0.328 A  
HETATM   20  C   UNL     1      -9.610   4.333  70.431  1.00  0.00    -0.195 C  
HETATM   21  C   UNL     1      -9.756   3.540  65.685  1.00  0.00    -0.066 A  
HETATM   22  C   UNL     1     -10.407   4.756  65.481  1.00  0.00    -0.162 A  
HETATM   23  O   UNL     1      -9.466   3.849  71.552  1.00  0.00    -0.133 OA 
HETATM   24  C   UNL     1     -10.598   5.637  66.552  1.00  0.00    -0.320 A  
ENDBRANCH   2   4
TORSDOF 1
ENDMDL
MODEL       36
REMARK 921   NORMALIZED FREE ENERGY PREDICTED BY IDOCK:   -5.47 KCAL/MOL
REMARK 922        TOTAL FREE ENERGY PREDICTED BY IDOCK:   -6.12 KCAL/MOL
REMARK 923 INTER-LIGAND FREE ENERGY PREDICTED BY IDOCK:   -6.14 KCAL/MOL
REMARK 924 INTRA-LIGAND FREE ENERGY PREDICTED BY IDOCK:    0.02 KCAL/MOL
REMARK 927      BINDING AFFINITY PREDICTED BY RF-SCORE:    0.00 PKD
ROOT
HETATM    1  C   UNL     1     -14.226  14.692  71.601  1.00  0.00    -0.591 C  
HETATM    2  C   UNL     1     -12.842  14.910  71.049  1.00  0.00    -0.362 C  
HETATM    3  O   UNL     1     -12.460  16.029  70.701  1.00  0.00    -0.322 OA 
ENDROOT
BRANCH   2   4
HETATM    4  C   UNL     1     -11.921  13.710  70.936  1.00  0.00    -0.226 C  
HETATM    5  C   UNL     1     -12.088  12.950  69.609  1.00  0.00    -0.290 C  
HETATM    6  C   UNL     1     -11.804  13.751  68.333  1.00  0.00    -0.411 A  
HETATM    7  C   UNL     1     -11.340  11.609  69.688  1.00  0.00    -0.308 C  
HETATM    8  C   UNL     1     -10.958  14.872  68.291  1.00  0.00    -0.268 A  
HETATM    9  C   UNL     1     -10.089  11.322  69.280  1.00  0.00     0.009 C  
HETATM   10  C   UNL     1      -9.585   9.950  69.313  1.00  0.00    -0.215 A  
HETATM   11  O   UNL     1      -9.166  12.234  68.825  1.00  0.00    -0.391 OA 
HETATM   12  C   UNL     1     -10.682  15.514  67.079  1.00  0.00    -0.321 A  
HETATM   13  H   UNL     1      -8.283  12.031  68.537  1.00  0.00     0.000 HD 
HETATM   14  C   UNL     1     -10.310   8.989  70.001  1.00  0.00    -0.206 A  
HETATM   15  C   UNL     1     -11.275  15.072  65.902  1.00  0.00    -0.313 A  
HETATM   16  C   UNL     1      -9.867   7.671  70.117  1.00  0.00    -0.184 A  
HETATM   17  O   UNL     1     -11.551   9.303  70.568  1.00  0.00    -0.267 OA 
HETATM   18  C   UNL     1     -12.149  13.991  65.928  1.00  0.00    -0.448 A  
HETATM   19  C   UNL     1     -12.405  13.331  67.131  1.00  0.00    -0.163 A  
HETATM   20  C   UNL     1     -12.163  10.519  70.303  1.00  0.00    -0.311 C  
HETATM   21  C   UNL     1      -8.688   7.291  69.480  1.00  0.00    -0.134 A  
HETATM   22  C   UNL     1      -7.965   8.227  68.741  1.00  0.00    -0.114 A  
HETATM   23  O   UNL     1     -13.329  10.713  70.641  1.00  0.00    -0.183 OA 
HETATM   24  C   UNL     1      -8.405   9.553  68.669  1.00  0.00    -0.117 A  
ENDBRANCH   2   4
TORSDOF 1
ENDMDL
MODEL       37
REMARK 921   NORMALIZED FREE ENERGY PREDICTED BY IDOCK:   -5.46 KCAL/MOL
REMARK 922        TOTAL FREE ENERGY PREDICTED BY IDOCK:   -6.10 KCAL/MOL
REMARK 923 INTER-LIGAND FREE ENERGY PREDICTED BY IDOCK:   -5.75 KCAL/MOL
REMARK 924 INTRA-LIGAND FREE ENERGY PREDICTED BY IDOCK:   -0.35 KCAL/MOL
REMARK 927      BINDING AFFINITY PREDICTED BY RF-SCORE:    0.00 PKD
ROOT
HETATM    1  C   UNL     1      -6.757   8.682  70.546  1.00  0.00    -0.040 C  
HETATM    2  C   UNL     1      -8.168   9.045  70.928  1.00  0.00    -0.185 C  
HETATM    3  O   UNL     1      -8.714   8.545  71.913  1.00  0.00    -0.176 OA 
ENDROOT
BRANCH   2   4
HETATM    4  C   UNL     1      -8.904  10.052  70.064  1.00  0.00    -0.117 C  
HETATM    5  C   UNL     1      -8.876   9.693  68.569  1.00  0.00    -0.124 C  
HETATM    6  C   UNL     1      -9.508   8.350  68.185  1.00  0.00    -0.148 A  
HETATM    7  C   UNL     1      -9.388  10.887  67.745  1.00  0.00    -0.162 C  
HETATM    8  C   UNL     1     -10.504   7.715  68.945  1.00  0.00    -0.211 A  
HETATM    9  C   UNL     1     -10.636  11.121  67.297  1.00  0.00    -0.239 C  
HETATM   10  C   UNL     1     -10.915  12.250  66.410  1.00  0.00    -0.326 A  
HETATM   11  O   UNL     1     -11.753  10.385  67.614  1.00  0.00    -0.615 OA 
HETATM   12  C   UNL     1     -11.094   6.527  68.501  1.00  0.00    -0.347 A  
HETATM   13  H   UNL     1     -12.634  10.551  67.298  1.00  0.00     0.000 HD 
HETATM   14  C   UNL     1      -9.940  13.220  66.237  1.00  0.00    -0.291 A  
HETATM   15  C   UNL     1     -10.671   5.937  67.315  1.00  0.00    -0.380 A  
HETATM   16  C   UNL     1     -10.152  14.349  65.445  1.00  0.00    -0.388 A  
HETATM   17  O   UNL     1      -8.676  13.071  66.821  1.00  0.00    -0.188 OA 
HETATM   18  C   UNL     1      -9.656   6.526  66.569  1.00  0.00    -0.184 A  
HETATM   19  C   UNL     1      -9.085   7.727  66.996  1.00  0.00    -0.162 A  
HETATM   20  C   UNL     1      -8.312  11.879  67.427  1.00  0.00    -0.163 C  
HETATM   21  C   UNL     1     -11.359  14.484  64.763  1.00  0.00    -0.397 A  
HETATM   22  C   UNL     1     -12.338  13.498  64.882  1.00  0.00    -0.447 A  
HETATM   23  O   UNL     1      -7.146  11.685  67.765  1.00  0.00    -0.082 OA 
HETATM   24  C   UNL     1     -12.121  12.393  65.711  1.00  0.00    -0.381 A  
ENDBRANCH   2   4
TORSDOF 1
ENDMDL
MODEL       38
REMARK 921   NORMALIZED FREE ENERGY PREDICTED BY IDOCK:   -5.45 KCAL/MOL
REMARK 922        TOTAL FREE ENERGY PREDICTED BY IDOCK:   -6.09 KCAL/MOL
REMARK 923 INTER-LIGAND FREE ENERGY PREDICTED BY IDOCK:   -6.15 KCAL/MOL
REMARK 924 INTRA-LIGAND FREE ENERGY PREDICTED BY IDOCK:    0.05 KCAL/MOL
REMARK 927      BINDING AFFINITY PREDICTED BY RF-SCORE:    0.00 PKD
ROOT
HETATM    1  C   UNL     1     -12.085  13.077  70.703  1.00  0.00    -0.333 C  
HETATM    2  C   UNL     1     -12.523  11.636  70.707  1.00  0.00    -0.330 C  
HETATM    3  O   UNL     1     -13.266  11.194  71.585  1.00  0.00    -0.418 OA 
ENDROOT
BRANCH   2   4
HETATM    4  C   UNL     1     -12.024  10.736  69.592  1.00  0.00    -0.385 C  
HETATM    5  C   UNL     1     -10.685  10.056  69.924  1.00  0.00    -0.328 C  
HETATM    6  C   UNL     1     -10.678   9.148  71.159  1.00  0.00    -0.380 A  
HETATM    7  C   UNL     1     -10.116   9.397  68.657  1.00  0.00    -0.208 C  
HETATM    8  C   UNL     1     -11.825   8.513  71.663  1.00  0.00    -0.370 A  
HETATM    9  C   UNL     1     -10.249   8.123  68.243  1.00  0.00    -0.206 C  
HETATM   10  C   UNL     1      -9.524   7.634  67.071  1.00  0.00    -0.209 A  
HETATM   11  O   UNL     1     -11.056   7.172  68.822  1.00  0.00    -0.439 OA 
HETATM   12  C   UNL     1     -11.737   7.636  72.750  1.00  0.00    -0.276 A  
HETATM   13  H   UNL     1     -11.150   6.273  68.530  1.00  0.00     0.000 HD 
HETATM   14  C   UNL     1      -8.898   8.553  66.242  1.00  0.00    -0.156 A  
HETATM   15  C   UNL     1     -10.513   7.412  73.371  1.00  0.00    -0.419 A  
HETATM   16  C   UNL     1      -8.229   8.166  65.081  1.00  0.00    -0.156 A  
HETATM   17  O   UNL     1      -8.876   9.913  66.575  1.00  0.00    -0.136 OA 
HETATM   18  C   UNL     1      -9.373   8.064  72.915  1.00  0.00    -0.338 A  
HETATM   19  C   UNL     1      -9.453   8.918  71.814  1.00  0.00    -0.334 A  
HETATM   20  C   UNL     1      -9.315  10.345  67.817  1.00  0.00    -0.145 C  
HETATM   21  C   UNL     1      -8.138   6.812  64.767  1.00  0.00    -0.098 A  
HETATM   22  C   UNL     1      -8.718   5.864  65.610  1.00  0.00    -0.149 A  
HETATM   23  O   UNL     1      -9.116  11.504  68.177  1.00  0.00    -0.167 OA 
HETATM   24  C   UNL     1      -9.418   6.274  66.749  1.00  0.00    -0.167 A  
ENDBRANCH   2   4
TORSDOF 1
ENDMDL
MODEL       39
REMARK 921   NORMALIZED FREE ENERGY PREDICTED BY IDOCK:   -5.43 KCAL/MOL
REMARK 922        TOTAL FREE ENERGY PREDICTED BY IDOCK:   -6.07 KCAL/MOL
REMARK 923 INTER-LIGAND FREE ENERGY PREDICTED BY IDOCK:   -5.75 KCAL/MOL
REMARK 924 INTRA-LIGAND FREE ENERGY PREDICTED BY IDOCK:   -0.31 KCAL/MOL
REMARK 927      BINDING AFFINITY PREDICTED BY RF-SCORE:    0.00 PKD
ROOT
HETATM    1  C   UNL     1      -5.701   8.629  69.487  1.00  0.00    -0.030 C  
HETATM    2  C   UNL     1      -6.522   9.776  70.013  1.00  0.00    -0.074 C  
HETATM    3  O   UNL     1      -6.478  10.103  71.201  1.00  0.00    -0.324 OA 
ENDROOT
BRANCH   2   4
HETATM    4  C   UNL     1      -7.408  10.527  69.037  1.00  0.00    -0.103 C  
HETATM    5  C   UNL     1      -8.506   9.643  68.423  1.00  0.00    -0.118 C  
HETATM    6  C   UNL     1      -9.498   9.016  69.410  1.00  0.00    -0.159 A  
HETATM    7  C   UNL     1      -9.171  10.389  67.253  1.00  0.00    -0.157 C  
HETATM    8  C   UNL     1      -9.790   9.562  70.671  1.00  0.00    -0.328 A  
HETATM    9  C   UNL     1     -10.286  11.143  67.266  1.00  0.00    -0.208 C  
HETATM   10  C   UNL     1     -10.850  11.672  66.025  1.00  0.00    -0.339 A  
HETATM   11  O   UNL     1     -10.991  11.513  68.388  1.00  0.00    -0.192 OA 
HETATM   12  C   UNL     1     -10.761   8.981  71.494  1.00  0.00    -0.421 A  
HETATM   13  H   UNL     1     -11.778  12.045  68.397  1.00  0.00     0.000 HD 
HETATM   14  C   UNL     1     -10.091  11.605  64.866  1.00  0.00    -0.260 A  
HETATM   15  C   UNL     1     -11.425   7.829  71.087  1.00  0.00    -0.295 A  
HETATM   16  C   UNL     1     -10.542  12.132  63.656  1.00  0.00    -0.504 A  
HETATM   17  O   UNL     1      -8.852  10.954  64.863  1.00  0.00    -0.183 OA 
HETATM   18  C   UNL     1     -11.120   7.247  69.862  1.00  0.00    -0.233 A  
HETATM   19  C   UNL     1     -10.171   7.840  69.026  1.00  0.00    -0.213 A  
HETATM   20  C   UNL     1      -8.439  10.211  65.959  1.00  0.00    -0.131 C  
HETATM   21  C   UNL     1     -11.814  12.696  63.591  1.00  0.00    -0.606 A  
HETATM   22  C   UNL     1     -12.616  12.732  64.732  1.00  0.00    -0.518 A  
HETATM   23  O   UNL     1      -7.448   9.488  65.881  1.00  0.00    -0.097 OA 
HETATM   24  C   UNL     1     -12.131  12.234  65.945  1.00  0.00    -0.261 A  
ENDBRANCH   2   4
TORSDOF 1
ENDMDL
MODEL       40
REMARK 921   NORMALIZED FREE ENERGY PREDICTED BY IDOCK:   -5.38 KCAL/MOL
REMARK 922        TOTAL FREE ENERGY PREDICTED BY IDOCK:   -6.02 KCAL/MOL
REMARK 923 INTER-LIGAND FREE ENERGY PREDICTED BY IDOCK:   -5.72 KCAL/MOL
REMARK 924 INTRA-LIGAND FREE ENERGY PREDICTED BY IDOCK:   -0.30 KCAL/MOL
REMARK 927      BINDING AFFINITY PREDICTED BY RF-SCORE:    0.00 PKD
ROOT
HETATM    1  C   UNL     1      -5.154   7.926  67.339  1.00  0.00    -0.031 C  
HETATM    2  C   UNL     1      -6.246   7.827  66.307  1.00  0.00    -0.045 C  
HETATM    3  O   UNL     1      -6.411   6.802  65.644  1.00  0.00    -0.040 OA 
ENDROOT
BRANCH   2   4
HETATM    4  C   UNL     1      -7.147   9.031  66.104  1.00  0.00    -0.086 C  
HETATM    5  C   UNL     1      -8.636   8.655  66.007  1.00  0.00    -0.173 C  
HETATM    6  C   UNL     1      -9.234   7.951  67.231  1.00  0.00    -0.167 A  
HETATM    7  C   UNL     1      -9.443   9.873  65.526  1.00  0.00    -0.313 C  
HETATM    8  C   UNL     1      -8.723   8.086  68.532  1.00  0.00    -0.131 A  
HETATM    9  C   UNL     1     -10.092  10.792  66.265  1.00  0.00    -0.232 C  
HETATM   10  C   UNL     1     -10.924  11.814  65.630  1.00  0.00    -0.348 A  
HETATM   11  O   UNL     1     -10.045  10.898  67.635  1.00  0.00    -0.173 OA 
HETATM   12  C   UNL     1      -9.362   7.476  69.618  1.00  0.00    -0.153 A  
HETATM   13  H   UNL     1     -10.504  11.547  68.157  1.00  0.00     0.000 HD 
HETATM   14  C   UNL     1     -10.836  11.988  64.257  1.00  0.00    -0.339 A  
HETATM   15  C   UNL     1     -10.493   6.694  69.415  1.00  0.00    -0.254 A  
HETATM   16  C   UNL     1     -11.562  12.974  63.589  1.00  0.00    -0.507 A  
HETATM   17  O   UNL     1     -10.044  11.133  63.481  1.00  0.00    -0.316 OA 
HETATM   18  C   UNL     1     -10.990   6.511  68.129  1.00  0.00    -0.365 A  
HETATM   19  C   UNL     1     -10.372   7.141  67.047  1.00  0.00    -0.368 A  
HETATM   20  C   UNL     1      -9.477   9.995  64.034  1.00  0.00    -0.237 C  
HETATM   21  C   UNL     1     -12.441  13.778  64.310  1.00  0.00    -0.308 A  
HETATM   22  C   UNL     1     -12.583  13.592  65.685  1.00  0.00    -0.512 A  
HETATM   23  O   UNL     1      -8.947   9.153  63.312  1.00  0.00    -0.152 OA 
HETATM   24  C   UNL     1     -11.818  12.623  66.343  1.00  0.00    -0.466 A  
ENDBRANCH   2   4
TORSDOF 1
ENDMDL
MODEL       41
REMARK 921   NORMALIZED FREE ENERGY PREDICTED BY IDOCK:   -5.36 KCAL/MOL
REMARK 922        TOTAL FREE ENERGY PREDICTED BY IDOCK:   -5.99 KCAL/MOL
REMARK 923 INTER-LIGAND FREE ENERGY PREDICTED BY IDOCK:   -5.69 KCAL/MOL
REMARK 924 INTRA-LIGAND FREE ENERGY PREDICTED BY IDOCK:   -0.30 KCAL/MOL
REMARK 927      BINDING AFFINITY PREDICTED BY RF-SCORE:    0.00 PKD
ROOT
HETATM    1  C   UNL     1     -12.446  10.888  71.298  1.00  0.00    -0.493 C  
HETATM    2  C   UNL     1     -12.808   9.492  71.732  1.00  0.00    -0.406 C  
HETATM    3  O   UNL     1     -13.421   9.286  72.781  1.00  0.00    -0.388 OA 
ENDROOT
BRANCH   2   4
HETATM    4  C   UNL     1     -12.398   8.338  70.837  1.00  0.00    -0.046 C  
HETATM    5  C   UNL     1     -10.872   8.187  70.715  1.00  0.00    -0.247 C  
HETATM    6  C   UNL     1     -10.113   7.926  72.021  1.00  0.00    -0.260 A  
HETATM    7  C   UNL     1     -10.543   7.194  69.587  1.00  0.00    -0.249 C  
HETATM    8  C   UNL     1     -10.695   7.329  73.152  1.00  0.00    -0.411 A  
HETATM    9  C   UNL     1     -10.306   5.872  69.679  1.00  0.00    -0.247 C  
HETATM   10  C   UNL     1      -9.876   5.104  68.511  1.00  0.00    -0.218 A  
HETATM   11  O   UNL     1     -10.449   5.108  70.814  1.00  0.00    -0.243 OA 
HETATM   12  C   UNL     1      -9.927   7.050  74.287  1.00  0.00    -0.235 A  
HETATM   13  H   UNL     1     -10.281   4.175  70.878  1.00  0.00     0.000 HD 
HETATM   14  C   UNL     1      -9.960   5.691  67.258  1.00  0.00    -0.159 A  
HETATM   15  C   UNL     1      -8.581   7.396  74.324  1.00  0.00    -0.258 A  
HETATM   16  C   UNL     1      -9.614   5.004  66.095  1.00  0.00    -0.178 A  
HETATM   17  O   UNL     1     -10.352   7.029  67.124  1.00  0.00    -0.219 OA 
HETATM   18  C   UNL     1      -7.996   8.026  73.232  1.00  0.00    -0.230 A  
HETATM   19  C   UNL     1      -8.752   8.281  72.087  1.00  0.00    -0.259 A  
HETATM   20  C   UNL     1     -10.490   7.842  68.238  1.00  0.00    -0.164 C  
HETATM   21  C   UNL     1      -9.120   3.706  66.192  1.00  0.00    -0.155 A  
HETATM   22  C   UNL     1      -8.981   3.109  67.445  1.00  0.00    -0.184 A  
HETATM   23  O   UNL     1     -10.644   9.054  68.106  1.00  0.00    -0.219 OA 
HETATM   24  C   UNL     1      -9.369   3.800  68.598  1.00  0.00    -0.226 A  
ENDBRANCH   2   4
TORSDOF 1
ENDMDL
MODEL       42
REMARK 921   NORMALIZED FREE ENERGY PREDICTED BY IDOCK:   -5.31 KCAL/MOL
REMARK 922        TOTAL FREE ENERGY PREDICTED BY IDOCK:   -5.94 KCAL/MOL
REMARK 923 INTER-LIGAND FREE ENERGY PREDICTED BY IDOCK:   -5.60 KCAL/MOL
REMARK 924 INTRA-LIGAND FREE ENERGY PREDICTED BY IDOCK:   -0.34 KCAL/MOL
REMARK 927      BINDING AFFINITY PREDICTED BY RF-SCORE:    0.00 PKD
ROOT
HETATM    1  C   UNL     1      -9.557   4.464  68.020  1.00  0.00    -0.204 C  
HETATM    2  C   UNL     1     -10.387   5.315  67.094  1.00  0.00    -0.216 C  
HETATM    3  O   UNL     1     -10.559   4.998  65.915  1.00  0.00    -0.256 OA 
ENDROOT
BRANCH   2   4
HETATM    4  C   UNL     1     -11.013   6.578  67.654  1.00  0.00    -0.426 C  
HETATM    5  C   UNL     1     -10.009   7.453  68.424  1.00  0.00    -0.177 C  
HETATM    6  C   UNL     1      -8.807   7.965  67.622  1.00  0.00    -0.128 A  
HETATM    7  C   UNL     1     -10.767   8.552  69.189  1.00  0.00    -0.128 C  
HETATM    8  C   UNL     1      -8.818   8.133  66.228  1.00  0.00    -0.193 A  
HETATM    9  C   UNL     1     -11.025   9.815  68.803  1.00  0.00    -0.148 C  
HETATM   10  C   UNL     1     -11.649  10.768  69.720  1.00  0.00    -0.393 A  
HETATM   11  O   UNL     1     -10.770  10.341  67.558  1.00  0.00    -0.255 OA 
HETATM   12  C   UNL     1      -7.711   8.675  65.564  1.00  0.00    -0.092 A  
HETATM   13  H   UNL     1     -10.952  11.233  67.285  1.00  0.00     0.000 HD 
HETATM   14  C   UNL     1     -12.202  10.294  70.900  1.00  0.00    -0.365 A  
HETATM   15  C   UNL     1      -6.568   9.020  66.277  1.00  0.00    -0.066 A  
HETATM   16  C   UNL     1     -12.856  11.136  71.800  1.00  0.00    -0.479 A  
HETATM   17  O   UNL     1     -12.077   8.945  71.253  1.00  0.00    -0.294 OA 
HETATM   18  C   UNL     1      -6.520   8.821  67.652  1.00  0.00    -0.061 A  
HETATM   19  C   UNL     1      -7.633   8.306  68.321  1.00  0.00    -0.101 A  
HETATM   20  C   UNL     1     -11.252   8.097  70.532  1.00  0.00    -0.247 C  
HETATM   21  C   UNL     1     -12.912  12.502  71.537  1.00  0.00    -0.379 A  
HETATM   22  C   UNL     1     -12.321  13.011  70.381  1.00  0.00    -0.351 A  
HETATM   23  O   UNL     1     -10.995   6.972  70.955  1.00  0.00    -0.239 OA 
HETATM   24  C   UNL     1     -11.704  12.146  69.471  1.00  0.00    -0.402 A  
ENDBRANCH   2   4
TORSDOF 1
ENDMDL
MODEL       43
REMARK 921   NORMALIZED FREE ENERGY PREDICTED BY IDOCK:   -5.29 KCAL/MOL
REMARK 922        TOTAL FREE ENERGY PREDICTED BY IDOCK:   -5.92 KCAL/MOL
REMARK 923 INTER-LIGAND FREE ENERGY PREDICTED BY IDOCK:   -5.57 KCAL/MOL
REMARK 924 INTRA-LIGAND FREE ENERGY PREDICTED BY IDOCK:   -0.35 KCAL/MOL
REMARK 927      BINDING AFFINITY PREDICTED BY RF-SCORE:    0.00 PKD
ROOT
HETATM    1  C   UNL     1      -9.112   7.348  65.851  1.00  0.00    -0.073 C  
HETATM    2  C   UNL     1      -7.987   8.189  66.393  1.00  0.00    -0.104 C  
HETATM    3  O   UNL     1      -6.979   7.674  66.880  1.00  0.00    -0.075 OA 
ENDROOT
BRANCH   2   4
HETATM    4  C   UNL     1      -8.125   9.698  66.322  1.00  0.00    -0.112 C  
HETATM    5  C   UNL     1      -9.442  10.208  66.932  1.00  0.00    -0.203 C  
HETATM    6  C   UNL     1      -9.667   9.889  68.415  1.00  0.00    -0.161 A  
HETATM    7  C   UNL     1      -9.634  11.692  66.573  1.00  0.00    -0.226 C  
HETATM    8  C   UNL     1      -8.624   9.655  69.326  1.00  0.00    -0.153 A  
HETATM    9  C   UNL     1      -9.297  12.778  67.293  1.00  0.00    -0.200 C  
HETATM   10  C   UNL     1      -9.676  14.120  66.852  1.00  0.00    -0.272 A  
HETATM   11  O   UNL     1      -8.573  12.772  68.463  1.00  0.00    -0.300 OA 
HETATM   12  C   UNL     1      -8.893   9.443  70.683  1.00  0.00    -0.275 A  
HETATM   13  H   UNL     1      -8.335  13.539  68.972  1.00  0.00     0.000 HD 
HETATM   14  C   UNL     1     -10.161  14.285  65.563  1.00  0.00    -0.357 A  
HETATM   15  C   UNL     1     -10.206   9.423  71.140  1.00  0.00    -0.361 A  
HETATM   16  C   UNL     1     -10.498  15.540  65.056  1.00  0.00    -0.392 A  
HETATM   17  O   UNL     1     -10.379  13.176  64.736  1.00  0.00    -0.342 OA 
HETATM   18  C   UNL     1     -11.256   9.609  70.247  1.00  0.00    -0.324 A  
HETATM   19  C   UNL     1     -10.989   9.849  68.898  1.00  0.00    -0.214 A  
HETATM   20  C   UNL     1     -10.288  11.888  65.240  1.00  0.00    -0.276 C  
HETATM   21  C   UNL     1     -10.395  16.658  65.881  1.00  0.00    -0.355 A  
HETATM   22  C   UNL     1      -9.955  16.511  67.196  1.00  0.00    -0.266 A  
HETATM   23  O   UNL     1     -10.665  10.931  64.568  1.00  0.00    -0.327 OA 
HETATM   24  C   UNL     1      -9.585  15.250  67.675  1.00  0.00    -0.206 A  
ENDBRANCH   2   4
TORSDOF 1
ENDMDL
MODEL       44
REMARK 921   NORMALIZED FREE ENERGY PREDICTED BY IDOCK:   -5.27 KCAL/MOL
REMARK 922        TOTAL FREE ENERGY PREDICTED BY IDOCK:   -5.90 KCAL/MOL
REMARK 923 INTER-LIGAND FREE ENERGY PREDICTED BY IDOCK:   -5.55 KCAL/MOL
REMARK 924 INTRA-LIGAND FREE ENERGY PREDICTED BY IDOCK:   -0.35 KCAL/MOL
REMARK 927      BINDING AFFINITY PREDICTED BY RF-SCORE:    0.00 PKD
ROOT
HETATM    1  C   UNL     1     -14.343   7.875  71.592  1.00  0.00    -0.595 C  
HETATM    2  C   UNL     1     -13.179   8.776  71.910  1.00  0.00    -0.381 C  
HETATM    3  O   UNL     1     -13.254   9.997  71.764  1.00  0.00    -0.397 OA 
ENDROOT
BRANCH   2   4
HETATM    4  C   UNL     1     -11.901   8.136  72.421  1.00  0.00    -0.448 C  
HETATM    5  C   UNL     1     -11.424   6.967  71.544  1.00  0.00    -0.315 C  
HETATM    6  C   UNL     1     -11.104   7.306  70.083  1.00  0.00    -0.281 A  
HETATM    7  C   UNL     1     -10.304   6.203  72.271  1.00  0.00    -0.221 C  
HETATM    8  C   UNL     1     -10.728   8.588  69.648  1.00  0.00    -0.200 A  
HETATM    9  C   UNL     1      -8.972   6.362  72.157  1.00  0.00    -0.136 C  
HETATM   10  C   UNL     1      -8.046   5.452  72.832  1.00  0.00    -0.109 A  
HETATM   11  O   UNL     1      -8.340   7.358  71.449  1.00  0.00    -0.110 OA 
HETATM   12  C   UNL     1     -10.376   8.815  68.313  1.00  0.00    -0.252 A  
HETATM   13  H   UNL     1      -7.400   7.470  71.369  1.00  0.00     0.000 HD 
HETATM   14  C   UNL     1      -8.546   4.583  73.789  1.00  0.00    -0.103 A  
HETATM   15  C   UNL     1     -10.432   7.777  67.388  1.00  0.00    -0.362 A  
HETATM   16  C   UNL     1      -7.718   3.720  74.508  1.00  0.00    -0.070 A  
HETATM   17  O   UNL     1      -9.922   4.507  74.034  1.00  0.00    -0.142 OA 
HETATM   18  C   UNL     1     -10.844   6.511  67.789  1.00  0.00    -0.395 A  
HETATM   19  C   UNL     1     -11.168   6.275  69.127  1.00  0.00    -0.439 A  
HETATM   20  C   UNL     1     -10.826   5.159  73.209  1.00  0.00    -0.295 C  
HETATM   21  C   UNL     1      -6.355   3.690  74.222  1.00  0.00    -0.026 A  
HETATM   22  C   UNL     1      -5.835   4.520  73.229  1.00  0.00    -0.009 A  
HETATM   23  O   UNL     1     -12.030   4.936  73.308  1.00  0.00    -0.193 OA 
HETATM   24  C   UNL     1      -6.676   5.406  72.547  1.00  0.00    -0.074 A  
ENDBRANCH   2   4
TORSDOF 1
ENDMDL
MODEL       45
REMARK 921   NORMALIZED FREE ENERGY PREDICTED BY IDOCK:   -5.19 KCAL/MOL
REMARK 922        TOTAL FREE ENERGY PREDICTED BY IDOCK:   -5.81 KCAL/MOL
REMARK 923 INTER-LIGAND FREE ENERGY PREDICTED BY IDOCK:   -5.84 KCAL/MOL
REMARK 924 INTRA-LIGAND FREE ENERGY PREDICTED BY IDOCK:    0.03 KCAL/MOL
REMARK 927      BINDING AFFINITY PREDICTED BY RF-SCORE:    0.00 PKD
ROOT
HETATM    1  C   UNL     1     -12.742  15.516  70.911  1.00  0.00    -0.525 C  
HETATM    2  C   UNL     1     -12.055  15.263  69.595  1.00  0.00    -0.312 C  
HETATM    3  O   UNL     1     -11.975  16.141  68.734  1.00  0.00    -0.286 OA 
ENDROOT
BRANCH   2   4
HETATM    4  C   UNL     1     -11.456  13.890  69.355  1.00  0.00    -0.334 C  
HETATM    5  C   UNL     1     -10.545  13.841  68.117  1.00  0.00    -0.260 C  
HETATM    6  C   UNL     1      -9.328  14.773  68.138  1.00  0.00    -0.197 A  
HETATM    7  C   UNL     1     -10.210  12.378  67.783  1.00  0.00    -0.212 C  
HETATM    8  C   UNL     1      -8.726  15.239  69.319  1.00  0.00    -0.237 A  
HETATM    9  C   UNL     1      -9.135  11.658  68.158  1.00  0.00    -0.183 C  
HETATM   10  C   UNL     1      -8.914  10.310  67.635  1.00  0.00    -0.137 A  
HETATM   11  O   UNL     1      -8.169  12.065  69.048  1.00  0.00    -0.355 OA 
HETATM   12  C   UNL     1      -7.571  16.027  69.270  1.00  0.00    -0.230 A  
HETATM   13  H   UNL     1      -7.410  11.557  69.313  1.00  0.00     0.000 HD 
HETATM   14  C   UNL     1      -9.944   9.683  66.952  1.00  0.00    -0.212 A  
HETATM   15  C   UNL     1      -7.025  16.392  68.045  1.00  0.00    -0.150 A  
HETATM   16  C   UNL     1      -9.824   8.380  66.467  1.00  0.00    -0.338 A  
HETATM   17  O   UNL     1     -11.138  10.364  66.680  1.00  0.00    -0.079 OA 
HETATM   18  C   UNL     1      -7.630  15.978  66.863  1.00  0.00    -0.268 A  
HETATM   19  C   UNL     1      -8.766  15.168  66.909  1.00  0.00    -0.289 A  
HETATM   20  C   UNL     1     -11.248  11.724  66.924  1.00  0.00    -0.327 C  
HETATM   21  C   UNL     1      -8.617   7.704  66.624  1.00  0.00    -0.134 A  
HETATM   22  C   UNL     1      -7.549   8.331  67.266  1.00  0.00    -0.097 A  
HETATM   23  O   UNL     1     -12.220  12.352  66.510  1.00  0.00    -0.586 OA 
HETATM   24  C   UNL     1      -7.701   9.624  67.780  1.00  0.00    -0.094 A  
ENDBRANCH   2   4
TORSDOF 1
ENDMDL
MODEL       46
REMARK 921   NORMALIZED FREE ENERGY PREDICTED BY IDOCK:   -5.09 KCAL/MOL
REMARK 922        TOTAL FREE ENERGY PREDICTED BY IDOCK:   -5.71 KCAL/MOL
REMARK 923 INTER-LIGAND FREE ENERGY PREDICTED BY IDOCK:   -5.36 KCAL/MOL
REMARK 924 INTRA-LIGAND FREE ENERGY PREDICTED BY IDOCK:   -0.35 KCAL/MOL
REMARK 927      BINDING AFFINITY PREDICTED BY RF-SCORE:    0.00 PKD
ROOT
HETATM    1  C   UNL     1      -9.636  12.777  68.255  1.00  0.00    -0.211 C  
HETATM    2  C   UNL     1     -10.900  11.974  68.096  1.00  0.00    -0.221 C  
HETATM    3  O   UNL     1     -11.991  12.416  68.461  1.00  0.00    -0.318 OA 
ENDROOT
BRANCH   2   4
HETATM    4  C   UNL     1     -10.795  10.597  67.467  1.00  0.00    -0.351 C  
HETATM    5  C   UNL     1      -9.799   9.679  68.195  1.00  0.00    -0.172 C  
HETATM    6  C   UNL     1     -10.105   9.386  69.668  1.00  0.00    -0.218 A  
HETATM    7  C   UNL     1      -9.542   8.423  67.345  1.00  0.00    -0.202 C  
HETATM    8  C   UNL     1     -11.395   9.444  70.221  1.00  0.00    -0.261 A  
HETATM    9  C   UNL     1     -10.149   7.224  67.419  1.00  0.00    -0.204 C  
HETATM   10  C   UNL     1      -9.682   6.095  66.614  1.00  0.00    -0.196 A  
HETATM   11  O   UNL     1     -11.240   6.924  68.201  1.00  0.00    -0.513 OA 
HETATM   12  C   UNL     1     -11.618   9.092  71.556  1.00  0.00    -0.439 A  
HETATM   13  H   UNL     1     -11.668   6.077  68.253  1.00  0.00     0.000 HD 
HETATM   14  C   UNL     1      -8.777   6.335  65.591  1.00  0.00    -0.114 A  
HETATM   15  C   UNL     1     -10.553   8.715  72.367  1.00  0.00    -0.310 A  
HETATM   16  C   UNL     1      -8.324   5.317  64.752  1.00  0.00    -0.145 A  
HETATM   17  O   UNL     1      -8.243   7.615  65.398  1.00  0.00    -0.126 OA 
HETATM   18  C   UNL     1      -9.261   8.693  71.852  1.00  0.00    -0.345 A  
HETATM   19  C   UNL     1      -9.040   9.017  70.513  1.00  0.00    -0.259 A  
HETATM   20  C   UNL     1      -8.464   8.622  66.325  1.00  0.00    -0.125 C  
HETATM   21  C   UNL     1      -8.751   4.010  64.975  1.00  0.00    -0.117 A  
HETATM   22  C   UNL     1      -9.624   3.735  66.027  1.00  0.00    -0.168 A  
HETATM   23  O   UNL     1      -7.841   9.679  66.253  1.00  0.00    -0.100 OA 
HETATM   24  C   UNL     1     -10.097   4.775  66.834  1.00  0.00    -0.246 A  
ENDBRANCH   2   4
TORSDOF 1
ENDMDL
MODEL       47
REMARK 921   NORMALIZED FREE ENERGY PREDICTED BY IDOCK:   -5.07 KCAL/MOL
REMARK 922        TOTAL FREE ENERGY PREDICTED BY IDOCK:   -5.69 KCAL/MOL
REMARK 923 INTER-LIGAND FREE ENERGY PREDICTED BY IDOCK:   -5.43 KCAL/MOL
REMARK 924 INTRA-LIGAND FREE ENERGY PREDICTED BY IDOCK:   -0.26 KCAL/MOL
REMARK 927      BINDING AFFINITY PREDICTED BY RF-SCORE:    0.00 PKD
ROOT
HETATM    1  C   UNL     1      -7.795   7.879  63.132  1.00  0.00    -0.142 C  
HETATM    2  C   UNL     1      -7.217   8.310  64.455  1.00  0.00    -0.088 C  
HETATM    3  O   UNL     1      -6.260   7.718  64.960  1.00  0.00    -0.038 OA 
ENDROOT
BRANCH   2   4
HETATM    4  C   UNL     1      -7.844   9.502  65.154  1.00  0.00    -0.113 C  
HETATM    5  C   UNL     1      -9.260   9.211  65.677  1.00  0.00    -0.296 C  
HETATM    6  C   UNL     1      -9.382   8.079  66.704  1.00  0.00    -0.249 A  
HETATM    7  C   UNL     1      -9.926  10.528  66.113  1.00  0.00    -0.286 C  
HETATM    8  C   UNL     1      -8.328   7.672  67.539  1.00  0.00    -0.120 A  
HETATM    9  C   UNL     1      -9.973  11.076  67.341  1.00  0.00    -0.182 C  
HETATM   10  C   UNL     1     -10.769  12.276  67.599  1.00  0.00    -0.250 A  
HETATM   11  O   UNL     1      -9.299  10.619  68.450  1.00  0.00    -0.150 OA 
HETATM   12  C   UNL     1      -8.526   6.682  68.508  1.00  0.00    -0.122 A  
HETATM   13  H   UNL     1      -9.332  11.007  69.317  1.00  0.00     0.000 HD 
HETATM   14  C   UNL     1     -11.269  12.989  66.519  1.00  0.00    -0.302 A  
HETATM   15  C   UNL     1      -9.763   6.059  68.630  1.00  0.00    -0.149 A  
HETATM   16  C   UNL     1     -11.996  14.168  66.685  1.00  0.00    -0.470 A  
HETATM   17  O   UNL     1     -11.102  12.513  65.213  1.00  0.00    -0.283 OA 
HETATM   18  C   UNL     1     -10.807   6.417  67.783  1.00  0.00    -0.418 A  
HETATM   19  C   UNL     1     -10.621   7.424  66.835  1.00  0.00    -0.375 A  
HETATM   20  C   UNL     1     -10.597  11.243  64.980  1.00  0.00    -0.289 C  
HETATM   21  C   UNL     1     -12.274  14.621  67.972  1.00  0.00    -0.089 A  
HETATM   22  C   UNL     1     -11.823  13.896  69.076  1.00  0.00    -0.397 A  
HETATM   23  O   UNL     1     -10.631  10.759  63.851  1.00  0.00    -0.314 OA 
HETATM   24  C   UNL     1     -11.063  12.736  68.889  1.00  0.00    -0.310 A  
ENDBRANCH   2   4
TORSDOF 1
ENDMDL
MODEL       48
REMARK 921   NORMALIZED FREE ENERGY PREDICTED BY IDOCK:   -5.05 KCAL/MOL
REMARK 922        TOTAL FREE ENERGY PREDICTED BY IDOCK:   -5.67 KCAL/MOL
REMARK 923 INTER-LIGAND FREE ENERGY PREDICTED BY IDOCK:   -5.47 KCAL/MOL
REMARK 924 INTRA-LIGAND FREE ENERGY PREDICTED BY IDOCK:   -0.20 KCAL/MOL
REMARK 927      BINDING AFFINITY PREDICTED BY RF-SCORE:    0.00 PKD
ROOT
HETATM    1  C   UNL     1     -10.887  11.618  63.503  1.00  0.00    -0.497 C  
HETATM    2  C   UNL     1      -9.977  10.765  64.348  1.00  0.00    -0.338 C  
HETATM    3  O   UNL     1      -8.823  10.514  63.995  1.00  0.00    -0.184 OA 
ENDROOT
BRANCH   2   4
HETATM    4  C   UNL     1     -10.520  10.222  65.656  1.00  0.00    -0.152 C  
HETATM    5  C   UNL     1      -9.430  10.032  66.724  1.00  0.00    -0.209 C  
HETATM    6  C   UNL     1      -8.666  11.294  67.141  1.00  0.00    -0.151 A  
HETATM    7  C   UNL     1     -10.001   9.226  67.903  1.00  0.00    -0.228 C  
HETATM    8  C   UNL     1      -9.192  12.593  67.032  1.00  0.00    -0.212 A  
HETATM    9  C   UNL     1     -10.539   9.685  69.049  1.00  0.00    -0.218 C  
HETATM   10  C   UNL     1     -10.913   8.767  70.124  1.00  0.00    -0.236 A  
HETATM   11  O   UNL     1     -10.812  11.003  69.335  1.00  0.00    -0.230 OA 
HETATM   12  C   UNL     1      -8.472  13.697  67.499  1.00  0.00    -0.190 A  
HETATM   13  H   UNL     1     -11.191  11.327  70.144  1.00  0.00     0.000 HD 
HETATM   14  C   UNL     1     -10.947   7.407  69.857  1.00  0.00    -0.223 A  
HETATM   15  C   UNL     1      -7.205  13.527  68.045  1.00  0.00    -0.125 A  
HETATM   16  C   UNL     1     -11.340   6.475  70.818  1.00  0.00    -0.399 A  
HETATM   17  O   UNL     1     -10.533   6.914  68.614  1.00  0.00    -0.178 OA 
HETATM   18  C   UNL     1      -6.647  12.255  68.123  1.00  0.00    -0.067 A  
HETATM   19  C   UNL     1      -7.375  11.148  67.682  1.00  0.00    -0.095 A  
HETATM   20  C   UNL     1      -9.915   7.746  67.692  1.00  0.00    -0.178 C  
HETATM   21  C   UNL     1     -11.661   6.913  72.100  1.00  0.00    -0.322 A  
HETATM   22  C   UNL     1     -11.588   8.272  72.408  1.00  0.00    -0.464 A  
HETATM   23  O   UNL     1      -9.384   7.275  66.689  1.00  0.00    -0.159 OA 
HETATM   24  C   UNL     1     -11.229   9.195  71.420  1.00  0.00    -0.419 A  
ENDBRANCH   2   4
TORSDOF 1
ENDMDL
MODEL       49
REMARK 921   NORMALIZED FREE ENERGY PREDICTED BY IDOCK:   -5.00 KCAL/MOL
REMARK 922        TOTAL FREE ENERGY PREDICTED BY IDOCK:   -5.62 KCAL/MOL
REMARK 923 INTER-LIGAND FREE ENERGY PREDICTED BY IDOCK:   -5.66 KCAL/MOL
REMARK 924 INTRA-LIGAND FREE ENERGY PREDICTED BY IDOCK:    0.04 KCAL/MOL
REMARK 927      BINDING AFFINITY PREDICTED BY RF-SCORE:    0.00 PKD
ROOT
HETATM    1  C   UNL     1     -11.483  14.940  64.808  1.00  0.00    -0.410 C  
HETATM    2  C   UNL     1     -12.452  13.939  65.379  1.00  0.00    -0.501 C  
HETATM    3  O   UNL     1     -13.660  14.178  65.438  1.00  0.00    -0.568 OA 
ENDROOT
BRANCH   2   4
HETATM    4  C   UNL     1     -11.901  12.617  65.880  1.00  0.00    -0.499 C  
HETATM    5  C   UNL     1     -10.384  12.658  66.131  1.00  0.00    -0.273 C  
HETATM    6  C   UNL     1      -9.899  13.675  67.170  1.00  0.00    -0.242 A  
HETATM    7  C   UNL     1      -9.864  11.229  66.360  1.00  0.00    -0.243 C  
HETATM    8  C   UNL     1     -10.702  14.161  68.215  1.00  0.00    -0.256 A  
HETATM    9  C   UNL     1      -9.677  10.582  67.526  1.00  0.00    -0.166 C  
HETATM   10  C   UNL     1      -9.045   9.264  67.561  1.00  0.00    -0.133 A  
HETATM   11  O   UNL     1     -10.054  11.041  68.767  1.00  0.00    -0.190 OA 
HETATM   12  C   UNL     1     -10.176  15.032  69.176  1.00  0.00    -0.241 A  
HETATM   13  H   UNL     1      -9.922  10.585  69.590  1.00  0.00     0.000 HD 
HETATM   14  C   UNL     1      -8.871   8.576  66.370  1.00  0.00    -0.150 A  
HETATM   15  C   UNL     1      -8.856  15.458  69.085  1.00  0.00    -0.249 A  
HETATM   16  C   UNL     1      -8.320   7.295  66.330  1.00  0.00    -0.124 A  
HETATM   17  O   UNL     1      -9.201   9.173  65.148  1.00  0.00    -0.219 OA 
HETATM   18  C   UNL     1      -8.056  15.023  68.034  1.00  0.00    -0.132 A  
HETATM   19  C   UNL     1      -8.570  14.132  67.090  1.00  0.00    -0.230 A  
HETATM   20  C   UNL     1      -9.535  10.517  65.083  1.00  0.00    -0.233 C  
HETATM   21  C   UNL     1      -7.882   6.705  67.514  1.00  0.00    -0.111 A  
HETATM   22  C   UNL     1      -8.002   7.396  68.719  1.00  0.00    -0.123 A  
HETATM   23  O   UNL     1      -9.635  11.081  63.996  1.00  0.00    -0.234 OA 
HETATM   24  C   UNL     1      -8.593   8.664  68.744  1.00  0.00    -0.130 A  
ENDBRANCH   2   4
TORSDOF 1
ENDMDL
MODEL       50
REMARK 921   NORMALIZED FREE ENERGY PREDICTED BY IDOCK:   -4.99 KCAL/MOL
REMARK 922        TOTAL FREE ENERGY PREDICTED BY IDOCK:   -5.60 KCAL/MOL
REMARK 923 INTER-LIGAND FREE ENERGY PREDICTED BY IDOCK:   -5.30 KCAL/MOL
REMARK 924 INTRA-LIGAND FREE ENERGY PREDICTED BY IDOCK:   -0.31 KCAL/MOL
REMARK 927      BINDING AFFINITY PREDICTED BY RF-SCORE:    0.00 PKD
ROOT
HETATM    1  C   UNL     1     -10.753   4.795  65.790  1.00  0.00    -0.220 C  
HETATM    2  C   UNL     1     -10.441   5.358  67.152  1.00  0.00    -0.235 C  
HETATM    3  O   UNL     1      -9.781   4.719  67.973  1.00  0.00    -0.147 OA 
ENDROOT
BRANCH   2   4
HETATM    4  C   UNL     1     -10.961   6.743  67.488  1.00  0.00    -0.375 C  
HETATM    5  C   UNL     1      -9.876   7.664  68.074  1.00  0.00    -0.188 C  
HETATM    6  C   UNL     1      -8.664   7.936  67.175  1.00  0.00    -0.133 A  
HETATM    7  C   UNL     1     -10.533   8.933  68.643  1.00  0.00    -0.223 C  
HETATM    8  C   UNL     1      -8.703   7.856  65.773  1.00  0.00    -0.163 A  
HETATM    9  C   UNL     1     -10.713  10.124  68.042  1.00  0.00    -0.260 C  
HETATM   10  C   UNL     1     -11.242  11.268  68.785  1.00  0.00    -0.311 A  
HETATM   11  O   UNL     1     -10.458  10.402  66.720  1.00  0.00    -0.234 OA 
HETATM   12  C   UNL     1      -7.581   8.189  65.006  1.00  0.00    -0.096 A  
HETATM   13  H   UNL     1     -10.584  11.243  66.296  1.00  0.00     0.000 HD 
HETATM   14  C   UNL     1     -11.793  11.052  70.039  1.00  0.00    -0.355 A  
HETATM   15  C   UNL     1      -6.397   8.568  65.628  1.00  0.00    -0.056 A  
HETATM   16  C   UNL     1     -12.360  12.085  70.785  1.00  0.00    -0.403 A  
HETATM   17  O   UNL     1     -11.753   9.780  70.625  1.00  0.00    -0.272 OA 
HETATM   18  C   UNL     1      -6.324   8.612  67.016  1.00  0.00    -0.057 A  
HETATM   19  C   UNL     1      -7.450   8.307  67.783  1.00  0.00    -0.094 A  
HETATM   20  C   UNL     1     -11.010   8.759  70.052  1.00  0.00    -0.209 C  
HETATM   21  C   UNL     1     -12.327  13.384  70.284  1.00  0.00    -0.354 A  
HETATM   22  C   UNL     1     -11.736  13.635  69.046  1.00  0.00    -0.375 A  
HETATM   23  O   UNL     1     -10.821   7.711  70.665  1.00  0.00    -0.228 OA 
HETATM   24  C   UNL     1     -11.207  12.580  68.295  1.00  0.00    -0.309 A  
ENDBRANCH   2   4
TORSDOF 1
ENDMDL
MODEL       51
REMARK 921   NORMALIZED FREE ENERGY PREDICTED BY IDOCK:   -4.98 KCAL/MOL
REMARK 922        TOTAL FREE ENERGY PREDICTED BY IDOCK:   -5.60 KCAL/MOL
REMARK 923 INTER-LIGAND FREE ENERGY PREDICTED BY IDOCK:   -5.99 KCAL/MOL
REMARK 924 INTRA-LIGAND FREE ENERGY PREDICTED BY IDOCK:    0.39 KCAL/MOL
REMARK 927      BINDING AFFINITY PREDICTED BY RF-SCORE:    0.00 PKD
ROOT
HETATM    1  C   UNL     1     -10.785  18.953  65.845  1.00  0.00    -0.366 C  
HETATM    2  C   UNL     1     -10.454  17.570  65.346  1.00  0.00     0.052 C  
HETATM    3  O   UNL     1     -11.040  17.081  64.378  1.00  0.00    -1.144 OA 
ENDROOT
BRANCH   2   4
HETATM    4  C   UNL     1      -9.371  16.791  66.069  1.00  0.00    -0.245 C  
HETATM    5  C   UNL     1      -9.932  15.652  66.937  1.00  0.00    -0.252 C  
HETATM    6  C   UNL     1     -10.730  14.571  66.199  1.00  0.00    -0.310 A  
HETATM    7  C   UNL     1      -8.817  15.100  67.842  1.00  0.00    -0.166 C  
HETATM    8  C   UNL     1     -10.557  14.271  64.837  1.00  0.00    -0.452 A  
HETATM    9  C   UNL     1      -8.003  14.051  67.624  1.00  0.00    -0.178 C  
HETATM   10  C   UNL     1      -7.082  13.586  68.661  1.00  0.00    -0.106 A  
HETATM   11  O   UNL     1      -7.919  13.331  66.455  1.00  0.00    -0.220 OA 
HETATM   12  C   UNL     1     -11.264  13.221  64.241  1.00  0.00    -0.417 A  
HETATM   13  H   UNL     1      -7.344  12.590  66.301  1.00  0.00     0.000 HD 
HETATM   14  C   UNL     1      -6.872  14.385  69.774  1.00  0.00    -0.095 A  
HETATM   15  C   UNL     1     -12.180  12.484  64.983  1.00  0.00    -0.519 A  
HETATM   16  C   UNL     1      -5.974  14.031  70.780  1.00  0.00    -0.188 A  
HETATM   17  O   UNL     1      -7.603  15.567  69.950  1.00  0.00    -0.136 OA 
HETATM   18  C   UNL     1     -12.399  12.793  66.321  1.00  0.00    -0.120 A  
HETATM   19  C   UNL     1     -11.674  13.821  66.926  1.00  0.00    -0.424 A  
HETATM   20  C   UNL     1      -8.671  15.870  69.119  1.00  0.00    -0.256 C  
HETATM   21  C   UNL     1      -5.303  12.813  70.695  1.00  0.00    -0.157 A  
HETATM   22  C   UNL     1      -5.532  11.969  69.609  1.00  0.00    -0.078 A  
HETATM   23  O   UNL     1      -9.425  16.802  69.392  1.00  0.00    -0.140 OA 
HETATM   24  C   UNL     1      -6.408  12.359  68.591  1.00  0.00    -0.073 A  
ENDBRANCH   2   4
TORSDOF 1
ENDMDL
MODEL       52
REMARK 921   NORMALIZED FREE ENERGY PREDICTED BY IDOCK:   -4.95 KCAL/MOL
REMARK 922        TOTAL FREE ENERGY PREDICTED BY IDOCK:   -5.56 KCAL/MOL
REMARK 923 INTER-LIGAND FREE ENERGY PREDICTED BY IDOCK:   -5.37 KCAL/MOL
REMARK 924 INTRA-LIGAND FREE ENERGY PREDICTED BY IDOCK:   -0.19 KCAL/MOL
REMARK 927      BINDING AFFINITY PREDICTED BY RF-SCORE:    0.00 PKD
ROOT
HETATM    1  C   UNL     1     -14.010   9.333  71.408  1.00  0.00    -0.212 C  
HETATM    2  C   UNL     1     -12.916  10.341  71.647  1.00  0.00    -0.465 C  
HETATM    3  O   UNL     1     -13.162  11.454  72.116  1.00  0.00    -0.490 OA 
ENDROOT
BRANCH   2   4
HETATM    4  C   UNL     1     -11.494   9.948  71.296  1.00  0.00    -0.435 C  
HETATM    5  C   UNL     1     -11.230   9.943  69.780  1.00  0.00    -0.279 C  
HETATM    6  C   UNL     1     -11.430  11.280  69.057  1.00  0.00    -0.369 A  
HETATM    7  C   UNL     1      -9.876   9.272  69.497  1.00  0.00    -0.188 C  
HETATM    8  C   UNL     1     -11.323  12.530  69.690  1.00  0.00    -0.182 A  
HETATM    9  C   UNL     1      -8.670   9.850  69.342  1.00  0.00    -0.179 C  
HETATM   10  C   UNL     1      -7.504   9.062  68.943  1.00  0.00    -0.075 A  
HETATM   11  O   UNL     1      -8.387  11.181  69.547  1.00  0.00    -0.369 OA 
HETATM   12  C   UNL     1     -11.443  13.715  68.957  1.00  0.00    -0.346 A  
HETATM   13  H   UNL     1      -7.536  11.589  69.437  1.00  0.00     0.000 HD 
HETATM   14  C   UNL     1      -7.593   7.679  68.973  1.00  0.00    -0.104 A  
HETATM   15  C   UNL     1     -11.708  13.670  67.593  1.00  0.00    -0.398 A  
HETATM   16  C   UNL     1      -6.508   6.862  68.654  1.00  0.00    -0.036 A  
HETATM   17  O   UNL     1      -8.805   7.049  69.282  1.00  0.00    -0.138 OA 
HETATM   18  C   UNL     1     -11.861  12.444  66.954  1.00  0.00    -0.377 A  
HETATM   19  C   UNL     1     -11.714  11.259  67.678  1.00  0.00    -0.215 A  
HETATM   20  C   UNL     1      -9.977   7.781  69.385  1.00  0.00    -0.188 C  
HETATM   21  C   UNL     1      -5.314   7.447  68.241  1.00  0.00    -0.025 A  
HETATM   22  C   UNL     1      -5.214   8.836  68.156  1.00  0.00    -0.034 A  
HETATM   23  O   UNL     1     -11.062   7.208  69.464  1.00  0.00    -0.218 OA 
HETATM   24  C   UNL     1      -6.301   9.639  68.518  1.00  0.00    -0.047 A  
ENDBRANCH   2   4
TORSDOF 1
ENDMDL
MODEL       53
REMARK 921   NORMALIZED FREE ENERGY PREDICTED BY IDOCK:   -4.94 KCAL/MOL
REMARK 922        TOTAL FREE ENERGY PREDICTED BY IDOCK:   -5.56 KCAL/MOL
REMARK 923 INTER-LIGAND FREE ENERGY PREDICTED BY IDOCK:   -5.29 KCAL/MOL
REMARK 924 INTRA-LIGAND FREE ENERGY PREDICTED BY IDOCK:   -0.27 KCAL/MOL
REMARK 927      BINDING AFFINITY PREDICTED BY RF-SCORE:    0.00 PKD
ROOT
HETATM    1  C   UNL     1     -11.853  11.498  69.226  1.00  0.00    -0.414 C  
HETATM    2  C   UNL     1     -10.694  12.158  68.528  1.00  0.00    -0.232 C  
HETATM    3  O   UNL     1     -10.492  13.370  68.626  1.00  0.00    -0.243 OA 
ENDROOT
BRANCH   2   4
HETATM    4  C   UNL     1      -9.771  11.287  67.696  1.00  0.00    -0.183 C  
HETATM    5  C   UNL     1     -10.450  10.731  66.433  1.00  0.00    -0.293 C  
HETATM    6  C   UNL     1     -10.971  11.770  65.434  1.00  0.00    -0.352 A  
HETATM    7  C   UNL     1      -9.556   9.648  65.804  1.00  0.00    -0.329 C  
HETATM    8  C   UNL     1     -10.451  13.071  65.324  1.00  0.00    -0.318 A  
HETATM    9  C   UNL     1      -8.645   9.781  64.822  1.00  0.00    -0.179 C  
HETATM   10  C   UNL     1      -7.977   8.610  64.254  1.00  0.00    -0.148 A  
HETATM   11  O   UNL     1      -8.231  10.970  64.267  1.00  0.00    -0.361 OA 
HETATM   12  C   UNL     1     -10.921  13.948  64.340  1.00  0.00    -0.322 A  
HETATM   13  H   UNL     1      -7.588  11.063  63.573  1.00  0.00     0.000 HD 
HETATM   14  C   UNL     1      -8.098   7.392  64.905  1.00  0.00    -0.114 A  
HETATM   15  C   UNL     1     -11.939  13.553  63.479  1.00  0.00    -0.388 A  
HETATM   16  C   UNL     1      -7.451   6.244  64.450  1.00  0.00    -0.088 A  
HETATM   17  O   UNL     1      -8.926   7.263  66.027  1.00  0.00    -0.165 OA 
HETATM   18  C   UNL     1     -12.498  12.285  63.600  1.00  0.00    -0.647 A  
HETATM   19  C   UNL     1     -12.012  11.398  64.562  1.00  0.00     0.221 A  
HETATM   20  C   UNL     1      -9.776   8.293  66.402  1.00  0.00    -0.230 C  
HETATM   21  C   UNL     1      -6.700   6.304  63.279  1.00  0.00    -0.040 A  
HETATM   22  C   UNL     1      -6.602   7.506  62.579  1.00  0.00    -0.071 A  
HETATM   23  O   UNL     1     -10.634   8.107  67.262  1.00  0.00    -0.299 OA 
HETATM   24  C   UNL     1      -7.227   8.657  63.072  1.00  0.00    -0.095 A  
ENDBRANCH   2   4
TORSDOF 1
ENDMDL
MODEL       54
REMARK 921   NORMALIZED FREE ENERGY PREDICTED BY IDOCK:   -4.92 KCAL/MOL
REMARK 922        TOTAL FREE ENERGY PREDICTED BY IDOCK:   -5.53 KCAL/MOL
REMARK 923 INTER-LIGAND FREE ENERGY PREDICTED BY IDOCK:   -5.19 KCAL/MOL
REMARK 924 INTRA-LIGAND FREE ENERGY PREDICTED BY IDOCK:   -0.33 KCAL/MOL
REMARK 927      BINDING AFFINITY PREDICTED BY RF-SCORE:    0.00 PKD
ROOT
HETATM    1  C   UNL     1      -8.349   9.418  64.394  1.00  0.00    -0.170 C  
HETATM    2  C   UNL     1      -7.590   9.438  65.694  1.00  0.00    -0.095 C  
HETATM    3  O   UNL     1      -6.375   9.235  65.730  1.00  0.00    -0.065 OA 
ENDROOT
BRANCH   2   4
HETATM    4  C   UNL     1      -8.363   9.721  66.968  1.00  0.00    -0.117 C  
HETATM    5  C   UNL     1      -9.655   8.893  67.081  1.00  0.00    -0.225 C  
HETATM    6  C   UNL     1      -9.482   7.370  67.087  1.00  0.00    -0.187 A  
HETATM    7  C   UNL     1     -10.511   9.433  68.239  1.00  0.00    -0.260 C  
HETATM    8  C   UNL     1      -8.306   6.723  67.503  1.00  0.00    -0.122 A  
HETATM    9  C   UNL     1     -10.555   9.010  69.516  1.00  0.00    -0.225 C  
HETATM   10  C   UNL     1     -11.532   9.558  70.456  1.00  0.00    -0.337 A  
HETATM   11  O   UNL     1      -9.719   8.074  70.080  1.00  0.00    -0.172 OA 
HETATM   12  C   UNL     1      -8.239   5.327  67.556  1.00  0.00    -0.100 A  
HETATM   13  H   UNL     1      -9.750   7.775  70.981  1.00  0.00     0.000 HD 
HETATM   14  C   UNL     1     -12.242  10.693  70.094  1.00  0.00    -0.320 A  
HETATM   15  C   UNL     1      -9.328   4.558  67.159  1.00  0.00    -0.163 A  
HETATM   16  C   UNL     1     -13.154  11.300  70.957  1.00  0.00    -0.171 A  
HETATM   17  O   UNL     1     -12.099  11.244  68.815  1.00  0.00    -0.508 OA 
HETATM   18  C   UNL     1     -10.486   5.178  66.702  1.00  0.00    -0.328 A  
HETATM   19  C   UNL     1     -10.566   6.571  66.675  1.00  0.00    -0.241 A  
HETATM   20  C   UNL     1     -11.392  10.573  67.829  1.00  0.00    -0.190 C  
HETATM   21  C   UNL     1     -13.403  10.724  72.200  1.00  0.00    -0.314 A  
HETATM   22  C   UNL     1     -12.737   9.555  72.569  1.00  0.00    -0.207 A  
HETATM   23  O   UNL     1     -11.431  10.962  66.664  1.00  0.00    -0.233 OA 
HETATM   24  C   UNL     1     -11.797   8.983  71.706  1.00  0.00    -0.442 A  
ENDBRANCH   2   4
TORSDOF 1
ENDMDL
MODEL       55
REMARK 921   NORMALIZED FREE ENERGY PREDICTED BY IDOCK:   -4.88 KCAL/MOL
REMARK 922        TOTAL FREE ENERGY PREDICTED BY IDOCK:   -5.49 KCAL/MOL
REMARK 923 INTER-LIGAND FREE ENERGY PREDICTED BY IDOCK:   -5.31 KCAL/MOL
REMARK 924 INTRA-LIGAND FREE ENERGY PREDICTED BY IDOCK:   -0.18 KCAL/MOL
REMARK 927      BINDING AFFINITY PREDICTED BY RF-SCORE:    0.00 PKD
ROOT
HETATM    1  C   UNL     1     -10.158   4.811  69.888  1.00  0.00    -0.299 C  
HETATM    2  C   UNL     1     -10.787   5.942  70.658  1.00  0.00    -0.292 C  
HETATM    3  O   UNL     1     -11.156   5.796  71.825  1.00  0.00    -0.265 OA 
ENDROOT
BRANCH   2   4
HETATM    4  C   UNL     1     -10.952   7.278  69.958  1.00  0.00    -0.273 C  
HETATM    5  C   UNL     1     -10.095   8.392  70.582  1.00  0.00    -0.220 C  
HETATM    6  C   UNL     1      -8.580   8.161  70.577  1.00  0.00    -0.130 A  
HETATM    7  C   UNL     1     -10.525   9.753  70.009  1.00  0.00    -0.314 C  
HETATM    8  C   UNL     1      -7.923   7.335  69.650  1.00  0.00    -0.127 A  
HETATM    9  C   UNL     1     -10.000  10.426  68.968  1.00  0.00    -0.214 C  
HETATM   10  C   UNL     1     -10.453  11.778  68.642  1.00  0.00    -0.242 A  
HETATM   11  O   UNL     1      -9.037   9.950  68.108  1.00  0.00    -0.122 OA 
HETATM   12  C   UNL     1      -6.528   7.225  69.652  1.00  0.00    -0.036 A  
HETATM   13  H   UNL     1      -8.666  10.426  67.374  1.00  0.00     0.000 HD 
HETATM   14  C   UNL     1     -11.600  12.262  69.253  1.00  0.00    -0.324 A  
HETATM   15  C   UNL     1      -5.774   7.905  70.602  1.00  0.00    -0.029 A  
HETATM   16  C   UNL     1     -12.120  13.522  68.957  1.00  0.00    -0.330 A  
HETATM   17  O   UNL     1     -12.255  11.510  70.236  1.00  0.00    -0.330 OA 
HETATM   18  C   UNL     1      -6.408   8.694  71.556  1.00  0.00    -0.066 A  
HETATM   19  C   UNL     1      -7.797   8.828  71.539  1.00  0.00    -0.147 A  
HETATM   20  C   UNL     1     -11.678  10.358  70.749  1.00  0.00    -0.368 C  
HETATM   21  C   UNL     1     -11.442  14.344  68.060  1.00  0.00    -0.336 A  
HETATM   22  C   UNL     1     -10.259  13.900  67.469  1.00  0.00    -0.245 A  
HETATM   23  O   UNL     1     -12.158   9.811  71.739  1.00  0.00    -0.390 OA 
HETATM   24  C   UNL     1      -9.775  12.618  67.749  1.00  0.00    -0.206 A  
ENDBRANCH   2   4
TORSDOF 1
ENDMDL
MODEL       56
REMARK 921   NORMALIZED FREE ENERGY PREDICTED BY IDOCK:   -4.85 KCAL/MOL
REMARK 922        TOTAL FREE ENERGY PREDICTED BY IDOCK:   -5.46 KCAL/MOL
REMARK 923 INTER-LIGAND FREE ENERGY PREDICTED BY IDOCK:   -5.21 KCAL/MOL
REMARK 924 INTRA-LIGAND FREE ENERGY PREDICTED BY IDOCK:   -0.25 KCAL/MOL
REMARK 927      BINDING AFFINITY PREDICTED BY RF-SCORE:    0.00 PKD
ROOT
HETATM    1  C   UNL     1     -10.607   5.468  71.002  1.00  0.00    -0.300 C  
HETATM    2  C   UNL     1     -10.649   6.974  70.995  1.00  0.00    -0.218 C  
HETATM    3  O   UNL     1     -10.512   7.624  72.033  1.00  0.00    -0.202 OA 
ENDROOT
BRANCH   2   4
HETATM    4  C   UNL     1     -10.863   7.676  69.667  1.00  0.00    -0.195 C  
HETATM    5  C   UNL     1      -9.709   8.623  69.298  1.00  0.00    -0.173 C  
HETATM    6  C   UNL     1      -8.326   7.978  69.152  1.00  0.00    -0.132 A  
HETATM    7  C   UNL     1     -10.124   9.496  68.101  1.00  0.00    -0.214 C  
HETATM    8  C   UNL     1      -8.131   6.625  68.828  1.00  0.00    -0.119 A  
HETATM    9  C   UNL     1      -9.894   9.285  66.791  1.00  0.00    -0.225 C  
HETATM   10  C   UNL     1     -10.249  10.294  65.794  1.00  0.00    -0.289 A  
HETATM   11  O   UNL     1      -9.344   8.148  66.246  1.00  0.00    -0.195 OA 
HETATM   12  C   UNL     1      -6.842   6.114  68.637  1.00  0.00    -0.070 A  
HETATM   13  H   UNL     1      -9.181   7.999  65.322  1.00  0.00     0.000 HD 
HETATM   14  C   UNL     1     -11.053  11.357  66.178  1.00  0.00    -0.198 A  
HETATM   15  C   UNL     1      -5.733   6.936  68.802  1.00  0.00    -0.018 A  
HETATM   16  C   UNL     1     -11.473  12.331  65.272  1.00  0.00    -0.399 A  
HETATM   17  O   UNL     1     -11.434  11.515  67.516  1.00  0.00    -0.379 OA 
HETATM   18  C   UNL     1      -5.902   8.268  69.165  1.00  0.00    -0.035 A  
HETATM   19  C   UNL     1      -7.188   8.786  69.330  1.00  0.00    -0.062 A  
HETATM   20  C   UNL     1     -10.875  10.726  68.510  1.00  0.00    -0.228 C  
HETATM   21  C   UNL     1     -11.032  12.268  63.952  1.00  0.00    -0.464 A  
HETATM   22  C   UNL     1     -10.183  11.236  63.552  1.00  0.00    -0.456 A  
HETATM   23  O   UNL     1     -11.063  10.993  69.694  1.00  0.00    -0.251 OA 
HETATM   24  C   UNL     1      -9.805  10.247  64.466  1.00  0.00    -0.384 A  
ENDBRANCH   2   4
TORSDOF 1
ENDMDL
MODEL       57
REMARK 921   NORMALIZED FREE ENERGY PREDICTED BY IDOCK:   -4.83 KCAL/MOL
REMARK 922        TOTAL FREE ENERGY PREDICTED BY IDOCK:   -5.44 KCAL/MOL
REMARK 923 INTER-LIGAND FREE ENERGY PREDICTED BY IDOCK:   -5.21 KCAL/MOL
REMARK 924 INTRA-LIGAND FREE ENERGY PREDICTED BY IDOCK:   -0.23 KCAL/MOL
REMARK 927      BINDING AFFINITY PREDICTED BY RF-SCORE:    0.00 PKD
ROOT
HETATM    1  C   UNL     1      -8.458   8.049  65.447  1.00  0.00    -0.155 C  
HETATM    2  C   UNL     1      -9.562   8.777  66.168  1.00  0.00    -0.253 C  
HETATM    3  O   UNL     1     -10.571   8.186  66.558  1.00  0.00    -0.190 OA 
ENDROOT
BRANCH   2   4
HETATM    4  C   UNL     1      -9.399  10.266  66.406  1.00  0.00    -0.201 C  
HETATM    5  C   UNL     1     -10.031  10.734  67.727  1.00  0.00    -0.195 C  
HETATM    6  C   UNL     1      -9.474  10.096  69.005  1.00  0.00    -0.195 A  
HETATM    7  C   UNL     1     -10.073  12.272  67.760  1.00  0.00    -0.202 C  
HETATM    8  C   UNL     1      -8.179   9.561  69.105  1.00  0.00    -0.111 A  
HETATM    9  C   UNL     1      -9.181  13.122  68.301  1.00  0.00    -0.194 C  
HETATM   10  C   UNL     1      -9.450  14.559  68.356  1.00  0.00    -0.209 A  
HETATM   11  O   UNL     1      -7.958  12.775  68.827  1.00  0.00    -0.299 OA 
HETATM   12  C   UNL     1      -7.705   9.060  70.322  1.00  0.00    -0.098 A  
HETATM   13  H   UNL     1      -7.328  13.376  69.209  1.00  0.00     0.000 HD 
HETATM   14  C   UNL     1     -10.511  15.067  67.621  1.00  0.00    -0.247 A  
HETATM   15  C   UNL     1      -8.527   9.051  71.444  1.00  0.00    -0.149 A  
HETATM   16  C   UNL     1     -10.799  16.431  67.585  1.00  0.00    -0.280 A  
HETATM   17  O   UNL     1     -11.368  14.209  66.922  1.00  0.00    -0.307 OA 
HETATM   18  C   UNL     1      -9.828   9.536  71.355  1.00  0.00     0.012 A  
HETATM   19  C   UNL     1     -10.294  10.062  70.149  1.00  0.00    -0.321 A  
HETATM   20  C   UNL     1     -11.289  12.835  67.092  1.00  0.00    -0.314 C  
HETATM   21  C   UNL     1     -10.033  17.309  68.350  1.00  0.00    -0.322 A  
HETATM   22  C   UNL     1      -8.991  16.817  69.135  1.00  0.00    -0.115 A  
HETATM   23  O   UNL     1     -12.161  12.102  66.630  1.00  0.00    -0.622 OA 
HETATM   24  C   UNL     1      -8.693  15.450  69.127  1.00  0.00    -0.242 A  
ENDBRANCH   2   4
TORSDOF 1
ENDMDL
MODEL       58
REMARK 921   NORMALIZED FREE ENERGY PREDICTED BY IDOCK:   -4.80 KCAL/MOL
REMARK 922        TOTAL FREE ENERGY PREDICTED BY IDOCK:   -5.40 KCAL/MOL
REMARK 923 INTER-LIGAND FREE ENERGY PREDICTED BY IDOCK:   -5.06 KCAL/MOL
REMARK 924 INTRA-LIGAND FREE ENERGY PREDICTED BY IDOCK:   -0.34 KCAL/MOL
REMARK 927      BINDING AFFINITY PREDICTED BY RF-SCORE:    0.00 PKD
ROOT
HETATM    1  C   UNL     1      -6.668  14.120  69.479  1.00  0.00    -0.112 C  
HETATM    2  C   UNL     1      -6.789  13.618  68.064  1.00  0.00    -0.138 C  
HETATM    3  O   UNL     1      -6.523  14.341  67.102  1.00  0.00    -0.198 OA 
ENDROOT
BRANCH   2   4
HETATM    4  C   UNL     1      -7.246  12.187  67.851  1.00  0.00    -0.102 C  
HETATM    5  C   UNL     1      -8.630  11.904  68.460  1.00  0.00    -0.110 C  
HETATM    6  C   UNL     1      -9.791  12.744  67.917  1.00  0.00    -0.223 A  
HETATM    7  C   UNL     1      -8.894  10.388  68.453  1.00  0.00    -0.136 C  
HETATM    8  C   UNL     1      -9.796  13.328  66.640  1.00  0.00    -0.276 A  
HETATM    9  C   UNL     1      -9.547   9.657  67.531  1.00  0.00    -0.150 C  
HETATM   10  C   UNL     1      -9.819   8.237  67.753  1.00  0.00    -0.214 A  
HETATM   11  O   UNL     1     -10.001  10.117  66.317  1.00  0.00    -0.217 OA 
HETATM   12  C   UNL     1     -10.919  14.021  66.175  1.00  0.00    -0.295 A  
HETATM   13  H   UNL     1     -10.463   9.600  65.666  1.00  0.00     0.000 HD 
HETATM   14  C   UNL     1      -9.181   7.592  68.801  1.00  0.00    -0.145 A  
HETATM   15  C   UNL     1     -12.035  14.173  66.991  1.00  0.00    -0.471 A  
HETATM   16  C   UNL     1      -9.353   6.229  69.045  1.00  0.00    -0.127 A  
HETATM   17  O   UNL     1      -8.369   8.308  69.690  1.00  0.00    -0.120 OA 
HETATM   18  C   UNL     1     -12.034  13.640  68.275  1.00  0.00    -0.385 A  
HETATM   19  C   UNL     1     -10.926  12.924  68.731  1.00  0.00    -0.292 A  
HETATM   20  C   UNL     1      -8.330   9.693  69.654  1.00  0.00    -0.168 C  
HETATM   21  C   UNL     1     -10.232   5.501  68.248  1.00  0.00    -0.237 A  
HETATM   22  C   UNL     1     -10.924   6.137  67.217  1.00  0.00    -0.418 A  
HETATM   23  O   UNL     1      -7.773  10.322  70.551  1.00  0.00    -0.163 OA 
HETATM   24  C   UNL     1     -10.708   7.496  66.964  1.00  0.00    -0.367 A  
ENDBRANCH   2   4
TORSDOF 1
ENDMDL
MODEL       59
REMARK 921   NORMALIZED FREE ENERGY PREDICTED BY IDOCK:   -4.78 KCAL/MOL
REMARK 922        TOTAL FREE ENERGY PREDICTED BY IDOCK:   -5.38 KCAL/MOL
REMARK 923 INTER-LIGAND FREE ENERGY PREDICTED BY IDOCK:   -5.22 KCAL/MOL
REMARK 924 INTRA-LIGAND FREE ENERGY PREDICTED BY IDOCK:   -0.16 KCAL/MOL
REMARK 927      BINDING AFFINITY PREDICTED BY RF-SCORE:    0.00 PKD
ROOT
HETATM    1  C   UNL     1      -8.827   7.596  65.717  1.00  0.00    -0.134 C  
HETATM    2  C   UNL     1      -9.976   8.217  66.468  1.00  0.00    -0.250 C  
HETATM    3  O   UNL     1     -10.871   7.526  66.957  1.00  0.00    -0.348 OA 
ENDROOT
BRANCH   2   4
HETATM    4  C   UNL     1     -10.001   9.727  66.610  1.00  0.00    -0.292 C  
HETATM    5  C   UNL     1      -9.815  10.195  68.063  1.00  0.00    -0.169 C  
HETATM    6  C   UNL     1      -8.502   9.786  68.741  1.00  0.00    -0.122 A  
HETATM    7  C   UNL     1     -10.132  11.697  68.164  1.00  0.00    -0.202 C  
HETATM    8  C   UNL     1      -7.321   9.500  68.037  1.00  0.00    -0.082 A  
HETATM    9  C   UNL     1      -9.281  12.739  68.098  1.00  0.00    -0.212 C  
HETATM   10  C   UNL     1      -9.744  14.103  68.347  1.00  0.00    -0.226 A  
HETATM   11  O   UNL     1      -7.944  12.663  67.784  1.00  0.00    -0.133 OA 
HETATM   12  C   UNL     1      -6.135   9.205  68.719  1.00  0.00    -0.044 A  
HETATM   13  H   UNL     1      -7.343  13.398  67.738  1.00  0.00     0.000 HD 
HETATM   14  C   UNL     1     -11.108  14.346  68.400  1.00  0.00    -0.255 A  
HETATM   15  C   UNL     1      -6.122   9.153  70.109  1.00  0.00    -0.035 A  
HETATM   16  C   UNL     1     -11.624  15.628  68.586  1.00  0.00    -0.391 A  
HETATM   17  O   UNL     1     -12.023  13.289  68.319  1.00  0.00    -0.342 OA 
HETATM   18  C   UNL     1      -7.291   9.390  70.824  1.00  0.00    -0.126 A  
HETATM   19  C   UNL     1      -8.469   9.712  70.146  1.00  0.00    -0.231 A  
HETATM   20  C   UNL     1     -11.590  11.972  68.364  1.00  0.00    -0.311 C  
HETATM   21  C   UNL     1     -10.748  16.694  68.775  1.00  0.00    -0.342 A  
HETATM   22  C   UNL     1      -9.371  16.469  68.774  1.00  0.00    -0.247 A  
HETATM   23  O   UNL     1     -12.401  11.057  68.487  1.00  0.00    -0.536 OA 
HETATM   24  C   UNL     1      -8.872  15.182  68.547  1.00  0.00    -0.185 A  
ENDBRANCH   2   4
TORSDOF 1
ENDMDL
MODEL       60
REMARK 921   NORMALIZED FREE ENERGY PREDICTED BY IDOCK:   -4.74 KCAL/MOL
REMARK 922        TOTAL FREE ENERGY PREDICTED BY IDOCK:   -5.34 KCAL/MOL
REMARK 923 INTER-LIGAND FREE ENERGY PREDICTED BY IDOCK:   -5.05 KCAL/MOL
REMARK 924 INTRA-LIGAND FREE ENERGY PREDICTED BY IDOCK:   -0.29 KCAL/MOL
REMARK 927      BINDING AFFINITY PREDICTED BY RF-SCORE:    0.00 PKD
ROOT
HETATM    1  C   UNL     1      -8.964  11.073  65.375  1.00  0.00    -0.192 C  
HETATM    2  C   UNL     1      -9.714  11.896  66.389  1.00  0.00    -0.221 C  
HETATM    3  O   UNL     1     -10.360  11.365  67.294  1.00  0.00    -0.189 OA 
ENDROOT
BRANCH   2   4
HETATM    4  C   UNL     1      -9.649  13.408  66.270  1.00  0.00    -0.245 C  
HETATM    5  C   UNL     1      -9.185  14.091  67.568  1.00  0.00    -0.197 C  
HETATM    6  C   UNL     1      -7.791  13.704  68.073  1.00  0.00    -0.150 A  
HETATM    7  C   UNL     1      -9.415  15.608  67.459  1.00  0.00    -0.214 C  
HETATM    8  C   UNL     1      -6.768  13.223  67.239  1.00  0.00     0.062 A  
HETATM    9  C   UNL     1      -8.547  16.561  67.070  1.00  0.00    -0.193 C  
HETATM   10  C   UNL     1      -8.899  17.978  67.154  1.00  0.00    -0.249 A  
HETATM   11  O   UNL     1      -7.292  16.339  66.552  1.00  0.00    -0.214 OA 
HETATM   12  C   UNL     1      -5.493  12.958  67.751  1.00  0.00    -0.123 A  
HETATM   13  H   UNL     1      -6.679  17.012  66.278  1.00  0.00     0.000 HD 
HETATM   14  C   UNL     1     -10.220  18.324  67.396  1.00  0.00    -0.371 A  
HETATM   15  C   UNL     1      -5.233  13.132  69.106  1.00  0.00    -0.069 A  
HETATM   16  C   UNL     1     -10.640  19.653  67.442  1.00  0.00    -0.589 A  
HETATM   17  O   UNL     1     -11.178  17.336  67.655  1.00  0.00    -0.118 OA 
HETATM   18  C   UNL     1      -6.244  13.566  69.957  1.00  0.00    -0.098 A  
HETATM   19  C   UNL     1      -7.509  13.858  69.444  1.00  0.00     0.190 A  
HETATM   20  C   UNL     1     -10.801  16.017  67.854  1.00  0.00    -0.333 C  
HETATM   21  C   UNL     1      -9.699  20.669  67.292  1.00  0.00    -0.562 A  
HETATM   22  C   UNL     1      -8.356  20.348  67.096  1.00  0.00    -0.382 A  
HETATM   23  O   UNL     1     -11.615  15.194  68.269  1.00  0.00    -0.325 OA 
HETATM   24  C   UNL     1      -7.961  19.009  67.014  1.00  0.00    -0.269 A  
ENDBRANCH   2   4
TORSDOF 1
ENDMDL
MODEL       61
REMARK 921   NORMALIZED FREE ENERGY PREDICTED BY IDOCK:   -4.68 KCAL/MOL
REMARK 922        TOTAL FREE ENERGY PREDICTED BY IDOCK:   -5.28 KCAL/MOL
REMARK 923 INTER-LIGAND FREE ENERGY PREDICTED BY IDOCK:   -5.12 KCAL/MOL
REMARK 924 INTRA-LIGAND FREE ENERGY PREDICTED BY IDOCK:   -0.16 KCAL/MOL
REMARK 927      BINDING AFFINITY PREDICTED BY RF-SCORE:    0.00 PKD
ROOT
HETATM    1  C   UNL     1      -9.038  18.017  67.425  1.00  0.00    -0.250 C  
HETATM    2  C   UNL     1      -8.014  17.449  66.478  1.00  0.00    -0.281 C  
HETATM    3  O   UNL     1      -7.642  18.077  65.484  1.00  0.00    -0.530 OA 
ENDROOT
BRANCH   2   4
HETATM    4  C   UNL     1      -7.444  16.077  66.782  1.00  0.00    -0.218 C  
HETATM    5  C   UNL     1      -8.425  15.178  67.554  1.00  0.00    -0.185 C  
HETATM    6  C   UNL     1      -9.756  14.876  66.855  1.00  0.00    -0.248 A  
HETATM    7  C   UNL     1      -7.685  13.930  68.064  1.00  0.00    -0.151 C  
HETATM    8  C   UNL     1      -9.926  14.906  65.461  1.00  0.00    -0.392 A  
HETATM    9  C   UNL     1      -7.591  12.718  67.485  1.00  0.00    -0.162 C  
HETATM   10  C   UNL     1      -6.953  11.601  68.181  1.00  0.00    -0.071 A  
HETATM   11  O   UNL     1      -8.039  12.393  66.226  1.00  0.00    -0.351 OA 
HETATM   12  C   UNL     1     -11.147  14.546  64.882  1.00  0.00    -0.401 A  
HETATM   13  H   UNL     1      -7.972  11.537  65.818  1.00  0.00     0.000 HD 
HETATM   14  C   UNL     1      -6.222  11.861  69.331  1.00  0.00    -0.108 A  
HETATM   15  C   UNL     1     -12.225  14.190  65.686  1.00  0.00    -0.449 A  
HETATM   16  C   UNL     1      -5.546  10.855  70.021  1.00  0.00    -0.068 A  
HETATM   17  O   UNL     1      -6.181  13.152  69.871  1.00  0.00    -0.133 OA 
HETATM   18  C   UNL     1     -12.091  14.196  67.070  1.00  0.00    -0.449 A  
HETATM   19  C   UNL     1     -10.865  14.527  67.650  1.00  0.00    -0.275 A  
HETATM   20  C   UNL     1      -7.005  14.153  69.380  1.00  0.00    -0.078 C  
HETATM   21  C   UNL     1      -5.647   9.539  69.576  1.00  0.00    -0.034 A  
HETATM   22  C   UNL     1      -6.415   9.244  68.449  1.00  0.00    -0.054 A  
HETATM   23  O   UNL     1      -7.106  15.223  69.976  1.00  0.00    -0.147 OA 
HETATM   24  C   UNL     1      -7.054  10.272  67.749  1.00  0.00    -0.085 A  
ENDBRANCH   2   4
TORSDOF 1
ENDMDL
MODEL       62
REMARK 921   NORMALIZED FREE ENERGY PREDICTED BY IDOCK:   -4.68 KCAL/MOL
REMARK 922        TOTAL FREE ENERGY PREDICTED BY IDOCK:   -5.28 KCAL/MOL
REMARK 923 INTER-LIGAND FREE ENERGY PREDICTED BY IDOCK:   -5.60 KCAL/MOL
REMARK 924 INTRA-LIGAND FREE ENERGY PREDICTED BY IDOCK:    0.32 KCAL/MOL
REMARK 927      BINDING AFFINITY PREDICTED BY RF-SCORE:    0.00 PKD
ROOT
HETATM    1  C   UNL     1     -10.292  10.728  64.007  1.00  0.00    -0.357 C  
HETATM    2  C   UNL     1     -11.078  11.951  64.403  1.00  0.00    -0.336 C  
HETATM    3  O   UNL     1     -12.307  11.978  64.319  1.00  0.00    -0.362 OA 
ENDROOT
BRANCH   2   4
HETATM    4  C   UNL     1     -10.312  13.157  64.915  1.00  0.00    -0.352 C  
HETATM    5  C   UNL     1     -10.157  13.163  66.445  1.00  0.00    -0.281 C  
HETATM    6  C   UNL     1      -9.411  11.970  67.053  1.00  0.00    -0.191 A  
HETATM    7  C   UNL     1      -9.629  14.533  66.902  1.00  0.00    -0.258 C  
HETATM    8  C   UNL     1      -8.467  11.203  66.348  1.00  0.00    -0.167 A  
HETATM    9  C   UNL     1      -8.356  14.906  67.131  1.00  0.00    -0.221 C  
HETATM   10  C   UNL     1      -8.047  16.221  67.692  1.00  0.00    -0.161 A  
HETATM   11  O   UNL     1      -7.238  14.150  66.864  1.00  0.00    -0.321 OA 
HETATM   12  C   UNL     1      -7.765  10.173  66.984  1.00  0.00    -0.096 A  
HETATM   13  H   UNL     1      -6.340  14.413  67.026  1.00  0.00     0.000 HD 
HETATM   14  C   UNL     1      -9.053  17.174  67.749  1.00  0.00    -0.233 A  
HETATM   15  C   UNL     1      -8.022   9.870  68.316  1.00  0.00    -0.100 A  
HETATM   16  C   UNL     1      -8.822  18.465  68.226  1.00  0.00    -0.323 A  
HETATM   17  O   UNL     1     -10.362  16.852  67.370  1.00  0.00    -0.296 OA 
HETATM   18  C   UNL     1      -8.983  10.588  69.020  1.00  0.00    -0.183 A  
HETATM   19  C   UNL     1      -9.665  11.634  68.396  1.00  0.00    -0.199 A  
HETATM   20  C   UNL     1     -10.720  15.539  67.105  1.00  0.00    -0.315 C  
HETATM   21  C   UNL     1      -7.558  18.796  68.709  1.00  0.00    -0.343 A  
HETATM   22  C   UNL     1      -6.542  17.840  68.708  1.00  0.00    -0.227 A  
HETATM   23  O   UNL     1     -11.902  15.235  66.963  1.00  0.00    -0.133 OA 
HETATM   24  C   UNL     1      -6.783  16.563  68.190  1.00  0.00    -0.145 A  
ENDBRANCH   2   4
TORSDOF 1
ENDMDL
MODEL       63
REMARK 921   NORMALIZED FREE ENERGY PREDICTED BY IDOCK:   -4.66 KCAL/MOL
REMARK 922        TOTAL FREE ENERGY PREDICTED BY IDOCK:   -5.26 KCAL/MOL
REMARK 923 INTER-LIGAND FREE ENERGY PREDICTED BY IDOCK:   -4.92 KCAL/MOL
REMARK 924 INTRA-LIGAND FREE ENERGY PREDICTED BY IDOCK:   -0.33 KCAL/MOL
REMARK 927      BINDING AFFINITY PREDICTED BY RF-SCORE:    0.00 PKD
ROOT
HETATM    1  C   UNL     1      -6.905   8.753  64.543  1.00  0.00    -0.077 C  
HETATM    2  C   UNL     1      -6.613   8.988  66.002  1.00  0.00    -0.065 C  
HETATM    3  O   UNL     1      -5.743   8.345  66.593  1.00  0.00    -0.041 OA 
ENDROOT
BRANCH   2   4
HETATM    4  C   UNL     1      -7.420  10.046  66.730  1.00  0.00    -0.096 C  
HETATM    5  C   UNL     1      -8.932   9.761  66.715  1.00  0.00    -0.156 C  
HETATM    6  C   UNL     1      -9.377   8.447  67.368  1.00  0.00    -0.178 A  
HETATM    7  C   UNL     1      -9.692  11.000  67.217  1.00  0.00    -0.188 C  
HETATM    8  C   UNL     1      -8.643   7.788  68.368  1.00  0.00    -0.128 A  
HETATM    9  C   UNL     1     -10.119  11.273  68.464  1.00  0.00    -0.204 C  
HETATM   10  C   UNL     1     -10.948  12.448  68.734  1.00  0.00    -0.287 A  
HETATM   11  O   UNL     1      -9.831  10.536  69.589  1.00  0.00    -0.368 OA 
HETATM   12  C   UNL     1      -9.141   6.631  68.976  1.00  0.00    -0.133 A  
HETATM   13  H   UNL     1     -10.133  10.729  70.470  1.00  0.00     0.000 HD 
HETATM   14  C   UNL     1     -11.079  13.413  67.748  1.00  0.00    -0.268 A  
HETATM   15  C   UNL     1     -10.358   6.095  68.568  1.00  0.00    -0.248 A  
HETATM   16  C   UNL     1     -11.813  14.582  67.950  1.00  0.00    -0.370 A  
HETATM   17  O   UNL     1     -10.512  13.219  66.482  1.00  0.00    -0.275 OA 
HETATM   18  C   UNL     1     -11.081   6.707  67.550  1.00  0.00    -0.374 A  
HETATM   19  C   UNL     1     -10.599   7.878  66.961  1.00  0.00    -0.381 A  
HETATM   20  C   UNL     1      -9.968  11.994  66.130  1.00  0.00    -0.231 C  
HETATM   21  C   UNL     1     -12.479  14.766  69.159  1.00  0.00     0.000 A  
HETATM   22  C   UNL     1     -12.403  13.788  70.150  1.00  0.00    -0.390 A  
HETATM   23  O   UNL     1      -9.648  11.768  64.964  1.00  0.00    -0.218 OA 
HETATM   24  C   UNL     1     -11.630  12.640  69.943  1.00  0.00    -0.248 A  
ENDBRANCH   2   4
TORSDOF 1
ENDMDL
MODEL       64
REMARK 921   NORMALIZED FREE ENERGY PREDICTED BY IDOCK:   -4.62 KCAL/MOL
REMARK 922        TOTAL FREE ENERGY PREDICTED BY IDOCK:   -5.21 KCAL/MOL
REMARK 923 INTER-LIGAND FREE ENERGY PREDICTED BY IDOCK:   -4.91 KCAL/MOL
REMARK 924 INTRA-LIGAND FREE ENERGY PREDICTED BY IDOCK:   -0.30 KCAL/MOL
REMARK 927      BINDING AFFINITY PREDICTED BY RF-SCORE:    0.00 PKD
ROOT
HETATM    1  C   UNL     1     -10.411  14.250  64.905  1.00  0.00    -0.454 C  
HETATM    2  C   UNL     1     -10.603  14.244  66.398  1.00  0.00    -0.286 C  
HETATM    3  O   UNL     1     -10.667  15.294  67.040  1.00  0.00    -0.302 OA 
ENDROOT
BRANCH   2   4
HETATM    4  C   UNL     1     -10.720  12.903  67.098  1.00  0.00    -0.268 C  
HETATM    5  C   UNL     1      -9.438  12.060  66.995  1.00  0.00    -0.199 C  
HETATM    6  C   UNL     1      -8.173  12.680  67.600  1.00  0.00    -0.174 A  
HETATM    7  C   UNL     1      -9.726  10.627  67.474  1.00  0.00    -0.189 C  
HETATM    8  C   UNL     1      -8.192  13.637  68.629  1.00  0.00    -0.058 A  
HETATM    9  C   UNL     1      -9.545  10.101  68.700  1.00  0.00    -0.163 C  
HETATM   10  C   UNL     1      -9.751   8.674  68.943  1.00  0.00    -0.171 A  
HETATM   11  O   UNL     1      -9.183  10.801  69.827  1.00  0.00    -0.375 OA 
HETATM   12  C   UNL     1      -7.000  14.108  69.189  1.00  0.00    -0.111 A  
HETATM   13  H   UNL     1      -9.055  10.430  70.693  1.00  0.00     0.000 HD 
HETATM   14  C   UNL     1     -10.377   7.914  67.967  1.00  0.00    -0.209 A  
HETATM   15  C   UNL     1      -5.775  13.660  68.706  1.00  0.00    -0.083 A  
HETATM   16  C   UNL     1     -10.651   6.559  68.147  1.00  0.00    -0.307 A  
HETATM   17  O   UNL     1     -10.715   8.481  66.731  1.00  0.00    -0.238 OA 
HETATM   18  C   UNL     1      -5.733  12.745  67.659  1.00  0.00    -0.134 A  
HETATM   19  C   UNL     1      -6.921  12.253  67.117  1.00  0.00    -0.102 A  
HETATM   20  C   UNL     1     -10.273   9.750  66.390  1.00  0.00    -0.217 C  
HETATM   21  C   UNL     1     -10.238   5.931  69.320  1.00  0.00    -0.275 A  
HETATM   22  C   UNL     1      -9.564   6.662  70.298  1.00  0.00    -0.169 A  
HETATM   23  O   UNL     1     -10.406  10.165  65.240  1.00  0.00    -0.266 OA 
HETATM   24  C   UNL     1      -9.333   8.030  70.115  1.00  0.00    -0.156 A  
ENDBRANCH   2   4
TORSDOF 1
ENDMDL
MODEL       65
REMARK 921   NORMALIZED FREE ENERGY PREDICTED BY IDOCK:   -4.56 KCAL/MOL
REMARK 922        TOTAL FREE ENERGY PREDICTED BY IDOCK:   -5.15 KCAL/MOL
REMARK 923 INTER-LIGAND FREE ENERGY PREDICTED BY IDOCK:   -4.88 KCAL/MOL
REMARK 924 INTRA-LIGAND FREE ENERGY PREDICTED BY IDOCK:   -0.27 KCAL/MOL
REMARK 927      BINDING AFFINITY PREDICTED BY RF-SCORE:    0.00 PKD
ROOT
HETATM    1  C   UNL     1      -6.176  13.969  70.198  1.00  0.00    -0.138 C  
HETATM    2  C   UNL     1      -6.783  15.082  69.385  1.00  0.00    -0.158 C  
HETATM    3  O   UNL     1      -6.655  16.262  69.719  1.00  0.00    -0.205 OA 
ENDROOT
BRANCH   2   4
HETATM    4  C   UNL     1      -7.558  14.713  68.135  1.00  0.00    -0.123 C  
HETATM    5  C   UNL     1      -8.871  13.973  68.441  1.00  0.00    -0.180 C  
HETATM    6  C   UNL     1      -9.893  14.735  69.293  1.00  0.00    -0.123 A  
HETATM    7  C   UNL     1      -9.449  13.392  67.139  1.00  0.00    -0.244 C  
HETATM    8  C   UNL     1      -9.952  16.137  69.365  1.00  0.00    -0.243 A  
HETATM    9  C   UNL     1     -10.365  13.933  66.315  1.00  0.00    -0.293 C  
HETATM   10  C   UNL     1     -10.898  13.175  65.183  1.00  0.00    -0.321 A  
HETATM   11  O   UNL     1     -10.876  15.206  66.409  1.00  0.00    -0.319 OA 
HETATM   12  C   UNL     1     -10.956  16.773  70.103  1.00  0.00     0.022 A  
HETATM   13  H   UNL     1     -11.523  15.588  65.827  1.00  0.00     0.000 HD 
HETATM   14  C   UNL     1     -10.271  11.994  64.816  1.00  0.00    -0.279 A  
HETATM   15  C   UNL     1     -11.889  16.021  70.808  1.00  0.00    -0.372 A  
HETATM   16  C   UNL     1     -10.692  11.242  63.720  1.00  0.00    -0.448 A  
HETATM   17  O   UNL     1      -9.210  11.485  65.576  1.00  0.00    -0.211 OA 
HETATM   18  C   UNL     1     -11.822  14.632  70.786  1.00  0.00    -0.372 A  
HETATM   19  C   UNL     1     -10.838  13.995  70.028  1.00  0.00     0.255 A  
HETATM   20  C   UNL     1      -8.883  12.046  66.801  1.00  0.00    -0.198 C  
HETATM   21  C   UNL     1     -11.809  11.658  62.998  1.00  0.00     0.080 A  
HETATM   22  C   UNL     1     -12.487  12.817  63.376  1.00  0.00    -0.438 A  
HETATM   23  O   UNL     1      -8.086  11.484  67.549  1.00  0.00    -0.126 OA 
HETATM   24  C   UNL     1     -12.025  13.578  64.456  1.00  0.00    -0.451 A  
ENDBRANCH   2   4
TORSDOF 1
ENDMDL
MODEL       66
REMARK 921   NORMALIZED FREE ENERGY PREDICTED BY IDOCK:   -4.55 KCAL/MOL
REMARK 922        TOTAL FREE ENERGY PREDICTED BY IDOCK:   -5.14 KCAL/MOL
REMARK 923 INTER-LIGAND FREE ENERGY PREDICTED BY IDOCK:   -4.79 KCAL/MOL
REMARK 924 INTRA-LIGAND FREE ENERGY PREDICTED BY IDOCK:   -0.35 KCAL/MOL
REMARK 927      BINDING AFFINITY PREDICTED BY RF-SCORE:    0.00 PKD
ROOT
HETATM    1  C   UNL     1      -9.636  11.614  67.943  1.00  0.00    -0.180 C  
HETATM    2  C   UNL     1     -10.853  10.738  67.806  1.00  0.00    -0.269 C  
HETATM    3  O   UNL     1     -11.990  11.192  67.956  1.00  0.00    -0.625 OA 
ENDROOT
BRANCH   2   4
HETATM    4  C   UNL     1     -10.645   9.273  67.474  1.00  0.00    -0.329 C  
HETATM    5  C   UNL     1      -9.625   8.588  68.400  1.00  0.00    -0.157 C  
HETATM    6  C   UNL     1      -9.969   8.580  69.894  1.00  0.00    -0.189 A  
HETATM    7  C   UNL     1      -9.262   7.206  67.832  1.00  0.00    -0.129 C  
HETATM    8  C   UNL     1     -11.281   8.664  70.390  1.00  0.00    -0.236 A  
HETATM    9  C   UNL     1      -9.800   6.009  68.133  1.00  0.00    -0.131 C  
HETATM   10  C   UNL     1      -9.237   4.774  67.588  1.00  0.00    -0.144 A  
HETATM   11  O   UNL     1     -10.901   5.802  68.932  1.00  0.00    -0.275 OA 
HETATM   12  C   UNL     1     -11.534   8.576  71.763  1.00  0.00    -0.378 A  
HETATM   13  H   UNL     1     -11.280   4.958  69.144  1.00  0.00     0.000 HD 
HETATM   14  C   UNL     1      -8.309   4.860  66.562  1.00  0.00    -0.107 A  
HETATM   15  C   UNL     1     -10.481   8.441  72.661  1.00  0.00    -0.317 A  
HETATM   16  C   UNL     1      -7.765   3.725  65.960  1.00  0.00    -0.089 A  
HETATM   17  O   UNL     1      -7.844   6.106  66.125  1.00  0.00    -0.100 OA 
HETATM   18  C   UNL     1      -9.172   8.399  72.195  1.00  0.00    -0.313 A  
HETATM   19  C   UNL     1      -8.918   8.459  70.823  1.00  0.00    -0.178 A  
HETATM   20  C   UNL     1      -8.159   7.264  66.821  1.00  0.00    -0.119 C  
HETATM   21  C   UNL     1      -8.122   2.466  66.434  1.00  0.00    -0.084 A  
HETATM   22  C   UNL     1      -9.018   2.353  67.498  1.00  0.00    -0.187 A  
HETATM   23  O   UNL     1      -7.597   8.323  66.550  1.00  0.00    -0.089 OA 
HETATM   24  C   UNL     1      -9.582   3.502  68.063  1.00  0.00    -0.166 A  
ENDBRANCH   2   4
TORSDOF 1
ENDMDL
MODEL       67
REMARK 921   NORMALIZED FREE ENERGY PREDICTED BY IDOCK:   -4.53 KCAL/MOL
REMARK 922        TOTAL FREE ENERGY PREDICTED BY IDOCK:   -5.12 KCAL/MOL
REMARK 923 INTER-LIGAND FREE ENERGY PREDICTED BY IDOCK:   -4.81 KCAL/MOL
REMARK 924 INTRA-LIGAND FREE ENERGY PREDICTED BY IDOCK:   -0.31 KCAL/MOL
REMARK 927      BINDING AFFINITY PREDICTED BY RF-SCORE:    0.00 PKD
ROOT
HETATM    1  C   UNL     1     -10.161   1.926  72.290  1.00  0.00    -0.231 C  
HETATM    2  C   UNL     1      -9.952   3.265  72.947  1.00  0.00    -0.145 C  
HETATM    3  O   UNL     1      -9.356   3.365  74.022  1.00  0.00    -0.092 OA 
ENDROOT
BRANCH   2   4
HETATM    4  C   UNL     1     -10.494   4.496  72.247  1.00  0.00    -0.215 C  
HETATM    5  C   UNL     1      -9.476   5.647  72.185  1.00  0.00    -0.166 C  
HETATM    6  C   UNL     1      -8.167   5.351  71.444  1.00  0.00    -0.117 A  
HETATM    7  C   UNL     1     -10.182   6.933  71.723  1.00  0.00    -0.206 C  
HETATM    8  C   UNL     1      -8.047   4.376  70.439  1.00  0.00    -0.066 A  
HETATM    9  C   UNL     1     -10.281   7.432  70.476  1.00  0.00    -0.193 C  
HETATM   10  C   UNL     1     -10.881   8.744  70.238  1.00  0.00    -0.252 A  
HETATM   11  O   UNL     1      -9.874   6.800  69.324  1.00  0.00    -0.153 OA 
HETATM   12  C   UNL     1      -6.842   4.206  69.749  1.00  0.00    -0.041 A  
HETATM   13  H   UNL     1      -9.945   7.152  68.444  1.00  0.00     0.000 HD 
HETATM   14  C   UNL     1     -11.574   9.359  71.271  1.00  0.00    -0.364 A  
HETATM   15  C   UNL     1      -5.732   4.978  70.077  1.00  0.00    -0.016 A  
HETATM   16  C   UNL     1     -12.213  10.587  71.104  1.00  0.00    -0.496 A  
HETATM   17  O   UNL     1     -11.612   8.780  72.545  1.00  0.00    -0.317 OA 
HETATM   18  C   UNL     1      -5.818   5.918  71.098  1.00  0.00    -0.025 A  
HETATM   19  C   UNL     1      -7.026   6.109  71.769  1.00  0.00    -0.077 A  
HETATM   20  C   UNL     1     -10.817   7.686  72.851  1.00  0.00    -0.389 C  
HETATM   21  C   UNL     1     -12.112  11.247  69.881  1.00  0.00    -0.414 A  
HETATM   22  C   UNL     1     -11.381  10.673  68.842  1.00  0.00    -0.337 A  
HETATM   23  O   UNL     1     -10.709   7.303  74.014  1.00  0.00    -0.288 OA 
HETATM   24  C   UNL     1     -10.779   9.422  69.016  1.00  0.00    -0.209 A  
ENDBRANCH   2   4
TORSDOF 1
ENDMDL
MODEL       68
REMARK 921   NORMALIZED FREE ENERGY PREDICTED BY IDOCK:   -4.52 KCAL/MOL
REMARK 922        TOTAL FREE ENERGY PREDICTED BY IDOCK:   -5.10 KCAL/MOL
REMARK 923 INTER-LIGAND FREE ENERGY PREDICTED BY IDOCK:   -4.80 KCAL/MOL
REMARK 924 INTRA-LIGAND FREE ENERGY PREDICTED BY IDOCK:   -0.30 KCAL/MOL
REMARK 927      BINDING AFFINITY PREDICTED BY RF-SCORE:    0.00 PKD
ROOT
HETATM    1  C   UNL     1      -6.874   8.245  65.200  1.00  0.00    -0.069 C  
HETATM    2  C   UNL     1      -6.956   7.916  66.668  1.00  0.00    -0.072 C  
HETATM    3  O   UNL     1      -6.009   7.398  67.263  1.00  0.00    -0.041 OA 
ENDROOT
BRANCH   2   4
HETATM    4  C   UNL     1      -8.243   8.245  67.401  1.00  0.00    -0.121 C  
HETATM    5  C   UNL     1      -8.000   8.911  68.766  1.00  0.00    -0.102 C  
HETATM    6  C   UNL     1      -7.242  10.244  68.741  1.00  0.00    -0.083 A  
HETATM    7  C   UNL     1      -9.318   8.953  69.558  1.00  0.00    -0.155 C  
HETATM    8  C   UNL     1      -7.219  11.104  67.631  1.00  0.00    -0.094 A  
HETATM    9  C   UNL     1     -10.219   9.951  69.634  1.00  0.00    -0.237 C  
HETATM   10  C   UNL     1     -11.358   9.868  70.547  1.00  0.00    -0.399 A  
HETATM   11  O   UNL     1     -10.199  11.107  68.889  1.00  0.00    -0.198 OA 
HETATM   12  C   UNL     1      -6.570  12.341  67.698  1.00  0.00    -0.122 A  
HETATM   13  H   UNL     1     -10.834  11.812  68.942  1.00  0.00     0.000 HD 
HETATM   14  C   UNL     1     -11.644   8.651  71.146  1.00  0.00    -0.281 A  
HETATM   15  C   UNL     1      -5.904  12.720  68.859  1.00  0.00    -0.071 A  
HETATM   16  C   UNL     1     -12.742   8.483  71.990  1.00  0.00    -0.421 A  
HETATM   17  O   UNL     1     -10.800   7.549  70.960  1.00  0.00    -0.230 OA 
HETATM   18  C   UNL     1      -5.878  11.864  69.955  1.00  0.00    -0.150 A  
HETATM   19  C   UNL     1      -6.548  10.641  69.900  1.00  0.00    -0.137 A  
HETATM   20  C   UNL     1      -9.575   7.694  70.328  1.00  0.00    -0.172 C  
HETATM   21  C   UNL     1     -13.549   9.579  72.285  1.00  0.00    -0.494 A  
HETATM   22  C   UNL     1     -13.254  10.826  71.733  1.00  0.00    -0.523 A  
HETATM   23  O   UNL     1      -8.759   6.775  70.337  1.00  0.00    -0.148 OA 
HETATM   24  C   UNL     1     -12.171  10.966  70.858  1.00  0.00    -0.485 A  
ENDBRANCH   2   4
TORSDOF 1
ENDMDL
MODEL       69
REMARK 921   NORMALIZED FREE ENERGY PREDICTED BY IDOCK:   -4.51 KCAL/MOL
REMARK 922        TOTAL FREE ENERGY PREDICTED BY IDOCK:   -5.09 KCAL/MOL
REMARK 923 INTER-LIGAND FREE ENERGY PREDICTED BY IDOCK:   -4.75 KCAL/MOL
REMARK 924 INTRA-LIGAND FREE ENERGY PREDICTED BY IDOCK:   -0.34 KCAL/MOL
REMARK 927      BINDING AFFINITY PREDICTED BY RF-SCORE:    0.00 PKD
ROOT
HETATM    1  C   UNL     1      -7.450   4.372  69.337  1.00  0.00    -0.055 C  
HETATM    2  C   UNL     1      -6.933   5.637  69.970  1.00  0.00    -0.065 C  
HETATM    3  O   UNL     1      -6.080   5.608  70.859  1.00  0.00    -0.027 OA 
ENDROOT
BRANCH   2   4
HETATM    4  C   UNL     1      -7.492   6.960  69.480  1.00  0.00    -0.096 C  
HETATM    5  C   UNL     1      -9.019   7.058  69.631  1.00  0.00    -0.141 C  
HETATM    6  C   UNL     1      -9.565   6.936  71.058  1.00  0.00    -0.172 A  
HETATM    7  C   UNL     1      -9.534   8.288  68.865  1.00  0.00    -0.151 C  
HETATM    8  C   UNL     1      -8.818   7.251  72.206  1.00  0.00    -0.145 A  
HETATM    9  C   UNL     1      -9.768   9.529  69.334  1.00  0.00    -0.183 C  
HETATM   10  C   UNL     1     -10.385  10.548  68.485  1.00  0.00    -0.199 A  
HETATM   11  O   UNL     1      -9.456   9.982  70.594  1.00  0.00    -0.303 OA 
HETATM   12  C   UNL     1      -9.400   7.190  73.477  1.00  0.00    -0.231 A  
HETATM   13  H   UNL     1      -9.622  10.857  70.925  1.00  0.00     0.000 HD 
HETATM   14  C   UNL     1     -10.495  10.306  67.124  1.00  0.00    -0.254 A  
HETATM   15  C   UNL     1     -10.719   6.777  73.623  1.00  0.00    -0.280 A  
HETATM   16  C   UNL     1     -11.028  11.250  66.247  1.00  0.00    -0.265 A  
HETATM   17  O   UNL     1     -10.114   9.070  66.588  1.00  0.00    -0.255 OA 
HETATM   18  C   UNL     1     -11.463   6.418  72.505  1.00  0.00    -0.283 A  
HETATM   19  C   UNL     1     -10.894   6.505  71.233  1.00  0.00    -0.294 A  
HETATM   20  C   UNL     1      -9.792   8.006  67.417  1.00  0.00    -0.186 C  
HETATM   21  C   UNL     1     -11.514  12.452  66.754  1.00  0.00    -0.423 A  
HETATM   22  C   UNL     1     -11.460  12.700  68.125  1.00  0.00    -0.359 A  
HETATM   23  O   UNL     1      -9.648   6.878  66.951  1.00  0.00    -0.149 OA 
HETATM   24  C   UNL     1     -10.886  11.757  68.985  1.00  0.00    -0.239 A  
ENDBRANCH   2   4
TORSDOF 1
ENDMDL
MODEL       70
REMARK 921   NORMALIZED FREE ENERGY PREDICTED BY IDOCK:   -4.51 KCAL/MOL
REMARK 922        TOTAL FREE ENERGY PREDICTED BY IDOCK:   -5.09 KCAL/MOL
REMARK 923 INTER-LIGAND FREE ENERGY PREDICTED BY IDOCK:   -4.77 KCAL/MOL
REMARK 924 INTRA-LIGAND FREE ENERGY PREDICTED BY IDOCK:   -0.32 KCAL/MOL
REMARK 927      BINDING AFFINITY PREDICTED BY RF-SCORE:    0.00 PKD
ROOT
HETATM    1  C   UNL     1      -8.707   3.507  66.849  1.00  0.00    -0.126 C  
HETATM    2  C   UNL     1      -9.703   4.405  66.163  1.00  0.00    -0.214 C  
HETATM    3  O   UNL     1      -9.907   4.328  64.950  1.00  0.00    -0.179 OA 
ENDROOT
BRANCH   2   4
HETATM    4  C   UNL     1     -10.456   5.414  67.010  1.00  0.00    -0.319 C  
HETATM    5  C   UNL     1      -9.550   6.153  68.009  1.00  0.00    -0.115 C  
HETATM    6  C   UNL     1      -8.402   6.968  67.403  1.00  0.00    -0.122 A  
HETATM    7  C   UNL     1     -10.419   6.937  69.007  1.00  0.00    -0.223 C  
HETATM    8  C   UNL     1      -8.424   7.490  66.099  1.00  0.00    -0.147 A  
HETATM    9  C   UNL     1     -10.802   8.226  68.952  1.00  0.00     0.034 C  
HETATM   10  C   UNL     1     -11.523   8.844  70.064  1.00  0.00     0.021 A  
HETATM   11  O   UNL     1     -10.596   9.079  67.892  1.00  0.00    -0.301 OA 
HETATM   12  C   UNL     1      -7.375   8.290  65.632  1.00  0.00    -0.072 A  
HETATM   13  H   UNL     1     -10.867   9.989  67.853  1.00  0.00     0.000 HD 
HETATM   14  C   UNL     1     -12.031   8.029  71.064  1.00  0.00    -0.245 A  
HETATM   15  C   UNL     1      -6.276   8.548  66.444  1.00  0.00    -0.057 A  
HETATM   16  C   UNL     1     -12.770   8.541  72.131  1.00  0.00    -0.423 A  
HETATM   17  O   UNL     1     -11.771   6.653  71.063  1.00  0.00    -0.326 OA 
HETATM   18  C   UNL     1      -6.215   8.005  67.722  1.00  0.00    -0.051 A  
HETATM   19  C   UNL     1      -7.272   7.229  68.201  1.00  0.00    -0.091 A  
HETATM   20  C   UNL     1     -10.861   6.105  70.172  1.00  0.00    -0.329 C  
HETATM   21  C   UNL     1     -12.964   9.917  72.226  1.00  0.00    -0.387 A  
HETATM   22  C   UNL     1     -12.422  10.763  71.258  1.00  0.00    -0.504 A  
HETATM   23  O   UNL     1     -10.493   4.939  70.299  1.00  0.00    -0.234 OA 
HETATM   24  C   UNL     1     -11.716  10.227  70.176  1.00  0.00    -0.364 A  
ENDBRANCH   2   4
TORSDOF 1
ENDMDL
MODEL       71
REMARK 921   NORMALIZED FREE ENERGY PREDICTED BY IDOCK:   -4.48 KCAL/MOL
REMARK 922        TOTAL FREE ENERGY PREDICTED BY IDOCK:   -5.07 KCAL/MOL
REMARK 923 INTER-LIGAND FREE ENERGY PREDICTED BY IDOCK:   -4.88 KCAL/MOL
REMARK 924 INTRA-LIGAND FREE ENERGY PREDICTED BY IDOCK:   -0.19 KCAL/MOL
REMARK 927      BINDING AFFINITY PREDICTED BY RF-SCORE:    0.00 PKD
ROOT
HETATM    1  C   UNL     1      -9.248   2.693  67.695  1.00  0.00    -0.232 C  
HETATM    2  C   UNL     1      -9.083   3.423  69.003  1.00  0.00    -0.143 C  
HETATM    3  O   UNL     1      -8.236   3.076  69.828  1.00  0.00    -0.044 OA 
ENDROOT
BRANCH   2   4
HETATM    4  C   UNL     1      -9.992   4.606  69.279  1.00  0.00    -0.231 C  
HETATM    5  C   UNL     1      -9.342   5.659  70.193  1.00  0.00    -0.188 C  
HETATM    6  C   UNL     1      -8.052   6.302  69.671  1.00  0.00    -0.120 A  
HETATM    7  C   UNL     1     -10.408   6.670  70.649  1.00  0.00    -0.233 C  
HETATM    8  C   UNL     1      -7.727   6.395  68.308  1.00  0.00    -0.104 A  
HETATM    9  C   UNL     1     -10.721   7.860  70.102  1.00  0.00    -0.244 C  
HETATM   10  C   UNL     1     -11.678   8.756  70.751  1.00  0.00    -0.253 A  
HETATM   11  O   UNL     1     -10.226   8.354  68.918  1.00  0.00    -0.202 OA 
HETATM   12  C   UNL     1      -6.568   7.060  67.893  1.00  0.00    -0.052 A  
HETATM   13  H   UNL     1     -10.447   9.194  68.532  1.00  0.00     0.000 HD 
HETATM   14  C   UNL     1     -12.449   8.266  71.795  1.00  0.00    -0.332 A  
HETATM   15  C   UNL     1      -5.701   7.607  68.832  1.00  0.00    -0.023 A  
HETATM   16  C   UNL     1     -13.415   9.046  72.429  1.00  0.00    -0.524 A  
HETATM   17  O   UNL     1     -12.243   6.970  72.284  1.00  0.00    -0.240 OA 
HETATM   18  C   UNL     1      -5.982   7.488  70.189  1.00  0.00    -0.023 A  
HETATM   19  C   UNL     1      -7.151   6.849  70.605  1.00  0.00    -0.068 A  
HETATM   20  C   UNL     1     -11.157   6.218  71.865  1.00  0.00    -0.268 C  
HETATM   21  C   UNL     1     -13.580  10.374  72.042  1.00  0.00    -0.257 A  
HETATM   22  C   UNL     1     -12.784  10.905  71.027  1.00  0.00    -0.505 A  
HETATM   23  O   UNL     1     -10.872   5.167  72.434  1.00  0.00    -0.222 OA 
HETATM   24  C   UNL     1     -11.847  10.095  70.377  1.00  0.00    -0.373 A  
ENDBRANCH   2   4
TORSDOF 1
ENDMDL
MODEL       72
REMARK 921   NORMALIZED FREE ENERGY PREDICTED BY IDOCK:   -4.46 KCAL/MOL
REMARK 922        TOTAL FREE ENERGY PREDICTED BY IDOCK:   -5.04 KCAL/MOL
REMARK 923 INTER-LIGAND FREE ENERGY PREDICTED BY IDOCK:   -4.71 KCAL/MOL
REMARK 924 INTRA-LIGAND FREE ENERGY PREDICTED BY IDOCK:   -0.33 KCAL/MOL
REMARK 927      BINDING AFFINITY PREDICTED BY RF-SCORE:    0.00 PKD
ROOT
HETATM    1  C   UNL     1      -8.518  18.302  68.658  1.00  0.00    -0.301 C  
HETATM    2  C   UNL     1      -9.733  17.810  67.915  1.00  0.00    -0.294 C  
HETATM    3  O   UNL     1     -10.693  18.551  67.696  1.00  0.00    -0.423 OA 
ENDROOT
BRANCH   2   4
HETATM    4  C   UNL     1      -9.742  16.370  67.437  1.00  0.00    -0.238 C  
HETATM    5  C   UNL     1      -9.617  15.357  68.587  1.00  0.00    -0.204 C  
HETATM    6  C   UNL     1     -10.724  15.398  69.647  1.00  0.00    -0.281 A  
HETATM    7  C   UNL     1      -9.352  13.956  68.010  1.00  0.00    -0.204 C  
HETATM    8  C   UNL     1     -12.020  15.880  69.398  1.00  0.00    -0.268 A  
HETATM    9  C   UNL     1     -10.241  12.984  67.728  1.00  0.00    -0.228 C  
HETATM   10  C   UNL     1      -9.794  11.658  67.305  1.00  0.00    -0.203 A  
HETATM   11  O   UNL     1     -11.609  13.110  67.779  1.00  0.00    -0.296 OA 
HETATM   12  C   UNL     1     -13.007  15.821  70.388  1.00  0.00     0.012 A  
HETATM   13  H   UNL     1     -12.237  12.425  67.580  1.00  0.00     0.000 HD 
HETATM   14  C   UNL     1      -8.465  11.482  66.951  1.00  0.00    -0.165 A  
HETATM   15  C   UNL     1     -12.704  15.317  71.648  1.00  0.00    -0.455 A  
HETATM   16  C   UNL     1      -7.977  10.259  66.492  1.00  0.00    -0.118 A  
HETATM   17  O   UNL     1      -7.546  12.530  67.093  1.00  0.00    -0.148 OA 
HETATM   18  C   UNL     1     -11.416  14.876  71.929  1.00  0.00    -0.251 A  
HETATM   19  C   UNL     1     -10.436  14.907  70.935  1.00  0.00     0.442 A  
HETATM   20  C   UNL     1      -7.899  13.697  67.753  1.00  0.00    -0.171 C  
HETATM   21  C   UNL     1      -8.835   9.163  66.434  1.00  0.00    -0.165 A  
HETATM   22  C   UNL     1     -10.165   9.301  66.830  1.00  0.00    -0.327 A  
HETATM   23  O   UNL     1      -7.042  14.529  68.043  1.00  0.00    -0.109 OA 
HETATM   24  C   UNL     1     -10.645  10.546  67.251  1.00  0.00    -0.317 A  
ENDBRANCH   2   4
TORSDOF 1
ENDMDL
MODEL       73
REMARK 921   NORMALIZED FREE ENERGY PREDICTED BY IDOCK:   -4.38 KCAL/MOL
REMARK 922        TOTAL FREE ENERGY PREDICTED BY IDOCK:   -4.96 KCAL/MOL
REMARK 923 INTER-LIGAND FREE ENERGY PREDICTED BY IDOCK:   -4.82 KCAL/MOL
REMARK 924 INTRA-LIGAND FREE ENERGY PREDICTED BY IDOCK:   -0.14 KCAL/MOL
REMARK 927      BINDING AFFINITY PREDICTED BY RF-SCORE:    0.00 PKD
ROOT
HETATM    1  C   UNL     1      -9.339   6.327  67.156  1.00  0.00    -0.130 C  
HETATM    2  C   UNL     1     -10.292   7.263  67.852  1.00  0.00    -0.201 C  
HETATM    3  O   UNL     1     -11.013   6.875  68.773  1.00  0.00    -0.213 OA 
ENDROOT
BRANCH   2   4
HETATM    4  C   UNL     1     -10.340   8.707  67.389  1.00  0.00    -0.353 C  
HETATM    5  C   UNL     1      -9.789   9.690  68.436  1.00  0.00    -0.170 C  
HETATM    6  C   UNL     1      -8.327   9.486  68.849  1.00  0.00    -0.121 A  
HETATM    7  C   UNL     1     -10.128  11.130  68.016  1.00  0.00    -0.191 C  
HETATM    8  C   UNL     1      -7.367   8.867  68.031  1.00  0.00    -0.084 A  
HETATM    9  C   UNL     1      -9.370  12.001  67.324  1.00  0.00    -0.180 C  
HETATM   10  C   UNL     1      -9.804  13.384  67.127  1.00  0.00    -0.237 A  
HETATM   11  O   UNL     1      -8.164  11.717  66.726  1.00  0.00    -0.164 OA 
HETATM   12  C   UNL     1      -6.031   8.779  68.436  1.00  0.00    -0.046 A  
HETATM   13  H   UNL     1      -7.629  12.331  66.237  1.00  0.00     0.000 HD 
HETATM   14  C   UNL     1     -11.112  13.723  67.438  1.00  0.00    -0.296 A  
HETATM   15  C   UNL     1      -5.643   9.272  69.677  1.00  0.00    -0.033 A  
HETATM   16  C   UNL     1     -11.611  15.009  67.232  1.00  0.00    -0.285 A  
HETATM   17  O   UNL     1     -11.971  12.785  68.023  1.00  0.00    -0.346 OA 
HETATM   18  C   UNL     1      -6.585   9.850  70.521  1.00  0.00    -0.120 A  
HETATM   19  C   UNL     1      -7.913   9.964  70.107  1.00  0.00    -0.181 A  
HETATM   20  C   UNL     1     -11.489  11.564  68.468  1.00  0.00    -0.292 C  
HETATM   21  C   UNL     1     -10.760  16.000  66.748  1.00  0.00    -0.259 A  
HETATM   22  C   UNL     1      -9.427  15.697  66.473  1.00  0.00    -0.300 A  
HETATM   23  O   UNL     1     -12.199  10.827  69.149  1.00  0.00    -0.387 OA 
HETATM   24  C   UNL     1      -8.955  14.392  66.650  1.00  0.00    -0.232 A  
ENDBRANCH   2   4
TORSDOF 1
ENDMDL
MODEL       74
REMARK 921   NORMALIZED FREE ENERGY PREDICTED BY IDOCK:   -4.38 KCAL/MOL
REMARK 922        TOTAL FREE ENERGY PREDICTED BY IDOCK:   -4.96 KCAL/MOL
REMARK 923 INTER-LIGAND FREE ENERGY PREDICTED BY IDOCK:   -4.65 KCAL/MOL
REMARK 924 INTRA-LIGAND FREE ENERGY PREDICTED BY IDOCK:   -0.31 KCAL/MOL
REMARK 927      BINDING AFFINITY PREDICTED BY RF-SCORE:    0.00 PKD
ROOT
HETATM    1  C   UNL     1     -10.561  15.907  65.311  1.00  0.00    -0.441 C  
HETATM    2  C   UNL     1     -10.848  15.567  66.749  1.00  0.00    -0.291 C  
HETATM    3  O   UNL     1     -11.015  16.448  67.595  1.00  0.00    -0.308 OA 
ENDROOT
BRANCH   2   4
HETATM    4  C   UNL     1     -10.930  14.102  67.134  1.00  0.00    -0.304 C  
HETATM    5  C   UNL     1      -9.604  13.352  66.923  1.00  0.00    -0.257 C  
HETATM    6  C   UNL     1      -8.401  13.872  67.719  1.00  0.00    -0.174 A  
HETATM    7  C   UNL     1      -9.842  11.839  67.063  1.00  0.00    -0.213 C  
HETATM    8  C   UNL     1      -8.515  14.579  68.927  1.00  0.00    -0.110 A  
HETATM    9  C   UNL     1      -9.691  11.064  68.154  1.00  0.00    -0.174 C  
HETATM   10  C   UNL     1      -9.837   9.611  68.070  1.00  0.00    -0.175 A  
HETATM   11  O   UNL     1      -9.418  11.514  69.425  1.00  0.00    -0.345 OA 
HETATM   12  C   UNL     1      -7.376  14.962  69.643  1.00  0.00    -0.153 A  
HETATM   13  H   UNL     1      -9.312  10.967  70.195  1.00  0.00     0.000 HD 
HETATM   14  C   UNL     1     -10.378   9.061  66.918  1.00  0.00    -0.254 A  
HETATM   15  C   UNL     1      -6.109  14.679  69.144  1.00  0.00    -0.102 A  
HETATM   16  C   UNL     1     -10.592   7.689  66.785  1.00  0.00    -0.256 A  
HETATM   17  O   UNL     1     -10.686   9.871  65.818  1.00  0.00     0.050 OA 
HETATM   18  C   UNL     1      -5.973  14.018  67.928  1.00  0.00    -0.144 A  
HETATM   19  C   UNL     1      -7.108  13.610  67.226  1.00  0.00     0.041 A  
HETATM   20  C   UNL     1     -10.293  11.200  65.785  1.00  0.00    -0.260 C  
HETATM   21  C   UNL     1     -10.203   6.836  67.815  1.00  0.00    -0.212 A  
HETATM   22  C   UNL     1      -9.612   7.361  68.964  1.00  0.00    -0.148 A  
HETATM   23  O   UNL     1     -10.393  11.851  64.748  1.00  0.00    -0.259 OA 
HETATM   24  C   UNL     1      -9.442   8.743  69.096  1.00  0.00    -0.157 A  
ENDBRANCH   2   4
TORSDOF 1
ENDMDL
MODEL       75
REMARK 921   NORMALIZED FREE ENERGY PREDICTED BY IDOCK:   -4.38 KCAL/MOL
REMARK 922        TOTAL FREE ENERGY PREDICTED BY IDOCK:   -4.95 KCAL/MOL
REMARK 923 INTER-LIGAND FREE ENERGY PREDICTED BY IDOCK:   -4.67 KCAL/MOL
REMARK 924 INTRA-LIGAND FREE ENERGY PREDICTED BY IDOCK:   -0.29 KCAL/MOL
REMARK 927      BINDING AFFINITY PREDICTED BY RF-SCORE:    0.00 PKD
ROOT
HETATM    1  C   UNL     1      -6.981   8.973  62.717  1.00  0.00    -0.092 C  
HETATM    2  C   UNL     1      -8.336   9.552  63.025  1.00  0.00    -0.175 C  
HETATM    3  O   UNL     1      -9.369   9.029  62.601  1.00  0.00     0.159 OA 
ENDROOT
BRANCH   2   4
HETATM    4  C   UNL     1      -8.400  10.804  63.880  1.00  0.00     0.062 C  
HETATM    5  C   UNL     1      -9.523  10.755  64.930  1.00  0.00    -0.288 C  
HETATM    6  C   UNL     1      -9.439   9.617  65.954  1.00  0.00    -0.296 A  
HETATM    7  C   UNL     1      -9.702  12.149  65.555  1.00  0.00    -0.197 C  
HETATM    8  C   UNL     1      -8.239   8.983  66.315  1.00  0.00    -0.115 A  
HETATM    9  C   UNL     1      -9.156  12.638  66.684  1.00  0.00    -0.193 C  
HETATM   10  C   UNL     1      -9.545  13.950  67.200  1.00  0.00    -0.247 A  
HETATM   11  O   UNL     1      -8.198  12.012  67.448  1.00  0.00    -0.150 OA 
HETATM   12  C   UNL     1      -8.220   8.001  67.311  1.00  0.00    -0.122 A  
HETATM   13  H   UNL     1      -7.813  12.356  68.245  1.00  0.00     0.000 HD 
HETATM   14  C   UNL     1     -10.287  14.793  66.388  1.00  0.00    -0.293 A  
HETATM   15  C   UNL     1      -9.402   7.612  67.932  1.00  0.00    -0.146 A  
HETATM   16  C   UNL     1     -10.653  16.077  66.793  1.00  0.00    -0.297 A  
HETATM   17  O   UNL     1     -10.741  14.358  65.136  1.00  0.00    -0.347 OA 
HETATM   18  C   UNL     1     -10.608   8.196  67.559  1.00  0.00    -0.291 A  
HETATM   19  C   UNL     1     -10.625   9.196  66.585  1.00  0.00    -0.157 A  
HETATM   20  C   UNL     1     -10.617  13.030  64.760  1.00  0.00    -0.362 C  
HETATM   21  C   UNL     1     -10.310  16.511  68.071  1.00  0.00    -0.294 A  
HETATM   22  C   UNL     1      -9.605  15.664  68.926  1.00  0.00    -0.224 A  
HETATM   23  O   UNL     1     -11.185  12.615  63.752  1.00  0.00    -0.403 OA 
HETATM   24  C   UNL     1      -9.214  14.394  68.487  1.00  0.00    -0.198 A  
ENDBRANCH   2   4
TORSDOF 1
ENDMDL
MODEL       76
REMARK 921   NORMALIZED FREE ENERGY PREDICTED BY IDOCK:   -4.36 KCAL/MOL
REMARK 922        TOTAL FREE ENERGY PREDICTED BY IDOCK:   -4.93 KCAL/MOL
REMARK 923 INTER-LIGAND FREE ENERGY PREDICTED BY IDOCK:   -4.79 KCAL/MOL
REMARK 924 INTRA-LIGAND FREE ENERGY PREDICTED BY IDOCK:   -0.14 KCAL/MOL
REMARK 927      BINDING AFFINITY PREDICTED BY RF-SCORE:    0.00 PKD
ROOT
HETATM    1  C   UNL     1     -12.611  13.634  70.315  1.00  0.00    -0.253 C  
HETATM    2  C   UNL     1     -12.115  13.884  68.915  1.00  0.00    -0.319 C  
HETATM    3  O   UNL     1     -12.360  14.939  68.326  1.00  0.00    -0.077 OA 
ENDROOT
BRANCH   2   4
HETATM    4  C   UNL     1     -11.296  12.798  68.243  1.00  0.00    -0.335 C  
HETATM    5  C   UNL     1     -10.370  13.341  67.142  1.00  0.00    -0.248 C  
HETATM    6  C   UNL     1      -9.322  14.367  67.586  1.00  0.00    -0.200 A  
HETATM    7  C   UNL     1      -9.794  12.168  66.330  1.00  0.00    -0.250 C  
HETATM    8  C   UNL     1      -8.823  14.450  68.897  1.00  0.00    -0.067 A  
HETATM    9  C   UNL     1      -8.623  11.526  66.500  1.00  0.00    -0.172 C  
HETATM   10  C   UNL     1      -8.176  10.512  65.545  1.00  0.00    -0.162 A  
HETATM   11  O   UNL     1      -7.750  11.715  67.546  1.00  0.00    -0.120 OA 
HETATM   12  C   UNL     1      -7.812  15.362  69.221  1.00  0.00    -0.225 A  
HETATM   13  H   UNL     1      -6.923  11.263  67.666  1.00  0.00     0.000 HD 
HETATM   14  C   UNL     1      -9.079  10.035  64.608  1.00  0.00    -0.237 A  
HETATM   15  C   UNL     1      -7.313  16.226  68.253  1.00  0.00    -0.146 A  
HETATM   16  C   UNL     1      -8.740   9.034  63.697  1.00  0.00    -0.101 A  
HETATM   17  O   UNL     1     -10.363  10.586  64.511  1.00  0.00    -0.348 OA 
HETATM   18  C   UNL     1      -7.824  16.191  66.960  1.00  0.00    -0.258 A  
HETATM   19  C   UNL     1      -8.813  15.264  66.627  1.00  0.00    -0.328 A  
HETATM   20  C   UNL     1     -10.699  11.730  65.219  1.00  0.00    -0.287 C  
HETATM   21  C   UNL     1      -7.441   8.532  63.691  1.00  0.00    -0.115 A  
HETATM   22  C   UNL     1      -6.500   9.029  64.592  1.00  0.00    -0.070 A  
HETATM   23  O   UNL     1     -11.753  12.316  64.986  1.00  0.00    -0.352 OA 
HETATM   24  C   UNL     1      -6.870  10.006  65.523  1.00  0.00    -0.120 A  
ENDBRANCH   2   4
TORSDOF 1
ENDMDL
MODEL       77
REMARK 921   NORMALIZED FREE ENERGY PREDICTED BY IDOCK:   -4.34 KCAL/MOL
REMARK 922        TOTAL FREE ENERGY PREDICTED BY IDOCK:   -4.92 KCAL/MOL
REMARK 923 INTER-LIGAND FREE ENERGY PREDICTED BY IDOCK:   -4.57 KCAL/MOL
REMARK 924 INTRA-LIGAND FREE ENERGY PREDICTED BY IDOCK:   -0.35 KCAL/MOL
REMARK 927      BINDING AFFINITY PREDICTED BY RF-SCORE:    0.00 PKD
ROOT
HETATM    1  C   UNL     1      -5.917   7.355  65.084  1.00  0.00    -0.038 C  
HETATM    2  C   UNL     1      -7.358   7.017  64.802  1.00  0.00    -0.085 C  
HETATM    3  O   UNL     1      -7.805   7.024  63.653  1.00  0.00    -0.127 OA 
ENDROOT
BRANCH   2   4
HETATM    4  C   UNL     1      -8.250   6.662  65.976  1.00  0.00    -0.128 C  
HETATM    5  C   UNL     1      -8.179   7.693  67.116  1.00  0.00    -0.118 C  
HETATM    6  C   UNL     1      -8.596   9.124  66.758  1.00  0.00    -0.133 A  
HETATM    7  C   UNL     1      -8.879   7.128  68.363  1.00  0.00    -0.127 C  
HETATM    8  C   UNL     1      -9.474   9.438  65.707  1.00  0.00    -0.325 A  
HETATM    9  C   UNL     1     -10.152   7.308  68.763  1.00  0.00    -0.176 C  
HETATM   10  C   UNL     1     -10.613   6.799  70.054  1.00  0.00    -0.256 A  
HETATM   11  O   UNL     1     -11.137   7.940  68.041  1.00  0.00    -0.457 OA 
HETATM   12  C   UNL     1      -9.873  10.760  65.480  1.00  0.00    -0.309 A  
HETATM   13  H   UNL     1     -12.036   8.067  68.323  1.00  0.00     0.000 HD 
HETATM   14  C   UNL     1      -9.804   5.914  70.750  1.00  0.00    -0.183 A  
HETATM   15  C   UNL     1      -9.373  11.788  66.272  1.00  0.00    -0.235 A  
HETATM   16  C   UNL     1     -10.198   5.350  71.963  1.00  0.00    -0.256 A  
HETATM   17  O   UNL     1      -8.527   5.591  70.273  1.00  0.00    -0.117 OA 
HETATM   18  C   UNL     1      -8.470  11.504  67.290  1.00  0.00    -0.152 A  
HETATM   19  C   UNL     1      -8.091  10.183  67.537  1.00  0.00    -0.113 A  
HETATM   20  C   UNL     1      -7.975   6.280  69.204  1.00  0.00    -0.110 C  
HETATM   21  C   UNL     1     -11.417   5.724  72.524  1.00  0.00    -0.349 A  
HETATM   22  C   UNL     1     -12.227   6.650  71.868  1.00  0.00    -0.381 A  
HETATM   23  O   UNL     1      -6.790   6.129  68.914  1.00  0.00    -0.061 OA 
HETATM   24  C   UNL     1     -11.833   7.175  70.633  1.00  0.00    -0.334 A  
ENDBRANCH   2   4
TORSDOF 1
ENDMDL
MODEL       78
REMARK 921   NORMALIZED FREE ENERGY PREDICTED BY IDOCK:   -4.32 KCAL/MOL
REMARK 922        TOTAL FREE ENERGY PREDICTED BY IDOCK:   -4.89 KCAL/MOL
REMARK 923 INTER-LIGAND FREE ENERGY PREDICTED BY IDOCK:   -4.59 KCAL/MOL
REMARK 924 INTRA-LIGAND FREE ENERGY PREDICTED BY IDOCK:   -0.30 KCAL/MOL
REMARK 927      BINDING AFFINITY PREDICTED BY RF-SCORE:    0.00 PKD
ROOT
HETATM    1  C   UNL     1      -8.797  16.244  66.185  1.00  0.00    -0.362 C  
HETATM    2  C   UNL     1      -9.838  15.260  65.720  1.00  0.00    -0.361 C  
HETATM    3  O   UNL     1     -10.735  15.594  64.944  1.00  0.00    -0.434 OA 
ENDROOT
BRANCH   2   4
HETATM    4  C   UNL     1      -9.753  13.835  66.234  1.00  0.00    -0.297 C  
HETATM    5  C   UNL     1      -9.416  13.757  67.732  1.00  0.00    -0.216 C  
HETATM    6  C   UNL     1     -10.411  14.430  68.684  1.00  0.00    -0.247 A  
HETATM    7  C   UNL     1      -9.072  12.305  68.107  1.00  0.00    -0.196 C  
HETATM    8  C   UNL     1     -11.767  14.632  68.374  1.00  0.00    -0.352 A  
HETATM    9  C   UNL     1      -9.884  11.355  68.608  1.00  0.00    -0.193 C  
HETATM   10  C   UNL     1      -9.353  10.060  69.031  1.00  0.00    -0.183 A  
HETATM   11  O   UNL     1     -11.247  11.463  68.759  1.00  0.00    -0.204 OA 
HETATM   12  C   UNL     1     -12.641  15.185  69.317  1.00  0.00     0.112 A  
HETATM   13  H   UNL     1     -11.821  10.793  69.112  1.00  0.00     0.000 HD 
HETATM   14  C   UNL     1      -8.055   9.724  68.680  1.00  0.00    -0.105 A  
HETATM   15  C   UNL     1     -12.167  15.579  70.563  1.00  0.00    -0.444 A  
HETATM   16  C   UNL     1      -7.497   8.489  69.006  1.00  0.00    -0.089 A  
HETATM   17  O   UNL     1      -7.234  10.648  68.020  1.00  0.00    -0.084 OA 
HETATM   18  C   UNL     1     -10.820  15.428  70.874  1.00  0.00    -0.253 A  
HETATM   19  C   UNL     1      -9.952  14.851  69.946  1.00  0.00     0.080 A  
HETATM   20  C   UNL     1      -7.634  11.966  67.865  1.00  0.00    -0.128 C  
HETATM   21  C   UNL     1      -8.243   7.580  69.753  1.00  0.00    -0.128 A  
HETATM   22  C   UNL     1      -9.535   7.913  70.160  1.00  0.00    -0.160 A  
HETATM   23  O   UNL     1      -6.838  12.812  67.462  1.00  0.00    -0.134 OA 
HETATM   24  C   UNL     1     -10.091   9.142  69.790  1.00  0.00    -0.211 A  
ENDBRANCH   2   4
TORSDOF 1
ENDMDL
MODEL       79
REMARK 921   NORMALIZED FREE ENERGY PREDICTED BY IDOCK:   -4.31 KCAL/MOL
REMARK 922        TOTAL FREE ENERGY PREDICTED BY IDOCK:   -4.88 KCAL/MOL
REMARK 923 INTER-LIGAND FREE ENERGY PREDICTED BY IDOCK:   -4.60 KCAL/MOL
REMARK 924 INTRA-LIGAND FREE ENERGY PREDICTED BY IDOCK:   -0.28 KCAL/MOL
REMARK 927      BINDING AFFINITY PREDICTED BY RF-SCORE:    0.00 PKD
ROOT
HETATM    1  C   UNL     1     -12.903  10.435  71.029  1.00  0.00    -0.494 C  
HETATM    2  C   UNL     1     -11.999  11.184  70.086  1.00  0.00    -0.365 C  
HETATM    3  O   UNL     1     -11.646  12.341  70.320  1.00  0.00    -0.196 OA 
ENDROOT
BRANCH   2   4
HETATM    4  C   UNL     1     -11.528  10.471  68.832  1.00  0.00    -0.292 C  
HETATM    5  C   UNL     1      -9.996  10.446  68.697  1.00  0.00    -0.186 C  
HETATM    6  C   UNL     1      -9.231   9.745  69.826  1.00  0.00    -0.248 A  
HETATM    7  C   UNL     1      -9.613   9.966  67.287  1.00  0.00    -0.195 C  
HETATM    8  C   UNL     1      -9.788   8.741  70.635  1.00  0.00    -0.237 A  
HETATM    9  C   UNL     1      -9.310   8.719  66.879  1.00  0.00    -0.167 C  
HETATM   10  C   UNL     1      -8.837   8.467  65.519  1.00  0.00    -0.196 A  
HETATM   11  O   UNL     1      -9.420   7.578  67.640  1.00  0.00    -0.136 OA 
HETATM   12  C   UNL     1      -9.013   8.088  71.600  1.00  0.00    -0.192 A  
HETATM   13  H   UNL     1      -9.207   6.698  67.352  1.00  0.00     0.000 HD 
HETATM   14  C   UNL     1      -8.944   9.480  64.577  1.00  0.00    -0.212 A  
HETATM   15  C   UNL     1      -7.686   8.454  71.796  1.00  0.00    -0.147 A  
HETATM   16  C   UNL     1      -8.559   9.298  63.249  1.00  0.00    -0.207 A  
HETATM   17  O   UNL     1      -9.402  10.751  64.947  1.00  0.00    -0.199 OA 
HETATM   18  C   UNL     1      -7.127   9.475  71.035  1.00  0.00    -0.017 A  
HETATM   19  C   UNL     1      -7.890  10.109  70.053  1.00  0.00    -0.131 A  
HETATM   20  C   UNL     1      -9.585  11.077  66.282  1.00  0.00    -0.201 C  
HETATM   21  C   UNL     1      -8.001   8.082  62.863  1.00  0.00    -0.152 A  
HETATM   22  C   UNL     1      -7.839   7.063  63.802  1.00  0.00    -0.107 A  
HETATM   23  O   UNL     1      -9.799  12.241  66.613  1.00  0.00    -0.211 OA 
HETATM   24  C   UNL     1      -8.267   7.251  65.120  1.00  0.00    -0.112 A  
ENDBRANCH   2   4
TORSDOF 1
ENDMDL
MODEL       80
REMARK 921   NORMALIZED FREE ENERGY PREDICTED BY IDOCK:   -4.30 KCAL/MOL
REMARK 922        TOTAL FREE ENERGY PREDICTED BY IDOCK:   -4.87 KCAL/MOL
REMARK 923 INTER-LIGAND FREE ENERGY PREDICTED BY IDOCK:   -5.02 KCAL/MOL
REMARK 924 INTRA-LIGAND FREE ENERGY PREDICTED BY IDOCK:    0.15 KCAL/MOL
REMARK 927      BINDING AFFINITY PREDICTED BY RF-SCORE:    0.00 PKD
ROOT
HETATM    1  C   UNL     1     -12.129   9.951  71.625  1.00  0.00    -0.457 C  
HETATM    2  C   UNL     1     -12.074  10.239  70.148  1.00  0.00    -0.202 C  
HETATM    3  O   UNL     1     -13.063  10.648  69.537  1.00  0.00     0.001 OA 
ENDROOT
BRANCH   2   4
HETATM    4  C   UNL     1     -10.759  10.014  69.425  1.00  0.00    -0.258 C  
HETATM    5  C   UNL     1     -10.801  10.457  67.953  1.00  0.00    -0.331 C  
HETATM    6  C   UNL     1     -11.107  11.938  67.703  1.00  0.00    -0.314 A  
HETATM    7  C   UNL     1      -9.546   9.944  67.226  1.00  0.00    -0.195 C  
HETATM    8  C   UNL     1     -10.847  12.954  68.638  1.00  0.00    -0.288 A  
HETATM    9  C   UNL     1      -8.381  10.585  67.013  1.00  0.00    -0.128 C  
HETATM   10  C   UNL     1      -7.337   9.987  66.182  1.00  0.00    -0.109 A  
HETATM   11  O   UNL     1      -8.031  11.808  67.535  1.00  0.00    -0.132 OA 
HETATM   12  C   UNL     1     -11.081  14.296  68.320  1.00  0.00    -0.276 A  
HETATM   13  H   UNL     1      -7.209  12.260  67.385  1.00  0.00     0.000 HD 
HETATM   14  C   UNL     1      -7.451   8.652  65.825  1.00  0.00    -0.085 A  
HETATM   15  C   UNL     1     -11.612  14.639  67.081  1.00  0.00    -0.394 A  
HETATM   16  C   UNL     1      -6.471   8.001  65.075  1.00  0.00    -0.048 A  
HETATM   17  O   UNL     1      -8.593   7.918  66.169  1.00  0.00    -0.134 OA 
HETATM   18  C   UNL     1     -11.918  13.646  66.157  1.00  0.00    -0.453 A  
HETATM   19  C   UNL     1     -11.659  12.308  66.462  1.00  0.00    -0.440 A  
HETATM   20  C   UNL     1      -9.703   8.547  66.709  1.00  0.00    -0.236 C  
HETATM   21  C   UNL     1      -5.368   8.722  64.625  1.00  0.00    -0.043 A  
HETATM   22  C   UNL     1      -5.254  10.079  64.929  1.00  0.00    -0.069 A  
HETATM   23  O   UNL     1     -10.765   7.939  66.829  1.00  0.00    -0.304 OA 
HETATM   24  C   UNL     1      -6.227  10.704  65.715  1.00  0.00    -0.126 A  
ENDBRANCH   2   4
TORSDOF 1
ENDMDL
MODEL       81
REMARK 921   NORMALIZED FREE ENERGY PREDICTED BY IDOCK:   -4.28 KCAL/MOL
REMARK 922        TOTAL FREE ENERGY PREDICTED BY IDOCK:   -4.86 KCAL/MOL
REMARK 923 INTER-LIGAND FREE ENERGY PREDICTED BY IDOCK:   -4.69 KCAL/MOL
REMARK 924 INTRA-LIGAND FREE ENERGY PREDICTED BY IDOCK:   -0.17 KCAL/MOL
REMARK 927      BINDING AFFINITY PREDICTED BY RF-SCORE:    0.00 PKD
ROOT
HETATM    1  C   UNL     1     -13.049  10.258  70.383  1.00  0.00    -0.089 C  
HETATM    2  C   UNL     1     -11.553  10.104  70.474  1.00  0.00    -0.329 C  
HETATM    3  O   UNL     1     -10.793  10.904  69.926  1.00  0.00    -0.235 OA 
ENDROOT
BRANCH   2   4
HETATM    4  C   UNL     1     -11.003   8.933  71.266  1.00  0.00    -0.363 C  
HETATM    5  C   UNL     1     -11.114   7.596  70.513  1.00  0.00    -0.267 C  
HETATM    6  C   UNL     1     -10.374   7.513  69.173  1.00  0.00    -0.215 A  
HETATM    7  C   UNL     1     -10.803   6.438  71.476  1.00  0.00    -0.299 C  
HETATM    8  C   UNL     1      -9.257   8.301  68.852  1.00  0.00    -0.147 A  
HETATM    9  C   UNL     1      -9.629   5.813  71.682  1.00  0.00    -0.153 C  
HETATM   10  C   UNL     1      -9.545   4.636  72.546  1.00  0.00    -0.178 A  
HETATM   11  O   UNL     1      -8.416   6.190  71.154  1.00  0.00    -0.123 OA 
HETATM   12  C   UNL     1      -8.581   8.123  67.640  1.00  0.00    -0.130 A  
HETATM   13  H   UNL     1      -7.587   5.749  71.299  1.00  0.00     0.000 HD 
HETATM   14  C   UNL     1     -10.630   4.320  73.350  1.00  0.00    -0.208 A  
HETATM   15  C   UNL     1      -9.032   7.185  66.718  1.00  0.00    -0.151 A  
HETATM   16  C   UNL     1     -10.606   3.242  74.234  1.00  0.00    -0.251 A  
HETATM   17  O   UNL     1     -11.819   5.055  73.262  1.00  0.00    -0.245 OA 
HETATM   18  C   UNL     1     -10.163   6.425  66.997  1.00  0.00    -0.264 A  
HETATM   19  C   UNL     1     -10.823   6.581  68.218  1.00  0.00    -0.359 A  
HETATM   20  C   UNL     1     -12.002   5.989  72.253  1.00  0.00    -0.204 C  
HETATM   21  C   UNL     1      -9.481   2.422  74.278  1.00  0.00    -0.105 A  
HETATM   22  C   UNL     1      -8.395   2.690  73.444  1.00  0.00    -0.064 A  
HETATM   23  O   UNL     1     -13.109   6.488  72.063  1.00  0.00    -0.213 OA 
HETATM   24  C   UNL     1      -8.423   3.799  72.592  1.00  0.00    -0.094 A  
ENDBRANCH   2   4
TORSDOF 1
ENDMDL
MODEL       82
REMARK 921   NORMALIZED FREE ENERGY PREDICTED BY IDOCK:   -4.24 KCAL/MOL
REMARK 922        TOTAL FREE ENERGY PREDICTED BY IDOCK:   -4.81 KCAL/MOL
REMARK 923 INTER-LIGAND FREE ENERGY PREDICTED BY IDOCK:   -4.46 KCAL/MOL
REMARK 924 INTRA-LIGAND FREE ENERGY PREDICTED BY IDOCK:   -0.35 KCAL/MOL
REMARK 927      BINDING AFFINITY PREDICTED BY RF-SCORE:    0.00 PKD
ROOT
HETATM    1  C   UNL     1     -10.627   8.542  72.189  1.00  0.00    -0.419 C  
HETATM    2  C   UNL     1      -9.201   8.500  71.707  1.00  0.00    -0.246 C  
HETATM    3  O   UNL     1      -8.301   9.083  72.316  1.00  0.00    -0.354 OA 
ENDROOT
BRANCH   2   4
HETATM    4  C   UNL     1      -8.897   7.714  70.446  1.00  0.00    -0.144 C  
HETATM    5  C   UNL     1      -9.781   8.125  69.256  1.00  0.00    -0.170 C  
HETATM    6  C   UNL     1      -9.676   9.588  68.810  1.00  0.00    -0.164 A  
HETATM    7  C   UNL     1      -9.612   7.107  68.115  1.00  0.00    -0.134 C  
HETATM    8  C   UNL     1      -8.542  10.388  69.031  1.00  0.00    -0.158 A  
HETATM    9  C   UNL     1      -8.783   7.166  67.057  1.00  0.00    -0.123 C  
HETATM   10  C   UNL     1      -8.851   6.165  65.993  1.00  0.00    -0.160 A  
HETATM   11  O   UNL     1      -7.803   8.110  66.857  1.00  0.00    -0.094 OA 
HETATM   12  C   UNL     1      -8.481  11.694  68.533  1.00  0.00    -0.135 A  
HETATM   13  H   UNL     1      -7.218   8.152  66.110  1.00  0.00     0.000 HD 
HETATM   14  C   UNL     1      -9.598   5.016  66.205  1.00  0.00    -0.168 A  
HETATM   15  C   UNL     1      -9.562  12.231  67.843  1.00  0.00    -0.203 A  
HETATM   16  C   UNL     1      -9.671   3.996  65.256  1.00  0.00    -0.197 A  
HETATM   17  O   UNL     1     -10.354   4.864  67.373  1.00  0.00    -0.151 OA 
HETATM   18  C   UNL     1     -10.711  11.471  67.651  1.00  0.00    -0.255 A  
HETATM   19  C   UNL     1     -10.764  10.159  68.123  1.00  0.00    -0.285 A  
HETATM   20  C   UNL     1     -10.518   5.922  68.254  1.00  0.00    -0.236 C  
HETATM   21  C   UNL     1      -9.017   4.153  64.036  1.00  0.00    -0.141 A  
HETATM   22  C   UNL     1      -8.298   5.320  63.780  1.00  0.00    -0.123 A  
HETATM   23  O   UNL     1     -11.332   5.845  69.172  1.00  0.00    -0.298 OA 
HETATM   24  C   UNL     1      -8.205   6.315  64.759  1.00  0.00    -0.100 A  
ENDBRANCH   2   4
TORSDOF 1
ENDMDL
MODEL       83
REMARK 921   NORMALIZED FREE ENERGY PREDICTED BY IDOCK:   -4.21 KCAL/MOL
REMARK 922        TOTAL FREE ENERGY PREDICTED BY IDOCK:   -4.78 KCAL/MOL
REMARK 923 INTER-LIGAND FREE ENERGY PREDICTED BY IDOCK:   -4.49 KCAL/MOL
REMARK 924 INTRA-LIGAND FREE ENERGY PREDICTED BY IDOCK:   -0.29 KCAL/MOL
REMARK 927      BINDING AFFINITY PREDICTED BY RF-SCORE:    0.00 PKD
ROOT
HETATM    1  C   UNL     1      -7.348  10.212  65.944  1.00  0.00    -0.121 C  
HETATM    2  C   UNL     1      -8.664   9.946  66.626  1.00  0.00    -0.128 C  
HETATM    3  O   UNL     1      -9.736  10.212  66.077  1.00  0.00    -0.197 OA 
ENDROOT
BRANCH   2   4
HETATM    4  C   UNL     1      -8.639   9.336  68.014  1.00  0.00    -0.121 C  
HETATM    5  C   UNL     1      -9.702   8.241  68.207  1.00  0.00    -0.173 C  
HETATM    6  C   UNL     1      -9.600   7.030  67.272  1.00  0.00    -0.175 A  
HETATM    7  C   UNL     1      -9.799   7.877  69.698  1.00  0.00    -0.179 C  
HETATM    8  C   UNL     1      -8.403   6.616  66.664  1.00  0.00    -0.117 A  
HETATM    9  C   UNL     1      -9.175   6.885  70.361  1.00  0.00    -0.156 C  
HETATM   10  C   UNL     1      -9.490   6.602  71.761  1.00  0.00    -0.151 A  
HETATM   11  O   UNL     1      -8.198   6.066  69.844  1.00  0.00    -0.114 OA 
HETATM   12  C   UNL     1      -8.362   5.458  65.881  1.00  0.00    -0.123 A  
HETATM   13  H   UNL     1      -7.757   5.366  70.312  1.00  0.00     0.000 HD 
HETATM   14  C   UNL     1     -10.248   7.520  72.472  1.00  0.00    -0.232 A  
HETATM   15  C   UNL     1      -9.520   4.719  65.663  1.00  0.00    -0.173 A  
HETATM   16  C   UNL     1     -10.548   7.342  73.823  1.00  0.00    -0.255 A  
HETATM   17  O   UNL     1     -10.785   8.645  71.836  1.00  0.00    -0.292 OA 
HETATM   18  C   UNL     1     -10.724   5.135  66.221  1.00  0.00    -0.272 A  
HETATM   19  C   UNL     1     -10.762   6.275  67.025  1.00  0.00    -0.435 A  
HETATM   20  C   UNL     1     -10.727   8.775  70.457  1.00  0.00    -0.223 C  
HETATM   21  C   UNL     1     -10.120   6.184  74.468  1.00  0.00    -0.345 A  
HETATM   22  C   UNL     1      -9.397   5.223  73.762  1.00  0.00    -0.132 A  
HETATM   23  O   UNL     1     -11.364   9.660  69.889  1.00  0.00    -0.230 OA 
HETATM   24  C   UNL     1      -9.073   5.437  72.418  1.00  0.00    -0.145 A  
ENDBRANCH   2   4
TORSDOF 1
ENDMDL
MODEL       84
REMARK 921   NORMALIZED FREE ENERGY PREDICTED BY IDOCK:   -4.20 KCAL/MOL
REMARK 922        TOTAL FREE ENERGY PREDICTED BY IDOCK:   -4.76 KCAL/MOL
REMARK 923 INTER-LIGAND FREE ENERGY PREDICTED BY IDOCK:   -4.43 KCAL/MOL
REMARK 924 INTRA-LIGAND FREE ENERGY PREDICTED BY IDOCK:   -0.33 KCAL/MOL
REMARK 927      BINDING AFFINITY PREDICTED BY RF-SCORE:    0.00 PKD
ROOT
HETATM    1  C   UNL     1     -11.066   6.589  67.092  1.00  0.00    -0.434 C  
HETATM    2  C   UNL     1     -10.133   6.469  68.268  1.00  0.00    -0.159 C  
HETATM    3  O   UNL     1     -10.208   5.521  69.052  1.00  0.00    -0.191 OA 
ENDROOT
BRANCH   2   4
HETATM    4  C   UNL     1      -9.087   7.551  68.463  1.00  0.00    -0.134 C  
HETATM    5  C   UNL     1      -9.700   8.948  68.662  1.00  0.00    -0.169 C  
HETATM    6  C   UNL     1     -10.627   9.112  69.872  1.00  0.00    -0.246 A  
HETATM    7  C   UNL     1      -8.594  10.012  68.569  1.00  0.00    -0.119 C  
HETATM    8  C   UNL     1     -10.550   8.311  71.023  1.00  0.00    -0.243 A  
HETATM    9  C   UNL     1      -7.887  10.574  69.567  1.00  0.00    -0.127 C  
HETATM   10  C   UNL     1      -6.959  11.674  69.304  1.00  0.00    -0.083 A  
HETATM   11  O   UNL     1      -7.925  10.196  70.889  1.00  0.00    -0.278 OA 
HETATM   12  C   UNL     1     -11.376   8.560  72.125  1.00  0.00    -0.442 A  
HETATM   13  H   UNL     1      -7.426  10.593  71.594  1.00  0.00     0.000 HD 
HETATM   14  C   UNL     1      -6.624  11.964  67.990  1.00  0.00    -0.063 A  
HETATM   15  C   UNL     1     -12.314   9.586  72.077  1.00  0.00    -0.404 A  
HETATM   16  C   UNL     1      -5.710  12.965  67.664  1.00  0.00    -0.130 A  
HETATM   17  O   UNL     1      -7.238  11.283  66.932  1.00  0.00    -0.126 OA 
HETATM   18  C   UNL     1     -12.437  10.363  70.931  1.00  0.00    -0.478 A  
HETATM   19  C   UNL     1     -11.595  10.134  69.841  1.00  0.00    -0.290 A  
HETATM   20  C   UNL     1      -8.316  10.442  67.161  1.00  0.00    -0.126 C  
HETATM   21  C   UNL     1      -5.153  13.736  68.682  1.00  0.00    -0.084 A  
HETATM   22  C   UNL     1      -5.510  13.496  70.009  1.00  0.00    -0.105 A  
HETATM   23  O   UNL     1      -8.970  10.001  66.219  1.00  0.00    -0.144 OA 
HETATM   24  C   UNL     1      -6.400  12.462  70.318  1.00  0.00     0.141 A  
ENDBRANCH   2   4
TORSDOF 1
ENDMDL
MODEL       85
REMARK 921   NORMALIZED FREE ENERGY PREDICTED BY IDOCK:   -4.19 KCAL/MOL
REMARK 922        TOTAL FREE ENERGY PREDICTED BY IDOCK:   -4.76 KCAL/MOL
REMARK 923 INTER-LIGAND FREE ENERGY PREDICTED BY IDOCK:   -4.46 KCAL/MOL
REMARK 924 INTRA-LIGAND FREE ENERGY PREDICTED BY IDOCK:   -0.29 KCAL/MOL
REMARK 927      BINDING AFFINITY PREDICTED BY RF-SCORE:    0.00 PKD
ROOT
HETATM    1  C   UNL     1     -10.226   5.165  71.257  1.00  0.00    -0.292 C  
HETATM    2  C   UNL     1      -9.140   6.121  70.839  1.00  0.00    -0.150 C  
HETATM    3  O   UNL     1      -7.949   5.848  71.001  1.00  0.00    -0.111 OA 
ENDROOT
BRANCH   2   4
HETATM    4  C   UNL     1      -9.552   7.437  70.207  1.00  0.00    -0.165 C  
HETATM    5  C   UNL     1      -8.867   7.692  68.854  1.00  0.00    -0.135 C  
HETATM    6  C   UNL     1      -9.137   6.657  67.755  1.00  0.00    -0.113 A  
HETATM    7  C   UNL     1      -9.112   9.147  68.420  1.00  0.00    -0.132 C  
HETATM    8  C   UNL     1     -10.287   5.851  67.714  1.00  0.00    -0.262 A  
HETATM    9  C   UNL     1     -10.077   9.630  67.615  1.00  0.00    -0.194 C  
HETATM   10  C   UNL     1     -10.079  11.033  67.202  1.00  0.00    -0.227 A  
HETATM   11  O   UNL     1     -11.142   8.913  67.120  1.00  0.00    -0.314 OA 
HETATM   12  C   UNL     1     -10.510   4.978  66.643  1.00  0.00    -0.301 A  
HETATM   13  H   UNL     1     -11.823   9.253  66.552  1.00  0.00     0.000 HD 
HETATM   14  C   UNL     1      -9.229  11.919  67.846  1.00  0.00    -0.187 A  
HETATM   15  C   UNL     1      -9.573   4.871  65.621  1.00  0.00    -0.168 A  
HETATM   16  C   UNL     1      -9.209  13.279  67.540  1.00  0.00    -0.213 A  
HETATM   17  O   UNL     1      -8.314  11.460  68.802  1.00  0.00    -0.150 OA 
HETATM   18  C   UNL     1      -8.408   5.628  65.665  1.00  0.00    -0.135 A  
HETATM   19  C   UNL     1      -8.196   6.520  66.718  1.00  0.00    -0.110 A  
HETATM   20  C   UNL     1      -8.112  10.102  68.995  1.00  0.00    -0.125 C  
HETATM   21  C   UNL     1     -10.030  13.760  66.522  1.00  0.00    -0.290 A  
HETATM   22  C   UNL     1     -10.860  12.881  65.827  1.00  0.00    -0.292 A  
HETATM   23  O   UNL     1      -7.179   9.706  69.690  1.00  0.00    -0.066 OA 
HETATM   24  C   UNL     1     -10.894  11.526  66.175  1.00  0.00    -0.330 A  
ENDBRANCH   2   4
TORSDOF 1
ENDMDL
MODEL       86
REMARK 921   NORMALIZED FREE ENERGY PREDICTED BY IDOCK:   -4.17 KCAL/MOL
REMARK 922        TOTAL FREE ENERGY PREDICTED BY IDOCK:   -4.74 KCAL/MOL
REMARK 923 INTER-LIGAND FREE ENERGY PREDICTED BY IDOCK:   -4.46 KCAL/MOL
REMARK 924 INTRA-LIGAND FREE ENERGY PREDICTED BY IDOCK:   -0.27 KCAL/MOL
REMARK 927      BINDING AFFINITY PREDICTED BY RF-SCORE:    0.00 PKD
ROOT
HETATM    1  C   UNL     1      -9.454   3.779  64.854  1.00  0.00    -0.167 C  
HETATM    2  C   UNL     1      -8.852   4.624  65.946  1.00  0.00    -0.124 C  
HETATM    3  O   UNL     1      -7.794   4.307  66.492  1.00  0.00    -0.096 OA 
ENDROOT
BRANCH   2   4
HETATM    4  C   UNL     1      -9.586   5.887  66.356  1.00  0.00    -0.173 C  
HETATM    5  C   UNL     1      -8.638   7.068  66.630  1.00  0.00    -0.124 C  
HETATM    6  C   UNL     1      -7.763   7.517  65.454  1.00  0.00    -0.109 A  
HETATM    7  C   UNL     1      -9.420   8.208  67.303  1.00  0.00    -0.196 C  
HETATM    8  C   UNL     1      -8.106   7.311  64.107  1.00  0.00    -0.036 A  
HETATM    9  C   UNL     1     -10.004   9.277  66.728  1.00  0.00    -0.245 C  
HETATM   10  C   UNL     1     -10.596  10.338  67.542  1.00  0.00    -0.320 A  
HETATM   11  O   UNL     1     -10.133   9.489  65.375  1.00  0.00    -0.383 OA 
HETATM   12  C   UNL     1      -7.300   7.812  63.079  1.00  0.00    -0.100 A  
HETATM   13  H   UNL     1     -10.545  10.243  64.970  1.00  0.00     0.000 HD 
HETATM   14  C   UNL     1     -10.777  10.115  68.899  1.00  0.00    -0.223 A  
HETATM   15  C   UNL     1      -6.124   8.491  63.380  1.00  0.00    -0.077 A  
HETATM   16  C   UNL     1     -11.378  11.061  69.729  1.00  0.00    -0.366 A  
HETATM   17  O   UNL     1     -10.310   8.938  69.496  1.00  0.00    -0.202 OA 
HETATM   18  C   UNL     1      -5.744   8.669  64.706  1.00  0.00    -0.058 A  
HETATM   19  C   UNL     1      -6.561   8.194  65.734  1.00  0.00    -0.052 A  
HETATM   20  C   UNL     1      -9.504   8.057  68.791  1.00  0.00    -0.147 C  
HETATM   21  C   UNL     1     -11.763  12.288  69.195  1.00  0.00    -0.377 A  
HETATM   22  C   UNL     1     -11.549  12.555  67.843  1.00  0.00    -0.403 A  
HETATM   23  O   UNL     1      -8.942   7.131  69.370  1.00  0.00    -0.136 OA 
HETATM   24  C   UNL     1     -10.979  11.579  67.019  1.00  0.00    -0.347 A  
ENDBRANCH   2   4
TORSDOF 1
ENDMDL
MODEL       87
REMARK 921   NORMALIZED FREE ENERGY PREDICTED BY IDOCK:   -4.16 KCAL/MOL
REMARK 922        TOTAL FREE ENERGY PREDICTED BY IDOCK:   -4.73 KCAL/MOL
REMARK 923 INTER-LIGAND FREE ENERGY PREDICTED BY IDOCK:   -4.38 KCAL/MOL
REMARK 924 INTRA-LIGAND FREE ENERGY PREDICTED BY IDOCK:   -0.35 KCAL/MOL
REMARK 927      BINDING AFFINITY PREDICTED BY RF-SCORE:    0.00 PKD
ROOT
HETATM    1  C   UNL     1      -7.472  15.330  69.510  1.00  0.00    -0.214 C  
HETATM    2  C   UNL     1      -7.186  15.195  68.038  1.00  0.00    -0.127 C  
HETATM    3  O   UNL     1      -7.071  16.186  67.314  1.00  0.00    -0.158 OA 
ENDROOT
BRANCH   2   4
HETATM    4  C   UNL     1      -7.040  13.799  67.464  1.00  0.00    -0.172 C  
HETATM    5  C   UNL     1      -8.254  12.901  67.756  1.00  0.00    -0.174 C  
HETATM    6  C   UNL     1      -9.600  13.384  67.204  1.00  0.00    -0.241 A  
HETATM    7  C   UNL     1      -7.914  11.444  67.396  1.00  0.00    -0.139 C  
HETATM    8  C   UNL     1      -9.723  14.231  66.090  1.00  0.00    -0.325 A  
HETATM    9  C   UNL     1      -8.158  10.787  66.247  1.00  0.00    -0.159 C  
HETATM   10  C   UNL     1      -7.881   9.356  66.126  1.00  0.00    -0.100 A  
HETATM   11  O   UNL     1      -8.651  11.347  65.092  1.00  0.00    -0.386 OA 
HETATM   12  C   UNL     1     -10.984  14.576  65.590  1.00  0.00    -0.323 A  
HETATM   13  H   UNL     1      -8.824  10.884  64.280  1.00  0.00     0.000 HD 
HETATM   14  C   UNL     1      -7.132   8.736  67.115  1.00  0.00    -0.075 A  
HETATM   15  C   UNL     1     -12.135  14.112  66.216  1.00  0.00    -0.463 A  
HETATM   16  C   UNL     1      -6.788   7.386  67.045  1.00  0.00    -0.074 A  
HETATM   17  O   UNL     1      -6.735   9.443  68.257  1.00  0.00    -0.058 OA 
HETATM   18  C   UNL     1     -12.036  13.308  67.347  1.00  0.00    -0.383 A  
HETATM   19  C   UNL     1     -10.779  12.940  67.831  1.00  0.00    -0.235 A  
HETATM   20  C   UNL     1      -7.228  10.714  68.510  1.00  0.00    -0.086 C  
HETATM   21  C   UNL     1      -7.251   6.621  65.977  1.00  0.00    -0.071 A  
HETATM   22  C   UNL     1      -8.046   7.209  64.994  1.00  0.00    -0.119 A  
HETATM   23  O   UNL     1      -7.031  11.251  69.598  1.00  0.00    -0.122 OA 
HETATM   24  C   UNL     1      -8.349   8.574  65.062  1.00  0.00    -0.175 A  
ENDBRANCH   2   4
TORSDOF 1
ENDMDL
MODEL       88
REMARK 921   NORMALIZED FREE ENERGY PREDICTED BY IDOCK:   -4.16 KCAL/MOL
REMARK 922        TOTAL FREE ENERGY PREDICTED BY IDOCK:   -4.73 KCAL/MOL
REMARK 923 INTER-LIGAND FREE ENERGY PREDICTED BY IDOCK:   -5.43 KCAL/MOL
REMARK 924 INTRA-LIGAND FREE ENERGY PREDICTED BY IDOCK:    0.71 KCAL/MOL
REMARK 927      BINDING AFFINITY PREDICTED BY RF-SCORE:    0.00 PKD
ROOT
HETATM    1  C   UNL     1     -13.875  13.974  71.551  1.00  0.00    -0.334 C  
HETATM    2  C   UNL     1     -12.887  14.553  70.572  1.00  0.00    -0.304 C  
HETATM    3  O   UNL     1     -13.026  15.691  70.119  1.00  0.00    -0.246 OA 
ENDROOT
BRANCH   2   4
HETATM    4  C   UNL     1     -11.707  13.695  70.158  1.00  0.00    -0.288 C  
HETATM    5  C   UNL     1     -11.309  13.895  68.686  1.00  0.00    -0.310 C  
HETATM    6  C   UNL     1     -10.887  15.314  68.288  1.00  0.00    -0.262 A  
HETATM    7  C   UNL     1     -10.307  12.803  68.272  1.00  0.00    -0.248 C  
HETATM    8  C   UNL     1     -10.363  16.252  69.193  1.00  0.00    -0.272 A  
HETATM    9  C   UNL     1      -8.962  12.857  68.270  1.00  0.00    -0.175 C  
HETATM   10  C   UNL     1      -8.166  11.763  67.715  1.00  0.00    -0.144 A  
HETATM   11  O   UNL     1      -8.200  13.883  68.780  1.00  0.00    -0.262 OA 
HETATM   12  C   UNL     1      -9.928  17.506  68.752  1.00  0.00    -0.342 A  
HETATM   13  H   UNL     1      -7.251  13.922  68.778  1.00  0.00     0.000 HD 
HETATM   14  C   UNL     1      -8.796  10.562  67.424  1.00  0.00    -0.132 A  
HETATM   15  C   UNL     1     -10.044  17.854  67.410  1.00  0.00    -0.341 A  
HETATM   16  C   UNL     1      -8.094   9.458  66.939  1.00  0.00    -0.109 A  
HETATM   17  O   UNL     1     -10.183  10.433  67.564  1.00  0.00    -0.189 OA 
HETATM   18  C   UNL     1     -10.600  16.957  66.505  1.00  0.00    -0.185 A  
HETATM   19  C   UNL     1     -11.009  15.695  66.938  1.00  0.00    -0.243 A  
HETATM   20  C   UNL     1     -10.976  11.541  67.818  1.00  0.00    -0.236 C  
HETATM   21  C   UNL     1      -6.730   9.576  66.688  1.00  0.00    -0.072 A  
HETATM   22  C   UNL     1      -6.082  10.788  66.927  1.00  0.00    -0.071 A  
HETATM   23  O   UNL     1     -12.200  11.458  67.749  1.00  0.00    -0.537 OA 
HETATM   24  C   UNL     1      -6.795  11.872  67.450  1.00  0.00    -0.130 A  
ENDBRANCH   2   4
TORSDOF 1
ENDMDL
MODEL       89
REMARK 921   NORMALIZED FREE ENERGY PREDICTED BY IDOCK:   -4.16 KCAL/MOL
REMARK 922        TOTAL FREE ENERGY PREDICTED BY IDOCK:   -4.72 KCAL/MOL
REMARK 923 INTER-LIGAND FREE ENERGY PREDICTED BY IDOCK:   -4.39 KCAL/MOL
REMARK 924 INTRA-LIGAND FREE ENERGY PREDICTED BY IDOCK:   -0.33 KCAL/MOL
REMARK 927      BINDING AFFINITY PREDICTED BY RF-SCORE:    0.00 PKD
ROOT
HETATM    1  C   UNL     1      -9.887  13.430  66.150  1.00  0.00    -0.289 C  
HETATM    2  C   UNL     1     -10.936  12.349  66.118  1.00  0.00    -0.286 C  
HETATM    3  O   UNL     1     -12.092  12.567  66.485  1.00  0.00    -0.572 OA 
ENDROOT
BRANCH   2   4
HETATM    4  C   UNL     1     -10.531  10.976  65.616  1.00  0.00    -0.293 C  
HETATM    5  C   UNL     1      -9.419  10.333  66.463  1.00  0.00    -0.212 C  
HETATM    6  C   UNL     1      -9.747  10.100  67.942  1.00  0.00    -0.166 A  
HETATM    7  C   UNL     1      -8.875   9.091  65.737  1.00  0.00    -0.216 C  
HETATM    8  C   UNL     1     -11.054   9.944  68.433  1.00  0.00    -0.193 A  
HETATM    9  C   UNL     1      -9.241   7.804  65.889  1.00  0.00    -0.019 C  
HETATM   10  C   UNL     1      -8.519   6.731  65.206  1.00  0.00    -0.067 A  
HETATM   11  O   UNL     1     -10.297   7.355  66.649  1.00  0.00    -0.433 OA 
HETATM   12  C   UNL     1     -11.281   9.659  69.784  1.00  0.00    -0.208 A  
HETATM   13  H   UNL     1     -10.555   6.447  66.756  1.00  0.00     0.000 HD 
HETATM   14  C   UNL     1      -7.620   7.065  64.205  1.00  0.00    -0.112 A  
HETATM   15  C   UNL     1     -10.212   9.564  70.668  1.00  0.00    -0.364 A  
HETATM   16  C   UNL     1      -6.931   6.096  63.477  1.00  0.00    -0.042 A  
HETATM   17  O   UNL     1      -7.334   8.407  63.923  1.00  0.00    -0.093 OA 
HETATM   18  C   UNL     1      -8.913   9.758  70.211  1.00  0.00    -0.198 A  
HETATM   19  C   UNL     1      -8.682  10.015  68.859  1.00  0.00    -0.146 A  
HETATM   20  C   UNL     1      -7.798   9.419  64.748  1.00  0.00    -0.118 C  
HETATM   21  C   UNL     1      -7.108   4.751  63.795  1.00  0.00    -0.049 A  
HETATM   22  C   UNL     1      -7.971   4.392  64.830  1.00  0.00    -0.094 A  
HETATM   23  O   UNL     1      -7.389  10.570  64.611  1.00  0.00    -0.069 OA 
HETATM   24  C   UNL     1      -8.683   5.377  65.523  1.00  0.00    -0.154 A  
ENDBRANCH   2   4
TORSDOF 1
ENDMDL
MODEL       90
REMARK 921   NORMALIZED FREE ENERGY PREDICTED BY IDOCK:   -4.14 KCAL/MOL
REMARK 922        TOTAL FREE ENERGY PREDICTED BY IDOCK:   -4.70 KCAL/MOL
REMARK 923 INTER-LIGAND FREE ENERGY PREDICTED BY IDOCK:   -4.39 KCAL/MOL
REMARK 924 INTRA-LIGAND FREE ENERGY PREDICTED BY IDOCK:   -0.31 KCAL/MOL
REMARK 927      BINDING AFFINITY PREDICTED BY RF-SCORE:    0.00 PKD
ROOT
HETATM    1  C   UNL     1      -6.165   8.226  69.500  1.00  0.00    -0.033 C  
HETATM    2  C   UNL     1      -7.470   7.589  69.099  1.00  0.00    -0.098 C  
HETATM    3  O   UNL     1      -7.672   6.385  69.265  1.00  0.00    -0.097 OA 
ENDROOT
BRANCH   2   4
HETATM    4  C   UNL     1      -8.537   8.474  68.484  1.00  0.00    -0.138 C  
HETATM    5  C   UNL     1      -7.975   9.452  67.438  1.00  0.00    -0.106 C  
HETATM    6  C   UNL     1      -7.282   8.819  66.227  1.00  0.00    -0.086 A  
HETATM    7  C   UNL     1      -9.051  10.489  67.075  1.00  0.00    -0.156 C  
HETATM    8  C   UNL     1      -7.561   7.523  65.761  1.00  0.00    -0.093 A  
HETATM    9  C   UNL     1      -9.928  10.464  66.054  1.00  0.00    -0.241 C  
HETATM   10  C   UNL     1     -10.798  11.608  65.782  1.00  0.00    -0.334 A  
HETATM   11  O   UNL     1     -10.126   9.409  65.193  1.00  0.00    -0.345 OA 
HETATM   12  C   UNL     1      -6.947   7.031  64.604  1.00  0.00    -0.051 A  
HETATM   13  H   UNL     1     -10.745   9.391  64.472  1.00  0.00     0.000 HD 
HETATM   14  C   UNL     1     -10.893  12.614  66.731  1.00  0.00    -0.250 A  
HETATM   15  C   UNL     1      -6.020   7.809  63.919  1.00  0.00    -0.057 A  
HETATM   16  C   UNL     1     -11.738  13.711  66.563  1.00  0.00    -0.414 A  
HETATM   17  O   UNL     1     -10.096  12.585  67.882  1.00  0.00    -0.202 OA 
HETATM   18  C   UNL     1      -5.696   9.078  64.388  1.00  0.00    -0.064 A  
HETATM   19  C   UNL     1      -6.328   9.582  65.526  1.00  0.00    -0.067 A  
HETATM   20  C   UNL     1      -9.074  11.657  68.013  1.00  0.00    -0.177 C  
HETATM   21  C   UNL     1     -12.472  13.831  65.385  1.00  0.00    -0.532 A  
HETATM   22  C   UNL     1     -12.357  12.857  64.394  1.00  0.00    -0.468 A  
HETATM   23  O   UNL     1      -8.259  11.756  68.927  1.00  0.00    -0.073 OA 
HETATM   24  C   UNL     1     -11.534  11.744  64.597  1.00  0.00    -0.303 A  
ENDBRANCH   2   4
TORSDOF 1
ENDMDL
MODEL       91
REMARK 921   NORMALIZED FREE ENERGY PREDICTED BY IDOCK:   -4.10 KCAL/MOL
REMARK 922        TOTAL FREE ENERGY PREDICTED BY IDOCK:   -4.66 KCAL/MOL
REMARK 923 INTER-LIGAND FREE ENERGY PREDICTED BY IDOCK:   -4.35 KCAL/MOL
REMARK 924 INTRA-LIGAND FREE ENERGY PREDICTED BY IDOCK:   -0.31 KCAL/MOL
REMARK 927      BINDING AFFINITY PREDICTED BY RF-SCORE:    0.00 PKD
ROOT
HETATM    1  C   UNL     1      -7.041  12.519  68.883  1.00  0.00    -0.073 C  
HETATM    2  C   UNL     1      -6.906  11.156  69.508  1.00  0.00    -0.127 C  
HETATM    3  O   UNL     1      -6.508  11.018  70.666  1.00  0.00    -0.327 OA 
ENDROOT
BRANCH   2   4
HETATM    4  C   UNL     1      -7.279   9.947  68.670  1.00  0.00    -0.072 C  
HETATM    5  C   UNL     1      -8.191   8.959  69.417  1.00  0.00    -0.107 C  
HETATM    6  C   UNL     1      -9.542   9.510  69.887  1.00  0.00    -0.250 A  
HETATM    7  C   UNL     1      -8.290   7.648  68.619  1.00  0.00    -0.129 C  
HETATM    8  C   UNL     1     -10.192  10.596  69.278  1.00  0.00    -0.235 A  
HETATM    9  C   UNL     1      -9.228   7.281  67.725  1.00  0.00    -0.126 C  
HETATM   10  C   UNL     1      -9.236   5.933  67.156  1.00  0.00    -0.116 A  
HETATM   11  O   UNL     1     -10.232   8.085  67.241  1.00  0.00    -0.219 OA 
HETATM   12  C   UNL     1     -11.459  11.003  69.708  1.00  0.00    -0.387 A  
HETATM   13  H   UNL     1     -10.894   7.826  66.610  1.00  0.00     0.000 HD 
HETATM   14  C   UNL     1      -8.129   5.121  67.348  1.00  0.00    -0.100 A  
HETATM   15  C   UNL     1     -12.078  10.358  70.773  1.00  0.00    -0.463 A  
HETATM   16  C   UNL     1      -8.045   3.843  66.796  1.00  0.00    -0.096 A  
HETATM   17  O   UNL     1      -7.067   5.545  68.156  1.00  0.00    -0.064 OA 
HETATM   18  C   UNL     1     -11.434   9.307  71.417  1.00  0.00    -0.439 A  
HETATM   19  C   UNL     1     -10.181   8.881  70.973  1.00  0.00    -0.322 A  
HETATM   20  C   UNL     1      -7.174   6.696  68.921  1.00  0.00    -0.091 C  
HETATM   21  C   UNL     1      -9.124   3.342  66.071  1.00  0.00    -0.153 A  
HETATM   22  C   UNL     1     -10.269   4.121  65.904  1.00  0.00    -0.124 A  
HETATM   23  O   UNL     1      -6.323   6.959  69.769  1.00  0.00    -0.036 OA 
HETATM   24  C   UNL     1     -10.319   5.416  66.433  1.00  0.00    -0.298 A  
ENDBRANCH   2   4
TORSDOF 1
ENDMDL
MODEL       92
REMARK 921   NORMALIZED FREE ENERGY PREDICTED BY IDOCK:   -3.96 KCAL/MOL
REMARK 922        TOTAL FREE ENERGY PREDICTED BY IDOCK:   -4.52 KCAL/MOL
REMARK 923 INTER-LIGAND FREE ENERGY PREDICTED BY IDOCK:   -4.34 KCAL/MOL
REMARK 924 INTRA-LIGAND FREE ENERGY PREDICTED BY IDOCK:   -0.18 KCAL/MOL
REMARK 927      BINDING AFFINITY PREDICTED BY RF-SCORE:    0.00 PKD
ROOT
HETATM    1  C   UNL     1     -13.377  10.494  70.347  1.00  0.00     0.176 C  
HETATM    2  C   UNL     1     -12.124  11.327  70.414  1.00  0.00    -0.384 C  
HETATM    3  O   UNL     1     -11.128  10.937  71.025  1.00  0.00     0.345 OA 
ENDROOT
BRANCH   2   4
HETATM    4  C   UNL     1     -12.119  12.667  69.702  1.00  0.00    -0.277 C  
HETATM    5  C   UNL     1     -10.717  13.089  69.232  1.00  0.00     0.027 C  
HETATM    6  C   UNL     1     -10.024  12.146  68.242  1.00  0.00    -0.212 A  
HETATM    7  C   UNL     1     -10.748  14.560  68.781  1.00  0.00    -0.257 C  
HETATM    8  C   UNL     1     -10.716  11.274  67.385  1.00  0.00    -0.285 A  
HETATM    9  C   UNL     1     -10.920  15.052  67.540  1.00  0.00    -0.307 C  
HETATM   10  C   UNL     1     -10.789  16.484  67.274  1.00  0.00    -0.173 A  
HETATM   11  O   UNL     1     -11.245  14.316  66.424  1.00  0.00    -0.322 OA 
HETATM   12  C   UNL     1     -10.026  10.492  66.452  1.00  0.00    -0.271 A  
HETATM   13  H   UNL     1     -11.366  14.663  65.547  1.00  0.00     0.000 HD 
HETATM   14  C   UNL     1     -10.738  17.359  68.349  1.00  0.00    -0.301 A  
HETATM   15  C   UNL     1      -8.638  10.541  66.387  1.00  0.00    -0.147 A  
HETATM   16  C   UNL     1     -10.662  18.741  68.173  1.00  0.00    -0.180 A  
HETATM   17  O   UNL     1     -10.711  16.874  69.662  1.00  0.00    -0.318 OA 
HETATM   18  C   UNL     1      -7.931  11.365  67.256  1.00  0.00    -0.149 A  
HETATM   19  C   UNL     1      -8.618  12.167  68.169  1.00  0.00    -0.177 A  
HETATM   20  C   UNL     1     -10.553  15.520  69.914  1.00  0.00    -0.313 C  
HETATM   21  C   UNL     1     -10.583  19.260  66.883  1.00  0.00    -0.557 A  
HETATM   22  C   UNL     1     -10.584  18.397  65.787  1.00  0.00    -0.236 A  
HETATM   23  O   UNL     1     -10.336  15.123  71.057  1.00  0.00     0.096 OA 
HETATM   24  C   UNL     1     -10.699  17.017  65.982  1.00  0.00    -0.116 A  
ENDBRANCH   2   4
TORSDOF 1
ENDMDL
MODEL       93
REMARK 921   NORMALIZED FREE ENERGY PREDICTED BY IDOCK:   -3.96 KCAL/MOL
REMARK 922        TOTAL FREE ENERGY PREDICTED BY IDOCK:   -4.51 KCAL/MOL
REMARK 923 INTER-LIGAND FREE ENERGY PREDICTED BY IDOCK:   -4.21 KCAL/MOL
REMARK 924 INTRA-LIGAND FREE ENERGY PREDICTED BY IDOCK:   -0.30 KCAL/MOL
REMARK 927      BINDING AFFINITY PREDICTED BY RF-SCORE:    0.00 PKD
ROOT
HETATM    1  C   UNL     1     -10.131   3.376  63.913  1.00  0.00    -0.196 C  
HETATM    2  C   UNL     1      -9.733   3.595  65.349  1.00  0.00    -0.130 C  
HETATM    3  O   UNL     1      -9.000   2.799  65.939  1.00  0.00    -0.138 OA 
ENDROOT
BRANCH   2   4
HETATM    4  C   UNL     1     -10.259   4.830  66.055  1.00  0.00    -0.308 C  
HETATM    5  C   UNL     1      -9.150   5.648  66.737  1.00  0.00    -0.120 C  
HETATM    6  C   UNL     1      -8.050   6.192  65.817  1.00  0.00    -0.124 A  
HETATM    7  C   UNL     1      -9.783   6.708  67.654  1.00  0.00    -0.142 C  
HETATM    8  C   UNL     1      -8.236   6.441  64.447  1.00  0.00    -0.019 A  
HETATM    9  C   UNL     1     -10.065   7.995  67.376  1.00  0.00    -0.228 C  
HETATM   10  C   UNL     1     -10.549   8.900  68.418  1.00  0.00    -0.190 A  
HETATM   11  O   UNL     1      -9.962   8.590  66.140  1.00  0.00    -0.432 OA 
HETATM   12  C   UNL     1      -7.214   7.009  63.679  1.00  0.00    -0.071 A  
HETATM   13  H   UNL     1     -10.161   9.498  65.944  1.00  0.00     0.000 HD 
HETATM   14  C   UNL     1     -10.955   8.364  69.631  1.00  0.00    -0.087 A  
HETATM   15  C   UNL     1      -5.983   7.299  64.256  1.00  0.00    -0.037 A  
HETATM   16  C   UNL     1     -11.473   9.159  70.653  1.00  0.00    -0.310 A  
HETATM   17  O   UNL     1     -10.811   6.996  69.889  1.00  0.00    -0.235 OA 
HETATM   18  C   UNL     1      -5.764   7.020  65.601  1.00  0.00    -0.032 A  
HETATM   19  C   UNL     1      -6.791   6.480  66.377  1.00  0.00    -0.061 A  
HETATM   20  C   UNL     1     -10.100   6.182  69.020  1.00  0.00    -0.173 C  
HETATM   21  C   UNL     1     -11.537  10.539  70.477  1.00  0.00    -0.441 A  
HETATM   22  C   UNL     1     -11.089  11.108  69.284  1.00  0.00    -0.318 A  
HETATM   23  O   UNL     1      -9.812   5.031  69.343  1.00  0.00    -0.166 OA 
HETATM   24  C   UNL     1     -10.610  10.290  68.255  1.00  0.00    -0.255 A  
ENDBRANCH   2   4
TORSDOF 1
ENDMDL
MODEL       94
REMARK 921   NORMALIZED FREE ENERGY PREDICTED BY IDOCK:   -3.95 KCAL/MOL
REMARK 922        TOTAL FREE ENERGY PREDICTED BY IDOCK:   -4.50 KCAL/MOL
REMARK 923 INTER-LIGAND FREE ENERGY PREDICTED BY IDOCK:   -4.16 KCAL/MOL
REMARK 924 INTRA-LIGAND FREE ENERGY PREDICTED BY IDOCK:   -0.35 KCAL/MOL
REMARK 927      BINDING AFFINITY PREDICTED BY RF-SCORE:    0.00 PKD
ROOT
HETATM    1  C   UNL     1      -7.861  10.200  69.793  1.00  0.00    -0.175 C  
HETATM    2  C   UNL     1      -9.225  10.095  69.163  1.00  0.00    -0.197 C  
HETATM    3  O   UNL     1     -10.166  10.789  69.553  1.00  0.00    -0.202 OA 
ENDROOT
BRANCH   2   4
HETATM    4  C   UNL     1      -9.412   9.109  68.025  1.00  0.00    -0.157 C  
HETATM    5  C   UNL     1      -8.981   7.680  68.395  1.00  0.00    -0.128 C  
HETATM    6  C   UNL     1      -9.727   7.032  69.567  1.00  0.00    -0.160 A  
HETATM    7  C   UNL     1      -8.934   6.813  67.125  1.00  0.00    -0.116 C  
HETATM    8  C   UNL     1     -11.026   7.397  69.958  1.00  0.00    -0.264 A  
HETATM    9  C   UNL     1      -9.891   6.010  66.623  1.00  0.00    -0.164 C  
HETATM   10  C   UNL     1      -9.624   5.153  65.469  1.00  0.00    -0.062 A  
HETATM   11  O   UNL     1     -11.181   5.912  67.090  1.00  0.00    -0.497 OA 
HETATM   12  C   UNL     1     -11.681   6.716  70.990  1.00  0.00    -0.415 A  
HETATM   13  H   UNL     1     -11.857   5.345  66.736  1.00  0.00     0.000 HD 
HETATM   14  C   UNL     1      -8.462   5.358  64.741  1.00  0.00    -0.138 A  
HETATM   15  C   UNL     1     -11.035   5.688  71.669  1.00  0.00    -0.277 A  
HETATM   16  C   UNL     1      -8.162   4.612  63.601  1.00  0.00    -0.107 A  
HETATM   17  O   UNL     1      -7.515   6.300  65.161  1.00  0.00    -0.074 OA 
HETATM   18  C   UNL     1      -9.733   5.340  71.327  1.00  0.00    -0.222 A  
HETATM   19  C   UNL     1      -9.088   6.000  70.280  1.00  0.00    -0.159 A  
HETATM   20  C   UNL     1      -7.628   6.914  66.399  1.00  0.00    -0.089 C  
HETATM   21  C   UNL     1      -9.027   3.595  63.207  1.00  0.00    -0.098 A  
HETATM   22  C   UNL     1     -10.179   3.336  63.950  1.00  0.00    -0.207 A  
HETATM   23  O   UNL     1      -6.702   7.589  66.844  1.00  0.00    -0.062 OA 
HETATM   24  C   UNL     1     -10.481   4.120  65.068  1.00  0.00    -0.187 A  
ENDBRANCH   2   4
TORSDOF 1
ENDMDL
MODEL       95
REMARK 921   NORMALIZED FREE ENERGY PREDICTED BY IDOCK:   -3.91 KCAL/MOL
REMARK 922        TOTAL FREE ENERGY PREDICTED BY IDOCK:   -4.46 KCAL/MOL
REMARK 923 INTER-LIGAND FREE ENERGY PREDICTED BY IDOCK:   -4.17 KCAL/MOL
REMARK 924 INTRA-LIGAND FREE ENERGY PREDICTED BY IDOCK:   -0.29 KCAL/MOL
REMARK 927      BINDING AFFINITY PREDICTED BY RF-SCORE:    0.00 PKD
ROOT
HETATM    1  C   UNL     1      -7.863   9.697  70.441  1.00  0.00    -0.181 C  
HETATM    2  C   UNL     1      -9.363   9.784  70.340  1.00  0.00    -0.126 C  
HETATM    3  O   UNL     1     -10.093   8.994  70.942  1.00  0.00    -0.218 OA 
ENDROOT
BRANCH   2   4
HETATM    4  C   UNL     1      -9.958  10.879  69.475  1.00  0.00    -0.010 C  
HETATM    5  C   UNL     1      -9.192  11.084  68.158  1.00  0.00    -0.165 C  
HETATM    6  C   UNL     1      -9.125   9.873  67.220  1.00  0.00    -0.149 A  
HETATM    7  C   UNL     1      -9.674  12.378  67.479  1.00  0.00    -0.191 C  
HETATM    8  C   UNL     1     -10.077   8.840  67.217  1.00  0.00    -0.301 A  
HETATM    9  C   UNL     1     -10.622  12.524  66.534  1.00  0.00    -0.242 C  
HETATM   10  C   UNL     1     -10.860  13.822  65.903  1.00  0.00    -0.283 A  
HETATM   11  O   UNL     1     -11.458  11.533  66.076  1.00  0.00    -0.274 OA 
HETATM   12  C   UNL     1     -10.000   7.800  66.285  1.00  0.00    -0.047 A  
HETATM   13  H   UNL     1     -12.127  11.636  65.409  1.00  0.00     0.000 HD 
HETATM   14  C   UNL     1     -10.281  14.951  66.463  1.00  0.00    -0.275 A  
HETATM   15  C   UNL     1      -8.953   7.755  65.371  1.00  0.00     0.090 A  
HETATM   16  C   UNL     1     -10.501  16.228  65.946  1.00  0.00    -0.359 A  
HETATM   17  O   UNL     1      -9.405  14.839  67.549  1.00  0.00    -0.189 OA 
HETATM   18  C   UNL     1      -7.976   8.745  65.386  1.00  0.00    -0.112 A  
HETATM   19  C   UNL     1      -8.066   9.799  66.296  1.00  0.00    -0.113 A  
HETATM   20  C   UNL     1      -8.957  13.597  67.973  1.00  0.00    -0.188 C  
HETATM   21  C   UNL     1     -11.283  16.374  64.803  1.00  0.00    -0.219 A  
HETATM   22  C   UNL     1     -11.837  15.249  64.193  1.00  0.00    -0.138 A  
HETATM   23  O   UNL     1      -8.047  13.512  68.794  1.00  0.00    -0.093 OA 
HETATM   24  C   UNL     1     -11.637  13.981  64.748  1.00  0.00    -0.387 A  
ENDBRANCH   2   4
TORSDOF 1
ENDMDL
MODEL       96
REMARK 921   NORMALIZED FREE ENERGY PREDICTED BY IDOCK:   -3.91 KCAL/MOL
REMARK 922        TOTAL FREE ENERGY PREDICTED BY IDOCK:   -4.46 KCAL/MOL
REMARK 923 INTER-LIGAND FREE ENERGY PREDICTED BY IDOCK:   -4.17 KCAL/MOL
REMARK 924 INTRA-LIGAND FREE ENERGY PREDICTED BY IDOCK:   -0.29 KCAL/MOL
REMARK 927      BINDING AFFINITY PREDICTED BY RF-SCORE:    0.00 PKD
ROOT
HETATM    1  C   UNL     1      -9.945  10.342  64.403  1.00  0.00    -0.388 C  
HETATM    2  C   UNL     1     -10.456  11.498  65.222  1.00  0.00    -0.283 C  
HETATM    3  O   UNL     1     -11.663  11.718  65.339  1.00  0.00    -0.232 OA 
ENDROOT
BRANCH   2   4
HETATM    4  C   UNL     1      -9.438  12.391  65.907  1.00  0.00    -0.134 C  
HETATM    5  C   UNL     1      -9.690  12.536  67.418  1.00  0.00    -0.194 C  
HETATM    6  C   UNL     1      -9.650  11.240  68.235  1.00  0.00    -0.193 A  
HETATM    7  C   UNL     1      -8.805  13.661  67.980  1.00  0.00    -0.187 C  
HETATM    8  C   UNL     1      -8.934  10.096  67.844  1.00  0.00    -0.128 A  
HETATM    9  C   UNL     1      -7.592  13.564  68.556  1.00  0.00    -0.129 C  
HETATM   10  C   UNL     1      -6.949  14.732  69.156  1.00  0.00    -0.138 A  
HETATM   11  O   UNL     1      -6.829  12.421  68.632  1.00  0.00    -0.076 OA 
HETATM   12  C   UNL     1      -8.877   8.970  68.672  1.00  0.00    -0.137 A  
HETATM   13  H   UNL     1      -5.973  12.353  69.038  1.00  0.00     0.000 HD 
HETATM   14  C   UNL     1      -7.481  15.988  68.906  1.00  0.00    -0.188 A  
HETATM   15  C   UNL     1      -9.562   8.956  69.882  1.00  0.00    -0.185 A  
HETATM   16  C   UNL     1      -6.896  17.152  69.405  1.00  0.00    -0.165 A  
HETATM   17  O   UNL     1      -8.669  16.126  68.176  1.00  0.00    -0.171 OA 
HETATM   18  C   UNL     1     -10.312  10.061  70.268  1.00  0.00    -0.301 A  
HETATM   19  C   UNL     1     -10.348  11.196  69.457  1.00  0.00    -0.018 A  
HETATM   20  C   UNL     1      -9.430  15.016  67.845  1.00  0.00    -0.195 C  
HETATM   21  C   UNL     1      -5.772  17.052  70.222  1.00  0.00    -0.173 A  
HETATM   22  C   UNL     1      -5.246  15.797  70.528  1.00  0.00    -0.163 A  
HETATM   23  O   UNL     1     -10.558  15.154  67.378  1.00  0.00    -0.261 OA 
HETATM   24  C   UNL     1      -5.824  14.644  69.987  1.00  0.00    -0.131 A  
ENDBRANCH   2   4
TORSDOF 1
ENDMDL
MODEL       97
REMARK 921   NORMALIZED FREE ENERGY PREDICTED BY IDOCK:   -3.89 KCAL/MOL
REMARK 922        TOTAL FREE ENERGY PREDICTED BY IDOCK:   -4.43 KCAL/MOL
REMARK 923 INTER-LIGAND FREE ENERGY PREDICTED BY IDOCK:   -4.19 KCAL/MOL
REMARK 924 INTRA-LIGAND FREE ENERGY PREDICTED BY IDOCK:   -0.25 KCAL/MOL
REMARK 927      BINDING AFFINITY PREDICTED BY RF-SCORE:    0.00 PKD
ROOT
HETATM    1  C   UNL     1     -11.137  12.761  69.361  1.00  0.00    -0.129 C  
HETATM    2  C   UNL     1     -11.468  11.297  69.234  1.00  0.00    -0.301 C  
HETATM    3  O   UNL     1     -12.293  10.895  68.411  1.00  0.00    -0.477 OA 
ENDROOT
BRANCH   2   4
HETATM    4  C   UNL     1     -10.753  10.322  70.150  1.00  0.00    -0.334 C  
HETATM    5  C   UNL     1     -10.438   8.980  69.468  1.00  0.00    -0.223 C  
HETATM    6  C   UNL     1      -9.537   9.048  68.229  1.00  0.00    -0.158 A  
HETATM    7  C   UNL     1      -9.977   7.962  70.524  1.00  0.00    -0.191 C  
HETATM    8  C   UNL     1      -8.614  10.081  67.996  1.00  0.00    -0.121 A  
HETATM    9  C   UNL     1      -8.721   7.655  70.901  1.00  0.00    -0.138 C  
HETATM   10  C   UNL     1      -8.463   6.560  71.834  1.00  0.00    -0.119 A  
HETATM   11  O   UNL     1      -7.581   8.309  70.496  1.00  0.00    -0.071 OA 
HETATM   12  C   UNL     1      -7.767  10.046  66.882  1.00  0.00    -0.096 A  
HETATM   13  H   UNL     1      -6.694   8.092  70.761  1.00  0.00     0.000 HD 
HETATM   14  C   UNL     1      -9.531   6.005  72.524  1.00  0.00    -0.147 A  
HETATM   15  C   UNL     1      -7.856   9.001  65.969  1.00  0.00    -0.102 A  
HETATM   16  C   UNL     1      -9.356   4.991  73.465  1.00  0.00    -0.134 A  
HETATM   17  O   UNL     1     -10.842   6.417  72.256  1.00  0.00    -0.221 OA 
HETATM   18  C   UNL     1      -8.792   7.990  66.158  1.00  0.00    -0.198 A  
HETATM   19  C   UNL     1      -9.619   8.009  67.283  1.00  0.00    -0.210 A  
HETATM   20  C   UNL     1     -11.119   7.249  71.182  1.00  0.00    -0.253 C  
HETATM   21  C   UNL     1      -8.080   4.479  73.685  1.00  0.00    -0.098 A  
HETATM   22  C   UNL     1      -6.995   4.987  72.970  1.00  0.00    -0.078 A  
HETATM   23  O   UNL     1     -12.281   7.451  70.837  1.00  0.00    -0.298 OA 
HETATM   24  C   UNL     1      -7.185   6.031  72.058  1.00  0.00    -0.092 A  
ENDBRANCH   2   4
TORSDOF 1
ENDMDL
MODEL       98
REMARK 921   NORMALIZED FREE ENERGY PREDICTED BY IDOCK:   -3.86 KCAL/MOL
REMARK 922        TOTAL FREE ENERGY PREDICTED BY IDOCK:   -4.41 KCAL/MOL
REMARK 923 INTER-LIGAND FREE ENERGY PREDICTED BY IDOCK:   -4.10 KCAL/MOL
REMARK 924 INTRA-LIGAND FREE ENERGY PREDICTED BY IDOCK:   -0.31 KCAL/MOL
REMARK 927      BINDING AFFINITY PREDICTED BY RF-SCORE:    0.00 PKD
ROOT
HETATM    1  C   UNL     1     -10.681   6.858  72.345  1.00  0.00    -0.257 C  
HETATM    2  C   UNL     1     -10.498   5.901  71.197  1.00  0.00    -0.233 C  
HETATM    3  O   UNL     1     -10.386   4.688  71.385  1.00  0.00    -0.176 OA 
ENDROOT
BRANCH   2   4
HETATM    4  C   UNL     1     -10.457   6.471  69.791  1.00  0.00    -0.256 C  
HETATM    5  C   UNL     1      -9.271   7.425  69.566  1.00  0.00    -0.146 C  
HETATM    6  C   UNL     1      -7.875   6.823  69.758  1.00  0.00    -0.115 A  
HETATM    7  C   UNL     1      -9.457   8.169  68.233  1.00  0.00    -0.148 C  
HETATM    8  C   UNL     1      -7.592   5.454  69.611  1.00  0.00    -0.070 A  
HETATM    9  C   UNL     1      -8.966   7.850  67.021  1.00  0.00    -0.128 C  
HETATM   10  C   UNL     1      -9.136   8.750  65.881  1.00  0.00    -0.271 A  
HETATM   11  O   UNL     1      -8.296   6.690  66.706  1.00  0.00    -0.112 OA 
HETATM   12  C   UNL     1      -6.281   4.979  69.726  1.00  0.00    -0.026 A  
HETATM   13  H   UNL     1      -7.950   6.465  65.851  1.00  0.00     0.000 HD 
HETATM   14  C   UNL     1     -10.021   9.811  65.995  1.00  0.00    -0.272 A  
HETATM   15  C   UNL     1      -5.243   5.854  70.026  1.00  0.00    -0.009 A  
HETATM   16  C   UNL     1     -10.271  10.683  64.935  1.00  0.00    -0.395 A  
HETATM   17  O   UNL     1     -10.664  10.075  67.211  1.00  0.00    -0.262 OA 
HETATM   18  C   UNL     1      -5.508   7.206  70.219  1.00  0.00    -0.023 A  
HETATM   19  C   UNL     1      -6.810   7.687  70.077  1.00  0.00    -0.050 A  
HETATM   20  C   UNL     1     -10.298   9.401  68.366  1.00  0.00    -0.205 C  
HETATM   21  C   UNL     1      -9.575  10.518  63.740  1.00  0.00    -0.363 A  
HETATM   22  C   UNL     1      -8.643   9.488  63.616  1.00  0.00    -0.222 A  
HETATM   23  O   UNL     1     -10.724   9.767  69.459  1.00  0.00    -0.213 OA 
HETATM   24  C   UNL     1      -8.435   8.600  64.677  1.00  0.00    -0.150 A  
ENDBRANCH   2   4
TORSDOF 1
ENDMDL
MODEL       99
REMARK 921   NORMALIZED FREE ENERGY PREDICTED BY IDOCK:   -3.85 KCAL/MOL
REMARK 922        TOTAL FREE ENERGY PREDICTED BY IDOCK:   -4.40 KCAL/MOL
REMARK 923 INTER-LIGAND FREE ENERGY PREDICTED BY IDOCK:   -4.06 KCAL/MOL
REMARK 924 INTRA-LIGAND FREE ENERGY PREDICTED BY IDOCK:   -0.34 KCAL/MOL
REMARK 927      BINDING AFFINITY PREDICTED BY RF-SCORE:    0.00 PKD
ROOT
HETATM    1  C   UNL     1      -5.754  16.982  69.611  1.00  0.00    -0.207 C  
HETATM    2  C   UNL     1      -6.231  16.917  68.184  1.00  0.00    -0.132 C  
HETATM    3  O   UNL     1      -6.345  17.936  67.499  1.00  0.00    -0.163 OA 
ENDROOT
BRANCH   2   4
HETATM    4  C   UNL     1      -6.566  15.556  67.604  1.00  0.00    -0.195 C  
HETATM    5  C   UNL     1      -7.667  14.825  68.390  1.00  0.00    -0.122 C  
HETATM    6  C   UNL     1      -9.024  15.534  68.467  1.00  0.00    -0.191 A  
HETATM    7  C   UNL     1      -7.748  13.362  67.920  1.00  0.00    -0.153 C  
HETATM    8  C   UNL     1      -9.471  16.463  67.513  1.00  0.00    -0.224 A  
HETATM    9  C   UNL     1      -8.557  12.826  66.987  1.00  0.00    -0.177 C  
HETATM   10  C   UNL     1      -8.589  11.382  66.761  1.00  0.00    -0.166 A  
HETATM   11  O   UNL     1      -9.398  13.528  66.155  1.00  0.00    -0.449 OA 
HETATM   12  C   UNL     1     -10.752  17.018  67.602  1.00  0.00    -0.295 A  
HETATM   13  H   UNL     1      -9.969  13.150  65.496  1.00  0.00     0.000 HD 
HETATM   14  C   UNL     1      -7.602  10.595  67.334  1.00  0.00    -0.095 A  
HETATM   15  C   UNL     1     -11.588  16.685  68.662  1.00  0.00     0.081 A  
HETATM   16  C   UNL     1      -7.540   9.217  67.124  1.00  0.00    -0.091 A  
HETATM   17  O   UNL     1      -6.651  11.159  68.194  1.00  0.00    -0.057 OA 
HETATM   18  C   UNL     1     -11.149  15.800  69.641  1.00  0.00    -0.307 A  
HETATM   19  C   UNL     1      -9.882  15.223  69.540  1.00  0.00    -0.230 A  
HETATM   20  C   UNL     1      -6.781  12.468  68.633  1.00  0.00    -0.087 C  
HETATM   21  C   UNL     1      -8.526   8.600  66.359  1.00  0.00    -0.117 A  
HETATM   22  C   UNL     1      -9.558   9.362  65.811  1.00  0.00    -0.340 A  
HETATM   23  O   UNL     1      -6.060  12.896  69.531  1.00  0.00    -0.102 OA 
HETATM   24  C   UNL     1      -9.582  10.748  66.001  1.00  0.00    -0.244 A  
ENDBRANCH   2   4
TORSDOF 1
ENDMDL
MODEL      100
REMARK 921   NORMALIZED FREE ENERGY PREDICTED BY IDOCK:   -3.82 KCAL/MOL
REMARK 922        TOTAL FREE ENERGY PREDICTED BY IDOCK:   -4.36 KCAL/MOL
REMARK 923 INTER-LIGAND FREE ENERGY PREDICTED BY IDOCK:   -4.02 KCAL/MOL
REMARK 924 INTRA-LIGAND FREE ENERGY PREDICTED BY IDOCK:   -0.35 KCAL/MOL
REMARK 927      BINDING AFFINITY PREDICTED BY RF-SCORE:    0.00 PKD
ROOT
HETATM    1  C   UNL     1      -5.879   8.715  72.084  1.00  0.00    -0.064 C  
HETATM    2  C   UNL     1      -6.455   9.425  70.887  1.00  0.00    -0.096 C  
HETATM    3  O   UNL     1      -6.532  10.655  70.847  1.00  0.00    -0.350 OA 
ENDROOT
BRANCH   2   4
HETATM    4  C   UNL     1      -6.938   8.583  69.722  1.00  0.00    -0.047 C  
HETATM    5  C   UNL     1      -7.985   7.535  70.134  1.00  0.00    -0.111 C  
HETATM    6  C   UNL     1      -9.278   8.079  70.753  1.00  0.00    -0.165 A  
HETATM    7  C   UNL     1      -8.211   6.551  68.974  1.00  0.00    -0.116 C  
HETATM    8  C   UNL     1      -9.773   9.371  70.507  1.00  0.00    -0.331 A  
HETATM    9  C   UNL     1      -9.154   6.590  68.014  1.00  0.00    -0.114 C  
HETATM   10  C   UNL     1      -9.302   5.491  67.060  1.00  0.00    -0.118 A  
HETATM   11  O   UNL     1     -10.039   7.621  67.801  1.00  0.00    -0.165 OA 
HETATM   12  C   UNL     1     -10.998   9.781  71.044  1.00  0.00    -0.402 A  
HETATM   13  H   UNL     1     -10.705   7.649  67.123  1.00  0.00     0.000 HD 
HETATM   14  C   UNL     1      -8.306   4.528  66.992  1.00  0.00    -0.105 A  
HETATM   15  C   UNL     1     -11.725   8.924  71.863  1.00  0.00    -0.439 A  
HETATM   16  C   UNL     1      -8.354   3.478  66.076  1.00  0.00    -0.106 A  
HETATM   17  O   UNL     1      -7.230   4.553  67.888  1.00  0.00    -0.063 OA 
HETATM   18  C   UNL     1     -11.232   7.657  72.155  1.00  0.00    -0.331 A  
HETATM   19  C   UNL     1     -10.024   7.235  71.598  1.00  0.00    -0.192 A  
HETATM   20  C   UNL     1      -7.226   5.422  68.968  1.00  0.00    -0.062 C  
HETATM   21  C   UNL     1      -9.459   3.358  65.236  1.00  0.00    -0.145 A  
HETATM   22  C   UNL     1     -10.497   4.285  65.318  1.00  0.00    -0.196 A  
HETATM   23  O   UNL     1      -6.381   5.309  69.853  1.00  0.00    -0.024 OA 
HETATM   24  C   UNL     1     -10.413   5.354  66.217  1.00  0.00    -0.277 A  
ENDBRANCH   2   4
TORSDOF 1
ENDMDL
MODEL      101
REMARK 921   NORMALIZED FREE ENERGY PREDICTED BY IDOCK:   -3.78 KCAL/MOL
REMARK 922        TOTAL FREE ENERGY PREDICTED BY IDOCK:   -4.32 KCAL/MOL
REMARK 923 INTER-LIGAND FREE ENERGY PREDICTED BY IDOCK:   -3.98 KCAL/MOL
REMARK 924 INTRA-LIGAND FREE ENERGY PREDICTED BY IDOCK:   -0.35 KCAL/MOL
REMARK 927      BINDING AFFINITY PREDICTED BY RF-SCORE:    0.00 PKD
ROOT
HETATM    1  C   UNL     1      -6.691   4.736  64.646  1.00  0.00    -0.044 C  
HETATM    2  C   UNL     1      -8.129   5.158  64.496  1.00  0.00    -0.120 C  
HETATM    3  O   UNL     1      -8.606   5.427  63.391  1.00  0.00    -0.101 OA 
ENDROOT
BRANCH   2   4
HETATM    4  C   UNL     1      -8.982   5.241  65.747  1.00  0.00    -0.154 C  
HETATM    5  C   UNL     1      -8.372   6.149  66.829  1.00  0.00    -0.110 C  
HETATM    6  C   UNL     1      -8.155   7.614  66.436  1.00  0.00    -0.113 A  
HETATM    7  C   UNL     1      -9.138   5.960  68.149  1.00  0.00    -0.117 C  
HETATM    8  C   UNL     1      -8.895   8.270  65.438  1.00  0.00    -0.116 A  
HETATM    9  C   UNL     1     -10.167   6.682  68.631  1.00  0.00    -0.171 C  
HETATM   10  C   UNL     1     -10.691   6.439  69.975  1.00  0.00    -0.316 A  
HETATM   11  O   UNL     1     -10.838   7.674  67.954  1.00  0.00    -0.444 OA 
HETATM   12  C   UNL     1      -8.698   9.630  65.179  1.00  0.00    -0.192 A  
HETATM   13  H   UNL     1     -11.564   8.184  68.295  1.00  0.00     0.000 HD 
HETATM   14  C   UNL     1     -10.290   5.296  70.651  1.00  0.00    -0.254 A  
HETATM   15  C   UNL     1      -7.736  10.345  65.883  1.00  0.00    -0.145 A  
HETATM   16  C   UNL     1     -10.784   4.974  71.915  1.00  0.00    -0.181 A  
HETATM   17  O   UNL     1      -9.327   4.443  70.098  1.00  0.00    -0.122 OA 
HETATM   18  C   UNL     1      -6.961   9.705  66.845  1.00  0.00    -0.085 A  
HETATM   19  C   UNL     1      -7.175   8.354  67.125  1.00  0.00    -0.084 A  
HETATM   20  C   UNL     1      -8.624   4.810  68.961  1.00  0.00    -0.080 C  
HETATM   21  C   UNL     1     -11.666   5.848  72.545  1.00  0.00    -0.288 A  
HETATM   22  C   UNL     1     -12.047   7.029  71.907  1.00  0.00    -0.358 A  
HETATM   23  O   UNL     1      -7.653   4.154  68.592  1.00  0.00    -0.059 OA 
HETATM   24  C   UNL     1     -11.571   7.316  70.623  1.00  0.00    -0.322 A  
ENDBRANCH   2   4
TORSDOF 1
ENDMDL
MODEL      102
REMARK 921   NORMALIZED FREE ENERGY PREDICTED BY IDOCK:   -3.71 KCAL/MOL
REMARK 922        TOTAL FREE ENERGY PREDICTED BY IDOCK:   -4.25 KCAL/MOL
REMARK 923 INTER-LIGAND FREE ENERGY PREDICTED BY IDOCK:   -3.93 KCAL/MOL
REMARK 924 INTRA-LIGAND FREE ENERGY PREDICTED BY IDOCK:   -0.32 KCAL/MOL
REMARK 927      BINDING AFFINITY PREDICTED BY RF-SCORE:    0.00 PKD
ROOT
HETATM    1  C   UNL     1     -11.467   8.328  72.223  1.00  0.00    -0.452 C  
HETATM    2  C   UNL     1     -11.952   7.045  71.600  1.00  0.00    -0.329 C  
HETATM    3  O   UNL     1     -12.736   6.302  72.192  1.00  0.00    -0.214 OA 
ENDROOT
BRANCH   2   4
HETATM    4  C   UNL     1     -11.449   6.691  70.213  1.00  0.00    -0.449 C  
HETATM    5  C   UNL     1      -9.924   6.506  70.158  1.00  0.00    -0.190 C  
HETATM    6  C   UNL     1      -9.345   5.402  71.050  1.00  0.00    -0.188 A  
HETATM    7  C   UNL     1      -9.468   6.430  68.691  1.00  0.00    -0.122 C  
HETATM    8  C   UNL     1     -10.079   4.282  71.476  1.00  0.00    -0.205 A  
HETATM    9  C   UNL     1      -9.268   5.337  67.931  1.00  0.00    -0.112 C  
HETATM   10  C   UNL     1      -8.703   5.449  66.586  1.00  0.00    -0.115 A  
HETATM   11  O   UNL     1      -9.570   4.044  68.291  1.00  0.00    -0.163 OA 
HETATM   12  C   UNL     1      -9.471   3.271  72.228  1.00  0.00    -0.186 A  
HETATM   13  H   UNL     1      -9.428   3.272  67.755  1.00  0.00     0.000 HD 
HETATM   14  C   UNL     1      -8.613   6.704  66.004  1.00  0.00    -0.148 A  
HETATM   15  C   UNL     1      -8.135   3.382  72.597  1.00  0.00    -0.076 A  
HETATM   16  C   UNL     1      -8.131   6.885  64.707  1.00  0.00    -0.095 A  
HETATM   17  O   UNL     1      -8.961   7.852  66.727  1.00  0.00    -0.132 OA 
HETATM   18  C   UNL     1      -7.402   4.503  72.224  1.00  0.00    -0.076 A  
HETATM   19  C   UNL     1      -7.999   5.500  71.450  1.00  0.00    -0.112 A  
HETATM   20  C   UNL     1      -9.229   7.779  68.085  1.00  0.00    -0.138 C  
HETATM   21  C   UNL     1      -7.676   5.780  63.991  1.00  0.00    -0.101 A  
HETATM   22  C   UNL     1      -7.712   4.513  64.572  1.00  0.00    -0.081 A  
HETATM   23  O   UNL     1      -9.343   8.806  68.751  1.00  0.00    -0.141 OA 
HETATM   24  C   UNL     1      -8.235   4.347  65.859  1.00  0.00    -0.109 A  
ENDBRANCH   2   4
TORSDOF 1
ENDMDL
MODEL      103
REMARK 921   NORMALIZED FREE ENERGY PREDICTED BY IDOCK:   -3.68 KCAL/MOL
REMARK 922        TOTAL FREE ENERGY PREDICTED BY IDOCK:   -4.22 KCAL/MOL
REMARK 923 INTER-LIGAND FREE ENERGY PREDICTED BY IDOCK:   -4.04 KCAL/MOL
REMARK 924 INTRA-LIGAND FREE ENERGY PREDICTED BY IDOCK:   -0.18 KCAL/MOL
REMARK 927      BINDING AFFINITY PREDICTED BY RF-SCORE:    0.00 PKD
ROOT
HETATM    1  C   UNL     1      -9.753   2.170  68.184  1.00  0.00     0.073 C  
HETATM    2  C   UNL     1      -9.051   3.347  68.808  1.00  0.00    -0.145 C  
HETATM    3  O   UNL     1      -7.919   3.240  69.283  1.00  0.00    -0.050 OA 
ENDROOT
BRANCH   2   4
HETATM    4  C   UNL     1      -9.777   4.679  68.834  1.00  0.00    -0.236 C  
HETATM    5  C   UNL     1      -8.819   5.883  68.819  1.00  0.00    -0.111 C  
HETATM    6  C   UNL     1      -7.894   5.994  67.602  1.00  0.00    -0.101 A  
HETATM    7  C   UNL     1      -9.606   7.168  69.130  1.00  0.00    -0.154 C  
HETATM    8  C   UNL     1      -8.190   5.435  66.347  1.00  0.00    -0.109 A  
HETATM    9  C   UNL     1     -10.149   8.046  68.266  1.00  0.00    -0.196 C  
HETATM   10  C   UNL     1     -10.753   9.291  68.741  1.00  0.00    -0.184 A  
HETATM   11  O   UNL     1     -10.225   7.888  66.902  1.00  0.00    -0.263 OA 
HETATM   12  C   UNL     1      -7.338   5.637  65.256  1.00  0.00    -0.072 A  
HETATM   13  H   UNL     1     -10.608   8.508  66.292  1.00  0.00     0.000 HD 
HETATM   14  C   UNL     1     -10.987   9.443  70.099  1.00  0.00    -0.246 A  
HETATM   15  C   UNL     1      -6.163   6.363  65.410  1.00  0.00    -0.034 A  
HETATM   16  C   UNL     1     -11.602  10.581  70.620  1.00  0.00    -0.445 A  
HETATM   17  O   UNL     1     -10.563   8.466  71.009  1.00  0.00    -0.205 OA 
HETATM   18  C   UNL     1      -5.829   6.888  66.654  1.00  0.00    -0.025 A  
HETATM   19  C   UNL     1      -6.691   6.712  67.738  1.00  0.00    -0.071 A  
HETATM   20  C   UNL     1      -9.747   7.423  70.599  1.00  0.00    -0.175 C  
HETATM   21  C   UNL     1     -11.946  11.622  69.762  1.00  0.00    -0.402 A  
HETATM   22  C   UNL     1     -11.677  11.514  68.397  1.00  0.00    -0.372 A  
HETATM   23  O   UNL     1      -9.223   6.682  71.428  1.00  0.00    -0.151 OA 
HETATM   24  C   UNL     1     -11.095  10.349  67.889  1.00  0.00    -0.363 A  
ENDBRANCH   2   4
TORSDOF 1
ENDMDL
MODEL      104
REMARK 921   NORMALIZED FREE ENERGY PREDICTED BY IDOCK:   -3.67 KCAL/MOL
REMARK 922        TOTAL FREE ENERGY PREDICTED BY IDOCK:   -4.21 KCAL/MOL
REMARK 923 INTER-LIGAND FREE ENERGY PREDICTED BY IDOCK:   -3.87 KCAL/MOL
REMARK 924 INTRA-LIGAND FREE ENERGY PREDICTED BY IDOCK:   -0.34 KCAL/MOL
REMARK 927      BINDING AFFINITY PREDICTED BY RF-SCORE:    0.00 PKD
ROOT
HETATM    1  C   UNL     1      -9.820   8.355  66.137  1.00  0.00    -0.183 C  
HETATM    2  C   UNL     1      -8.417   8.395  66.682  1.00  0.00    -0.111 C  
HETATM    3  O   UNL     1      -7.757   7.365  66.830  1.00  0.00    -0.105 OA 
ENDROOT
BRANCH   2   4
HETATM    4  C   UNL     1      -7.830   9.747  67.044  1.00  0.00    -0.102 C  
HETATM    5  C   UNL     1      -8.778  10.601  67.902  1.00  0.00    -0.127 C  
HETATM    6  C   UNL     1      -9.186  10.005  69.254  1.00  0.00    -0.212 A  
HETATM    7  C   UNL     1      -8.239  12.039  67.986  1.00  0.00    -0.156 C  
HETATM    8  C   UNL     1      -8.411   9.066  69.954  1.00  0.00    -0.139 A  
HETATM    9  C   UNL     1      -7.463  12.588  68.939  1.00  0.00     0.011 C  
HETATM   10  C   UNL     1      -7.152  14.017  68.925  1.00  0.00    -0.111 A  
HETATM   11  O   UNL     1      -6.874  11.911  69.982  1.00  0.00    -0.356 OA 
HETATM   12  C   UNL     1      -8.803   8.616  71.220  1.00  0.00    -0.263 A  
HETATM   13  H   UNL     1      -6.326  12.298  70.655  1.00  0.00     0.000 HD 
HETATM   14  C   UNL     1      -7.451  14.753  67.789  1.00  0.00    -0.163 A  
HETATM   15  C   UNL     1      -9.991   9.068  71.786  1.00  0.00    -0.359 A  
HETATM   16  C   UNL     1      -7.141  16.109  67.683  1.00  0.00    -0.170 A  
HETATM   17  O   UNL     1      -8.129  14.162  66.715  1.00  0.00     0.002 OA 
HETATM   18  C   UNL     1     -10.794   9.965  71.091  1.00  0.00    -0.226 A  
HETATM   19  C   UNL     1     -10.392  10.436  69.840  1.00  0.00    -0.231 A  
HETATM   20  C   UNL     1      -8.672  12.892  66.833  1.00  0.00    -0.161 C  
HETATM   21  C   UNL     1      -6.560  16.760  68.769  1.00  0.00    -0.180 A  
HETATM   22  C   UNL     1      -6.294  16.053  69.941  1.00  0.00    -0.134 A  
HETATM   23  O   UNL     1      -9.425  12.456  65.965  1.00  0.00    -0.232 OA 
HETATM   24  C   UNL     1      -6.577  14.685  70.013  1.00  0.00    -0.161 A  
ENDBRANCH   2   4
TORSDOF 1
ENDMDL
MODEL      105
REMARK 921   NORMALIZED FREE ENERGY PREDICTED BY IDOCK:   -3.65 KCAL/MOL
REMARK 922        TOTAL FREE ENERGY PREDICTED BY IDOCK:   -4.19 KCAL/MOL
REMARK 923 INTER-LIGAND FREE ENERGY PREDICTED BY IDOCK:   -3.91 KCAL/MOL
REMARK 924 INTRA-LIGAND FREE ENERGY PREDICTED BY IDOCK:   -0.28 KCAL/MOL
REMARK 927      BINDING AFFINITY PREDICTED BY RF-SCORE:    0.00 PKD
ROOT
HETATM    1  C   UNL     1     -10.854   4.421  73.610  1.00  0.00    -0.367 C  
HETATM    2  C   UNL     1     -10.721   5.874  73.240  1.00  0.00    -0.265 C  
HETATM    3  O   UNL     1     -10.735   6.759  74.098  1.00  0.00    -0.212 OA 
ENDROOT
BRANCH   2   4
HETATM    4  C   UNL     1     -10.563   6.225  71.772  1.00  0.00    -0.266 C  
HETATM    5  C   UNL     1      -9.546   7.353  71.532  1.00  0.00    -0.163 C  
HETATM    6  C   UNL     1      -8.111   7.079  71.999  1.00  0.00    -0.097 A  
HETATM    7  C   UNL     1      -9.650   7.838  70.076  1.00  0.00    -0.161 C  
HETATM    8  C   UNL     1      -7.571   5.789  72.131  1.00  0.00    -0.101 A  
HETATM    9  C   UNL     1      -8.928   7.447  69.009  1.00  0.00    -0.131 C  
HETATM   10  C   UNL     1      -9.075   8.114  67.717  1.00  0.00    -0.140 A  
HETATM   11  O   UNL     1      -8.022   6.411  68.990  1.00  0.00    -0.107 OA 
HETATM   12  C   UNL     1      -6.231   5.609  72.491  1.00  0.00    -0.047 A  
HETATM   13  H   UNL     1      -7.512   6.135  68.237  1.00  0.00     0.000 HD 
HETATM   14  C   UNL     1     -10.141   8.981  67.531  1.00  0.00    -0.228 A  
HETATM   15  C   UNL     1      -5.424   6.710  72.759  1.00  0.00    -0.038 A  
HETATM   16  C   UNL     1     -10.373   9.617  66.311  1.00  0.00    -0.230 A  
HETATM   17  O   UNL     1     -11.002   9.289  68.592  1.00  0.00    -0.128 OA 
HETATM   18  C   UNL     1      -5.951   7.994  72.676  1.00  0.00    -0.051 A  
HETATM   19  C   UNL     1      -7.281   8.178  72.291  1.00  0.00    -0.108 A  
HETATM   20  C   UNL     1     -10.707   8.882  69.884  1.00  0.00    -0.227 C  
HETATM   21  C   UNL     1      -9.482   9.419  65.260  1.00  0.00    -0.296 A  
HETATM   22  C   UNL     1      -8.374   8.590  65.436  1.00  0.00    -0.164 A  
HETATM   23  O   UNL     1     -11.356   9.314  70.834  1.00  0.00    -0.267 OA 
HETATM   24  C   UNL     1      -8.180   7.931  66.655  1.00  0.00    -0.119 A  
ENDBRANCH   2   4
TORSDOF 1
ENDMDL
MODEL      106
REMARK 921   NORMALIZED FREE ENERGY PREDICTED BY IDOCK:   -3.63 KCAL/MOL
REMARK 922        TOTAL FREE ENERGY PREDICTED BY IDOCK:   -4.16 KCAL/MOL
REMARK 923 INTER-LIGAND FREE ENERGY PREDICTED BY IDOCK:   -4.60 KCAL/MOL
REMARK 924 INTRA-LIGAND FREE ENERGY PREDICTED BY IDOCK:    0.43 KCAL/MOL
REMARK 927      BINDING AFFINITY PREDICTED BY RF-SCORE:    0.00 PKD
ROOT
HETATM    1  C   UNL     1     -10.905   5.952  66.867  1.00  0.00    -0.376 C  
HETATM    2  C   UNL     1      -9.942   7.097  67.037  1.00  0.00    -0.217 C  
HETATM    3  O   UNL     1      -8.729   6.904  67.142  1.00  0.00    -0.119 OA 
ENDROOT
BRANCH   2   4
HETATM    4  C   UNL     1     -10.506   8.505  67.073  1.00  0.00    -0.362 C  
HETATM    5  C   UNL     1      -9.474   9.552  67.523  1.00  0.00    -0.155 C  
HETATM    6  C   UNL     1      -8.220   9.682  66.651  1.00  0.00    -0.120 A  
HETATM    7  C   UNL     1     -10.185  10.887  67.803  1.00  0.00    -0.209 C  
HETATM    8  C   UNL     1      -8.181   9.334  65.290  1.00  0.00    -0.136 A  
HETATM    9  C   UNL     1     -10.355  11.935  66.975  1.00  0.00    -0.212 C  
HETATM   10  C   UNL     1     -10.946  13.184  67.456  1.00  0.00    -0.282 A  
HETATM   11  O   UNL     1     -10.033  11.962  65.639  1.00  0.00    -0.231 OA 
HETATM   12  C   UNL     1      -7.025   9.547  64.531  1.00  0.00    -0.103 A  
HETATM   13  H   UNL     1     -10.153  12.702  65.054  1.00  0.00     0.000 HD 
HETATM   14  C   UNL     1     -11.561  13.196  68.699  1.00  0.00    -0.321 A  
HETATM   15  C   UNL     1      -5.884  10.074  65.126  1.00  0.00    -0.101 A  
HETATM   16  C   UNL     1     -12.187  14.336  69.202  1.00  0.00    -0.272 A  
HETATM   17  O   UNL     1     -11.528  12.063  69.521  1.00  0.00    -0.284 OA 
HETATM   18  C   UNL     1      -5.888  10.385  66.481  1.00  0.00    -0.068 A  
HETATM   19  C   UNL     1      -7.048  10.199  67.235  1.00  0.00    -0.088 A  
HETATM   20  C   UNL     1     -10.735  10.973  69.194  1.00  0.00    -0.234 C  
HETATM   21  C   UNL     1     -12.153  15.515  68.462  1.00  0.00    -0.048 A  
HETATM   22  C   UNL     1     -11.499  15.542  67.230  1.00  0.00    -0.102 A  
HETATM   23  O   UNL     1     -10.559  10.068  70.006  1.00  0.00    -0.257 OA 
HETATM   24  C   UNL     1     -10.910  14.378  66.724  1.00  0.00    -0.301 A  
ENDBRANCH   2   4
TORSDOF 1
ENDMDL
MODEL      107
REMARK 921   NORMALIZED FREE ENERGY PREDICTED BY IDOCK:   -3.61 KCAL/MOL
REMARK 922        TOTAL FREE ENERGY PREDICTED BY IDOCK:   -4.15 KCAL/MOL
REMARK 923 INTER-LIGAND FREE ENERGY PREDICTED BY IDOCK:   -3.82 KCAL/MOL
REMARK 924 INTRA-LIGAND FREE ENERGY PREDICTED BY IDOCK:   -0.32 KCAL/MOL
REMARK 927      BINDING AFFINITY PREDICTED BY RF-SCORE:    0.00 PKD
ROOT
HETATM    1  C   UNL     1     -10.882   4.836  65.833  1.00  0.00    -0.107 C  
HETATM    2  C   UNL     1      -9.629   4.641  66.646  1.00  0.00    -0.182 C  
HETATM    3  O   UNL     1      -9.260   3.519  66.996  1.00  0.00    -0.163 OA 
ENDROOT
BRANCH   2   4
HETATM    4  C   UNL     1      -8.825   5.872  67.023  1.00  0.00    -0.112 C  
HETATM    5  C   UNL     1      -9.617   6.860  67.896  1.00  0.00    -0.126 C  
HETATM    6  C   UNL     1     -10.116   6.322  69.242  1.00  0.00    -0.213 A  
HETATM    7  C   UNL     1      -8.846   8.187  67.997  1.00  0.00    -0.131 C  
HETATM    8  C   UNL     1      -9.507   5.257  69.927  1.00  0.00    -0.211 A  
HETATM    9  C   UNL     1      -7.987   8.586  68.954  1.00  0.00    -0.118 C  
HETATM   10  C   UNL     1      -7.444   9.943  68.958  1.00  0.00    -0.083 A  
HETATM   11  O   UNL     1      -7.518   7.806  69.986  1.00  0.00    -0.077 OA 
HETATM   12  C   UNL     1      -9.966   4.862  71.188  1.00  0.00    -0.278 A  
HETATM   13  H   UNL     1      -6.912   8.088  70.662  1.00  0.00     0.000 HD 
HETATM   14  C   UNL     1      -7.618  10.734  67.832  1.00  0.00    -0.091 A  
HETATM   15  C   UNL     1     -11.061   5.498  71.764  1.00  0.00    -0.214 A  
HETATM   16  C   UNL     1      -7.086  12.021  67.743  1.00  0.00    -0.108 A  
HETATM   17  O   UNL     1      -8.386  10.279  66.753  1.00  0.00    -0.122 OA 
HETATM   18  C   UNL     1     -11.705   6.525  71.084  1.00  0.00    -0.392 A  
HETATM   19  C   UNL     1     -11.232   6.940  69.838  1.00  0.00    -0.334 A  
HETATM   20  C   UNL     1      -9.132   9.115  66.857  1.00  0.00    -0.135 C  
HETATM   21  C   UNL     1      -6.404  12.552  68.835  1.00  0.00    -0.086 A  
HETATM   22  C   UNL     1      -6.256  11.795  69.997  1.00  0.00    -0.136 A  
HETATM   23  O   UNL     1      -9.950   8.823  65.986  1.00  0.00    -0.256 OA 
HETATM   24  C   UNL     1      -6.763  10.492  70.052  1.00  0.00    -0.151 A  
ENDBRANCH   2   4
TORSDOF 1
ENDMDL
MODEL      108
REMARK 921   NORMALIZED FREE ENERGY PREDICTED BY IDOCK:   -3.59 KCAL/MOL
REMARK 922        TOTAL FREE ENERGY PREDICTED BY IDOCK:   -4.12 KCAL/MOL
REMARK 923 INTER-LIGAND FREE ENERGY PREDICTED BY IDOCK:   -4.12 KCAL/MOL
REMARK 924 INTRA-LIGAND FREE ENERGY PREDICTED BY IDOCK:   -0.01 KCAL/MOL
REMARK 927      BINDING AFFINITY PREDICTED BY RF-SCORE:    0.00 PKD
ROOT
HETATM    1  C   UNL     1      -5.342   5.614  67.519  1.00  0.00    -0.005 C  
HETATM    2  C   UNL     1      -5.959   6.984  67.415  1.00  0.00    -0.028 C  
HETATM    3  O   UNL     1      -5.603   7.783  66.546  1.00  0.00    -0.027 OA 
ENDROOT
BRANCH   2   4
HETATM    4  C   UNL     1      -7.040   7.358  68.412  1.00  0.00    -0.085 C  
HETATM    5  C   UNL     1      -8.451   7.337  67.801  1.00  0.00    -0.121 C  
HETATM    6  C   UNL     1      -8.922   5.992  67.237  1.00  0.00    -0.109 A  
HETATM    7  C   UNL     1      -9.443   7.991  68.778  1.00  0.00    -0.147 C  
HETATM    8  C   UNL     1      -8.429   4.751  67.674  1.00  0.00    -0.104 A  
HETATM    9  C   UNL     1     -10.224   7.398  69.701  1.00  0.00    -0.210 C  
HETATM   10  C   UNL     1     -11.210   8.168  70.457  1.00  0.00    -0.249 A  
HETATM   11  O   UNL     1     -10.183   6.068  70.050  1.00  0.00    -0.180 OA 
HETATM   12  C   UNL     1      -8.955   3.555  67.172  1.00  0.00    -0.168 A  
HETATM   13  H   UNL     1     -10.734   5.649  70.701  1.00  0.00     0.000 HD 
HETATM   14  C   UNL     1     -11.162   9.553  70.400  1.00  0.00    -0.270 A  
HETATM   15  C   UNL     1      -9.950   3.582  66.201  1.00  0.00     0.182 A  
HETATM   16  C   UNL     1     -12.039  10.354  71.131  1.00  0.00    -0.487 A  
HETATM   17  O   UNL     1     -10.251  10.199  69.555  1.00  0.00    -0.209 OA 
HETATM   18  C   UNL     1     -10.422   4.800  65.724  1.00  0.00    -0.275 A  
HETATM   19  C   UNL     1      -9.919   5.994  66.243  1.00  0.00    -0.085 A  
HETATM   20  C   UNL     1      -9.508   9.480  68.632  1.00  0.00    -0.142 C  
HETATM   21  C   UNL     1     -13.028   9.750  71.904  1.00  0.00    -0.535 A  
HETATM   22  C   UNL     1     -13.129   8.360  71.940  1.00  0.00    -0.383 A  
HETATM   23  O   UNL     1      -8.858  10.065  67.768  1.00  0.00    -0.125 OA 
HETATM   24  C   UNL     1     -12.215   7.573  71.230  1.00  0.00    -0.357 A  
ENDBRANCH   2   4
TORSDOF 1
ENDMDL
MODEL      109
REMARK 921   NORMALIZED FREE ENERGY PREDICTED BY IDOCK:   -3.57 KCAL/MOL
REMARK 922        TOTAL FREE ENERGY PREDICTED BY IDOCK:   -4.10 KCAL/MOL
REMARK 923 INTER-LIGAND FREE ENERGY PREDICTED BY IDOCK:   -3.90 KCAL/MOL
REMARK 924 INTRA-LIGAND FREE ENERGY PREDICTED BY IDOCK:   -0.20 KCAL/MOL
REMARK 927      BINDING AFFINITY PREDICTED BY RF-SCORE:    0.00 PKD
ROOT
HETATM    1  C   UNL     1      -9.265   3.432  70.461  1.00  0.00    -0.212 C  
HETATM    2  C   UNL     1      -9.036   4.691  71.256  1.00  0.00    -0.134 C  
HETATM    3  O   UNL     1      -8.226   4.725  72.184  1.00  0.00    -0.107 OA 
ENDROOT
BRANCH   2   4
HETATM    4  C   UNL     1      -9.832   5.927  70.880  1.00  0.00    -0.224 C  
HETATM    5  C   UNL     1      -9.080   7.236  71.175  1.00  0.00    -0.152 C  
HETATM    6  C   UNL     1      -7.744   7.425  70.447  1.00  0.00    -0.093 A  
HETATM    7  C   UNL     1     -10.045   8.425  71.035  1.00  0.00    -0.242 C  
HETATM    8  C   UNL     1      -7.429   6.803  69.227  1.00  0.00    -0.095 A  
HETATM    9  C   UNL     1     -10.258   9.209  69.961  1.00  0.00    -0.204 C  
HETATM   10  C   UNL     1     -11.124  10.385  70.050  1.00  0.00    -0.379 A  
HETATM   11  O   UNL     1      -9.737   9.008  68.705  1.00  0.00    -0.154 OA 
HETATM   12  C   UNL     1      -6.221   7.076  68.576  1.00  0.00    -0.034 A  
HETATM   13  H   UNL     1      -9.887   9.561  67.947  1.00  0.00     0.000 HD 
HETATM   14  C   UNL     1     -11.922  10.543  71.173  1.00  0.00    -0.336 A  
HETATM   15  C   UNL     1      -5.297   7.942  69.151  1.00  0.00    -0.026 A  
HETATM   16  C   UNL     1     -12.807  11.612  71.306  1.00  0.00    -0.430 A  
HETATM   17  O   UNL     1     -11.827   9.648  72.245  1.00  0.00    -0.072 OA 
HETATM   18  C   UNL     1      -5.571   8.535  70.379  1.00  0.00    -0.027 A  
HETATM   19  C   UNL     1      -6.787   8.286  71.017  1.00  0.00    -0.046 A  
HETATM   20  C   UNL     1     -10.817   8.699  72.289  1.00  0.00    -0.322 C  
HETATM   21  C   UNL     1     -12.858  12.582  70.307  1.00  0.00     0.275 A  
HETATM   22  C   UNL     1     -12.031  12.472  69.190  1.00  0.00    -0.287 A  
HETATM   23  O   UNL     1     -10.620   8.049  73.314  1.00  0.00    -0.286 OA 
HETATM   24  C   UNL     1     -11.177  11.371  69.056  1.00  0.00    -0.319 A  
ENDBRANCH   2   4
TORSDOF 1
ENDMDL
MODEL      110
REMARK 921   NORMALIZED FREE ENERGY PREDICTED BY IDOCK:   -3.56 KCAL/MOL
REMARK 922        TOTAL FREE ENERGY PREDICTED BY IDOCK:   -4.09 KCAL/MOL
REMARK 923 INTER-LIGAND FREE ENERGY PREDICTED BY IDOCK:   -3.80 KCAL/MOL
REMARK 924 INTRA-LIGAND FREE ENERGY PREDICTED BY IDOCK:   -0.30 KCAL/MOL
REMARK 927      BINDING AFFINITY PREDICTED BY RF-SCORE:    0.00 PKD
ROOT
HETATM    1  C   UNL     1     -10.832   9.572  71.380  1.00  0.00    -0.382 C  
HETATM    2  C   UNL     1      -9.551   9.248  70.656  1.00  0.00    -0.273 C  
HETATM    3  O   UNL     1      -8.454   9.552  71.128  1.00  0.00    -0.278 OA 
ENDROOT
BRANCH   2   4
HETATM    4  C   UNL     1      -9.647   8.529  69.324  1.00  0.00    -0.170 C  
HETATM    5  C   UNL     1      -8.774   7.265  69.261  1.00  0.00    -0.137 C  
HETATM    6  C   UNL     1      -9.092   6.173  70.290  1.00  0.00    -0.158 A  
HETATM    7  C   UNL     1      -8.705   6.759  67.810  1.00  0.00    -0.120 C  
HETATM    8  C   UNL     1     -10.352   6.014  70.888  1.00  0.00    -0.277 A  
HETATM    9  C   UNL     1      -9.469   5.826  67.211  1.00  0.00    -0.114 C  
HETATM   10  C   UNL     1      -9.175   5.374  65.852  1.00  0.00    -0.165 A  
HETATM   11  O   UNL     1     -10.577   5.225  67.760  1.00  0.00    -0.143 OA 
HETATM   12  C   UNL     1     -10.599   4.950  71.764  1.00  0.00    -0.164 A  
HETATM   13  H   UNL     1     -11.117   4.566  67.337  1.00  0.00     0.000 HD 
HETATM   14  C   UNL     1      -8.263   6.091  65.093  1.00  0.00    -0.142 A  
HETATM   15  C   UNL     1      -9.582   4.057  72.083  1.00  0.00    -0.210 A  
HETATM   16  C   UNL     1      -7.968   5.749  63.773  1.00  0.00    -0.120 A  
HETATM   17  O   UNL     1      -7.562   7.168  65.651  1.00  0.00    -0.084 OA 
HETATM   18  C   UNL     1      -8.314   4.223  71.535  1.00  0.00    -0.096 A  
HETATM   19  C   UNL     1      -8.073   5.266  70.640  1.00  0.00    -0.108 A  
HETATM   20  C   UNL     1      -7.627   7.426  67.012  1.00  0.00    -0.106 C  
HETATM   21  C   UNL     1      -8.565   4.622  63.213  1.00  0.00    -0.123 A  
HETATM   22  C   UNL     1      -9.450   3.856  63.971  1.00  0.00    -0.157 A  
HETATM   23  O   UNL     1      -6.867   8.244  67.525  1.00  0.00    -0.067 OA 
HETATM   24  C   UNL     1      -9.762   4.238  65.280  1.00  0.00    -0.201 A  
ENDBRANCH   2   4
TORSDOF 1
ENDMDL
MODEL      111
REMARK 921   NORMALIZED FREE ENERGY PREDICTED BY IDOCK:   -3.56 KCAL/MOL
REMARK 922        TOTAL FREE ENERGY PREDICTED BY IDOCK:   -4.09 KCAL/MOL
REMARK 923 INTER-LIGAND FREE ENERGY PREDICTED BY IDOCK:   -4.02 KCAL/MOL
REMARK 924 INTRA-LIGAND FREE ENERGY PREDICTED BY IDOCK:   -0.07 KCAL/MOL
REMARK 927      BINDING AFFINITY PREDICTED BY RF-SCORE:    0.00 PKD
ROOT
HETATM    1  C   UNL     1      -6.680  12.224  67.985  1.00  0.00    -0.081 C  
HETATM    2  C   UNL     1      -6.623  11.629  69.367  1.00  0.00    -0.115 C  
HETATM    3  O   UNL     1      -6.393  12.326  70.357  1.00  0.00    -0.123 OA 
ENDROOT
BRANCH   2   4
HETATM    4  C   UNL     1      -6.862  10.137  69.512  1.00  0.00    -0.079 C  
HETATM    5  C   UNL     1      -8.222   9.808  70.150  1.00  0.00    -0.202 C  
HETATM    6  C   UNL     1      -9.460  10.306  69.395  1.00  0.00    -0.225 A  
HETATM    7  C   UNL     1      -8.269   8.315  70.517  1.00  0.00    -0.114 C  
HETATM    8  C   UNL     1      -9.480  10.552  68.012  1.00  0.00    -0.157 A  
HETATM    9  C   UNL     1      -8.764   7.291  69.797  1.00  0.00    -0.142 C  
HETATM   10  C   UNL     1      -8.844   5.945  70.363  1.00  0.00    -0.146 A  
HETATM   11  O   UNL     1      -9.213   7.366  68.499  1.00  0.00    -0.143 OA 
HETATM   12  C   UNL     1     -10.663  10.934  67.370  1.00  0.00    -0.305 A  
HETATM   13  H   UNL     1      -9.562   6.643  67.990  1.00  0.00     0.000 HD 
HETATM   14  C   UNL     1      -8.177   5.679  71.549  1.00  0.00    -0.119 A  
HETATM   15  C   UNL     1     -11.831  11.112  68.104  1.00  0.00    -0.238 A  
HETATM   16  C   UNL     1      -8.169   4.408  72.123  1.00  0.00    -0.107 A  
HETATM   17  O   UNL     1      -7.524   6.704  72.244  1.00  0.00    -0.092 OA 
HETATM   18  C   UNL     1     -11.823  10.916  69.481  1.00  0.00    -0.404 A  
HETATM   19  C   UNL     1     -10.650  10.508  70.119  1.00  0.00    -0.163 A  
HETATM   20  C   UNL     1      -7.678   8.028  71.863  1.00  0.00    -0.097 C  
HETATM   21  C   UNL     1      -8.893   3.383  71.519  1.00  0.00    -0.139 A  
HETATM   22  C   UNL     1      -9.612   3.636  70.351  1.00  0.00    -0.254 A  
HETATM   23  O   UNL     1      -7.263   8.933  72.584  1.00  0.00    -0.337 OA 
HETATM   24  C   UNL     1      -9.577   4.908  69.769  1.00  0.00    -0.243 A  
ENDBRANCH   2   4
TORSDOF 1
ENDMDL
MODEL      112
REMARK 921   NORMALIZED FREE ENERGY PREDICTED BY IDOCK:   -3.54 KCAL/MOL
REMARK 922        TOTAL FREE ENERGY PREDICTED BY IDOCK:   -4.07 KCAL/MOL
REMARK 923 INTER-LIGAND FREE ENERGY PREDICTED BY IDOCK:   -3.77 KCAL/MOL
REMARK 924 INTRA-LIGAND FREE ENERGY PREDICTED BY IDOCK:   -0.30 KCAL/MOL
REMARK 927      BINDING AFFINITY PREDICTED BY RF-SCORE:    0.00 PKD
ROOT
HETATM    1  C   UNL     1      -5.798   7.195  64.637  1.00  0.00    -0.037 C  
HETATM    2  C   UNL     1      -7.279   7.113  64.899  1.00  0.00    -0.071 C  
HETATM    3  O   UNL     1      -8.097   7.177  63.979  1.00  0.00    -0.110 OA 
ENDROOT
BRANCH   2   4
HETATM    4  C   UNL     1      -7.742   6.945  66.334  1.00  0.00    -0.098 C  
HETATM    5  C   UNL     1      -8.814   5.854  66.494  1.00  0.00    -0.128 C  
HETATM    6  C   UNL     1      -8.404   4.438  66.074  1.00  0.00    -0.113 A  
HETATM    7  C   UNL     1      -9.426   5.939  67.903  1.00  0.00    -0.112 C  
HETATM    8  C   UNL     1      -7.074   3.987  66.058  1.00  0.00    -0.067 A  
HETATM    9  C   UNL     1      -9.078   5.255  69.009  1.00  0.00    -0.115 C  
HETATM   10  C   UNL     1      -9.862   5.368  70.239  1.00  0.00    -0.272 A  
HETATM   11  O   UNL     1      -7.989   4.424  69.129  1.00  0.00    -0.068 OA 
HETATM   12  C   UNL     1      -6.773   2.659  65.736  1.00  0.00    -0.043 A  
HETATM   13  H   UNL     1      -7.744   3.941  69.910  1.00  0.00     0.000 HD 
HETATM   14  C   UNL     1     -10.812   6.373  70.335  1.00  0.00    -0.286 A  
HETATM   15  C   UNL     1      -7.789   1.776  65.388  1.00  0.00    -0.072 A  
HETATM   16  C   UNL     1     -11.563   6.572  71.493  1.00  0.00    -0.366 A  
HETATM   17  O   UNL     1     -11.086   7.200  69.239  1.00  0.00    -0.180 OA 
HETATM   18  C   UNL     1      -9.109   2.214  65.355  1.00  0.00    -0.102 A  
HETATM   19  C   UNL     1      -9.415   3.530  65.703  1.00  0.00    -0.142 A  
HETATM   20  C   UNL     1     -10.552   6.922  67.990  1.00  0.00    -0.222 C  
HETATM   21  C   UNL     1     -11.395   5.706  72.571  1.00  0.00    -0.349 A  
HETATM   22  C   UNL     1     -10.480   4.657  72.482  1.00  0.00    -0.257 A  
HETATM   23  O   UNL     1     -10.945   7.531  66.997  1.00  0.00    -0.306 OA 
HETATM   24  C   UNL     1      -9.708   4.497  71.326  1.00  0.00    -0.252 A  
ENDBRANCH   2   4
TORSDOF 1
ENDMDL
MODEL      113
REMARK 921   NORMALIZED FREE ENERGY PREDICTED BY IDOCK:   -3.53 KCAL/MOL
REMARK 922        TOTAL FREE ENERGY PREDICTED BY IDOCK:   -4.06 KCAL/MOL
REMARK 923 INTER-LIGAND FREE ENERGY PREDICTED BY IDOCK:   -3.92 KCAL/MOL
REMARK 924 INTRA-LIGAND FREE ENERGY PREDICTED BY IDOCK:   -0.14 KCAL/MOL
REMARK 927      BINDING AFFINITY PREDICTED BY RF-SCORE:    0.00 PKD
ROOT
HETATM    1  C   UNL     1     -10.347   5.535  71.557  1.00  0.00    -0.282 C  
HETATM    2  C   UNL     1     -10.727   5.942  70.157  1.00  0.00    -0.318 C  
HETATM    3  O   UNL     1     -11.855   6.363  69.896  1.00  0.00    -0.384 OA 
ENDROOT
BRANCH   2   4
HETATM    4  C   UNL     1      -9.676   5.822  69.069  1.00  0.00    -0.180 C  
HETATM    5  C   UNL     1      -9.928   6.773  67.886  1.00  0.00    -0.164 C  
HETATM    6  C   UNL     1      -9.946   8.270  68.216  1.00  0.00    -0.217 A  
HETATM    7  C   UNL     1      -9.000   6.397  66.719  1.00  0.00    -0.134 C  
HETATM    8  C   UNL     1      -9.277   8.831  69.316  1.00  0.00    -0.149 A  
HETATM    9  C   UNL     1      -7.794   6.910  66.410  1.00  0.00    -0.103 C  
HETATM   10  C   UNL     1      -7.106   6.523  65.178  1.00  0.00    -0.060 A  
HETATM   11  O   UNL     1      -7.081   7.801  67.178  1.00  0.00    -0.081 OA 
HETATM   12  C   UNL     1      -9.270  10.215  69.519  1.00  0.00    -0.223 A  
HETATM   13  H   UNL     1      -6.230   8.163  66.959  1.00  0.00     0.000 HD 
HETATM   14  C   UNL     1      -7.585   5.437  64.461  1.00  0.00    -0.078 A  
HETATM   15  C   UNL     1      -9.961  11.053  68.651  1.00  0.00    -0.205 A  
HETATM   16  C   UNL     1      -6.953   4.980  63.304  1.00  0.00    -0.042 A  
HETATM   17  O   UNL     1      -8.762   4.788  64.852  1.00  0.00    -0.138 OA 
HETATM   18  C   UNL     1     -10.666  10.514  67.580  1.00  0.00    -0.326 A  
HETATM   19  C   UNL     1     -10.651   9.136  67.359  1.00  0.00    -0.315 A  
HETATM   20  C   UNL     1      -9.567   5.319  65.848  1.00  0.00    -0.125 C  
HETATM   21  C   UNL     1      -5.839   5.661  62.822  1.00  0.00    -0.014 A  
HETATM   22  C   UNL     1      -5.366   6.786  63.499  1.00  0.00    -0.027 A  
HETATM   23  O   UNL     1     -10.687   4.856  66.054  1.00  0.00    -0.316 OA 
HETATM   24  C   UNL     1      -5.990   7.206  64.679  1.00  0.00    -0.037 A  
ENDBRANCH   2   4
TORSDOF 1
ENDMDL
MODEL      114
REMARK 921   NORMALIZED FREE ENERGY PREDICTED BY IDOCK:   -3.47 KCAL/MOL
REMARK 922        TOTAL FREE ENERGY PREDICTED BY IDOCK:   -4.00 KCAL/MOL
REMARK 923 INTER-LIGAND FREE ENERGY PREDICTED BY IDOCK:   -3.79 KCAL/MOL
REMARK 924 INTRA-LIGAND FREE ENERGY PREDICTED BY IDOCK:   -0.21 KCAL/MOL
REMARK 927      BINDING AFFINITY PREDICTED BY RF-SCORE:    0.00 PKD
ROOT
HETATM    1  C   UNL     1      -9.964   9.294  71.598  1.00  0.00    -0.198 C  
HETATM    2  C   UNL     1     -10.489   8.415  70.493  1.00  0.00    -0.207 C  
HETATM    3  O   UNL     1     -11.637   7.967  70.522  1.00  0.00    -0.241 OA 
ENDROOT
BRANCH   2   4
HETATM    4  C   UNL     1      -9.564   8.095  69.335  1.00  0.00    -0.167 C  
HETATM    5  C   UNL     1     -10.074   8.644  67.991  1.00  0.00    -0.241 C  
HETATM    6  C   UNL     1     -10.253  10.164  67.908  1.00  0.00    -0.217 A  
HETATM    7  C   UNL     1      -9.243   8.045  66.843  1.00  0.00    -0.191 C  
HETATM    8  C   UNL     1      -9.543  11.075  68.708  1.00  0.00    -0.194 A  
HETATM    9  C   UNL     1      -8.160   8.564  66.234  1.00  0.00    -0.107 C  
HETATM   10  C   UNL     1      -7.573   7.912  65.064  1.00  0.00    -0.098 A  
HETATM   11  O   UNL     1      -7.489   9.699  66.623  1.00  0.00    -0.093 OA 
HETATM   12  C   UNL     1      -9.698  12.454  68.531  1.00  0.00    -0.140 A  
HETATM   13  H   UNL     1      -6.724  10.065  66.193  1.00  0.00     0.000 HD 
HETATM   14  C   UNL     1      -7.981   6.627  64.741  1.00  0.00    -0.118 A  
HETATM   15  C   UNL     1     -10.589  12.942  67.581  1.00  0.00    -0.232 A  
HETATM   16  C   UNL     1      -7.431   5.925  63.669  1.00  0.00    -0.071 A  
HETATM   17  O   UNL     1      -9.008   6.004  65.460  1.00  0.00    -0.128 OA 
HETATM   18  C   UNL     1     -11.334  12.057  66.809  1.00  0.00    -0.398 A  
HETATM   19  C   UNL     1     -11.161  10.681  66.964  1.00  0.00    -0.217 A  
HETATM   20  C   UNL     1      -9.758   6.715  66.385  1.00  0.00    -0.070 C  
HETATM   21  C   UNL     1      -6.480   6.547  62.864  1.00  0.00    -0.038 A  
HETATM   22  C   UNL     1      -6.087   7.856  63.139  1.00  0.00    -0.067 A  
HETATM   23  O   UNL     1     -10.775   6.223  66.869  1.00  0.00    -0.286 OA 
HETATM   24  C   UNL     1      -6.622   8.531  64.242  1.00  0.00    -0.071 A  
ENDBRANCH   2   4
TORSDOF 1
ENDMDL
MODEL      115
REMARK 921   NORMALIZED FREE ENERGY PREDICTED BY IDOCK:   -3.46 KCAL/MOL
REMARK 922        TOTAL FREE ENERGY PREDICTED BY IDOCK:   -3.98 KCAL/MOL
REMARK 923 INTER-LIGAND FREE ENERGY PREDICTED BY IDOCK:   -3.75 KCAL/MOL
REMARK 924 INTRA-LIGAND FREE ENERGY PREDICTED BY IDOCK:   -0.23 KCAL/MOL
REMARK 927      BINDING AFFINITY PREDICTED BY RF-SCORE:    0.00 PKD
ROOT
HETATM    1  C   UNL     1      -5.982   8.942  73.415  1.00  0.00    -0.050 C  
HETATM    2  C   UNL     1      -6.958   7.799  73.514  1.00  0.00    -0.094 C  
HETATM    3  O   UNL     1      -7.618   7.607  74.537  1.00  0.00    -0.136 OA 
ENDROOT
BRANCH   2   4
HETATM    4  C   UNL     1      -7.112   6.886  72.313  1.00  0.00    -0.073 C  
HETATM    5  C   UNL     1      -8.546   6.355  72.145  1.00  0.00    -0.125 C  
HETATM    6  C   UNL     1      -9.638   7.412  71.944  1.00  0.00    -0.174 A  
HETATM    7  C   UNL     1      -8.558   5.232  71.093  1.00  0.00    -0.128 C  
HETATM    8  C   UNL     1      -9.395   8.688  71.409  1.00  0.00    -0.305 A  
HETATM    9  C   UNL     1      -8.820   5.321  69.776  1.00  0.00    -0.104 C  
HETATM   10  C   UNL     1      -8.915   4.121  68.946  1.00  0.00    -0.162 A  
HETATM   11  O   UNL     1      -9.001   6.489  69.071  1.00  0.00    -0.130 OA 
HETATM   12  C   UNL     1     -10.448   9.581  71.182  1.00  0.00    -0.358 A  
HETATM   13  H   UNL     1      -9.186   6.552  68.141  1.00  0.00     0.000 HD 
HETATM   14  C   UNL     1      -8.485   2.911  69.470  1.00  0.00    -0.062 A  
HETATM   15  C   UNL     1     -11.750   9.227  71.519  1.00  0.00    -0.450 A  
HETATM   16  C   UNL     1      -8.501   1.734  68.722  1.00  0.00    -0.084 A  
HETATM   17  O   UNL     1      -8.062   2.823  70.802  1.00  0.00    -0.049 OA 
HETATM   18  C   UNL     1     -12.007   7.985  72.089  1.00  0.00    -0.399 A  
HETATM   19  C   UNL     1     -10.962   7.082  72.292  1.00  0.00    -0.279 A  
HETATM   20  C   UNL     1      -8.232   3.889  71.672  1.00  0.00    -0.078 C  
HETATM   21  C   UNL     1      -9.011   1.758  67.427  1.00  0.00    -0.161 A  
HETATM   22  C   UNL     1      -9.495   2.952  66.893  1.00  0.00    -0.042 A  
HETATM   23  O   UNL     1      -8.039   3.744  72.877  1.00  0.00    -0.083 OA 
HETATM   24  C   UNL     1      -9.435   4.130  67.645  1.00  0.00    -0.225 A  
ENDBRANCH   2   4
TORSDOF 1
ENDMDL
MODEL      116
REMARK 921   NORMALIZED FREE ENERGY PREDICTED BY IDOCK:   -3.44 KCAL/MOL
REMARK 922        TOTAL FREE ENERGY PREDICTED BY IDOCK:   -3.96 KCAL/MOL
REMARK 923 INTER-LIGAND FREE ENERGY PREDICTED BY IDOCK:   -3.94 KCAL/MOL
REMARK 924 INTRA-LIGAND FREE ENERGY PREDICTED BY IDOCK:   -0.03 KCAL/MOL
REMARK 927      BINDING AFFINITY PREDICTED BY RF-SCORE:    0.00 PKD
ROOT
HETATM    1  C   UNL     1      -7.288   8.148  65.576  1.00  0.00    -0.072 C  
HETATM    2  C   UNL     1      -7.507   7.484  66.910  1.00  0.00    -0.098 C  
HETATM    3  O   UNL     1      -6.720   6.640  67.343  1.00  0.00    -0.061 OA 
ENDROOT
BRANCH   2   4
HETATM    4  C   UNL     1      -8.729   7.885  67.714  1.00  0.00    -0.127 C  
HETATM    5  C   UNL     1      -8.650   7.442  69.185  1.00  0.00    -0.136 C  
HETATM    6  C   UNL     1      -7.477   8.004  69.996  1.00  0.00    -0.074 A  
HETATM    7  C   UNL     1     -10.023   7.631  69.853  1.00  0.00    -0.190 C  
HETATM    8  C   UNL     1      -6.825   9.209  69.687  1.00  0.00    -0.054 A  
HETATM    9  C   UNL     1     -10.469   8.681  70.567  1.00  0.00    -0.206 C  
HETATM   10  C   UNL     1     -11.765   8.632  71.244  1.00  0.00    -0.341 A  
HETATM   11  O   UNL     1      -9.813   9.879  70.727  1.00  0.00    -0.334 OA 
HETATM   12  C   UNL     1      -5.809   9.705  70.512  1.00  0.00    -0.061 A  
HETATM   13  H   UNL     1     -10.128  10.620  71.232  1.00  0.00     0.000 HD 
HETATM   14  C   UNL     1     -12.639   7.600  70.938  1.00  0.00    -0.054 A  
HETATM   15  C   UNL     1      -5.405   8.987  71.632  1.00  0.00    -0.049 A  
HETATM   16  C   UNL     1     -13.910   7.515  71.507  1.00  0.00    -0.487 A  
HETATM   17  O   UNL     1     -12.250   6.570  70.074  1.00  0.00    -0.174 OA 
HETATM   18  C   UNL     1      -6.007   7.770  71.932  1.00  0.00    -0.035 A  
HETATM   19  C   UNL     1      -7.040   7.287  71.126  1.00  0.00    -0.061 A  
HETATM   20  C   UNL     1     -10.934   6.459  69.650  1.00  0.00    -0.358 C  
HETATM   21  C   UNL     1     -14.298   8.463  72.450  1.00  0.00    -0.379 A  
HETATM   22  C   UNL     1     -13.419   9.484  72.811  1.00  0.00    -0.085 A  
HETATM   23  O   UNL     1     -10.556   5.453  69.054  1.00  0.00    -0.217 OA 
HETATM   24  C   UNL     1     -12.163   9.575  72.201  1.00  0.00    -0.282 A  
ENDBRANCH   2   4
TORSDOF 1
ENDMDL
MODEL      117
REMARK 921   NORMALIZED FREE ENERGY PREDICTED BY IDOCK:   -3.37 KCAL/MOL
REMARK 922        TOTAL FREE ENERGY PREDICTED BY IDOCK:   -3.89 KCAL/MOL
REMARK 923 INTER-LIGAND FREE ENERGY PREDICTED BY IDOCK:   -3.66 KCAL/MOL
REMARK 924 INTRA-LIGAND FREE ENERGY PREDICTED BY IDOCK:   -0.23 KCAL/MOL
REMARK 927      BINDING AFFINITY PREDICTED BY RF-SCORE:    0.00 PKD
ROOT
HETATM    1  C   UNL     1     -11.437   5.361  72.898  1.00  0.00    -0.340 C  
HETATM    2  C   UNL     1     -11.107   6.088  71.621  1.00  0.00    -0.275 C  
HETATM    3  O   UNL     1     -11.129   7.318  71.559  1.00  0.00    -0.234 OA 
ENDROOT
BRANCH   2   4
HETATM    4  C   UNL     1     -10.740   5.260  70.403  1.00  0.00    -0.216 C  
HETATM    5  C   UNL     1      -9.699   5.947  69.503  1.00  0.00    -0.190 C  
HETATM    6  C   UNL     1      -8.347   6.260  70.154  1.00  0.00    -0.129 A  
HETATM    7  C   UNL     1      -9.593   5.190  68.169  1.00  0.00    -0.173 C  
HETATM    8  C   UNL     1      -7.831   5.552  71.252  1.00  0.00    -0.110 A  
HETATM    9  C   UNL     1      -8.725   4.221  67.822  1.00  0.00    -0.106 C  
HETATM   10  C   UNL     1      -8.685   3.701  66.456  1.00  0.00    -0.121 A  
HETATM   11  O   UNL     1      -7.826   3.610  68.666  1.00  0.00    -0.056 OA 
HETATM   12  C   UNL     1      -6.556   5.838  71.753  1.00  0.00    -0.054 A  
HETATM   13  H   UNL     1      -7.214   2.926  68.421  1.00  0.00     0.000 HD 
HETATM   14  C   UNL     1      -9.714   4.031  65.587  1.00  0.00    -0.192 A  
HETATM   15  C   UNL     1      -5.796   6.858  71.190  1.00  0.00    -0.035 A  
HETATM   16  C   UNL     1      -9.769   3.535  64.284  1.00  0.00    -0.171 A  
HETATM   17  O   UNL     1     -10.718   4.926  65.978  1.00  0.00    -0.316 OA 
HETATM   18  C   UNL     1      -6.306   7.601  70.130  1.00  0.00    -0.034 A  
HETATM   19  C   UNL     1      -7.566   7.299  69.611  1.00  0.00    -0.099 A  
HETATM   20  C   UNL     1     -10.612   5.635  67.165  1.00  0.00    -0.270 C  
HETATM   21  C   UNL     1      -8.735   2.725  63.820  1.00  0.00    -0.086 A  
HETATM   22  C   UNL     1      -7.665   2.418  64.659  1.00  0.00    -0.073 A  
HETATM   23  O   UNL     1     -11.391   6.553  67.411  1.00  0.00    -0.304 OA 
HETATM   24  C   UNL     1      -7.647   2.893  65.975  1.00  0.00    -0.077 A  
ENDBRANCH   2   4
TORSDOF 1
ENDMDL
MODEL      118
REMARK 921   NORMALIZED FREE ENERGY PREDICTED BY IDOCK:   -3.31 KCAL/MOL
REMARK 922        TOTAL FREE ENERGY PREDICTED BY IDOCK:   -3.83 KCAL/MOL
REMARK 923 INTER-LIGAND FREE ENERGY PREDICTED BY IDOCK:   -3.55 KCAL/MOL
REMARK 924 INTRA-LIGAND FREE ENERGY PREDICTED BY IDOCK:   -0.28 KCAL/MOL
REMARK 927      BINDING AFFINITY PREDICTED BY RF-SCORE:    0.00 PKD
ROOT
HETATM    1  C   UNL     1      -9.794  12.341  66.400  1.00  0.00    -0.242 C  
HETATM    2  C   UNL     1      -8.694  12.241  67.423  1.00  0.00    -0.180 C  
HETATM    3  O   UNL     1      -7.706  12.976  67.376  1.00  0.00    -0.164 OA 
ENDROOT
BRANCH   2   4
HETATM    4  C   UNL     1      -8.836  11.207  68.525  1.00  0.00    -0.161 C  
HETATM    5  C   UNL     1      -9.444   9.884  68.030  1.00  0.00    -0.147 C  
HETATM    6  C   UNL     1      -8.660   9.149  66.936  1.00  0.00    -0.129 A  
HETATM    7  C   UNL     1      -9.812   9.005  69.237  1.00  0.00    -0.179 C  
HETATM    8  C   UNL     1      -7.276   9.294  66.741  1.00  0.00    -0.083 A  
HETATM    9  C   UNL     1      -9.083   8.036  69.821  1.00  0.00    -0.149 C  
HETATM   10  C   UNL     1      -9.649   7.207  70.885  1.00  0.00    -0.167 A  
HETATM   11  O   UNL     1      -7.775   7.728  69.526  1.00  0.00    -0.100 OA 
HETATM   12  C   UNL     1      -6.608   8.537  65.772  1.00  0.00    -0.056 A  
HETATM   13  H   UNL     1      -7.260   7.044  69.938  1.00  0.00     0.000 HD 
HETATM   14  C   UNL     1     -10.850   7.591  71.461  1.00  0.00    -0.227 A  
HETATM   15  C   UNL     1      -7.315   7.656  64.962  1.00  0.00    -0.073 A  
HETATM   16  C   UNL     1     -11.427   6.878  72.512  1.00  0.00    -0.268 A  
HETATM   17  O   UNL     1     -11.558   8.693  70.966  1.00  0.00    -0.275 OA 
HETATM   18  C   UNL     1      -8.692   7.528  65.110  1.00  0.00     0.106 A  
HETATM   19  C   UNL     1      -9.357   8.262  66.094  1.00  0.00    -0.254 A  
HETATM   20  C   UNL     1     -11.172   9.311  69.787  1.00  0.00    -0.085 C  
HETATM   21  C   UNL     1     -10.808   5.716  72.967  1.00  0.00    -0.308 A  
HETATM   22  C   UNL     1      -9.624   5.282  72.371  1.00  0.00    -0.175 A  
HETATM   23  O   UNL     1     -11.900  10.148  69.257  1.00  0.00    -0.085 OA 
HETATM   24  C   UNL     1      -9.041   6.032  71.344  1.00  0.00    -0.149 A  
ENDBRANCH   2   4
TORSDOF 1
ENDMDL
MODEL      119
REMARK 921   NORMALIZED FREE ENERGY PREDICTED BY IDOCK:   -3.28 KCAL/MOL
REMARK 922        TOTAL FREE ENERGY PREDICTED BY IDOCK:   -3.80 KCAL/MOL
REMARK 923 INTER-LIGAND FREE ENERGY PREDICTED BY IDOCK:   -3.75 KCAL/MOL
REMARK 924 INTRA-LIGAND FREE ENERGY PREDICTED BY IDOCK:   -0.05 KCAL/MOL
REMARK 927      BINDING AFFINITY PREDICTED BY RF-SCORE:    0.00 PKD
ROOT
HETATM    1  C   UNL     1      -6.638   8.524  73.589  1.00  0.00    -0.102 C  
HETATM    2  C   UNL     1      -7.914   8.188  72.864  1.00  0.00    -0.156 C  
HETATM    3  O   UNL     1      -8.986   8.709  73.179  1.00  0.00    -0.310 OA 
ENDROOT
BRANCH   2   4
HETATM    4  C   UNL     1      -7.847   7.188  71.725  1.00  0.00    -0.093 C  
HETATM    5  C   UNL     1      -9.081   7.239  70.809  1.00  0.00    -0.152 C  
HETATM    6  C   UNL     1      -9.346   8.576  70.107  1.00  0.00    -0.164 A  
HETATM    7  C   UNL     1      -9.070   6.026  69.864  1.00  0.00    -0.147 C  
HETATM    8  C   UNL     1      -8.343   9.521  69.831  1.00  0.00    -0.180 A  
HETATM    9  C   UNL     1      -8.588   5.945  68.610  1.00  0.00    -0.110 C  
HETATM   10  C   UNL     1      -8.782   4.739  67.806  1.00  0.00    -0.107 A  
HETATM   11  O   UNL     1      -7.871   6.924  67.962  1.00  0.00    -0.110 OA 
HETATM   12  C   UNL     1      -8.638  10.689  69.121  1.00  0.00    -0.136 A  
HETATM   13  H   UNL     1      -7.531   6.868  67.076  1.00  0.00     0.000 HD 
HETATM   14  C   UNL     1      -9.242   3.589  68.430  1.00  0.00    -0.168 A  
HETATM   15  C   UNL     1      -9.941  10.949  68.710  1.00  0.00    -0.203 A  
HETATM   16  C   UNL     1      -9.405   2.388  67.739  1.00  0.00    -0.215 A  
HETATM   17  O   UNL     1      -9.609   3.610  69.781  1.00  0.00    -0.186 OA 
HETATM   18  C   UNL     1     -10.957  10.048  69.011  1.00  0.00    -0.249 A  
HETATM   19  C   UNL     1     -10.661   8.868  69.696  1.00  0.00    -0.230 A  
HETATM   20  C   UNL     1      -9.693   4.808  70.474  1.00  0.00    -0.211 C  
HETATM   21  C   UNL     1      -9.151   2.350  66.370  1.00  0.00    -0.088 A  
HETATM   22  C   UNL     1      -8.733   3.506  65.710  1.00  0.00    -0.121 A  
HETATM   23  O   UNL     1     -10.198   4.842  71.594  1.00  0.00    -0.198 OA 
HETATM   24  C   UNL     1      -8.538   4.691  66.428  1.00  0.00    -0.112 A  
ENDBRANCH   2   4
TORSDOF 1
ENDMDL
MODEL      120
REMARK 921   NORMALIZED FREE ENERGY PREDICTED BY IDOCK:   -3.26 KCAL/MOL
REMARK 922        TOTAL FREE ENERGY PREDICTED BY IDOCK:   -3.77 KCAL/MOL
REMARK 923 INTER-LIGAND FREE ENERGY PREDICTED BY IDOCK:   -4.08 KCAL/MOL
REMARK 924 INTRA-LIGAND FREE ENERGY PREDICTED BY IDOCK:    0.31 KCAL/MOL
REMARK 927      BINDING AFFINITY PREDICTED BY RF-SCORE:    0.00 PKD
ROOT
HETATM    1  C   UNL     1      -7.256   5.572  74.046  1.00  0.00    -0.086 C  
HETATM    2  C   UNL     1      -8.029   6.762  73.541  1.00  0.00    -0.094 C  
HETATM    3  O   UNL     1      -8.817   7.370  74.267  1.00  0.00    -0.212 OA 
ENDROOT
BRANCH   2   4
HETATM    4  C   UNL     1      -7.808   7.199  72.105  1.00  0.00    -0.091 C  
HETATM    5  C   UNL     1      -8.935   6.748  71.161  1.00  0.00    -0.147 C  
HETATM    6  C   UNL     1     -10.339   7.268  71.490  1.00  0.00    -0.217 A  
HETATM    7  C   UNL     1      -8.506   6.978  69.702  1.00  0.00    -0.134 C  
HETATM    8  C   UNL     1     -10.581   8.452  72.205  1.00  0.00    -0.412 A  
HETATM    9  C   UNL     1      -8.758   8.039  68.913  1.00  0.00    -0.131 C  
HETATM   10  C   UNL     1      -8.382   8.030  67.499  1.00  0.00    -0.123 A  
HETATM   11  O   UNL     1      -9.350   9.214  69.314  1.00  0.00    -0.152 OA 
HETATM   12  C   UNL     1     -11.887   8.911  72.408  1.00  0.00    -0.292 A  
HETATM   13  H   UNL     1      -9.528   9.964  68.756  1.00  0.00     0.000 HD 
HETATM   14  C   UNL     1      -7.541   7.029  67.039  1.00  0.00    -0.102 A  
HETATM   15  C   UNL     1     -12.969   8.176  71.935  1.00  0.00    -0.356 A  
HETATM   16  C   UNL     1      -7.101   6.983  65.716  1.00  0.00    -0.069 A  
HETATM   17  O   UNL     1      -7.140   5.990  67.888  1.00  0.00    -0.070 OA 
HETATM   18  C   UNL     1     -12.753   6.978  71.262  1.00  0.00    -0.400 A  
HETATM   19  C   UNL     1     -11.450   6.532  71.034  1.00  0.00    -0.392 A  
HETATM   20  C   UNL     1      -7.713   5.838  69.142  1.00  0.00    -0.090 C  
HETATM   21  C   UNL     1      -7.559   7.939  64.813  1.00  0.00    -0.110 A  
HETATM   22  C   UNL     1      -8.444   8.929  65.240  1.00  0.00    -0.185 A  
HETATM   23  O   UNL     1      -7.502   4.823  69.801  1.00  0.00    -0.054 OA 
HETATM   24  C   UNL     1      -8.843   8.981  66.579  1.00  0.00    -0.158 A  
ENDBRANCH   2   4
TORSDOF 1
ENDMDL
MODEL      121
REMARK 921   NORMALIZED FREE ENERGY PREDICTED BY IDOCK:   -3.26 KCAL/MOL
REMARK 922        TOTAL FREE ENERGY PREDICTED BY IDOCK:   -3.77 KCAL/MOL
REMARK 923 INTER-LIGAND FREE ENERGY PREDICTED BY IDOCK:   -3.46 KCAL/MOL
REMARK 924 INTRA-LIGAND FREE ENERGY PREDICTED BY IDOCK:   -0.31 KCAL/MOL
REMARK 927      BINDING AFFINITY PREDICTED BY RF-SCORE:    0.00 PKD
ROOT
HETATM    1  C   UNL     1      -7.810   2.628  68.895  1.00  0.00    -0.055 C  
HETATM    2  C   UNL     1      -7.196   3.915  69.378  1.00  0.00    -0.046 C  
HETATM    3  O   UNL     1      -6.721   4.013  70.511  1.00  0.00    -0.031 OA 
ENDROOT
BRANCH   2   4
HETATM    4  C   UNL     1      -7.172   5.097  68.427  1.00  0.00    -0.063 C  
HETATM    5  C   UNL     1      -8.580   5.573  68.030  1.00  0.00    -0.100 C  
HETATM    6  C   UNL     1      -9.482   6.044  69.176  1.00  0.00    -0.146 A  
HETATM    7  C   UNL     1      -8.474   6.571  66.864  1.00  0.00    -0.114 C  
HETATM    8  C   UNL     1      -8.992   6.541  70.396  1.00  0.00    -0.152 A  
HETATM    9  C   UNL     1      -8.424   7.916  66.914  1.00  0.00    -0.128 C  
HETATM   10  C   UNL     1      -8.457   8.715  65.690  1.00  0.00    -0.171 A  
HETATM   11  O   UNL     1      -8.319   8.672  68.058  1.00  0.00    -0.121 OA 
HETATM   12  C   UNL     1      -9.868   7.025  71.374  1.00  0.00    -0.180 A  
HETATM   13  H   UNL     1      -8.283   9.621  68.094  1.00  0.00     0.000 HD 
HETATM   14  C   UNL     1      -8.285   8.076  64.471  1.00  0.00    -0.094 A  
HETATM   15  C   UNL     1     -11.242   6.984  71.165  1.00  0.00    -0.304 A  
HETATM   16  C   UNL     1      -8.257   8.778  63.266  1.00  0.00    -0.176 A  
HETATM   17  O   UNL     1      -8.182   6.681  64.407  1.00  0.00    -0.093 OA 
HETATM   18  C   UNL     1     -11.749   6.456  69.982  1.00  0.00    -0.345 A  
HETATM   19  C   UNL     1     -10.877   5.998  68.993  1.00  0.00    -0.412 A  
HETATM   20  C   UNL     1      -8.429   5.900  65.525  1.00  0.00    -0.154 C  
HETATM   21  C   UNL     1      -8.459  10.156  63.276  1.00  0.00    -0.184 A  
HETATM   22  C   UNL     1      -8.682  10.816  64.485  1.00  0.00    -0.097 A  
HETATM   23  O   UNL     1      -8.527   4.679  65.421  1.00  0.00    -0.119 OA 
HETATM   24  C   UNL     1      -8.668  10.100  65.686  1.00  0.00    -0.173 A  
ENDBRANCH   2   4
TORSDOF 1
ENDMDL
MODEL      122
REMARK 921   NORMALIZED FREE ENERGY PREDICTED BY IDOCK:   -3.23 KCAL/MOL
REMARK 922        TOTAL FREE ENERGY PREDICTED BY IDOCK:   -3.74 KCAL/MOL
REMARK 923 INTER-LIGAND FREE ENERGY PREDICTED BY IDOCK:   -3.44 KCAL/MOL
REMARK 924 INTRA-LIGAND FREE ENERGY PREDICTED BY IDOCK:   -0.29 KCAL/MOL
REMARK 927      BINDING AFFINITY PREDICTED BY RF-SCORE:    0.00 PKD
ROOT
HETATM    1  C   UNL     1      -5.462  11.388  68.788  1.00  0.00    -0.042 C  
HETATM    2  C   UNL     1      -6.304  10.382  69.528  1.00  0.00    -0.059 C  
HETATM    3  O   UNL     1      -6.750  10.622  70.652  1.00  0.00    -0.332 OA 
ENDROOT
BRANCH   2   4
HETATM    4  C   UNL     1      -6.593   9.056  68.849  1.00  0.00    -0.052 C  
HETATM    5  C   UNL     1      -8.095   8.727  68.795  1.00  0.00    -0.115 C  
HETATM    6  C   UNL     1      -8.978   9.726  68.038  1.00  0.00    -0.118 A  
HETATM    7  C   UNL     1      -8.284   7.265  68.356  1.00  0.00    -0.125 C  
HETATM    8  C   UNL     1      -8.502  10.568  67.019  1.00  0.00    -0.128 A  
HETATM    9  C   UNL     1      -8.499   6.783  67.118  1.00  0.00    -0.120 C  
HETATM   10  C   UNL     1      -8.789   5.365  66.903  1.00  0.00    -0.111 A  
HETATM   11  O   UNL     1      -8.456   7.514  65.954  1.00  0.00    -0.135 OA 
HETATM   12  C   UNL     1      -9.375  11.404  66.316  1.00  0.00    -0.228 A  
HETATM   13  H   UNL     1      -8.608   7.174  65.080  1.00  0.00     0.000 HD 
HETATM   14  C   UNL     1      -8.591   4.478  67.950  1.00  0.00    -0.102 A  
HETATM   15  C   UNL     1     -10.726  11.441  66.646  1.00  0.00    -0.316 A  
HETATM   16  C   UNL     1      -8.799   3.106  67.806  1.00  0.00    -0.161 A  
HETATM   17  O   UNL     1      -8.217   4.943  69.217  1.00  0.00    -0.081 OA 
HETATM   18  C   UNL     1     -11.210  10.648  67.680  1.00  0.00    -0.361 A  
HETATM   19  C   UNL     1     -10.346   9.791  68.365  1.00  0.00    -0.230 A  
HETATM   20  C   UNL     1      -8.213   6.300  69.500  1.00  0.00    -0.117 C  
HETATM   21  C   UNL     1      -9.271   2.614  66.592  1.00  0.00    -0.094 A  
HETATM   22  C   UNL     1      -9.525   3.491  65.538  1.00  0.00    -0.147 A  
HETATM   23  O   UNL     1      -8.073   6.692  70.657  1.00  0.00    -0.109 OA 
HETATM   24  C   UNL     1      -9.272   4.859  65.690  1.00  0.00    -0.159 A  
ENDBRANCH   2   4
TORSDOF 1
ENDMDL
MODEL      123
REMARK 921   NORMALIZED FREE ENERGY PREDICTED BY IDOCK:   -3.19 KCAL/MOL
REMARK 922        TOTAL FREE ENERGY PREDICTED BY IDOCK:   -3.70 KCAL/MOL
REMARK 923 INTER-LIGAND FREE ENERGY PREDICTED BY IDOCK:   -3.51 KCAL/MOL
REMARK 924 INTRA-LIGAND FREE ENERGY PREDICTED BY IDOCK:   -0.20 KCAL/MOL
REMARK 927      BINDING AFFINITY PREDICTED BY RF-SCORE:    0.00 PKD
ROOT
HETATM    1  C   UNL     1      -7.273  10.026  70.306  1.00  0.00    -0.155 C  
HETATM    2  C   UNL     1      -8.362   8.988  70.238  1.00  0.00    -0.157 C  
HETATM    3  O   UNL     1      -9.443   9.156  70.806  1.00  0.00    -0.229 OA 
ENDROOT
BRANCH   2   4
HETATM    4  C   UNL     1      -8.095   7.723  69.444  1.00  0.00    -0.126 C  
HETATM    5  C   UNL     1      -9.019   7.576  68.223  1.00  0.00    -0.130 C  
HETATM    6  C   UNL     1      -8.934   8.692  67.175  1.00  0.00    -0.148 A  
HETATM    7  C   UNL     1      -8.882   6.158  67.644  1.00  0.00    -0.103 C  
HETATM    8  C   UNL     1      -7.798   9.495  66.985  1.00  0.00    -0.098 A  
HETATM    9  C   UNL     1      -8.087   5.735  66.643  1.00  0.00    -0.102 C  
HETATM   10  C   UNL     1      -8.184   4.368  66.132  1.00  0.00    -0.102 A  
HETATM   11  O   UNL     1      -7.118   6.485  66.017  1.00  0.00    -0.060 OA 
HETATM   12  C   UNL     1      -7.758  10.447  65.960  1.00  0.00    -0.136 A  
HETATM   13  H   UNL     1      -6.557   6.187  65.310  1.00  0.00     0.000 HD 
HETATM   14  C   UNL     1      -8.920   3.438  66.852  1.00  0.00    -0.155 A  
HETATM   15  C   UNL     1      -8.863  10.636  65.137  1.00  0.00    -0.207 A  
HETATM   16  C   UNL     1      -9.018   2.105  66.453  1.00  0.00    -0.109 A  
HETATM   17  O   UNL     1      -9.637   3.825  67.990  1.00  0.00    -0.173 OA 
HETATM   18  C   UNL     1     -10.014   9.881  65.336  1.00  0.00    -0.349 A  
HETATM   19  C   UNL     1     -10.046   8.911  66.339  1.00  0.00    -0.333 A  
HETATM   20  C   UNL     1      -9.777   5.165  68.319  1.00  0.00    -0.142 C  
HETATM   21  C   UNL     1      -8.404   1.702  65.270  1.00  0.00    -0.082 A  
HETATM   22  C   UNL     1      -7.699   2.629  64.502  1.00  0.00    -0.077 A  
HETATM   23  O   UNL     1     -10.562   5.509  69.200  1.00  0.00    -0.255 OA 
HETATM   24  C   UNL     1      -7.579   3.953  64.939  1.00  0.00    -0.077 A  
ENDBRANCH   2   4
TORSDOF 1
ENDMDL
MODEL      124
REMARK 921   NORMALIZED FREE ENERGY PREDICTED BY IDOCK:   -3.17 KCAL/MOL
REMARK 922        TOTAL FREE ENERGY PREDICTED BY IDOCK:   -3.68 KCAL/MOL
REMARK 923 INTER-LIGAND FREE ENERGY PREDICTED BY IDOCK:   -3.43 KCAL/MOL
REMARK 924 INTRA-LIGAND FREE ENERGY PREDICTED BY IDOCK:   -0.25 KCAL/MOL
REMARK 927      BINDING AFFINITY PREDICTED BY RF-SCORE:    0.00 PKD
ROOT
HETATM    1  C   UNL     1     -10.517   3.684  74.240  1.00  0.00    -0.266 C  
HETATM    2  C   UNL     1     -10.597   4.810  73.243  1.00  0.00    -0.226 C  
HETATM    3  O   UNL     1     -10.981   5.933  73.575  1.00  0.00    -0.250 OA 
ENDROOT
BRANCH   2   4
HETATM    4  C   UNL     1     -10.188   4.525  71.810  1.00  0.00    -0.226 C  
HETATM    5  C   UNL     1      -9.475   5.714  71.144  1.00  0.00    -0.191 C  
HETATM    6  C   UNL     1      -8.175   6.182  71.810  1.00  0.00    -0.114 A  
HETATM    7  C   UNL     1      -9.348   5.455  69.633  1.00  0.00    -0.178 C  
HETATM    8  C   UNL     1      -7.364   5.349  72.599  1.00  0.00    -0.095 A  
HETATM    9  C   UNL     1      -8.313   4.919  68.959  1.00  0.00    -0.082 C  
HETATM   10  C   UNL     1      -8.313   4.869  67.498  1.00  0.00    -0.105 A  
HETATM   11  O   UNL     1      -7.191   4.361  69.525  1.00  0.00    -0.049 OA 
HETATM   12  C   UNL     1      -6.151   5.816  73.118  1.00  0.00    -0.052 A  
HETATM   13  H   UNL     1      -6.460   3.982  69.050  1.00  0.00     0.000 HD 
HETATM   14  C   UNL     1      -9.492   5.144  66.821  1.00  0.00    -0.141 A  
HETATM   15  C   UNL     1      -5.751   7.128  72.889  1.00  0.00    -0.041 A  
HETATM   16  C   UNL     1      -9.581   5.070  65.431  1.00  0.00    -0.066 A  
HETATM   17  O   UNL     1     -10.633   5.560  67.518  1.00  0.00    -0.221 OA 
HETATM   18  C   UNL     1      -6.561   7.982  72.146  1.00  0.00    -0.067 A  
HETATM   19  C   UNL     1      -7.758   7.510  71.604  1.00  0.00    -0.085 A  
HETATM   20  C   UNL     1     -10.563   5.879  68.866  1.00  0.00    -0.288 C  
HETATM   21  C   UNL     1      -8.442   4.760  64.692  1.00  0.00    -0.139 A  
HETATM   22  C   UNL     1      -7.232   4.526  65.345  1.00  0.00    -0.068 A  
HETATM   23  O   UNL     1     -11.512   6.424  69.425  1.00  0.00    -0.401 OA 
HETATM   24  C   UNL     1      -7.172   4.568  66.742  1.00  0.00    -0.080 A  
ENDBRANCH   2   4
TORSDOF 1
ENDMDL
MODEL      125
REMARK 921   NORMALIZED FREE ENERGY PREDICTED BY IDOCK:   -3.13 KCAL/MOL
REMARK 922        TOTAL FREE ENERGY PREDICTED BY IDOCK:   -3.64 KCAL/MOL
REMARK 923 INTER-LIGAND FREE ENERGY PREDICTED BY IDOCK:   -3.45 KCAL/MOL
REMARK 924 INTRA-LIGAND FREE ENERGY PREDICTED BY IDOCK:   -0.19 KCAL/MOL
REMARK 927      BINDING AFFINITY PREDICTED BY RF-SCORE:    0.00 PKD
ROOT
HETATM    1  C   UNL     1     -10.721   4.995  66.088  1.00  0.00    -0.264 C  
HETATM    2  C   UNL     1     -10.577   5.814  67.344  1.00  0.00    -0.265 C  
HETATM    3  O   UNL     1     -10.623   5.290  68.459  1.00  0.00    -0.131 OA 
ENDROOT
BRANCH   2   4
HETATM    4  C   UNL     1     -10.370   7.310  67.201  1.00  0.00    -0.367 C  
HETATM    5  C   UNL     1      -9.561   7.916  68.360  1.00  0.00    -0.155 C  
HETATM    6  C   UNL     1      -8.142   7.366  68.553  1.00  0.00    -0.125 A  
HETATM    7  C   UNL     1      -9.635   9.450  68.292  1.00  0.00    -0.156 C  
HETATM    8  C   UNL     1      -7.387   6.787  67.520  1.00  0.00    -0.096 A  
HETATM    9  C   UNL     1      -8.770  10.306  67.715  1.00  0.00    -0.121 C  
HETATM   10  C   UNL     1      -8.934  11.752  67.862  1.00  0.00    -0.180 A  
HETATM   11  O   UNL     1      -7.692   9.954  66.938  1.00  0.00    -0.098 OA 
HETATM   12  C   UNL     1      -6.069   6.373  67.744  1.00  0.00    -0.024 A  
HETATM   13  H   UNL     1      -7.081  10.558  66.531  1.00  0.00     0.000 HD 
HETATM   14  C   UNL     1     -10.123  12.240  68.383  1.00  0.00    -0.215 A  
HETATM   15  C   UNL     1      -5.503   6.494  69.008  1.00  0.00    -0.016 A  
HETATM   16  C   UNL     1     -10.369  13.607  68.508  1.00  0.00    -0.244 A  
HETATM   17  O   UNL     1     -11.107  11.362  68.853  1.00  0.00    -0.200 OA 
HETATM   18  C   UNL     1      -6.248   7.025  70.055  1.00  0.00    -0.031 A  
HETATM   19  C   UNL     1      -7.553   7.465  69.828  1.00  0.00    -0.095 A  
HETATM   20  C   UNL     1     -10.847  10.005  68.976  1.00  0.00    -0.222 C  
HETATM   21  C   UNL     1      -9.375  14.513  68.148  1.00  0.00    -0.197 A  
HETATM   22  C   UNL     1      -8.152  14.047  67.666  1.00  0.00    -0.180 A  
HETATM   23  O   UNL     1     -11.639   9.272  69.564  1.00  0.00     0.107 OA 
HETATM   24  C   UNL     1      -7.938  12.673  67.512  1.00  0.00    -0.174 A  
ENDBRANCH   2   4
TORSDOF 1
ENDMDL
MODEL      126
REMARK 921   NORMALIZED FREE ENERGY PREDICTED BY IDOCK:   -3.11 KCAL/MOL
REMARK 922        TOTAL FREE ENERGY PREDICTED BY IDOCK:   -3.61 KCAL/MOL
REMARK 923 INTER-LIGAND FREE ENERGY PREDICTED BY IDOCK:   -3.32 KCAL/MOL
REMARK 924 INTRA-LIGAND FREE ENERGY PREDICTED BY IDOCK:   -0.29 KCAL/MOL
REMARK 927      BINDING AFFINITY PREDICTED BY RF-SCORE:    0.00 PKD
ROOT
HETATM    1  C   UNL     1      -8.416   5.116  68.264  1.00  0.00    -0.095 C  
HETATM    2  C   UNL     1      -9.142   6.419  68.057  1.00  0.00    -0.113 C  
HETATM    3  O   UNL     1     -10.339   6.447  67.766  1.00  0.00    -0.151 OA 
ENDROOT
BRANCH   2   4
HETATM    4  C   UNL     1      -8.357   7.707  68.220  1.00  0.00    -0.125 C  
HETATM    5  C   UNL     1      -9.130   8.785  68.998  1.00  0.00    -0.141 C  
HETATM    6  C   UNL     1      -9.538   8.421  70.430  1.00  0.00    -0.180 A  
HETATM    7  C   UNL     1      -8.396  10.131  68.877  1.00  0.00    -0.130 C  
HETATM    8  C   UNL     1      -8.861   7.473  71.214  1.00  0.00    -0.137 A  
HETATM    9  C   UNL     1      -7.499  10.675  69.722  1.00  0.00    -0.079 C  
HETATM   10  C   UNL     1      -6.998  12.033  69.513  1.00  0.00     0.085 A  
HETATM   11  O   UNL     1      -6.951  10.053  70.819  1.00  0.00    -0.305 OA 
HETATM   12  C   UNL     1      -9.239   7.241  72.541  1.00  0.00    -0.168 A  
HETATM   13  H   UNL     1      -6.318  10.436  71.415  1.00  0.00     0.000 HD 
HETATM   14  C   UNL     1      -7.257  12.661  68.305  1.00  0.00    -0.113 A  
HETATM   15  C   UNL     1     -10.319   7.922  73.090  1.00  0.00    -0.357 A  
HETATM   16  C   UNL     1      -6.771  13.936  68.015  1.00  0.00    -0.146 A  
HETATM   17  O   UNL     1      -8.068  12.047  67.342  1.00  0.00    -0.150 OA 
HETATM   18  C   UNL     1     -11.031   8.834  72.318  1.00  0.00    -0.336 A  
HETATM   19  C   UNL     1     -10.639   9.088  71.002  1.00  0.00    -0.341 A  
HETATM   20  C   UNL     1      -8.772  10.891  67.642  1.00  0.00    -0.127 C  
HETATM   21  C   UNL     1      -6.047  14.625  68.985  1.00  0.00    -0.090 A  
HETATM   22  C   UNL     1      -5.813  14.034  70.227  1.00  0.00    -0.148 A  
HETATM   23  O   UNL     1      -9.625  10.465  66.867  1.00  0.00    -0.165 OA 
HETATM   24  C   UNL     1      -6.276  12.739  70.484  1.00  0.00     0.187 A  
ENDBRANCH   2   4
TORSDOF 1
ENDMDL
MODEL      127
REMARK 921   NORMALIZED FREE ENERGY PREDICTED BY IDOCK:   -3.06 KCAL/MOL
REMARK 922        TOTAL FREE ENERGY PREDICTED BY IDOCK:   -3.56 KCAL/MOL
REMARK 923 INTER-LIGAND FREE ENERGY PREDICTED BY IDOCK:   -3.58 KCAL/MOL
REMARK 924 INTRA-LIGAND FREE ENERGY PREDICTED BY IDOCK:    0.01 KCAL/MOL
REMARK 927      BINDING AFFINITY PREDICTED BY RF-SCORE:    0.00 PKD
ROOT
HETATM    1  C   UNL     1     -10.114   2.787  64.097  1.00  0.00    -0.088 C  
HETATM    2  C   UNL     1      -9.196   3.333  65.159  1.00  0.00    -0.149 C  
HETATM    3  O   UNL     1      -8.026   3.624  64.907  1.00  0.00    -0.088 OA 
ENDROOT
BRANCH   2   4
HETATM    4  C   UNL     1      -9.754   3.519  66.558  1.00  0.00    -0.043 C  
HETATM    5  C   UNL     1      -8.838   4.361  67.461  1.00  0.00    -0.119 C  
HETATM    6  C   UNL     1      -8.552   5.791  66.987  1.00  0.00    -0.110 A  
HETATM    7  C   UNL     1      -9.325   4.268  68.917  1.00  0.00    -0.222 C  
HETATM    8  C   UNL     1      -9.411   6.517  66.146  1.00  0.00    -0.067 A  
HETATM    9  C   UNL     1     -10.146   5.103  69.581  1.00  0.00    -0.261 C  
HETATM   10  C   UNL     1     -10.399   4.929  71.011  1.00  0.00    -0.217 A  
HETATM   11  O   UNL     1     -10.834   6.158  69.028  1.00  0.00    -0.280 OA 
HETATM   12  C   UNL     1      -9.129   7.845  65.810  1.00  0.00    -0.084 A  
HETATM   13  H   UNL     1     -11.414   6.748  69.496  1.00  0.00     0.000 HD 
HETATM   14  C   UNL     1      -9.991   3.754  71.622  1.00  0.00    -0.141 A  
HETATM   15  C   UNL     1      -7.969   8.454  66.277  1.00  0.00    -0.099 A  
HETATM   16  C   UNL     1     -10.239   3.497  72.971  1.00  0.00    -0.234 A  
HETATM   17  O   UNL     1      -9.261   2.796  70.908  1.00  0.00    -0.110 OA 
HETATM   18  C   UNL     1      -7.083   7.739  67.076  1.00  0.00    -0.085 A  
HETATM   19  C   UNL     1      -7.376   6.422  67.435  1.00  0.00    -0.087 A  
HETATM   20  C   UNL     1      -8.778   3.074  69.639  1.00  0.00    -0.075 C  
HETATM   21  C   UNL     1     -10.871   4.469  73.743  1.00  0.00    -0.360 A  
HETATM   22  C   UNL     1     -11.249   5.680  73.163  1.00  0.00    -0.285 A  
HETATM   23  O   UNL     1      -7.981   2.311  69.097  1.00  0.00    -0.045 OA 
HETATM   24  C   UNL     1     -11.025   5.903  71.800  1.00  0.00    -0.327 A  
ENDBRANCH   2   4
TORSDOF 1
ENDMDL
MODEL      128
REMARK 921   NORMALIZED FREE ENERGY PREDICTED BY IDOCK:   -3.03 KCAL/MOL
REMARK 922        TOTAL FREE ENERGY PREDICTED BY IDOCK:   -3.53 KCAL/MOL
REMARK 923 INTER-LIGAND FREE ENERGY PREDICTED BY IDOCK:   -3.35 KCAL/MOL
REMARK 924 INTRA-LIGAND FREE ENERGY PREDICTED BY IDOCK:   -0.17 KCAL/MOL
REMARK 927      BINDING AFFINITY PREDICTED BY RF-SCORE:    0.00 PKD
ROOT
HETATM    1  C   UNL     1      -7.406   2.645  66.051  1.00  0.00    -0.067 C  
HETATM    2  C   UNL     1      -8.382   3.472  66.845  1.00  0.00    -0.100 C  
HETATM    3  O   UNL     1      -9.182   2.948  67.622  1.00  0.00    -0.172 OA 
ENDROOT
BRANCH   2   4
HETATM    4  C   UNL     1      -8.354   4.978  66.664  1.00  0.00    -0.107 C  
HETATM    5  C   UNL     1      -8.840   5.740  67.908  1.00  0.00    -0.108 C  
HETATM    6  C   UNL     1      -8.041   5.510  69.196  1.00  0.00    -0.095 A  
HETATM    7  C   UNL     1      -9.048   7.222  67.554  1.00  0.00    -0.125 C  
HETATM    8  C   UNL     1      -6.693   5.113  69.213  1.00  0.00    -0.052 A  
HETATM    9  C   UNL     1      -8.189   8.248  67.705  1.00  0.00    -0.127 C  
HETATM   10  C   UNL     1      -8.606   9.623  67.434  1.00  0.00    -0.125 A  
HETATM   11  O   UNL     1      -6.873   8.141  68.090  1.00  0.00    -0.071 OA 
HETATM   12  C   UNL     1      -5.998   4.993  70.422  1.00  0.00    -0.018 A  
HETATM   13  H   UNL     1      -6.266   8.865  68.197  1.00  0.00     0.000 HD 
HETATM   14  C   UNL     1      -9.810   9.839  66.781  1.00  0.00    -0.208 A  
HETATM   15  C   UNL     1      -6.648   5.229  71.628  1.00  0.00    -0.040 A  
HETATM   16  C   UNL     1     -10.250  11.119  66.447  1.00  0.00    -0.279 A  
HETATM   17  O   UNL     1     -10.657   8.766  66.477  1.00  0.00    -0.196 OA 
HETATM   18  C   UNL     1      -7.993   5.581  71.636  1.00  0.00    -0.117 A  
HETATM   19  C   UNL     1      -8.681   5.728  70.430  1.00  0.00    -0.135 A  
HETATM   20  C   UNL     1     -10.402   7.498  66.976  1.00  0.00    -0.324 C  
HETATM   21  C   UNL     1      -9.487  12.222  66.824  1.00  0.00    -0.222 A  
HETATM   22  C   UNL     1      -8.295  12.034  67.524  1.00  0.00    -0.166 A  
HETATM   23  O   UNL     1     -11.243   6.608  66.868  1.00  0.00    -0.391 OA 
HETATM   24  C   UNL     1      -7.851  10.740  67.816  1.00  0.00    -0.109 A  
ENDBRANCH   2   4
TORSDOF 1
ENDMDL
MODEL      129
REMARK 921   NORMALIZED FREE ENERGY PREDICTED BY IDOCK:   -3.01 KCAL/MOL
REMARK 922        TOTAL FREE ENERGY PREDICTED BY IDOCK:   -3.51 KCAL/MOL
REMARK 923 INTER-LIGAND FREE ENERGY PREDICTED BY IDOCK:   -3.24 KCAL/MOL
REMARK 924 INTRA-LIGAND FREE ENERGY PREDICTED BY IDOCK:   -0.27 KCAL/MOL
REMARK 927      BINDING AFFINITY PREDICTED BY RF-SCORE:    0.00 PKD
ROOT
HETATM    1  C   UNL     1      -9.385   1.660  64.616  1.00  0.00    -0.118 C  
HETATM    2  C   UNL     1      -8.134   2.285  65.174  1.00  0.00    -0.079 C  
HETATM    3  O   UNL     1      -7.064   1.673  65.189  1.00  0.00    -0.045 OA 
ENDROOT
BRANCH   2   4
HETATM    4  C   UNL     1      -8.223   3.698  65.719  1.00  0.00    -0.104 C  
HETATM    5  C   UNL     1      -9.060   3.792  67.006  1.00  0.00    -0.179 C  
HETATM    6  C   UNL     1      -8.558   2.970  68.199  1.00  0.00    -0.117 A  
HETATM    7  C   UNL     1      -9.336   5.269  67.332  1.00  0.00    -0.122 C  
HETATM    8  C   UNL     1      -7.217   2.591  68.372  1.00  0.00    -0.048 A  
HETATM    9  C   UNL     1      -8.647   6.089  68.148  1.00  0.00    -0.114 C  
HETATM   10  C   UNL     1      -9.134   7.437  68.444  1.00  0.00    -0.132 A  
HETATM   11  O   UNL     1      -7.452   5.793  68.760  1.00  0.00    -0.081 OA 
HETATM   12  C   UNL     1      -6.810   1.905  69.521  1.00  0.00    -0.033 A  
HETATM   13  H   UNL     1      -6.965   6.372  69.336  1.00  0.00     0.000 HD 
HETATM   14  C   UNL     1     -10.171   7.953  67.683  1.00  0.00    -0.226 A  
HETATM   15  C   UNL     1      -7.740   1.556  70.494  1.00  0.00    -0.035 A  
HETATM   16  C   UNL     1     -10.655   9.247  67.875  1.00  0.00    -0.288 A  
HETATM   17  O   UNL     1     -10.807   7.164  66.717  1.00  0.00    -0.320 OA 
HETATM   18  C   UNL     1      -9.081   1.883  70.322  1.00  0.00    -0.157 A  
HETATM   19  C   UNL     1      -9.485   2.592  69.189  1.00  0.00    -0.143 A  
HETATM   20  C   UNL     1     -10.542   5.806  66.624  1.00  0.00    -0.280 C  
HETATM   21  C   UNL     1     -10.119  10.030  68.895  1.00  0.00    -0.200 A  
HETATM   22  C   UNL     1      -9.108   9.516  69.706  1.00  0.00    -0.219 A  
HETATM   23  O   UNL     1     -11.237   5.085  65.912  1.00  0.00    -0.065 OA 
HETATM   24  C   UNL     1      -8.609   8.230  69.473  1.00  0.00    -0.134 A  
ENDBRANCH   2   4
TORSDOF 1
ENDMDL
MODEL      130
REMARK 921   NORMALIZED FREE ENERGY PREDICTED BY IDOCK:   -2.98 KCAL/MOL
REMARK 922        TOTAL FREE ENERGY PREDICTED BY IDOCK:   -3.48 KCAL/MOL
REMARK 923 INTER-LIGAND FREE ENERGY PREDICTED BY IDOCK:   -3.15 KCAL/MOL
REMARK 924 INTRA-LIGAND FREE ENERGY PREDICTED BY IDOCK:   -0.33 KCAL/MOL
REMARK 927      BINDING AFFINITY PREDICTED BY RF-SCORE:    0.00 PKD
ROOT
HETATM    1  C   UNL     1      -9.840  10.612  67.249  1.00  0.00    -0.206 C  
HETATM    2  C   UNL     1      -8.525  10.334  67.928  1.00  0.00    -0.118 C  
HETATM    3  O   UNL     1      -7.514  10.985  67.657  1.00  0.00    -0.092 OA 
ENDROOT
BRANCH   2   4
HETATM    4  C   UNL     1      -8.476   9.227  68.964  1.00  0.00    -0.132 C  
HETATM    5  C   UNL     1      -9.174   7.939  68.497  1.00  0.00    -0.138 C  
HETATM    6  C   UNL     1      -8.606   7.283  67.233  1.00  0.00    -0.121 A  
HETATM    7  C   UNL     1      -9.328   6.978  69.688  1.00  0.00    -0.149 C  
HETATM    8  C   UNL     1      -7.279   7.446  66.803  1.00  0.00    -0.087 A  
HETATM    9  C   UNL     1      -8.515   5.973  70.064  1.00  0.00    -0.131 C  
HETATM   10  C   UNL     1      -8.888   5.072  71.153  1.00  0.00    -0.149 A  
HETATM   11  O   UNL     1      -7.284   5.691  69.519  1.00  0.00    -0.062 OA 
HETATM   12  C   UNL     1      -6.802   6.760  65.681  1.00  0.00    -0.055 A  
HETATM   13  H   UNL     1      -6.709   4.982  69.784  1.00  0.00     0.000 HD 
HETATM   14  C   UNL     1      -9.963   5.410  71.961  1.00  0.00    -0.184 A  
HETATM   15  C   UNL     1      -7.650   5.934  64.952  1.00  0.00    -0.090 A  
HETATM   16  C   UNL     1     -10.348   4.625  73.047  1.00  0.00    -0.236 A  
HETATM   17  O   UNL     1     -10.738   6.542  71.677  1.00  0.00    -0.221 OA 
HETATM   18  C   UNL     1      -8.980   5.792  65.336  1.00  0.00    -0.047 A  
HETATM   19  C   UNL     1      -9.451   6.453  66.471  1.00  0.00    -0.189 A  
HETATM   20  C   UNL     1     -10.564   7.241  70.492  1.00  0.00    -0.222 C  
HETATM   21  C   UNL     1      -9.669   3.437  73.303  1.00  0.00    -0.158 A  
HETATM   22  C   UNL     1      -8.614   3.049  72.476  1.00  0.00    -0.086 A  
HETATM   23  O   UNL     1     -11.368   8.109  70.160  1.00  0.00    -0.200 OA 
HETATM   24  C   UNL     1      -8.218   3.869  71.415  1.00  0.00    -0.072 A  
ENDBRANCH   2   4
TORSDOF 1
ENDMDL
MODEL      131
REMARK 921   NORMALIZED FREE ENERGY PREDICTED BY IDOCK:   -2.97 KCAL/MOL
REMARK 922        TOTAL FREE ENERGY PREDICTED BY IDOCK:   -3.46 KCAL/MOL
REMARK 923 INTER-LIGAND FREE ENERGY PREDICTED BY IDOCK:   -3.18 KCAL/MOL
REMARK 924 INTRA-LIGAND FREE ENERGY PREDICTED BY IDOCK:   -0.28 KCAL/MOL
REMARK 927      BINDING AFFINITY PREDICTED BY RF-SCORE:    0.00 PKD
ROOT
HETATM    1  C   UNL     1      -7.077   5.891  65.705  1.00  0.00    -0.069 C  
HETATM    2  C   UNL     1      -8.258   6.753  66.067  1.00  0.00    -0.129 C  
HETATM    3  O   UNL     1      -9.372   6.264  66.263  1.00  0.00    -0.161 OA 
ENDROOT
BRANCH   2   4
HETATM    4  C   UNL     1      -8.038   8.249  66.189  1.00  0.00    -0.111 C  
HETATM    5  C   UNL     1      -8.773   8.866  67.392  1.00  0.00    -0.128 C  
HETATM    6  C   UNL     1      -8.381   8.325  68.772  1.00  0.00    -0.124 A  
HETATM    7  C   UNL     1      -8.734  10.400  67.285  1.00  0.00    -0.125 C  
HETATM    8  C   UNL     1      -7.134   7.743  69.053  1.00  0.00    -0.074 A  
HETATM    9  C   UNL     1      -7.856  11.256  67.839  1.00  0.00    -0.116 C  
HETATM   10  C   UNL     1      -8.050  12.702  67.739  1.00  0.00    -0.166 A  
HETATM   11  O   UNL     1      -6.712  10.904  68.518  1.00  0.00    -0.055 OA 
HETATM   12  C   UNL     1      -6.811   7.336  70.352  1.00  0.00    -0.053 A  
HETATM   13  H   UNL     1      -6.092  11.509  68.909  1.00  0.00     0.000 HD 
HETATM   14  C   UNL     1      -9.003  13.187  66.856  1.00  0.00    -0.209 A  
HETATM   15  C   UNL     1      -7.741   7.469  71.378  1.00  0.00    -0.085 A  
HETATM   16  C   UNL     1      -9.212  14.554  66.671  1.00  0.00    -0.290 A  
HETATM   17  O   UNL     1      -9.832  12.307  66.149  1.00  0.00    -0.235 OA 
HETATM   18  C   UNL     1      -8.997   8.002  71.112  1.00  0.00    -0.162 A  
HETATM   19  C   UNL     1      -9.312   8.434  69.823  1.00  0.00    -0.158 A  
HETATM   20  C   UNL     1      -9.845  10.953  66.446  1.00  0.00    -0.207 C  
HETATM   21  C   UNL     1      -8.480  15.463  67.431  1.00  0.00    -0.200 A  
HETATM   22  C   UNL     1      -7.549  15.000  68.360  1.00  0.00    -0.115 A  
HETATM   23  O   UNL     1     -10.705  10.220  65.963  1.00  0.00    -0.093 OA 
HETATM   24  C   UNL     1      -7.327  13.626  68.504  1.00  0.00    -0.114 A  
ENDBRANCH   2   4
TORSDOF 1
ENDMDL
MODEL      132
REMARK 921   NORMALIZED FREE ENERGY PREDICTED BY IDOCK:   -2.87 KCAL/MOL
REMARK 922        TOTAL FREE ENERGY PREDICTED BY IDOCK:   -3.36 KCAL/MOL
REMARK 923 INTER-LIGAND FREE ENERGY PREDICTED BY IDOCK:   -3.10 KCAL/MOL
REMARK 924 INTRA-LIGAND FREE ENERGY PREDICTED BY IDOCK:   -0.26 KCAL/MOL
REMARK 927      BINDING AFFINITY PREDICTED BY RF-SCORE:    0.00 PKD
ROOT
HETATM    1  C   UNL     1      -9.145   9.874  63.925  1.00  0.00    -0.298 C  
HETATM    2  C   UNL     1      -7.871   9.482  64.627  1.00  0.00    -0.122 C  
HETATM    3  O   UNL     1      -6.768   9.702  64.124  1.00  0.00    -0.101 OA 
ENDROOT
BRANCH   2   4
HETATM    4  C   UNL     1      -7.982   8.806  65.980  1.00  0.00    -0.107 C  
HETATM    5  C   UNL     1      -8.583   7.393  65.897  1.00  0.00    -0.165 C  
HETATM    6  C   UNL     1      -7.811   6.380  65.044  1.00  0.00    -0.112 A  
HETATM    7  C   UNL     1      -8.921   6.894  67.312  1.00  0.00    -0.118 C  
HETATM    8  C   UNL     1      -6.433   6.471  64.787  1.00  0.00    -0.041 A  
HETATM    9  C   UNL     1      -8.170   6.137  68.134  1.00  0.00    -0.114 C  
HETATM   10  C   UNL     1      -8.708   5.644  69.402  1.00  0.00    -0.109 A  
HETATM   11  O   UNL     1      -6.865   5.765  67.913  1.00  0.00    -0.057 OA 
HETATM   12  C   UNL     1      -5.773   5.473  64.062  1.00  0.00    -0.017 A  
HETATM   13  H   UNL     1      -6.335   5.230  68.493  1.00  0.00     0.000 HD 
HETATM   14  C   UNL     1      -9.904   6.170  69.869  1.00  0.00    -0.168 A  
HETATM   15  C   UNL     1      -6.485   4.392  63.553  1.00  0.00    -0.030 A  
HETATM   16  C   UNL     1     -10.453   5.784  71.091  1.00  0.00    -0.301 A  
HETATM   17  O   UNL     1     -10.632   7.080  69.093  1.00  0.00    -0.207 OA 
HETATM   18  C   UNL     1      -7.857   4.305  63.758  1.00  0.00    -0.087 A  
HETATM   19  C   UNL     1      -8.513   5.285  64.505  1.00  0.00    -0.133 A  
HETATM   20  C   UNL     1     -10.274   7.337  67.779  1.00  0.00    -0.195 C  
HETATM   21  C   UNL     1      -9.814   4.804  71.846  1.00  0.00    -0.236 A  
HETATM   22  C   UNL     1      -8.635   4.225  71.376  1.00  0.00    -0.123 A  
HETATM   23  O   UNL     1     -11.020   7.983  67.047  1.00  0.00    -0.191 OA 
HETATM   24  C   UNL     1      -8.079   4.652  70.166  1.00  0.00    -0.068 A  
ENDBRANCH   2   4
TORSDOF 1
ENDMDL
MODEL      133
REMARK 921   NORMALIZED FREE ENERGY PREDICTED BY IDOCK:   -2.85 KCAL/MOL
REMARK 922        TOTAL FREE ENERGY PREDICTED BY IDOCK:   -3.34 KCAL/MOL
REMARK 923 INTER-LIGAND FREE ENERGY PREDICTED BY IDOCK:   -3.05 KCAL/MOL
REMARK 924 INTRA-LIGAND FREE ENERGY PREDICTED BY IDOCK:   -0.29 KCAL/MOL
REMARK 927      BINDING AFFINITY PREDICTED BY RF-SCORE:    0.00 PKD
ROOT
HETATM    1  C   UNL     1      -7.195   7.627  71.120  1.00  0.00    -0.062 C  
HETATM    2  C   UNL     1      -8.458   7.583  70.301  1.00  0.00    -0.138 C  
HETATM    3  O   UNL     1      -9.445   8.254  70.608  1.00  0.00    -0.159 OA 
ENDROOT
BRANCH   2   4
HETATM    4  C   UNL     1      -8.484   6.687  69.077  1.00  0.00    -0.130 C  
HETATM    5  C   UNL     1      -8.901   7.433  67.798  1.00  0.00    -0.128 C  
HETATM    6  C   UNL     1      -8.004   8.603  67.377  1.00  0.00    -0.102 A  
HETATM    7  C   UNL     1      -9.174   6.416  66.676  1.00  0.00    -0.167 C  
HETATM    8  C   UNL     1      -6.649   8.709  67.729  1.00  0.00    -0.062 A  
HETATM    9  C   UNL     1      -8.334   5.980  65.719  1.00  0.00    -0.142 C  
HETATM   10  C   UNL     1      -8.807   5.104  64.647  1.00  0.00    -0.080 A  
HETATM   11  O   UNL     1      -6.992   6.267  65.638  1.00  0.00    -0.054 OA 
HETATM   12  C   UNL     1      -5.866   9.765  67.250  1.00  0.00    -0.051 A  
HETATM   13  H   UNL     1      -6.399   5.959  64.961  1.00  0.00     0.000 HD 
HETATM   14  C   UNL     1     -10.061   4.523  64.765  1.00  0.00     0.003 A  
HETATM   15  C   UNL     1      -6.433  10.748  66.446  1.00  0.00    -0.125 A  
HETATM   16  C   UNL     1     -10.559   3.639  63.808  1.00  0.00    -0.284 A  
HETATM   17  O   UNL     1     -10.898   4.847  65.840  1.00  0.00    -0.289 OA 
HETATM   18  C   UNL     1      -7.783  10.685  66.120  1.00  0.00    -0.145 A  
HETATM   19  C   UNL     1      -8.560   9.618  66.574  1.00  0.00    -0.135 A  
HETATM   20  C   UNL     1     -10.573   5.882  66.704  1.00  0.00    -0.264 C  
HETATM   21  C   UNL     1      -9.801   3.370  62.671  1.00  0.00    -0.103 A  
HETATM   22  C   UNL     1      -8.558   3.979  62.505  1.00  0.00    -0.085 A  
HETATM   23  O   UNL     1     -11.395   6.288  67.523  1.00  0.00    -0.246 OA 
HETATM   24  C   UNL     1      -8.058   4.832  63.495  1.00  0.00    -0.101 A  
ENDBRANCH   2   4
TORSDOF 1
ENDMDL
MODEL      134
REMARK 921   NORMALIZED FREE ENERGY PREDICTED BY IDOCK:   -2.81 KCAL/MOL
REMARK 922        TOTAL FREE ENERGY PREDICTED BY IDOCK:   -3.30 KCAL/MOL
REMARK 923 INTER-LIGAND FREE ENERGY PREDICTED BY IDOCK:   -3.08 KCAL/MOL
REMARK 924 INTRA-LIGAND FREE ENERGY PREDICTED BY IDOCK:   -0.22 KCAL/MOL
REMARK 927      BINDING AFFINITY PREDICTED BY RF-SCORE:    0.00 PKD
ROOT
HETATM    1  C   UNL     1     -11.340  12.616  67.716  1.00  0.00    -0.349 C  
HETATM    2  C   UNL     1     -11.683  11.175  67.990  1.00  0.00    -0.212 C  
HETATM    3  O   UNL     1     -12.521  10.866  68.838  1.00  0.00    -0.431 OA 
ENDROOT
BRANCH   2   4
HETATM    4  C   UNL     1     -10.966  10.106  67.186  1.00  0.00    -0.204 C  
HETATM    5  C   UNL     1      -9.521  10.492  66.831  1.00  0.00    -0.191 C  
HETATM    6  C   UNL     1      -8.581  10.752  68.014  1.00  0.00    -0.128 A  
HETATM    7  C   UNL     1      -8.965   9.501  65.794  1.00  0.00    -0.219 C  
HETATM    8  C   UNL     1      -8.767  10.194  69.290  1.00  0.00    -0.186 A  
HETATM    9  C   UNL     1      -8.236   8.389  66.004  1.00  0.00    -0.112 C  
HETATM   10  C   UNL     1      -7.677   7.634  64.884  1.00  0.00    -0.107 A  
HETATM   11  O   UNL     1      -7.954   7.836  67.232  1.00  0.00    -0.114 OA 
HETATM   12  C   UNL     1      -7.831  10.411  70.308  1.00  0.00     0.362 A  
HETATM   13  H   UNL     1      -7.439   7.051  67.380  1.00  0.00     0.000 HD 
HETATM   14  C   UNL     1      -8.113   7.924  63.600  1.00  0.00    -0.074 A  
HETATM   15  C   UNL     1      -6.721  11.216  70.078  1.00  0.00    -0.058 A  
HETATM   16  C   UNL     1      -7.662   7.214  62.488  1.00  0.00    -0.121 A  
HETATM   17  O   UNL     1      -8.996   8.987  63.371  1.00  0.00    -0.090 OA 
HETATM   18  C   UNL     1      -6.541  11.813  68.835  1.00  0.00    -0.082 A  
HETATM   19  C   UNL     1      -7.458  11.576  67.809  1.00  0.00    -0.101 A  
HETATM   20  C   UNL     1      -9.309   9.879  64.385  1.00  0.00    -0.265 C  
HETATM   21  C   UNL     1      -6.706   6.216  62.659  1.00  0.00    -0.037 A  
HETATM   22  C   UNL     1      -6.215   5.938  63.935  1.00  0.00    -0.025 A  
HETATM   23  O   UNL     1      -9.925  10.913  64.135  1.00  0.00    -0.286 OA 
HETATM   24  C   UNL     1      -6.708   6.635  65.043  1.00  0.00    -0.050 A  
ENDBRANCH   2   4
TORSDOF 1
ENDMDL
MODEL      135
REMARK 921   NORMALIZED FREE ENERGY PREDICTED BY IDOCK:   -2.72 KCAL/MOL
REMARK 922        TOTAL FREE ENERGY PREDICTED BY IDOCK:   -3.20 KCAL/MOL
REMARK 923 INTER-LIGAND FREE ENERGY PREDICTED BY IDOCK:   -2.93 KCAL/MOL
REMARK 924 INTRA-LIGAND FREE ENERGY PREDICTED BY IDOCK:   -0.27 KCAL/MOL
REMARK 927      BINDING AFFINITY PREDICTED BY RF-SCORE:    0.00 PKD
ROOT
HETATM    1  C   UNL     1      -9.695   8.535  72.367  1.00  0.00    -0.357 C  
HETATM    2  C   UNL     1     -10.509   7.274  72.232  1.00  0.00    -0.214 C  
HETATM    3  O   UNL     1     -11.330   6.947  73.091  1.00  0.00    -0.181 OA 
ENDROOT
BRANCH   2   4
HETATM    4  C   UNL     1     -10.292   6.413  71.003  1.00  0.00    -0.247 C  
HETATM    5  C   UNL     1      -8.907   5.745  70.976  1.00  0.00    -0.143 C  
HETATM    6  C   UNL     1      -8.589   4.803  72.143  1.00  0.00    -0.123 A  
HETATM    7  C   UNL     1      -8.661   5.129  69.588  1.00  0.00    -0.100 C  
HETATM    8  C   UNL     1      -9.572   4.137  72.894  1.00  0.00    -0.166 A  
HETATM    9  C   UNL     1      -8.881   3.865  69.181  1.00  0.00    -0.101 C  
HETATM   10  C   UNL     1      -8.462   3.419  67.852  1.00  0.00    -0.106 A  
HETATM   11  O   UNL     1      -9.514   2.886  69.912  1.00  0.00    -0.150 OA 
HETATM   12  C   UNL     1      -9.213   3.233  73.899  1.00  0.00    -0.099 A  
HETATM   13  H   UNL     1      -9.669   1.994  69.625  1.00  0.00     0.000 HD 
HETATM   14  C   UNL     1      -8.067   4.370  66.924  1.00  0.00    -0.102 A  
HETATM   15  C   UNL     1      -7.872   3.010  74.194  1.00  0.00    -0.064 A  
HETATM   16  C   UNL     1      -7.700   4.025  65.623  1.00  0.00    -0.089 A  
HETATM   17  O   UNL     1      -7.975   5.721  67.282  1.00  0.00    -0.101 OA 
HETATM   18  C   UNL     1      -6.884   3.692  73.492  1.00  0.00    -0.044 A  
HETATM   19  C   UNL     1      -7.239   4.574  72.470  1.00  0.00    -0.080 A  
HETATM   20  C   UNL     1      -8.099   6.112  68.607  1.00  0.00    -0.108 C  
HETATM   21  C   UNL     1      -7.679   2.682  65.255  1.00  0.00    -0.077 A  
HETATM   22  C   UNL     1      -8.026   1.702  66.186  1.00  0.00    -0.073 A  
HETATM   23  O   UNL     1      -7.827   7.263  68.941  1.00  0.00    -0.113 OA 
HETATM   24  C   UNL     1      -8.428   2.071  67.474  1.00  0.00    -0.095 A  
ENDBRANCH   2   4
TORSDOF 1
ENDMDL
MODEL      136
REMARK 921   NORMALIZED FREE ENERGY PREDICTED BY IDOCK:   -2.49 KCAL/MOL
REMARK 922        TOTAL FREE ENERGY PREDICTED BY IDOCK:   -2.96 KCAL/MOL
REMARK 923 INTER-LIGAND FREE ENERGY PREDICTED BY IDOCK:   -3.00 KCAL/MOL
REMARK 924 INTRA-LIGAND FREE ENERGY PREDICTED BY IDOCK:    0.04 KCAL/MOL
REMARK 927      BINDING AFFINITY PREDICTED BY RF-SCORE:    0.00 PKD
ROOT
HETATM    1  C   UNL     1      -8.921   7.743  70.607  1.00  0.00    -0.145 C  
HETATM    2  C   UNL     1     -10.153   7.545  69.763  1.00  0.00    -0.194 C  
HETATM    3  O   UNL     1     -11.239   8.026  70.092  1.00  0.00    -0.238 OA 
ENDROOT
BRANCH   2   4
HETATM    4  C   UNL     1     -10.022   6.735  68.487  1.00  0.00    -0.149 C  
HETATM    5  C   UNL     1      -8.749   5.872  68.454  1.00  0.00    -0.112 C  
HETATM    6  C   UNL     1      -8.615   4.826  69.567  1.00  0.00    -0.103 A  
HETATM    7  C   UNL     1      -8.547   5.310  67.037  1.00  0.00    -0.105 C  
HETATM    8  C   UNL     1      -9.711   4.270  70.248  1.00  0.00    -0.280 A  
HETATM    9  C   UNL     1      -8.936   4.119  66.545  1.00  0.00    -0.125 C  
HETATM   10  C   UNL     1      -8.540   3.695  65.202  1.00  0.00    -0.113 A  
HETATM   11  O   UNL     1      -9.730   3.203  67.194  1.00  0.00    -0.389 OA 
HETATM   12  C   UNL     1      -9.525   3.264  71.202  1.00  0.00    -0.221 A  
HETATM   13  H   UNL     1     -10.005   2.362  66.847  1.00  0.00     0.000 HD 
HETATM   14  C   UNL     1      -7.976   4.630  64.347  1.00  0.00    -0.098 A  
HETATM   15  C   UNL     1      -8.242   2.828  71.518  1.00  0.00    -0.072 A  
HETATM   16  C   UNL     1      -7.618   4.312  63.037  1.00  0.00    -0.058 A  
HETATM   17  O   UNL     1      -7.700   5.928  64.793  1.00  0.00    -0.086 OA 
HETATM   18  C   UNL     1      -7.141   3.395  70.887  1.00  0.00    -0.033 A  
HETATM   19  C   UNL     1      -7.325   4.379  69.914  1.00  0.00    -0.050 A  
HETATM   20  C   UNL     1      -7.812   6.254  66.136  1.00  0.00    -0.105 C  
HETATM   21  C   UNL     1      -7.780   3.005  62.585  1.00  0.00    -0.062 A  
HETATM   22  C   UNL     1      -8.300   2.034  63.441  1.00  0.00    -0.076 A  
HETATM   23  O   UNL     1      -7.387   7.330  66.551  1.00  0.00    -0.077 OA 
HETATM   24  C   UNL     1      -8.690   2.381  64.739  1.00  0.00    -0.108 A  
ENDBRANCH   2   4
TORSDOF 1
ENDMDL
MODEL      137
REMARK 921   NORMALIZED FREE ENERGY PREDICTED BY IDOCK:   -2.47 KCAL/MOL
REMARK 922        TOTAL FREE ENERGY PREDICTED BY IDOCK:   -2.94 KCAL/MOL
REMARK 923 INTER-LIGAND FREE ENERGY PREDICTED BY IDOCK:   -2.70 KCAL/MOL
REMARK 924 INTRA-LIGAND FREE ENERGY PREDICTED BY IDOCK:   -0.24 KCAL/MOL
REMARK 927      BINDING AFFINITY PREDICTED BY RF-SCORE:    0.00 PKD
ROOT
HETATM    1  C   UNL     1     -10.996   4.145  64.182  1.00  0.00     0.025 C  
HETATM    2  C   UNL     1      -9.508   4.095  64.411  1.00  0.00    -0.163 C  
HETATM    3  O   UNL     1      -8.818   3.185  63.945  1.00  0.00    -0.092 OA 
ENDROOT
BRANCH   2   4
HETATM    4  C   UNL     1      -8.874   5.202  65.231  1.00  0.00    -0.152 C  
HETATM    5  C   UNL     1      -9.237   5.125  66.723  1.00  0.00    -0.123 C  
HETATM    6  C   UNL     1      -8.820   3.844  67.454  1.00  0.00    -0.137 A  
HETATM    7  C   UNL     1      -8.797   6.421  67.427  1.00  0.00    -0.104 C  
HETATM    8  C   UNL     1      -7.752   3.028  67.045  1.00  0.00    -0.075 A  
HETATM    9  C   UNL     1      -7.650   6.667  68.087  1.00  0.00    -0.104 C  
HETATM   10  C   UNL     1      -7.455   7.922  68.812  1.00  0.00    -0.095 A  
HETATM   11  O   UNL     1      -6.563   5.826  68.147  1.00  0.00    -0.045 OA 
HETATM   12  C   UNL     1      -7.376   1.911  67.799  1.00  0.00    -0.054 A  
HETATM   13  H   UNL     1      -5.753   6.000  68.613  1.00  0.00     0.000 HD 
HETATM   14  C   UNL     1      -8.353   8.958  68.605  1.00  0.00    -0.124 A  
HETATM   15  C   UNL     1      -8.082   1.572  68.948  1.00  0.00    -0.061 A  
HETATM   16  C   UNL     1      -8.204  10.199  69.223  1.00  0.00    -0.156 A  
HETATM   17  O   UNL     1      -9.480   8.772  67.796  1.00  0.00    -0.139 OA 
HETATM   18  C   UNL     1      -9.170   2.341  69.347  1.00  0.00    -0.187 A  
HETATM   19  C   UNL     1      -9.530   3.472  68.612  1.00  0.00    -0.209 A  
HETATM   20  C   UNL     1      -9.820   7.510  67.333  1.00  0.00    -0.169 C  
HETATM   21  C   UNL     1      -7.154  10.393  70.117  1.00  0.00    -0.125 A  
HETATM   22  C   UNL     1      -6.265   9.351  70.380  1.00  0.00    -0.061 A  
HETATM   23  O   UNL     1     -10.906   7.320  66.790  1.00  0.00    -0.311 OA 
HETATM   24  C   UNL     1      -6.408   8.126  69.720  1.00  0.00    -0.036 A  
ENDBRANCH   2   4
TORSDOF 1
ENDMDL
MODEL      138
REMARK 921   NORMALIZED FREE ENERGY PREDICTED BY IDOCK:   -2.43 KCAL/MOL
REMARK 922        TOTAL FREE ENERGY PREDICTED BY IDOCK:   -2.89 KCAL/MOL
REMARK 923 INTER-LIGAND FREE ENERGY PREDICTED BY IDOCK:   -3.10 KCAL/MOL
REMARK 924 INTRA-LIGAND FREE ENERGY PREDICTED BY IDOCK:    0.21 KCAL/MOL
REMARK 927      BINDING AFFINITY PREDICTED BY RF-SCORE:    0.00 PKD
ROOT
HETATM    1  C   UNL     1     -11.721  19.773  67.383  1.00  0.00     1.282 C  
HETATM    2  C   UNL     1     -10.343  19.367  66.930  1.00  0.00    -0.437 C  
HETATM    3  O   UNL     1      -9.734  20.011  66.075  1.00  0.00    -0.424 OA 
ENDROOT
BRANCH   2   4
HETATM    4  C   UNL     1      -9.718  18.137  67.561  1.00  0.00    -0.304 C  
HETATM    5  C   UNL     1      -8.302  17.847  67.034  1.00  0.00    -0.248 C  
HETATM    6  C   UNL     1      -7.259  18.947  67.263  1.00  0.00    -0.222 A  
HETATM    7  C   UNL     1      -7.856  16.451  67.501  1.00  0.00    -0.167 C  
HETATM    8  C   UNL     1      -7.341  19.892  68.298  1.00  0.00    -0.327 A  
HETATM    9  C   UNL     1      -7.130  16.123  68.586  1.00  0.00    -0.147 C  
HETATM   10  C   UNL     1      -6.684  14.747  68.804  1.00  0.00    -0.090 A  
HETATM   11  O   UNL     1      -6.751  16.986  69.588  1.00  0.00    -0.213 OA 
HETATM   12  C   UNL     1      -6.317  20.824  68.499  1.00  0.00    -0.288 A  
HETATM   13  H   UNL     1      -6.239  16.755  70.354  1.00  0.00     0.000 HD 
HETATM   14  C   UNL     1      -7.226  13.739  68.022  1.00  0.00    -0.137 A  
HETATM   15  C   UNL     1      -5.218  20.850  67.647  1.00  0.00    -0.269 A  
HETATM   16  C   UNL     1      -6.886  12.398  68.204  1.00  0.00    -0.081 A  
HETATM   17  O   UNL     1      -8.107  14.043  66.977  1.00  0.00    -0.137 OA 
HETATM   18  C   UNL     1      -5.137  19.950  66.590  1.00  0.00    -0.162 A  
HETATM   19  C   UNL     1      -6.144  19.002  66.404  1.00  0.00    -0.186 A  
HETATM   20  C   UNL     1      -8.315  15.357  66.586  1.00  0.00    -0.220 C  
HETATM   21  C   UNL     1      -5.935  12.062  69.165  1.00  0.00    -0.074 A  
HETATM   22  C   UNL     1      -5.339  13.063  69.932  1.00  0.00    -0.096 A  
HETATM   23  O   UNL     1      -8.933  15.607  65.553  1.00  0.00    -0.051 OA 
HETATM   24  C   UNL     1      -5.722  14.398  69.761  1.00  0.00    -0.104 A  
ENDBRANCH   2   4
TORSDOF 1
ENDMDL
MODEL      139
REMARK 921   NORMALIZED FREE ENERGY PREDICTED BY IDOCK:   -2.39 KCAL/MOL
REMARK 922        TOTAL FREE ENERGY PREDICTED BY IDOCK:   -2.85 KCAL/MOL
REMARK 923 INTER-LIGAND FREE ENERGY PREDICTED BY IDOCK:   -2.52 KCAL/MOL
REMARK 924 INTRA-LIGAND FREE ENERGY PREDICTED BY IDOCK:   -0.34 KCAL/MOL
REMARK 927      BINDING AFFINITY PREDICTED BY RF-SCORE:    0.00 PKD
ROOT
HETATM    1  C   UNL     1     -10.248  10.746  66.610  1.00  0.00    -0.283 C  
HETATM    2  C   UNL     1      -8.914  10.510  67.268  1.00  0.00    -0.139 C  
HETATM    3  O   UNL     1      -8.012  11.348  67.205  1.00  0.00    -0.140 OA 
ENDROOT
BRANCH   2   4
HETATM    4  C   UNL     1      -8.709   9.209  68.019  1.00  0.00    -0.129 C  
HETATM    5  C   UNL     1      -8.887   7.968  67.128  1.00  0.00    -0.138 C  
HETATM    6  C   UNL     1      -7.936   7.854  65.931  1.00  0.00    -0.106 A  
HETATM    7  C   UNL     1      -8.943   6.708  68.008  1.00  0.00    -0.117 C  
HETATM    8  C   UNL     1      -6.669   8.460  65.886  1.00  0.00    -0.053 A  
HETATM    9  C   UNL     1      -7.939   5.877  68.346  1.00  0.00    -0.105 C  
HETATM   10  C   UNL     1      -8.202   4.644  69.088  1.00  0.00    -0.081 A  
HETATM   11  O   UNL     1      -6.606   6.077  68.072  1.00  0.00    -0.051 OA 
HETATM   12  C   UNL     1      -5.818   8.255  64.794  1.00  0.00    -0.045 A  
HETATM   13  H   UNL     1      -5.898   5.490  68.310  1.00  0.00     0.000 HD 
HETATM   14  C   UNL     1      -9.452   4.464  69.661  1.00  0.00    -0.182 A  
HETATM   15  C   UNL     1      -6.233   7.477  63.719  1.00  0.00    -0.053 A  
HETATM   16  C   UNL     1      -9.760   3.337  70.423  1.00  0.00    -0.125 A  
HETATM   17  O   UNL     1     -10.474   5.396  69.447  1.00  0.00    -0.266 OA 
HETATM   18  C   UNL     1      -7.500   6.905  63.725  1.00  0.00    -0.091 A  
HETATM   19  C   UNL     1      -8.341   7.084  64.825  1.00  0.00     0.018 A  
HETATM   20  C   UNL     1     -10.320   6.417  68.521  1.00  0.00    -0.197 C  
HETATM   21  C   UNL     1      -8.804   2.335  70.574  1.00  0.00    -0.134 A  
HETATM   22  C   UNL     1      -7.555   2.471  69.968  1.00  0.00    -0.043 A  
HETATM   23  O   UNL     1     -11.281   7.112  68.198  1.00  0.00    -0.007 OA 
HETATM   24  C   UNL     1      -7.252   3.626  69.240  1.00  0.00    -0.049 A  
ENDBRANCH   2   4
TORSDOF 1
ENDMDL
MODEL      140
REMARK 921   NORMALIZED FREE ENERGY PREDICTED BY IDOCK:   -2.38 KCAL/MOL
REMARK 922        TOTAL FREE ENERGY PREDICTED BY IDOCK:   -2.84 KCAL/MOL
REMARK 923 INTER-LIGAND FREE ENERGY PREDICTED BY IDOCK:   -2.54 KCAL/MOL
REMARK 924 INTRA-LIGAND FREE ENERGY PREDICTED BY IDOCK:   -0.30 KCAL/MOL
REMARK 927      BINDING AFFINITY PREDICTED BY RF-SCORE:    0.00 PKD
ROOT
HETATM    1  C   UNL     1      -8.377   6.827  62.516  1.00  0.00     0.044 C  
HETATM    2  C   UNL     1      -7.149   7.295  63.252  1.00  0.00    -0.066 C  
HETATM    3  O   UNL     1      -6.127   6.608  63.294  1.00  0.00    -0.036 OA 
ENDROOT
BRANCH   2   4
HETATM    4  C   UNL     1      -7.201   8.646  63.941  1.00  0.00    -0.096 C  
HETATM    5  C   UNL     1      -8.229   8.695  65.084  1.00  0.00    -0.152 C  
HETATM    6  C   UNL     1      -8.007   7.705  66.234  1.00  0.00    -0.105 A  
HETATM    7  C   UNL     1      -8.422  10.152  65.538  1.00  0.00    -0.159 C  
HETATM    8  C   UNL     1      -6.752   7.168  66.566  1.00  0.00    -0.057 A  
HETATM    9  C   UNL     1      -7.808  10.804  66.543  1.00  0.00    -0.145 C  
HETATM   10  C   UNL     1      -8.214  12.158  66.919  1.00  0.00    -0.134 A  
HETATM   11  O   UNL     1      -6.762  10.320  67.293  1.00  0.00    -0.071 OA 
HETATM   12  C   UNL     1      -6.605   6.328  67.674  1.00  0.00    -0.055 A  
HETATM   13  H   UNL     1      -6.328  10.780  68.002  1.00  0.00     0.000 HD 
HETATM   14  C   UNL     1      -9.061  12.860  66.073  1.00  0.00     0.167 A  
HETATM   15  C   UNL     1      -7.712   5.981  68.442  1.00  0.00    -0.099 A  
HETATM   16  C   UNL     1      -9.452  14.171  66.341  1.00  0.00    -0.289 A  
HETATM   17  O   UNL     1      -9.596  12.247  64.933  1.00  0.00    -0.094 OA 
HETATM   18  C   UNL     1      -8.971   6.467  68.105  1.00  0.00    -0.116 A  
HETATM   19  C   UNL     1      -9.116   7.328  67.016  1.00  0.00    -0.152 A  
HETATM   20  C   UNL     1      -9.441  10.886  64.721  1.00  0.00    -0.238 C  
HETATM   21  C   UNL     1      -9.026  14.782  67.518  1.00  0.00    -0.192 A  
HETATM   22  C   UNL     1      -8.213  14.081  68.409  1.00  0.00    -0.150 A  
HETATM   23  O   UNL     1     -10.069  10.321  63.829  1.00  0.00    -0.197 OA 
HETATM   24  C   UNL     1      -7.799  12.780  68.104  1.00  0.00    -0.146 A  
ENDBRANCH   2   4
TORSDOF 1
ENDMDL
MODEL      141
REMARK 921   NORMALIZED FREE ENERGY PREDICTED BY IDOCK:   -2.36 KCAL/MOL
REMARK 922        TOTAL FREE ENERGY PREDICTED BY IDOCK:   -2.82 KCAL/MOL
REMARK 923 INTER-LIGAND FREE ENERGY PREDICTED BY IDOCK:   -2.56 KCAL/MOL
REMARK 924 INTRA-LIGAND FREE ENERGY PREDICTED BY IDOCK:   -0.26 KCAL/MOL
REMARK 927      BINDING AFFINITY PREDICTED BY RF-SCORE:    0.00 PKD
ROOT
HETATM    1  C   UNL     1     -10.260  12.330  68.545  1.00  0.00    -0.213 C  
HETATM    2  C   UNL     1      -8.931  11.741  68.149  1.00  0.00    -0.181 C  
HETATM    3  O   UNL     1      -7.886  12.084  68.706  1.00  0.00    -0.113 OA 
ENDROOT
BRANCH   2   4
HETATM    4  C   UNL     1      -8.911  10.705  67.041  1.00  0.00    -0.145 C  
HETATM    5  C   UNL     1      -8.301   9.365  67.486  1.00  0.00    -0.122 C  
HETATM    6  C   UNL     1      -9.009   8.651  68.642  1.00  0.00    -0.142 A  
HETATM    7  C   UNL     1      -8.059   8.477  66.253  1.00  0.00    -0.107 C  
HETATM    8  C   UNL     1     -10.367   8.834  68.953  1.00  0.00    -0.229 A  
HETATM    9  C   UNL     1      -8.862   7.529  65.734  1.00  0.00    -0.090 C  
HETATM   10  C   UNL     1      -8.410   6.685  64.628  1.00  0.00     0.025 A  
HETATM   11  O   UNL     1     -10.148   7.257  66.139  1.00  0.00    -0.445 OA 
HETATM   12  C   UNL     1     -10.972   8.096  69.976  1.00  0.00    -0.199 A  
HETATM   13  H   UNL     1     -10.715   6.588  65.772  1.00  0.00     0.000 HD 
HETATM   14  C   UNL     1      -7.251   7.036  63.952  1.00  0.00    -0.070 A  
HETATM   15  C   UNL     1     -10.224   7.194  70.725  1.00  0.00    -0.208 A  
HETATM   16  C   UNL     1      -6.785   6.308  62.857  1.00  0.00    -0.040 A  
HETATM   17  O   UNL     1      -6.475   8.118  64.384  1.00  0.00    -0.063 OA 
HETATM   18  C   UNL     1      -8.869   7.029  70.462  1.00  0.00    -0.154 A  
HETATM   19  C   UNL     1      -8.268   7.744  69.424  1.00  0.00    -0.131 A  
HETATM   20  C   UNL     1      -6.743   8.746  65.590  1.00  0.00    -0.068 C  
HETATM   21  C   UNL     1      -7.472   5.164  62.459  1.00  0.00    -0.047 A  
HETATM   22  C   UNL     1      -8.613   4.762  63.152  1.00  0.00    -0.117 A  
HETATM   23  O   UNL     1      -5.950   9.561  66.056  1.00  0.00    -0.059 OA 
HETATM   24  C   UNL     1      -9.087   5.527  64.223  1.00  0.00     0.357 A  
ENDBRANCH   2   4
TORSDOF 1
ENDMDL
MODEL      142
REMARK 921   NORMALIZED FREE ENERGY PREDICTED BY IDOCK:   -2.24 KCAL/MOL
REMARK 922        TOTAL FREE ENERGY PREDICTED BY IDOCK:   -2.69 KCAL/MOL
REMARK 923 INTER-LIGAND FREE ENERGY PREDICTED BY IDOCK:   -2.70 KCAL/MOL
REMARK 924 INTRA-LIGAND FREE ENERGY PREDICTED BY IDOCK:    0.01 KCAL/MOL
REMARK 927      BINDING AFFINITY PREDICTED BY RF-SCORE:    0.00 PKD
ROOT
HETATM    1  C   UNL     1     -11.180  11.138  69.778  1.00  0.00    -0.318 C  
HETATM    2  C   UNL     1     -11.252   9.634  69.816  1.00  0.00    -0.174 C  
HETATM    3  O   UNL     1     -11.935   9.046  70.657  1.00  0.00    -0.226 OA 
ENDROOT
BRANCH   2   4
HETATM    4  C   UNL     1     -10.460   8.855  68.783  1.00  0.00    -0.223 C  
HETATM    5  C   UNL     1      -9.009   8.588  69.217  1.00  0.00    -0.146 C  
HETATM    6  C   UNL     1      -8.829   7.776  70.505  1.00  0.00    -0.145 A  
HETATM    7  C   UNL     1      -8.205   8.052  68.020  1.00  0.00    -0.129 C  
HETATM    8  C   UNL     1      -9.788   6.873  70.995  1.00  0.00    -0.185 A  
HETATM    9  C   UNL     1      -7.960   6.773  67.681  1.00  0.00    -0.113 C  
HETATM   10  C   UNL     1      -7.059   6.448  66.575  1.00  0.00    -0.068 A  
HETATM   11  O   UNL     1      -8.511   5.665  68.281  1.00  0.00    -0.105 OA 
HETATM   12  C   UNL     1      -9.531   6.107  72.137  1.00  0.00    -0.159 A  
HETATM   13  H   UNL     1      -8.338   4.761  68.041  1.00  0.00     0.000 HD 
HETATM   14  C   UNL     1      -6.659   7.464  65.721  1.00  0.00    -0.045 A  
HETATM   15  C   UNL     1      -8.332   6.258  72.826  1.00  0.00    -0.119 A  
HETATM   16  C   UNL     1      -5.840   7.223  64.618  1.00  0.00    -0.037 A  
HETATM   17  O   UNL     1      -7.029   8.792  65.970  1.00  0.00    -0.077 OA 
HETATM   18  C   UNL     1      -7.388   7.178  72.383  1.00  0.00    -0.079 A  
HETATM   19  C   UNL     1      -7.630   7.924  71.228  1.00  0.00    -0.081 A  
HETATM   20  C   UNL     1      -7.644   9.144  67.161  1.00  0.00    -0.091 C  
HETATM   21  C   UNL     1      -5.364   5.933  64.393  1.00  0.00    -0.017 A  
HETATM   22  C   UNL     1      -5.713   4.903  65.265  1.00  0.00    -0.014 A  
HETATM   23  O   UNL     1      -7.792  10.328  67.457  1.00  0.00    -0.101 OA 
HETATM   24  C   UNL     1      -6.567   5.157  66.344  1.00  0.00    -0.049 A  
ENDBRANCH   2   4
TORSDOF 1
ENDMDL
MODEL      143
REMARK 921   NORMALIZED FREE ENERGY PREDICTED BY IDOCK:   -2.19 KCAL/MOL
REMARK 922        TOTAL FREE ENERGY PREDICTED BY IDOCK:   -2.64 KCAL/MOL
REMARK 923 INTER-LIGAND FREE ENERGY PREDICTED BY IDOCK:   -2.80 KCAL/MOL
REMARK 924 INTRA-LIGAND FREE ENERGY PREDICTED BY IDOCK:    0.16 KCAL/MOL
REMARK 927      BINDING AFFINITY PREDICTED BY RF-SCORE:    0.00 PKD
ROOT
HETATM    1  C   UNL     1      -8.251  11.391  68.469  1.00  0.00    -0.153 C  
HETATM    2  C   UNL     1      -9.433  12.309  68.298  1.00  0.00    -0.209 C  
HETATM    3  O   UNL     1     -10.587  11.877  68.306  1.00  0.00    -0.198 OA 
ENDROOT
BRANCH   2   4
HETATM    4  C   UNL     1      -9.164  13.791  68.119  1.00  0.00    -0.199 C  
HETATM    5  C   UNL     1     -10.452  14.629  68.049  1.00  0.00    -0.236 C  
HETATM    6  C   UNL     1     -11.364  14.568  69.281  1.00  0.00    -0.317 A  
HETATM    7  C   UNL     1     -10.112  16.057  67.590  1.00  0.00    -0.245 C  
HETATM    8  C   UNL     1     -10.905  14.263  70.573  1.00  0.00     0.493 A  
HETATM    9  C   UNL     1      -9.872  17.145  68.346  1.00  0.00    -0.296 C  
HETATM   10  C   UNL     1      -9.693  18.461  67.733  1.00  0.00    -0.316 A  
HETATM   11  O   UNL     1      -9.749  17.159  69.716  1.00  0.00     0.220 OA 
HETATM   12  C   UNL     1     -11.776  14.297  71.667  1.00  0.00     0.143 A  
HETATM   13  H   UNL     1      -9.580  17.927  70.249  1.00  0.00     0.000 HD 
HETATM   14  C   UNL     1      -9.519  18.539  66.359  1.00  0.00    -0.301 A  
HETATM   15  C   UNL     1     -13.121  14.599  71.482  1.00  0.00    -0.420 A  
HETATM   16  C   UNL     1      -9.295  19.753  65.710  1.00  0.00    -0.075 A  
HETATM   17  O   UNL     1      -9.615  17.391  65.563  1.00  0.00    -0.424 OA 
HETATM   18  C   UNL     1     -13.604  14.862  70.205  1.00  0.00     0.419 A  
HETATM   19  C   UNL     1     -12.732  14.855  69.115  1.00  0.00     0.321 A  
HETATM   20  C   UNL     1     -10.059  16.192  66.099  1.00  0.00    -0.338 C  
HETATM   21  C   UNL     1      -9.296  20.932  66.452  1.00  0.00     0.348 A  
HETATM   22  C   UNL     1      -9.516  20.885  67.828  1.00  0.00    -0.188 A  
HETATM   23  O   UNL     1     -10.325  15.243  65.363  1.00  0.00    -0.340 OA 
HETATM   24  C   UNL     1      -9.701  19.654  68.467  1.00  0.00    -0.493 A  
ENDBRANCH   2   4
TORSDOF 1
ENDMDL
MODEL      144
REMARK 921   NORMALIZED FREE ENERGY PREDICTED BY IDOCK:   -2.13 KCAL/MOL
REMARK 922        TOTAL FREE ENERGY PREDICTED BY IDOCK:   -2.58 KCAL/MOL
REMARK 923 INTER-LIGAND FREE ENERGY PREDICTED BY IDOCK:   -2.34 KCAL/MOL
REMARK 924 INTRA-LIGAND FREE ENERGY PREDICTED BY IDOCK:   -0.23 KCAL/MOL
REMARK 927      BINDING AFFINITY PREDICTED BY RF-SCORE:    0.00 PKD
ROOT
HETATM    1  C   UNL     1      -8.149  10.929  63.120  1.00  0.00     0.106 C  
HETATM    2  C   UNL     1      -9.505  10.917  63.775  1.00  0.00    -0.275 C  
HETATM    3  O   UNL     1     -10.388  10.140  63.407  1.00  0.00     0.366 OA 
ENDROOT
BRANCH   2   4
HETATM    4  C   UNL     1      -9.758  11.891  64.910  1.00  0.00    -0.158 C  
HETATM    5  C   UNL     1     -10.689  11.320  65.993  1.00  0.00    -0.301 C  
HETATM    6  C   UNL     1     -10.202  10.051  66.701  1.00  0.00    -0.288 A  
HETATM    7  C   UNL     1     -11.118  12.447  66.948  1.00  0.00    -0.335 C  
HETATM    8  C   UNL     1      -8.848   9.695  66.813  1.00  0.00    -0.148 A  
HETATM    9  C   UNL     1     -10.564  12.806  68.121  1.00  0.00    -0.229 C  
HETATM   10  C   UNL     1     -11.187  13.824  68.966  1.00  0.00    -0.313 A  
HETATM   11  O   UNL     1      -9.393  12.306  68.642  1.00  0.00    -0.363 OA 
HETATM   12  C   UNL     1      -8.464   8.561  67.538  1.00  0.00    -0.128 A  
HETATM   13  H   UNL     1      -9.002  12.560  69.470  1.00  0.00     0.000 HD 
HETATM   14  C   UNL     1     -12.210  14.596  68.436  1.00  0.00    -0.094 A  
HETATM   15  C   UNL     1      -9.426   7.748  68.126  1.00  0.00    -0.152 A  
HETATM   16  C   UNL     1     -12.819  15.618  69.165  1.00  0.00     0.781 A  
HETATM   17  O   UNL     1     -12.704  14.338  67.151  1.00  0.00     0.043 OA 
HETATM   18  C   UNL     1     -10.775   8.058  67.991  1.00  0.00    -0.112 A  
HETATM   19  C   UNL     1     -11.159   9.204  67.292  1.00  0.00     0.264 A  
HETATM   20  C   UNL     1     -12.313  13.204  66.456  1.00  0.00    -0.185 C  
HETATM   21  C   UNL     1     -12.429  15.839  70.483  1.00  0.00    -0.371 A  
HETATM   22  C   UNL     1     -11.435  15.045  71.056  1.00  0.00    -0.344 A  
HETATM   23  O   UNL     1     -12.890  12.882  65.420  1.00  0.00    -0.599 OA 
HETATM   24  C   UNL     1     -10.809  14.051  70.296  1.00  0.00     0.491 A  
ENDBRANCH   2   4
TORSDOF 1
ENDMDL
MODEL      145
REMARK 921   NORMALIZED FREE ENERGY PREDICTED BY IDOCK:   -1.61 KCAL/MOL
REMARK 922        TOTAL FREE ENERGY PREDICTED BY IDOCK:   -2.03 KCAL/MOL
REMARK 923 INTER-LIGAND FREE ENERGY PREDICTED BY IDOCK:   -2.79 KCAL/MOL
REMARK 924 INTRA-LIGAND FREE ENERGY PREDICTED BY IDOCK:    0.76 KCAL/MOL
REMARK 927      BINDING AFFINITY PREDICTED BY RF-SCORE:    0.00 PKD
ROOT
HETATM    1  C   UNL     1      -9.865   5.460  73.109  1.00  0.00    -0.179 C  
HETATM    2  C   UNL     1     -10.873   6.287  72.355  1.00  0.00    -0.243 C  
HETATM    3  O   UNL     1     -11.904   6.690  72.896  1.00  0.00    -0.003 OA 
ENDROOT
BRANCH   2   4
HETATM    4  C   UNL     1     -10.583   6.616  70.903  1.00  0.00    -0.263 C  
HETATM    5  C   UNL     1      -9.180   6.172  70.456  1.00  0.00    -0.166 C  
HETATM    6  C   UNL     1      -8.883   4.671  70.558  1.00  0.00    -0.141 A  
HETATM    7  C   UNL     1      -8.861   6.783  69.081  1.00  0.00    -0.134 C  
HETATM    8  C   UNL     1      -9.876   3.678  70.522  1.00  0.00    -0.111 A  
HETATM    9  C   UNL     1      -9.030   6.236  67.862  1.00  0.00    -0.113 C  
HETATM   10  C   UNL     1      -8.546   6.915  66.661  1.00  0.00    -0.124 A  
HETATM   11  O   UNL     1      -9.663   5.044  67.599  1.00  0.00    -0.139 OA 
HETATM   12  C   UNL     1      -9.533   2.322  70.545  1.00  0.00    -0.177 A  
HETATM   13  H   UNL     1      -9.783   4.658  66.738  1.00  0.00     0.000 HD 
HETATM   14  C   UNL     1      -8.140   8.238  66.760  1.00  0.00    -0.103 A  
HETATM   15  C   UNL     1      -8.199   1.940  70.642  1.00  0.00    -0.058 A  
HETATM   16  C   UNL     1      -7.712   8.965  65.649  1.00  0.00    -0.087 A  
HETATM   17  O   UNL     1      -8.100   8.879  68.004  1.00  0.00    -0.105 OA 
HETATM   18  C   UNL     1      -7.203   2.907  70.723  1.00  0.00    -0.033 A  
HETATM   19  C   UNL     1      -7.541   4.260  70.672  1.00  0.00    -0.052 A  
HETATM   20  C   UNL     1      -8.288   8.163  69.177  1.00  0.00    -0.131 C  
HETATM   21  C   UNL     1      -7.639   8.334  64.410  1.00  0.00    -0.113 A  
HETATM   22  C   UNL     1      -7.995   6.990  64.293  1.00  0.00    -0.091 A  
HETATM   23  O   UNL     1      -8.063   8.686  70.266  1.00  0.00    -0.096 OA 
HETATM   24  C   UNL     1      -8.459   6.289  65.411  1.00  0.00    -0.131 A  
ENDBRANCH   2   4
TORSDOF 1
ENDMDL
MODEL      146
REMARK 921   NORMALIZED FREE ENERGY PREDICTED BY IDOCK:   -0.54 KCAL/MOL
REMARK 922        TOTAL FREE ENERGY PREDICTED BY IDOCK:   -0.90 KCAL/MOL
REMARK 923 INTER-LIGAND FREE ENERGY PREDICTED BY IDOCK:   -0.70 KCAL/MOL
REMARK 924 INTRA-LIGAND FREE ENERGY PREDICTED BY IDOCK:   -0.20 KCAL/MOL
REMARK 927      BINDING AFFINITY PREDICTED BY RF-SCORE:    0.00 PKD
ROOT
HETATM    1  C   UNL     1      -7.305  12.139  67.974  1.00  0.00    -0.105 C  
HETATM    2  C   UNL     1      -7.115  13.090  69.126  1.00  0.00     0.030 C  
HETATM    3  O   UNL     1      -6.716  12.696  70.224  1.00  0.00     0.216 OA 
ENDROOT
BRANCH   2   4
HETATM    4  C   UNL     1      -7.425  14.558  68.899  1.00  0.00    -0.133 C  
HETATM    5  C   UNL     1      -8.559  14.781  67.885  1.00  0.00    -0.166 C  
HETATM    6  C   UNL     1      -9.918  14.171  68.248  1.00  0.00    -0.241 A  
HETATM    7  C   UNL     1      -8.621  16.269  67.502  1.00  0.00    -0.189 C  
HETATM    8  C   UNL     1     -10.324  13.906  69.567  1.00  0.00     0.287 A  
HETATM    9  C   UNL     1      -9.389  17.239  68.032  1.00  0.00    -0.264 C  
HETATM   10  C   UNL     1      -9.412  18.581  67.451  1.00  0.00    -0.294 A  
HETATM   11  O   UNL     1     -10.193  17.110  69.141  1.00  0.00    -0.308 OA 
HETATM   12  C   UNL     1     -11.607  13.419  69.836  1.00  0.00    -0.270 A  
HETATM   13  H   UNL     1     -10.735  17.794  69.515  1.00  0.00     0.000 HD 
HETATM   14  C   UNL     1      -8.450  18.917  66.511  1.00  0.00    -0.304 A  
HETATM   15  C   UNL     1     -12.487  13.153  68.793  1.00  0.00     0.348 A  
HETATM   16  C   UNL     1      -8.379  20.192  65.949  1.00  0.00    -0.118 A  
HETATM   17  O   UNL     1      -7.537  17.959  66.052  1.00  0.00    -0.415 OA 
HETATM   18  C   UNL     1     -12.091  13.366  67.477  1.00  0.00    -0.323 A  
HETATM   19  C   UNL     1     -10.821  13.879  67.208  1.00  0.00    -0.292 A  
HETATM   20  C   UNL     1      -7.685  16.622  66.387  1.00  0.00    -0.293 C  
HETATM   21  C   UNL     1      -9.333  21.144  66.300  1.00  0.00     1.139 A  
HETATM   22  C   UNL     1     -10.340  20.816  67.208  1.00  0.00     0.131 A  
HETATM   23  O   UNL     1      -7.003  15.764  65.831  1.00  0.00     1.443 OA 
HETATM   24  C   UNL     1     -10.371  19.545  67.790  1.00  0.00    -0.575 A  
ENDBRANCH   2   4
TORSDOF 1
ENDMDL
MODEL      147
REMARK 921   NORMALIZED FREE ENERGY PREDICTED BY IDOCK:    0.00 KCAL/MOL
REMARK 922        TOTAL FREE ENERGY PREDICTED BY IDOCK:   -0.32 KCAL/MOL
REMARK 923 INTER-LIGAND FREE ENERGY PREDICTED BY IDOCK:   -1.04 KCAL/MOL
REMARK 924 INTRA-LIGAND FREE ENERGY PREDICTED BY IDOCK:    0.72 KCAL/MOL
REMARK 927      BINDING AFFINITY PREDICTED BY RF-SCORE:    0.00 PKD
ROOT
HETATM    1  C   UNL     1     -10.189   4.573  72.700  1.00  0.00    -0.236 C  
HETATM    2  C   UNL     1     -10.248   5.959  72.113  1.00  0.00    -0.195 C  
HETATM    3  O   UNL     1     -11.099   6.774  72.477  1.00  0.00    -0.246 OA 
ENDROOT
BRANCH   2   4
HETATM    4  C   UNL     1      -9.225   6.331  71.057  1.00  0.00    -0.160 C  
HETATM    5  C   UNL     1      -9.835   7.108  69.878  1.00  0.00    -0.174 C  
HETATM    6  C   UNL     1     -10.505   8.443  70.225  1.00  0.00    -0.225 A  
HETATM    7  C   UNL     1      -8.809   7.199  68.736  1.00  0.00    -0.130 C  
HETATM    8  C   UNL     1     -10.169   9.211  71.353  1.00  0.00    -0.402 A  
HETATM    9  C   UNL     1      -7.936   8.189  68.471  1.00  0.00    -0.126 C  
HETATM   10  C   UNL     1      -7.121   8.166  67.257  1.00  0.00    -0.079 A  
HETATM   11  O   UNL     1      -7.695   9.281  69.271  1.00  0.00    -0.077 OA 
HETATM   12  C   UNL     1     -10.766  10.457  71.573  1.00  0.00     1.609 A  
HETATM   13  H   UNL     1      -7.079   9.980  69.084  1.00  0.00     0.000 HD 
HETATM   14  C   UNL     1      -7.067   6.999  66.512  1.00  0.00    -0.077 A  
HETATM   15  C   UNL     1     -11.731  10.936  70.693  1.00  0.00    -0.418 A  
HETATM   16  C   UNL     1      -6.273   6.887  65.370  1.00  0.00    -0.036 A  
HETATM   17  O   UNL     1      -7.856   5.895  66.858  1.00  0.00    -0.100 OA 
HETATM   18  C   UNL     1     -12.109  10.172  69.594  1.00  0.00     0.012 A  
HETATM   19  C   UNL     1     -11.496   8.941  69.357  1.00  0.00     0.409 A  
HETATM   20  C   UNL     1      -8.835   6.003  67.834  1.00  0.00    -0.110 C  
HETATM   21  C   UNL     1      -5.551   7.994  64.931  1.00  0.00    -0.044 A  
HETATM   22  C   UNL     1      -5.627   9.195  65.636  1.00  0.00    -0.045 A  
HETATM   23  O   UNL     1      -9.649   5.097  68.000  1.00  0.00    -0.125 OA 
HETATM   24  C   UNL     1      -6.398   9.276  66.801  1.00  0.00    -0.066 A  
ENDBRANCH   2   4
TORSDOF 1
ENDMDL
MODEL      148
REMARK 921   NORMALIZED FREE ENERGY PREDICTED BY IDOCK:    0.92 KCAL/MOL
REMARK 922        TOTAL FREE ENERGY PREDICTED BY IDOCK:    0.65 KCAL/MOL
REMARK 923 INTER-LIGAND FREE ENERGY PREDICTED BY IDOCK:    0.91 KCAL/MOL
REMARK 924 INTRA-LIGAND FREE ENERGY PREDICTED BY IDOCK:   -0.26 KCAL/MOL
REMARK 927      BINDING AFFINITY PREDICTED BY RF-SCORE:    0.00 PKD
ROOT
HETATM    1  C   UNL     1     -11.086   7.054  70.398  1.00  0.00    -0.323 C  
HETATM    2  C   UNL     1     -11.300   6.838  68.923  1.00  0.00    -0.050 C  
HETATM    3  O   UNL     1     -12.180   7.443  68.307  1.00  0.00     2.334 OA 
ENDROOT
BRANCH   2   4
HETATM    4  C   UNL     1     -10.396   5.851  68.207  1.00  0.00    -0.263 C  
HETATM    5  C   UNL     1      -9.617   6.488  67.044  1.00  0.00    -0.174 C  
HETATM    6  C   UNL     1      -8.679   7.644  67.412  1.00  0.00    -0.124 A  
HETATM    7  C   UNL     1      -8.953   5.383  66.205  1.00  0.00    -0.137 C  
HETATM    8  C   UNL     1      -8.112   7.808  68.686  1.00  0.00    -0.127 A  
HETATM    9  C   UNL     1      -7.702   4.895  66.303  1.00  0.00    -0.092 C  
HETATM   10  C   UNL     1      -7.194   3.929  65.329  1.00  0.00    -0.068 A  
HETATM   11  O   UNL     1      -6.795   5.207  67.288  1.00  0.00    -0.057 OA 
HETATM   12  C   UNL     1      -7.204   8.843  68.937  1.00  0.00    -0.074 A  
HETATM   13  H   UNL     1      -5.911   4.862  67.357  1.00  0.00     0.000 HD 
HETATM   14  C   UNL     1      -8.088   3.329  64.456  1.00  0.00    -0.086 A  
HETATM   15  C   UNL     1      -6.880   9.748  67.932  1.00  0.00    -0.073 A  
HETATM   16  C   UNL     1      -7.686   2.365  63.532  1.00  0.00    -0.067 A  
HETATM   17  O   UNL     1      -9.435   3.715  64.439  1.00  0.00    -0.135 OA 
HETATM   18  C   UNL     1      -7.464   9.629  66.675  1.00  0.00    -0.094 A  
HETATM   19  C   UNL     1      -8.349   8.581  66.415  1.00  0.00    -0.115 A  
HETATM   20  C   UNL     1      -9.864   4.819  65.158  1.00  0.00    -0.018 C  
HETATM   21  C   UNL     1      -6.337   2.027  63.445  1.00  0.00    -0.014 A  
HETATM   22  C   UNL     1      -5.410   2.652  64.279  1.00  0.00    -0.009 A  
HETATM   23  O   UNL     1     -10.997   5.267  64.991  1.00  0.00     0.694 OA 
HETATM   24  C   UNL     1      -5.839   3.589  65.225  1.00  0.00    -0.022 A  
ENDBRANCH   2   4
TORSDOF 1
ENDMDL
MODEL      149
REMARK 921   NORMALIZED FREE ENERGY PREDICTED BY IDOCK:    3.23 KCAL/MOL
REMARK 922        TOTAL FREE ENERGY PREDICTED BY IDOCK:    3.09 KCAL/MOL
REMARK 923 INTER-LIGAND FREE ENERGY PREDICTED BY IDOCK:    2.42 KCAL/MOL
REMARK 924 INTRA-LIGAND FREE ENERGY PREDICTED BY IDOCK:    0.68 KCAL/MOL
REMARK 927      BINDING AFFINITY PREDICTED BY RF-SCORE:    0.00 PKD
ROOT
HETATM    1  C   UNL     1     -11.320  14.068  64.979  1.00  0.00    -0.342 C  
HETATM    2  C   UNL     1     -11.450  13.553  66.389  1.00  0.00    -0.331 C  
HETATM    3  O   UNL     1     -12.204  14.093  67.201  1.00  0.00    -0.421 OA 
ENDROOT
BRANCH   2   4
HETATM    4  C   UNL     1     -10.627  12.342  66.786  1.00  0.00    -0.250 C  
HETATM    5  C   UNL     1     -10.227  12.351  68.271  1.00  0.00    -0.230 C  
HETATM    6  C   UNL     1     -11.380  12.357  69.281  1.00  0.00    -0.315 A  
HETATM    7  C   UNL     1      -9.175  11.258  68.526  1.00  0.00    -0.181 C  
HETATM    8  C   UNL     1     -12.662  11.856  68.998  1.00  0.00     1.008 A  
HETATM    9  C   UNL     1      -9.365   9.997  68.955  1.00  0.00    -0.172 C  
HETATM   10  C   UNL     1      -8.229   9.131  69.269  1.00  0.00    -0.118 A  
HETATM   11  O   UNL     1     -10.584   9.382  69.124  1.00  0.00    -0.217 OA 
HETATM   12  C   UNL     1     -13.650  11.822  69.988  1.00  0.00     2.585 A  
HETATM   13  H   UNL     1     -10.718   8.491  69.427  1.00  0.00     0.000 HD 
HETATM   14  C   UNL     1      -6.958   9.530  68.882  1.00  0.00    -0.063 A  
HETATM   15  C   UNL     1     -13.385  12.321  71.259  1.00  0.00     0.109 A  
HETATM   16  C   UNL     1      -5.834   8.736  69.105  1.00  0.00    -0.039 A  
HETATM   17  O   UNL     1      -6.755  10.784  68.292  1.00  0.00    -0.062 OA 
HETATM   18  C   UNL     1     -12.136  12.860  71.547  1.00  0.00     0.540 A  
HETATM   19  C   UNL     1     -11.140  12.870  70.569  1.00  0.00     1.369 A  
HETATM   20  C   UNL     1      -7.777  11.720  68.246  1.00  0.00    -0.130 C  
HETATM   21  C   UNL     1      -5.977   7.527  69.782  1.00  0.00    -0.024 A  
HETATM   22  C   UNL     1      -7.238   7.125  70.224  1.00  0.00    -0.071 A  
HETATM   23  O   UNL     1      -7.544  12.877  67.906  1.00  0.00    -0.110 OA 
HETATM   24  C   UNL     1      -8.359   7.917  69.957  1.00  0.00    -0.121 A  
ENDBRANCH   2   4
TORSDOF 1
ENDMDL
MODEL      150
REMARK 921   NORMALIZED FREE ENERGY PREDICTED BY IDOCK:    4.29 KCAL/MOL
REMARK 922        TOTAL FREE ENERGY PREDICTED BY IDOCK:    4.22 KCAL/MOL
REMARK 923 INTER-LIGAND FREE ENERGY PREDICTED BY IDOCK:    3.51 KCAL/MOL
REMARK 924 INTRA-LIGAND FREE ENERGY PREDICTED BY IDOCK:    0.71 KCAL/MOL
REMARK 927      BINDING AFFINITY PREDICTED BY RF-SCORE:    0.00 PKD
ROOT
HETATM    1  C   UNL     1      -9.080  16.125  66.334  1.00  0.00    -0.339 C  
HETATM    2  C   UNL     1      -9.690  14.791  66.678  1.00  0.00    -0.267 C  
HETATM    3  O   UNL     1     -10.690  14.709  67.393  1.00  0.00    -0.272 OA 
ENDROOT
BRANCH   2   4
HETATM    4  C   UNL     1      -9.039  13.542  66.115  1.00  0.00     0.102 C  
HETATM    5  C   UNL     1      -9.058  12.361  67.099  1.00  0.00    -0.199 C  
HETATM    6  C   UNL     1     -10.442  11.881  67.550  1.00  0.00    -0.233 A  
HETATM    7  C   UNL     1      -8.145  11.240  66.574  1.00  0.00    -0.160 C  
HETATM    8  C   UNL     1     -11.612  12.062  66.794  1.00  0.00    -0.391 A  
HETATM    9  C   UNL     1      -8.479  10.165  65.836  1.00  0.00    -0.141 C  
HETATM   10  C   UNL     1      -7.495   9.125  65.535  1.00  0.00    -0.089 A  
HETATM   11  O   UNL     1      -9.714   9.926  65.280  1.00  0.00    -0.281 OA 
HETATM   12  C   UNL     1     -12.833  11.534  67.227  1.00  0.00     4.163 A  
HETATM   13  H   UNL     1      -9.950   9.167  64.759  1.00  0.00     0.000 HD 
HETATM   14  C   UNL     1      -6.157   9.376  65.799  1.00  0.00    -0.056 A  
HETATM   15  C   UNL     1     -12.910  10.853  68.437  1.00  0.00     2.758 A  
HETATM   16  C   UNL     1      -5.158   8.452  65.495  1.00  0.00    -0.031 A  
HETATM   17  O   UNL     1      -5.767  10.562  66.434  1.00  0.00    -0.058 OA 
HETATM   18  C   UNL     1     -11.772  10.699  69.222  1.00  0.00    -0.336 A  
HETATM   19  C   UNL     1     -10.548  11.201  68.779  1.00  0.00    -0.233 A  
HETATM   20  C   UNL     1      -6.712  11.422  66.971  1.00  0.00    -0.131 C  
HETATM   21  C   UNL     1      -5.513   7.217  64.959  1.00  0.00    -0.032 A  
HETATM   22  C   UNL     1      -6.856   6.921  64.728  1.00  0.00    -0.046 A  
HETATM   23  O   UNL     1      -6.364  12.356  67.690  1.00  0.00    -0.098 OA 
HETATM   24  C   UNL     1      -7.841   7.876  65.004  1.00  0.00    -0.120 A  
ENDBRANCH   2   4
TORSDOF 1
ENDMDL
MODEL      151
REMARK 921   NORMALIZED FREE ENERGY PREDICTED BY IDOCK:    4.32 KCAL/MOL
REMARK 922        TOTAL FREE ENERGY PREDICTED BY IDOCK:    4.25 KCAL/MOL
REMARK 923 INTER-LIGAND FREE ENERGY PREDICTED BY IDOCK:    4.60 KCAL/MOL
REMARK 924 INTRA-LIGAND FREE ENERGY PREDICTED BY IDOCK:   -0.35 KCAL/MOL
REMARK 927      BINDING AFFINITY PREDICTED BY RF-SCORE:    0.00 PKD
ROOT
HETATM    1  C   UNL     1      -8.526  18.812  65.335  1.00  0.00     1.257 C  
HETATM    2  C   UNL     1     -10.007  18.873  65.603  1.00  0.00     0.264 C  
HETATM    3  O   UNL     1     -10.677  19.854  65.275  1.00  0.00    -0.339 OA 
ENDROOT
BRANCH   2   4
HETATM    4  C   UNL     1     -10.657  17.687  66.289  1.00  0.00    -0.215 C  
HETATM    5  C   UNL     1      -9.981  17.320  67.621  1.00  0.00    -0.297 C  
HETATM    6  C   UNL     1      -9.978  18.410  68.699  1.00  0.00    -0.415 A  
HETATM    7  C   UNL     1     -10.507  15.959  68.106  1.00  0.00    -0.270 C  
HETATM    8  C   UNL     1     -10.929  19.442  68.762  1.00  0.00     0.922 A  
HETATM    9  C   UNL     1     -11.516  15.707  68.961  1.00  0.00    -0.363 C  
HETATM   10  C   UNL     1     -11.795  14.344  69.414  1.00  0.00    -0.369 A  
HETATM   11  O   UNL     1     -12.382  16.643  69.477  1.00  0.00     0.046 OA 
HETATM   12  C   UNL     1     -10.915  20.363  69.816  1.00  0.00     1.433 A  
HETATM   13  H   UNL     1     -13.094  16.465  70.082  1.00  0.00     0.000 HD 
HETATM   14  C   UNL     1     -11.179  13.286  68.763  1.00  0.00    -0.276 A  
HETATM   15  C   UNL     1      -9.932  20.290  70.796  1.00  0.00     1.539 A  
HETATM   16  C   UNL     1     -11.433  11.959  69.107  1.00  0.00    -0.356 A  
HETATM   17  O   UNL     1     -10.232  13.522  67.759  1.00  0.00    -0.233 OA 
HETATM   18  C   UNL     1      -8.955  19.302  70.728  1.00  0.00     2.770 A  
HETATM   19  C   UNL     1      -8.983  18.365  69.694  1.00  0.00     0.831 A  
HETATM   20  C   UNL     1      -9.758  14.802  67.518  1.00  0.00    -0.213 C  
HETATM   21  C   UNL     1     -12.290  11.683  70.170  1.00  0.00    -0.297 A  
HETATM   22  C   UNL     1     -12.884  12.731  70.872  1.00  0.00    -0.187 A  
HETATM   23  O   UNL     1      -8.794  14.978  66.776  1.00  0.00    -0.239 OA 
HETATM   24  C   UNL     1     -12.647  14.055  70.487  1.00  0.00    -0.399 A  
ENDBRANCH   2   4
TORSDOF 1
ENDMDL
MODEL      152
REMARK 921   NORMALIZED FREE ENERGY PREDICTED BY IDOCK:    6.48 KCAL/MOL
REMARK 922        TOTAL FREE ENERGY PREDICTED BY IDOCK:    6.54 KCAL/MOL
REMARK 923 INTER-LIGAND FREE ENERGY PREDICTED BY IDOCK:    5.98 KCAL/MOL
REMARK 924 INTRA-LIGAND FREE ENERGY PREDICTED BY IDOCK:    0.56 KCAL/MOL
REMARK 927      BINDING AFFINITY PREDICTED BY RF-SCORE:    0.00 PKD
ROOT
HETATM    1  C   UNL     1     -13.671   9.173  70.095  1.00  0.00     1.593 C  
HETATM    2  C   UNL     1     -12.223   9.572  70.204  1.00  0.00     0.259 C  
HETATM    3  O   UNL     1     -11.464   9.018  71.001  1.00  0.00    -0.267 OA 
ENDROOT
BRANCH   2   4
HETATM    4  C   UNL     1     -11.718  10.681  69.299  1.00  0.00    -0.336 C  
HETATM    5  C   UNL     1     -10.415  11.320  69.806  1.00  0.00     0.215 C  
HETATM    6  C   UNL     1      -9.211  10.381  69.942  1.00  0.00     0.097 A  
HETATM    7  C   UNL     1     -10.125  12.600  69.004  1.00  0.00     0.164 C  
HETATM    8  C   UNL     1      -9.060   9.199  69.198  1.00  0.00    -0.144 A  
HETATM    9  C   UNL     1      -9.351  12.748  67.913  1.00  0.00    -0.208 C  
HETATM   10  C   UNL     1      -9.084  14.073  67.355  1.00  0.00    -0.209 A  
HETATM   11  O   UNL     1      -8.761  11.727  67.205  1.00  0.00    -0.156 OA 
HETATM   12  C   UNL     1      -7.901   8.424  69.315  1.00  0.00    -0.104 A  
HETATM   13  H   UNL     1      -8.214  11.831  66.434  1.00  0.00     0.000 HD 
HETATM   14  C   UNL     1      -9.834  15.150  67.803  1.00  0.00    -0.223 A  
HETATM   15  C   UNL     1      -6.896   8.797  70.201  1.00  0.00    -0.040 A  
HETATM   16  C   UNL     1      -9.669  16.433  67.284  1.00  0.00    -0.239 A  
HETATM   17  O   UNL     1     -10.760  14.989  68.842  1.00  0.00    -0.225 OA 
HETATM   18  C   UNL     1      -7.044   9.940  70.978  1.00  0.00     0.240 A  
HETATM   19  C   UNL     1      -8.187  10.730  70.844  1.00  0.00     3.372 A  
HETATM   20  C   UNL     1     -10.819  13.806  69.561  1.00  0.00     0.043 C  
HETATM   21  C   UNL     1      -8.686  16.658  66.323  1.00  0.00    -0.359 A  
HETATM   22  C   UNL     1      -7.885  15.601  65.890  1.00  0.00     1.650 A  
HETATM   23  O   UNL     1     -11.492  13.736  70.588  1.00  0.00    -0.055 OA 
HETATM   24  C   UNL     1      -8.092  14.313  66.395  1.00  0.00     0.913 A  
ENDBRANCH   2   4
TORSDOF 1
ENDMDL
MODEL      153
REMARK 921   NORMALIZED FREE ENERGY PREDICTED BY IDOCK:    9.39 KCAL/MOL
REMARK 922        TOTAL FREE ENERGY PREDICTED BY IDOCK:    9.61 KCAL/MOL
REMARK 923 INTER-LIGAND FREE ENERGY PREDICTED BY IDOCK:    9.79 KCAL/MOL
REMARK 924 INTRA-LIGAND FREE ENERGY PREDICTED BY IDOCK:   -0.18 KCAL/MOL
REMARK 927      BINDING AFFINITY PREDICTED BY RF-SCORE:    0.00 PKD
ROOT
HETATM    1  C   UNL     1     -12.114   4.433  69.743  1.00  0.00    10.773 C  
HETATM    2  C   UNL     1     -11.813   5.863  69.379  1.00  0.00     1.322 C  
HETATM    3  O   UNL     1     -12.315   6.802  70.001  1.00  0.00    -0.079 OA 
ENDROOT
BRANCH   2   4
HETATM    4  C   UNL     1     -10.867   6.122  68.222  1.00  0.00    -0.387 C  
HETATM    5  C   UNL     1      -9.555   6.793  68.659  1.00  0.00    -0.131 C  
HETATM    6  C   UNL     1      -8.699   6.013  69.664  1.00  0.00    -0.133 A  
HETATM    7  C   UNL     1      -8.784   7.272  67.417  1.00  0.00    -0.121 C  
HETATM    8  C   UNL     1      -8.744   4.616  69.802  1.00  0.00    -0.112 A  
HETATM    9  C   UNL     1      -7.812   6.635  66.738  1.00  0.00    -0.107 C  
HETATM   10  C   UNL     1      -7.094   7.301  65.651  1.00  0.00    -0.065 A  
HETATM   11  O   UNL     1      -7.403   5.339  66.949  1.00  0.00    -0.083 OA 
HETATM   12  C   UNL     1      -7.883   3.957  70.686  1.00  0.00    -0.054 A  
HETATM   13  H   UNL     1      -6.717   4.889  66.469  1.00  0.00     0.000 HD 
HETATM   14  C   UNL     1      -7.591   8.499  65.160  1.00  0.00    -0.094 A  
HETATM   15  C   UNL     1      -6.995   4.684  71.471  1.00  0.00    -0.043 A  
HETATM   16  C   UNL     1      -6.988   9.167  64.094  1.00  0.00    -0.092 A  
HETATM   17  O   UNL     1      -8.700   9.109  65.758  1.00  0.00    -0.145 OA 
HETATM   18  C   UNL     1      -6.965   6.072  71.382  1.00  0.00    -0.072 A  
HETATM   19  C   UNL     1      -7.804   6.730  70.480  1.00  0.00    -0.105 A  
HETATM   20  C   UNL     1      -9.212   8.631  66.955  1.00  0.00    -0.159 C  
HETATM   21  C   UNL     1      -5.823   8.647  63.537  1.00  0.00    -0.072 A  
HETATM   22  C   UNL     1      -5.276   7.469  64.045  1.00  0.00    -0.029 A  
HETATM   23  O   UNL     1     -10.055   9.278  67.572  1.00  0.00    -0.189 OA 
HETATM   24  C   UNL     1      -5.916   6.793  65.089  1.00  0.00    -0.035 A  
ENDBRANCH   2   4
TORSDOF 1
ENDMDL
MODEL      154
REMARK 921   NORMALIZED FREE ENERGY PREDICTED BY IDOCK:   10.81 KCAL/MOL
REMARK 922        TOTAL FREE ENERGY PREDICTED BY IDOCK:   11.12 KCAL/MOL
REMARK 923 INTER-LIGAND FREE ENERGY PREDICTED BY IDOCK:   11.39 KCAL/MOL
REMARK 924 INTRA-LIGAND FREE ENERGY PREDICTED BY IDOCK:   -0.28 KCAL/MOL
REMARK 927      BINDING AFFINITY PREDICTED BY RF-SCORE:    0.00 PKD
ROOT
HETATM    1  C   UNL     1      -6.333  12.050  62.437  1.00  0.00     1.821 C  
HETATM    2  C   UNL     1      -7.703  11.915  63.047  1.00  0.00     2.236 C  
HETATM    3  O   UNL     1      -8.424  10.947  62.796  1.00  0.00    -0.189 OA 
ENDROOT
BRANCH   2   4
HETATM    4  C   UNL     1      -8.177  13.008  63.986  1.00  0.00     6.853 C  
HETATM    5  C   UNL     1      -8.934  12.461  65.208  1.00  0.00     0.679 C  
HETATM    6  C   UNL     1      -8.149  11.510  66.118  1.00  0.00     0.054 A  
HETATM    7  C   UNL     1      -9.616  13.621  65.952  1.00  0.00    -0.140 C  
HETATM    8  C   UNL     1      -6.748  11.514  66.222  1.00  0.00     0.142 A  
HETATM    9  C   UNL     1      -9.158  14.327  67.002  1.00  0.00    -0.233 C  
HETATM   10  C   UNL     1     -10.004  15.316  67.670  1.00  0.00    -0.222 A  
HETATM   11  O   UNL     1      -7.897  14.233  67.544  1.00  0.00    -0.167 OA 
HETATM   12  C   UNL     1      -6.095  10.671  67.128  1.00  0.00    -0.061 A  
HETATM   13  H   UNL     1      -7.574  14.731  68.285  1.00  0.00     0.000 HD 
HETATM   14  C   UNL     1     -11.187  15.703  67.058  1.00  0.00    -0.127 A  
HETATM   15  C   UNL     1      -6.827   9.787  67.913  1.00  0.00    -0.073 A  
HETATM   16  C   UNL     1     -12.021  16.675  67.611  1.00  0.00     1.119 A  
HETATM   17  O   UNL     1     -11.613  15.085  65.876  1.00  0.00    -0.291 OA 
HETATM   18  C   UNL     1      -8.212   9.736  67.795  1.00  0.00    -0.114 A  
HETATM   19  C   UNL     1      -8.868  10.596  66.912  1.00  0.00    -0.143 A  
HETATM   20  C   UNL     1     -10.963  13.961  65.391  1.00  0.00    -0.316 C  
HETATM   21  C   UNL     1     -11.687  17.241  68.838  1.00  0.00     1.394 A  
HETATM   22  C   UNL     1     -10.526  16.835  69.497  1.00  0.00    -0.263 A  
HETATM   23  O   UNL     1     -11.452  13.312  64.468  1.00  0.00    -0.337 OA 
HETATM   24  C   UNL     1      -9.683  15.886  68.909  1.00  0.00    -0.230 A  
ENDBRANCH   2   4
TORSDOF 1
ENDMDL
MODEL      155
REMARK 921   NORMALIZED FREE ENERGY PREDICTED BY IDOCK:   13.65 KCAL/MOL
REMARK 922        TOTAL FREE ENERGY PREDICTED BY IDOCK:   14.12 KCAL/MOL
REMARK 923 INTER-LIGAND FREE ENERGY PREDICTED BY IDOCK:   13.07 KCAL/MOL
REMARK 924 INTRA-LIGAND FREE ENERGY PREDICTED BY IDOCK:    1.05 KCAL/MOL
REMARK 927      BINDING AFFINITY PREDICTED BY RF-SCORE:    0.00 PKD
ROOT
HETATM    1  C   UNL     1     -10.024   7.368  64.299  1.00  0.00     4.955 C  
HETATM    2  C   UNL     1      -9.656   8.182  65.512  1.00  0.00     0.489 C  
HETATM    3  O   UNL     1     -10.061   9.337  65.655  1.00  0.00    -0.215 OA 
ENDROOT
BRANCH   2   4
HETATM    4  C   UNL     1      -8.771   7.538  66.562  1.00  0.00    -0.151 C  
HETATM    5  C   UNL     1      -9.468   6.389  67.310  1.00  0.00    -0.135 C  
HETATM    6  C   UNL     1      -9.935   5.209  66.450  1.00  0.00    -0.236 A  
HETATM    7  C   UNL     1      -8.623   5.982  68.529  1.00  0.00    -0.111 C  
HETATM    8  C   UNL     1      -9.354   4.868  65.217  1.00  0.00    -0.129 A  
HETATM    9  C   UNL     1      -7.702   5.005  68.621  1.00  0.00    -0.078 C  
HETATM   10  C   UNL     1      -7.086   4.671  69.905  1.00  0.00    -0.053 A  
HETATM   11  O   UNL     1      -7.230   4.247  67.575  1.00  0.00    -0.066 OA 
HETATM   12  C   UNL     1      -9.777   3.734  64.516  1.00  0.00    -0.182 A  
HETATM   13  H   UNL     1      -6.580   3.557  67.640  1.00  0.00     0.000 HD 
HETATM   14  C   UNL     1      -7.268   5.533  70.976  1.00  0.00    -0.078 A  
HETATM   15  C   UNL     1     -10.808   2.947  65.016  1.00  0.00     1.446 A  
HETATM   16  C   UNL     1      -6.673   5.306  72.217  1.00  0.00    -0.061 A  
HETATM   17  O   UNL     1      -8.107   6.648  70.858  1.00  0.00    -0.115 OA 
HETATM   18  C   UNL     1     -11.426   3.290  66.214  1.00  0.00     6.585 A  
HETATM   19  C   UNL     1     -10.988   4.406  66.929  1.00  0.00     1.577 A  
HETATM   20  C   UNL     1      -8.910   6.816  69.741  1.00  0.00    -0.141 C  
HETATM   21  C   UNL     1      -5.914   4.154  72.407  1.00  0.00    -0.015 A  
HETATM   22  C   UNL     1      -5.756   3.247  71.360  1.00  0.00    -0.013 A  
HETATM   23  O   UNL     1      -9.780   7.684  69.726  1.00  0.00    -0.170 OA 
HETATM   24  C   UNL     1      -6.329   3.511  70.111  1.00  0.00    -0.028 A  
ENDBRANCH   2   4
TORSDOF 1
ENDMDL
MODEL      156
REMARK 921   NORMALIZED FREE ENERGY PREDICTED BY IDOCK:   22.80 KCAL/MOL
REMARK 922        TOTAL FREE ENERGY PREDICTED BY IDOCK:   23.81 KCAL/MOL
REMARK 923 INTER-LIGAND FREE ENERGY PREDICTED BY IDOCK:   23.90 KCAL/MOL
REMARK 924 INTRA-LIGAND FREE ENERGY PREDICTED BY IDOCK:   -0.09 KCAL/MOL
REMARK 927      BINDING AFFINITY PREDICTED BY RF-SCORE:    0.00 PKD
ROOT
HETATM    1  C   UNL     1      -7.326  12.976  72.748  1.00  0.00     9.614 C  
HETATM    2  C   UNL     1      -7.330  11.656  72.022  1.00  0.00     9.239 C  
HETATM    3  O   UNL     1      -7.196  10.591  72.627  1.00  0.00     3.531 OA 
ENDROOT
BRANCH   2   4
HETATM    4  C   UNL     1      -7.507  11.672  70.515  1.00  0.00     2.757 C  
HETATM    5  C   UNL     1      -7.993  10.324  69.956  1.00  0.00    -0.021 C  
HETATM    6  C   UNL     1      -9.344   9.824  70.478  1.00  0.00    -0.117 A  
HETATM    7  C   UNL     1      -7.877  10.333  68.422  1.00  0.00    -0.102 C  
HETATM    8  C   UNL     1     -10.346  10.672  70.978  1.00  0.00     1.781 A  
HETATM    9  C   UNL     1      -8.821  10.643  67.513  1.00  0.00    -0.132 C  
HETATM   10  C   UNL     1      -8.572  10.469  66.082  1.00  0.00    -0.155 A  
HETATM   11  O   UNL     1     -10.066  11.155  67.792  1.00  0.00    -0.174 OA 
HETATM   12  C   UNL     1     -11.588  10.159  71.370  1.00  0.00    -0.315 A  
HETATM   13  H   UNL     1     -10.733  11.373  67.151  1.00  0.00     0.000 HD 
HETATM   14  C   UNL     1      -7.275  10.225  65.656  1.00  0.00    -0.148 A  
HETATM   15  C   UNL     1     -11.831   8.792  71.306  1.00  0.00    -0.358 A  
HETATM   16  C   UNL     1      -6.953  10.096  64.305  1.00  0.00    -0.103 A  
HETATM   17  O   UNL     1      -6.241  10.049  66.584  1.00  0.00    -0.065 OA 
HETATM   18  C   UNL     1     -10.838   7.929  70.855  1.00  0.00    -0.245 A  
HETATM   19  C   UNL     1      -9.608   8.441  70.437  1.00  0.00    -0.180 A  
HETATM   20  C   UNL     1      -6.517   9.934  67.938  1.00  0.00    -0.059 C  
HETATM   21  C   UNL     1      -7.968  10.162  63.354  1.00  0.00    -0.160 A  
HETATM   22  C   UNL     1      -9.288  10.358  63.760  1.00  0.00    -0.329 A  
HETATM   23  O   UNL     1      -5.637   9.589  68.724  1.00  0.00    -0.037 OA 
HETATM   24  C   UNL     1      -9.586  10.524  65.117  1.00  0.00    -0.316 A  
ENDBRANCH   2   4
TORSDOF 1
ENDMDL
MODEL      157
REMARK 921   NORMALIZED FREE ENERGY PREDICTED BY IDOCK:   23.86 KCAL/MOL
REMARK 922        TOTAL FREE ENERGY PREDICTED BY IDOCK:   24.94 KCAL/MOL
REMARK 923 INTER-LIGAND FREE ENERGY PREDICTED BY IDOCK:   24.64 KCAL/MOL
REMARK 924 INTRA-LIGAND FREE ENERGY PREDICTED BY IDOCK:    0.30 KCAL/MOL
REMARK 927      BINDING AFFINITY PREDICTED BY RF-SCORE:    0.00 PKD
ROOT
HETATM    1  C   UNL     1      -5.127  14.100  68.481  1.00  0.00    -0.095 C  
HETATM    2  C   UNL     1      -6.175  14.253  67.410  1.00  0.00     0.211 C  
HETATM    3  O   UNL     1      -6.061  13.694  66.317  1.00  0.00     2.649 OA 
ENDROOT
BRANCH   2   4
HETATM    4  C   UNL     1      -7.385  15.115  67.714  1.00  0.00    -0.182 C  
HETATM    5  C   UNL     1      -8.336  15.258  66.513  1.00  0.00    -0.124 C  
HETATM    6  C   UNL     1      -8.940  13.956  65.973  1.00  0.00     0.344 A  
HETATM    7  C   UNL     1      -9.372  16.357  66.806  1.00  0.00    -0.265 C  
HETATM    8  C   UNL     1      -9.107  12.797  66.748  1.00  0.00    -0.209 A  
HETATM    9  C   UNL     1     -10.611  16.225  67.314  1.00  0.00    -0.298 C  
HETATM   10  C   UNL     1     -11.513  17.374  67.402  1.00  0.00     0.766 A  
HETATM   11  O   UNL     1     -11.156  15.063  67.809  1.00  0.00    -0.288 OA 
HETATM   12  C   UNL     1      -9.734  11.665  66.216  1.00  0.00    -0.241 A  
HETATM   13  H   UNL     1     -12.032  14.970  68.167  1.00  0.00     0.000 HD 
HETATM   14  C   UNL     1     -10.997  18.644  67.197  1.00  0.00    -0.125 A  
HETATM   15  C   UNL     1     -10.167  11.662  64.894  1.00  0.00    -0.315 A  
HETATM   16  C   UNL     1     -11.784  19.789  67.312  1.00  0.00     1.257 A  
HETATM   17  O   UNL     1      -9.661  18.816  66.812  1.00  0.00    -0.301 OA 
HETATM   18  C   UNL     1      -9.972  12.784  64.096  1.00  0.00    -0.152 A  
HETATM   19  C   UNL     1      -9.372  13.924  64.633  1.00  0.00     1.659 A  
HETATM   20  C   UNL     1      -8.880  17.728  66.456  1.00  0.00    -0.262 C  
HETATM   21  C   UNL     1     -13.142  19.656  67.590  1.00  0.00     6.113 A  
HETATM   22  C   UNL     1     -13.696  18.387  67.754  1.00  0.00     9.747 A  
HETATM   23  O   UNL     1      -7.778  17.897  65.938  1.00  0.00    -0.507 OA 
HETATM   24  C   UNL     1     -12.882  17.252  67.673  1.00  0.00     5.257 A  
ENDBRANCH   2   4
TORSDOF 1
ENDMDL
MODEL      158
REMARK 921   NORMALIZED FREE ENERGY PREDICTED BY IDOCK:   27.55 KCAL/MOL
REMARK 922        TOTAL FREE ENERGY PREDICTED BY IDOCK:   28.84 KCAL/MOL
REMARK 923 INTER-LIGAND FREE ENERGY PREDICTED BY IDOCK:   29.08 KCAL/MOL
REMARK 924 INTRA-LIGAND FREE ENERGY PREDICTED BY IDOCK:   -0.25 KCAL/MOL
REMARK 927      BINDING AFFINITY PREDICTED BY RF-SCORE:    0.00 PKD
ROOT
HETATM    1  C   UNL     1     -13.499   8.794  69.826  1.00  0.00     3.373 C  
HETATM    2  C   UNL     1     -13.295   9.775  68.701  1.00  0.00     7.010 C  
HETATM    3  O   UNL     1     -13.189   9.397  67.533  1.00  0.00    10.335 OA 
ENDROOT
BRANCH   2   4
HETATM    4  C   UNL     1     -13.227  11.251  69.045  1.00  0.00     2.672 C  
HETATM    5  C   UNL     1     -11.941  11.631  69.800  1.00  0.00    -0.402 C  
HETATM    6  C   UNL     1     -10.623  11.365  69.064  1.00  0.00    -0.224 A  
HETATM    7  C   UNL     1     -12.075  13.060  70.353  1.00  0.00    -0.391 C  
HETATM    8  C   UNL     1     -10.513  11.306  67.664  1.00  0.00    -0.225 A  
HETATM    9  C   UNL     1     -11.662  14.215  69.797  1.00  0.00    -0.311 C  
HETATM   10  C   UNL     1     -11.755  15.477  70.531  1.00  0.00    -0.377 A  
HETATM   11  O   UNL     1     -11.148  14.356  68.529  1.00  0.00    -0.235 OA 
HETATM   12  C   UNL     1      -9.267  11.134  67.052  1.00  0.00    -0.172 A  
HETATM   13  H   UNL     1     -10.857  15.172  68.137  1.00  0.00     0.000 HD 
HETATM   14  C   UNL     1     -12.501  15.516  71.699  1.00  0.00    -0.406 A  
HETATM   15  C   UNL     1      -8.122  10.981  67.826  1.00  0.00    -0.116 A  
HETATM   16  C   UNL     1     -12.674  16.693  72.427  1.00  0.00     0.768 A  
HETATM   17  O   UNL     1     -13.070  14.347  72.220  1.00  0.00    -0.339 OA 
HETATM   18  C   UNL     1      -8.215  10.994  69.214  1.00  0.00     0.010 A  
HETATM   19  C   UNL     1      -9.453  11.193  69.827  1.00  0.00     0.822 A  
HETATM   20  C   UNL     1     -12.755  13.107  71.686  1.00  0.00    -0.221 C  
HETATM   21  C   UNL     1     -12.039  17.857  72.000  1.00  0.00     5.430 A  
HETATM   22  C   UNL     1     -11.244  17.833  70.854  1.00  0.00     2.547 A  
HETATM   23  O   UNL     1     -13.101  12.078  72.262  1.00  0.00    -0.387 OA 
HETATM   24  C   UNL     1     -11.113  16.651  70.117  1.00  0.00    -0.077 A  
ENDBRANCH   2   4
TORSDOF 1
ENDMDL
MODEL      159
REMARK 921   NORMALIZED FREE ENERGY PREDICTED BY IDOCK:   35.23 KCAL/MOL
REMARK 922        TOTAL FREE ENERGY PREDICTED BY IDOCK:   36.97 KCAL/MOL
REMARK 923 INTER-LIGAND FREE ENERGY PREDICTED BY IDOCK:   37.20 KCAL/MOL
REMARK 924 INTRA-LIGAND FREE ENERGY PREDICTED BY IDOCK:   -0.23 KCAL/MOL
REMARK 927      BINDING AFFINITY PREDICTED BY RF-SCORE:    0.00 PKD
ROOT
HETATM    1  C   UNL     1     -10.426   5.129  73.473  1.00  0.00    -0.281 C  
HETATM    2  C   UNL     1     -10.818   6.234  72.528  1.00  0.00    -0.240 C  
HETATM    3  O   UNL     1     -11.835   6.906  72.714  1.00  0.00    -0.100 OA 
ENDROOT
BRANCH   2   4
HETATM    4  C   UNL     1      -9.922   6.504  71.335  1.00  0.00    -0.202 C  
HETATM    5  C   UNL     1      -9.869   7.992  70.950  1.00  0.00    -0.195 C  
HETATM    6  C   UNL     1      -9.344   8.949  72.026  1.00  0.00    -0.219 A  
HETATM    7  C   UNL     1      -9.180   8.145  69.583  1.00  0.00    -0.155 C  
HETATM    8  C   UNL     1      -8.477   8.556  73.059  1.00  0.00    -0.110 A  
HETATM    9  C   UNL     1      -7.884   8.401  69.323  1.00  0.00    -0.104 C  
HETATM   10  C   UNL     1      -7.426   8.646  67.955  1.00  0.00    -0.097 A  
HETATM   11  O   UNL     1      -6.872   8.444  70.254  1.00  0.00    -0.036 OA 
HETATM   12  C   UNL     1      -7.974   9.495  73.967  1.00  0.00     2.436 A  
HETATM   13  H   UNL     1      -5.957   8.625  70.070  1.00  0.00     0.000 HD 
HETATM   14  C   UNL     1      -8.285   8.362  66.904  1.00  0.00    -0.103 A  
HETATM   15  C   UNL     1      -8.359  10.828  73.879  1.00  0.00    12.345 A  
HETATM   16  C   UNL     1      -7.902   8.524  65.573  1.00  0.00    -0.104 A  
HETATM   17  O   UNL     1      -9.599   7.946  67.150  1.00  0.00    -0.150 OA 
HETATM   18  C   UNL     1      -9.251  11.231  72.891  1.00  0.00    19.347 A  
HETATM   19  C   UNL     1      -9.732  10.302  71.967  1.00  0.00     5.184 A  
HETATM   20  C   UNL     1     -10.125   7.981  68.433  1.00  0.00    -0.195 C  
HETATM   21  C   UNL     1      -6.639   9.035  65.285  1.00  0.00    -0.068 A  
HETATM   22  C   UNL     1      -5.774   9.373  66.326  1.00  0.00    -0.053 A  
HETATM   23  O   UNL     1     -11.327   7.801  68.616  1.00  0.00     0.355 OA 
HETATM   24  C   UNL     1      -6.161   9.167  67.654  1.00  0.00    -0.058 A  
ENDBRANCH   2   4
TORSDOF 1
ENDMDL
MODEL      160
REMARK 921   NORMALIZED FREE ENERGY PREDICTED BY IDOCK:   37.22 KCAL/MOL
REMARK 922        TOTAL FREE ENERGY PREDICTED BY IDOCK:   39.07 KCAL/MOL
REMARK 923 INTER-LIGAND FREE ENERGY PREDICTED BY IDOCK:   39.05 KCAL/MOL
REMARK 924 INTRA-LIGAND FREE ENERGY PREDICTED BY IDOCK:    0.02 KCAL/MOL
REMARK 927      BINDING AFFINITY PREDICTED BY RF-SCORE:    0.00 PKD
ROOT
HETATM    1  C   UNL     1      -5.127  14.119  68.442  1.00  0.00    -0.104 C  
HETATM    2  C   UNL     1      -5.937  14.295  67.185  1.00  0.00     0.863 C  
HETATM    3  O   UNL     1      -5.571  13.810  66.113  1.00  0.00     3.459 OA 
ENDROOT
BRANCH   2   4
HETATM    4  C   UNL     1      -7.227  15.089  67.272  1.00  0.00    -0.175 C  
HETATM    5  C   UNL     1      -7.015  16.600  67.078  1.00  0.00    -0.241 C  
HETATM    6  C   UNL     1      -6.411  17.030  65.736  1.00  0.00     0.758 A  
HETATM    7  C   UNL     1      -8.302  17.353  67.456  1.00  0.00    -0.212 C  
HETATM    8  C   UNL     1      -6.520  16.273  64.557  1.00  0.00    10.910 A  
HETATM    9  C   UNL     1      -9.304  17.754  66.653  1.00  0.00    -0.287 C  
HETATM   10  C   UNL     1     -10.396  18.579  67.169  1.00  0.00    -0.433 A  
HETATM   11  O   UNL     1      -9.438  17.441  65.320  1.00  0.00     0.102 OA 
HETATM   12  C   UNL     1      -6.011  16.757  63.347  1.00  0.00    10.842 A  
HETATM   13  H   UNL     1     -10.146  17.725  64.753  1.00  0.00     0.000 HD 
HETATM   14  C   UNL     1     -10.526  18.732  68.541  1.00  0.00    -0.135 A  
HETATM   15  C   UNL     1      -5.352  17.981  63.305  1.00  0.00     1.219 A  
HETATM   16  C   UNL     1     -11.569  19.464  69.108  1.00  0.00     4.001 A  
HETATM   17  O   UNL     1      -9.571  18.191  69.411  1.00  0.00     0.005 OA 
HETATM   18  C   UNL     1      -5.195  18.726  64.469  1.00  0.00    -0.230 A  
HETATM   19  C   UNL     1      -5.726  18.259  65.672  1.00  0.00    -0.247 A  
HETATM   20  C   UNL     1      -8.391  17.652  68.921  1.00  0.00    -0.139 C  
HETATM   21  C   UNL     1     -12.482  20.105  68.274  1.00  0.00     4.929 A  
HETATM   22  C   UNL     1     -12.346  20.006  66.889  1.00  0.00     3.551 A  
HETATM   23  O   UNL     1      -7.478  17.357  69.690  1.00  0.00     0.142 OA 
HETATM   24  C   UNL     1     -11.315  19.236  66.340  1.00  0.00     0.474 A  
ENDBRANCH   2   4
TORSDOF 1
ENDMDL
MODEL      161
REMARK 921   NORMALIZED FREE ENERGY PREDICTED BY IDOCK:   39.86 KCAL/MOL
REMARK 922        TOTAL FREE ENERGY PREDICTED BY IDOCK:   41.87 KCAL/MOL
REMARK 923 INTER-LIGAND FREE ENERGY PREDICTED BY IDOCK:   40.91 KCAL/MOL
REMARK 924 INTRA-LIGAND FREE ENERGY PREDICTED BY IDOCK:    0.96 KCAL/MOL
REMARK 927      BINDING AFFINITY PREDICTED BY RF-SCORE:    0.00 PKD
ROOT
HETATM    1  C   UNL     1      -7.412  13.031  72.842  1.00  0.00    10.595 C  
HETATM    2  C   UNL     1      -7.723  11.675  72.264  1.00  0.00    13.281 C  
HETATM    3  O   UNL     1      -7.604  10.649  72.937  1.00  0.00     5.954 OA 
ENDROOT
BRANCH   2   4
HETATM    4  C   UNL     1      -8.194  11.604  70.824  1.00  0.00     5.893 C  
HETATM    5  C   UNL     1      -8.599  12.975  70.258  1.00  0.00     4.544 C  
HETATM    6  C   UNL     1      -7.502  14.045  70.232  1.00  0.00     1.030 A  
HETATM    7  C   UNL     1      -9.321  12.783  68.913  1.00  0.00     0.281 C  
HETATM    8  C   UNL     1      -6.129  13.749  70.187  1.00  0.00    -0.139 A  
HETATM    9  C   UNL     1      -8.803  12.824  67.671  1.00  0.00    -0.189 C  
HETATM   10  C   UNL     1      -9.667  12.749  66.494  1.00  0.00    -0.255 A  
HETATM   11  O   UNL     1      -7.465  12.915  67.363  1.00  0.00    -0.149 OA 
HETATM   12  C   UNL     1      -5.180  14.772  70.090  1.00  0.00    -0.099 A  
HETATM   13  H   UNL     1      -7.099  12.944  66.486  1.00  0.00     0.000 HD 
HETATM   14  C   UNL     1     -10.993  12.382  66.662  1.00  0.00    -0.268 A  
HETATM   15  C   UNL     1      -5.584  16.103  70.073  1.00  0.00    -0.171 A  
HETATM   16  C   UNL     1     -11.865  12.243  65.582  1.00  0.00    -0.423 A  
HETATM   17  O   UNL     1     -11.520  12.184  67.945  1.00  0.00    -0.283 OA 
HETATM   18  C   UNL     1      -6.935  16.419  70.160  1.00  0.00     0.669 A  
HETATM   19  C   UNL     1      -7.886  15.399  70.230  1.00  0.00     0.686 A  
HETATM   20  C   UNL     1     -10.788  12.524  69.072  1.00  0.00    -0.137 C  
HETATM   21  C   UNL     1     -11.408  12.531  64.298  1.00  0.00    -0.417 A  
HETATM   22  C   UNL     1     -10.092  12.949  64.107  1.00  0.00    -0.212 A  
HETATM   23  O   UNL     1     -11.320  12.531  70.179  1.00  0.00    -0.023 OA 
HETATM   24  C   UNL     1      -9.222  13.045  65.199  1.00  0.00     0.741 A  
ENDBRANCH   2   4
TORSDOF 1
ENDMDL
MODEL      162
REMARK 921   NORMALIZED FREE ENERGY PREDICTED BY IDOCK:   45.22 KCAL/MOL
REMARK 922        TOTAL FREE ENERGY PREDICTED BY IDOCK:   47.54 KCAL/MOL
REMARK 923 INTER-LIGAND FREE ENERGY PREDICTED BY IDOCK:   47.60 KCAL/MOL
REMARK 924 INTRA-LIGAND FREE ENERGY PREDICTED BY IDOCK:   -0.06 KCAL/MOL
REMARK 927      BINDING AFFINITY PREDICTED BY RF-SCORE:    0.00 PKD
ROOT
HETATM    1  C   UNL     1     -12.044  20.036  69.968  1.00  0.00     8.896 C  
HETATM    2  C   UNL     1     -10.836  19.853  69.088  1.00  0.00     0.945 C  
HETATM    3  O   UNL     1     -10.442  20.753  68.344  1.00  0.00     0.078 OA 
ENDROOT
BRANCH   2   4
HETATM    4  C   UNL     1     -10.108  18.523  69.143  1.00  0.00    -0.171 C  
HETATM    5  C   UNL     1      -8.751  18.612  69.862  1.00  0.00     1.300 C  
HETATM    6  C   UNL     1      -8.791  19.069  71.325  1.00  0.00     5.270 A  
HETATM    7  C   UNL     1      -7.961  17.313  69.631  1.00  0.00     0.773 C  
HETATM    8  C   UNL     1      -9.911  18.913  72.157  1.00  0.00     4.814 A  
HETATM    9  C   UNL     1      -7.899  16.220  70.415  1.00  0.00     2.058 C  
HETATM   10  C   UNL     1      -6.986  15.121  70.101  1.00  0.00    -0.003 A  
HETATM   11  O   UNL     1      -8.658  15.996  71.540  1.00  0.00     4.824 OA 
HETATM   12  C   UNL     1      -9.858  19.283  73.505  1.00  0.00     4.294 A  
HETATM   13  H   UNL     1      -8.614  15.225  72.094  1.00  0.00     0.000 HD 
HETATM   14  C   UNL     1      -6.372  15.098  68.858  1.00  0.00    -0.090 A  
HETATM   15  C   UNL     1      -8.701  19.849  74.030  1.00  0.00     6.924 A  
HETATM   16  C   UNL     1      -5.528  14.059  68.470  1.00  0.00    -0.096 A  
HETATM   17  O   UNL     1      -6.544  16.159  67.959  1.00  0.00    -0.116 OA 
HETATM   18  C   UNL     1      -7.595  20.053  73.213  1.00  0.00     4.957 A  
HETATM   19  C   UNL     1      -7.636  19.658  71.874  1.00  0.00     2.759 A  
HETATM   20  C   UNL     1      -7.176  17.327  68.355  1.00  0.00    -0.220 C  
HETATM   21  C   UNL     1      -5.248  13.036  69.372  1.00  0.00    -0.075 A  
HETATM   22  C   UNL     1      -5.815  13.061  70.647  1.00  0.00    -0.123 A  
HETATM   23  O   UNL     1      -7.155  18.320  67.631  1.00  0.00    -0.198 OA 
HETATM   24  C   UNL     1      -6.690  14.092  71.004  1.00  0.00     0.802 A  
ENDBRANCH   2   4
TORSDOF 1
ENDMDL
MODEL      163
REMARK 921   NORMALIZED FREE ENERGY PREDICTED BY IDOCK:   59.63 KCAL/MOL
REMARK 922        TOTAL FREE ENERGY PREDICTED BY IDOCK:   62.80 KCAL/MOL
REMARK 923 INTER-LIGAND FREE ENERGY PREDICTED BY IDOCK:   61.85 KCAL/MOL
REMARK 924 INTRA-LIGAND FREE ENERGY PREDICTED BY IDOCK:    0.95 KCAL/MOL
REMARK 927      BINDING AFFINITY PREDICTED BY RF-SCORE:    0.00 PKD
ROOT
HETATM    1  C   UNL     1     -13.969  19.625  68.966  1.00  0.00    15.038 C  
HETATM    2  C   UNL     1     -13.269  19.325  67.667  1.00  0.00     7.427 C  
HETATM    3  O   UNL     1     -13.105  20.196  66.810  1.00  0.00     4.156 OA 
ENDROOT
BRANCH   2   4
HETATM    4  C   UNL     1     -12.763  17.913  67.438  1.00  0.00     5.919 C  
HETATM    5  C   UNL     1     -11.547  17.564  68.312  1.00  0.00     1.029 C  
HETATM    6  C   UNL     1     -11.762  17.635  69.828  1.00  0.00     3.441 A  
HETATM    7  C   UNL     1     -10.929  16.241  67.828  1.00  0.00    -0.281 C  
HETATM    8  C   UNL     1     -13.017  17.484  70.443  1.00  0.00    11.162 A  
HETATM    9  C   UNL     1     -11.159  14.994  68.279  1.00  0.00    -0.286 C  
HETATM   10  C   UNL     1     -10.378  13.860  67.785  1.00  0.00    -0.240 A  
HETATM   11  O   UNL     1     -12.120  14.638  69.197  1.00  0.00    -0.429 OA 
HETATM   12  C   UNL     1     -13.135  17.485  71.837  1.00  0.00     8.967 A  
HETATM   13  H   UNL     1     -12.282  13.758  69.516  1.00  0.00     0.000 HD 
HETATM   14  C   UNL     1      -9.576  14.038  66.669  1.00  0.00    -0.289 A  
HETATM   15  C   UNL     1     -12.012  17.675  72.634  1.00  0.00     2.415 A  
HETATM   16  C   UNL     1      -8.841  12.992  66.112  1.00  0.00     0.294 A  
HETATM   17  O   UNL     1      -9.439  15.304  66.085  1.00  0.00    -0.283 OA 
HETATM   18  C   UNL     1     -10.767  17.869  72.045  1.00  0.00     3.244 A  
HETATM   19  C   UNL     1     -10.642  17.840  70.655  1.00  0.00     1.763 A  
HETATM   20  C   UNL     1      -9.949  16.431  66.710  1.00  0.00    -0.272 C  
HETATM   21  C   UNL     1      -8.868  11.741  66.723  1.00  0.00    -0.191 A  
HETATM   22  C   UNL     1      -9.630  11.547  67.875  1.00  0.00    -0.178 A  
HETATM   23  O   UNL     1      -9.662  17.553  66.298  1.00  0.00    -0.317 OA 
HETATM   24  C   UNL     1     -10.391  12.599  68.396  1.00  0.00    -0.241 A  
ENDBRANCH   2   4
TORSDOF 1
ENDMDL
