MODEL        1
REMARK 921   NORMALIZED FREE ENERGY PREDICTED BY IDOCK:   -6.67 KCAL/MOL
REMARK 922        TOTAL FREE ENERGY PREDICTED BY IDOCK:  -11.71 KCAL/MOL
REMARK 923 INTER-LIGAND FREE ENERGY PREDICTED BY IDOCK:  -10.57 KCAL/MOL
REMARK 924 INTRA-LIGAND FREE ENERGY PREDICTED BY IDOCK:   -1.14 KCAL/MOL
REMARK 927      BINDING AFFINITY PREDICTED BY RF-SCORE:    0.00 PKD
ROOT
HETATM    1  O   UNL     1     -12.095  10.414  68.068  1.00  0.00    -0.604 OA 
HETATM    2  C   UNL     1     -11.103  11.381  68.439  1.00  0.00    -0.242 C  
HETATM    3  H   UNL     1     -12.161   9.763  68.757  1.00  0.00     0.000 HD 
ENDROOT
BRANCH   2   4
HETATM    4  C   UNL     1     -10.997  12.435  67.324  1.00  0.00    -0.260 C  
BRANCH   4   5
HETATM    5  N   UNL     1     -12.137  12.338  66.397  1.00  0.00    -0.612 NA 
HETATM    6  H   UNL     1     -12.911  11.808  66.798  1.00  0.00     0.000 HD 
BRANCH   5   7
HETATM    7  C   UNL     1     -12.551  13.679  65.968  1.00  0.00    -0.386 C  
BRANCH   7   8
HETATM    8  C   UNL     1     -12.066  13.978  64.545  1.00  0.00    -0.459 C  
BRANCH   8   9
HETATM    9  N   UNL     1     -10.855  14.773  64.580  1.00  0.00    -0.625 N  
HETATM   10  H   UNL     1      -9.963  14.311  64.405  1.00  0.00     0.000 HD 
BRANCH   9  11
HETATM   11  C   UNL     1     -10.859  16.114  64.837  1.00  0.00    -0.334 C  
HETATM   12  O   UNL     1     -11.473  16.904  64.122  1.00  0.00    -1.174 OA 
BRANCH  11  13
HETATM   13  N   UNL     1     -10.140  16.511  65.945  1.00  0.00    -0.343 N  
HETATM   14  C   UNL     1      -8.905  15.801  66.287  1.00  0.00    -0.343 C  
HETATM   15  C   UNL     1      -7.705  16.754  66.231  1.00  0.00    -0.275 C  
HETATM   16  O   UNL     1      -7.920  17.905  67.066  1.00  0.00    -0.205 OA 
HETATM   17  C   UNL     1      -9.094  18.618  66.653  1.00  0.00    -0.306 C  
HETATM   18  C   UNL     1     -10.338  17.726  66.743  1.00  0.00    -0.343 C  
ENDBRANCH  11  13
ENDBRANCH   9  11
ENDBRANCH   8   9
ENDBRANCH   7   8
ENDBRANCH   5   7
ENDBRANCH   4   5
ENDBRANCH   2   4
BRANCH   2  19
HETATM   19  C   UNL     1     -11.492  12.060  69.760  1.00  0.00    -0.210 C  
BRANCH  19  20
HETATM   20  O   UNL     1     -12.043  13.356  69.488  1.00  0.00    -0.311 OA 
BRANCH  20  21
HETATM   21  C   UNL     1     -12.277  14.121  70.599  1.00  0.00    -0.362 A  
HETATM   22  C   UNL     1     -13.138  13.566  71.548  1.00  0.00    -0.427 A  
HETATM   23  H   UNL     1     -12.734  17.077  74.222  1.00  0.00     0.000 HD 
HETATM   24  O   UNL     1     -13.129  16.227  74.069  1.00  0.00    -0.687 OA 
HETATM   25  C   UNL     1     -13.440  14.261  72.722  1.00  0.00    -0.590 A  
HETATM   26  C   UNL     1     -12.861  15.506  72.946  1.00  0.00    -0.457 A  
HETATM   27  C   UNL     1     -11.686  15.362  70.847  1.00  0.00    -0.395 A  
HETATM   28  C   UNL     1     -11.980  16.055  72.022  1.00  0.00    -0.622 A  
ENDBRANCH  20  21
ENDBRANCH  19  20
ENDBRANCH   2  19
TORSDOF 10
ENDMDL
MODEL        2
REMARK 921   NORMALIZED FREE ENERGY PREDICTED BY IDOCK:   -6.55 KCAL/MOL
REMARK 922        TOTAL FREE ENERGY PREDICTED BY IDOCK:  -11.51 KCAL/MOL
REMARK 923 INTER-LIGAND FREE ENERGY PREDICTED BY IDOCK:  -10.55 KCAL/MOL
REMARK 924 INTRA-LIGAND FREE ENERGY PREDICTED BY IDOCK:   -0.97 KCAL/MOL
REMARK 927      BINDING AFFINITY PREDICTED BY RF-SCORE:    0.00 PKD
ROOT
HETATM    1  O   UNL     1     -12.437  14.321  63.369  1.00  0.00    -1.125 OA 
HETATM    2  C   UNL     1     -12.071  14.390  64.754  1.00  0.00    -0.452 C  
HETATM    3  H   UNL     1     -12.468  15.203  63.016  1.00  0.00     0.000 HD 
ENDROOT
BRANCH   2   4
HETATM    4  C   UNL     1     -12.022  12.962  65.325  1.00  0.00    -0.419 C  
BRANCH   4   5
HETATM    5  N   UNL     1     -12.360  12.956  66.758  1.00  0.00    -0.367 NA 
HETATM    6  H   UNL     1     -13.206  12.418  66.949  1.00  0.00     0.000 HD 
BRANCH   5   7
HETATM    7  C   UNL     1     -11.215  12.477  67.542  1.00  0.00    -0.291 C  
BRANCH   7   8
HETATM    8  C   UNL     1     -11.674  11.592  68.706  1.00  0.00    -0.334 C  
BRANCH   8   9
HETATM    9  N   UNL     1     -11.467  12.271  69.969  1.00  0.00    -0.528 N  
HETATM   10  H   UNL     1     -10.542  12.648  70.174  1.00  0.00     0.000 HD 
BRANCH   9  11
HETATM   11  C   UNL     1     -12.458  12.429  70.895  1.00  0.00    -0.274 C  
HETATM   12  O   UNL     1     -12.976  11.462  71.452  1.00  0.00    -0.412 OA 
BRANCH  11  13
HETATM   13  N   UNL     1     -12.824  13.731  71.161  1.00  0.00    -0.342 N  
HETATM   14  C   UNL     1     -13.584  14.024  72.379  1.00  0.00    -0.557 C  
HETATM   15  C   UNL     1     -12.791  14.966  73.293  1.00  0.00    -0.530 C  
HETATM   16  O   UNL     1     -12.402  16.161  72.593  1.00  0.00    -0.455 OA 
HETATM   17  C   UNL     1     -11.595  15.839  71.451  1.00  0.00    -0.445 C  
HETATM   18  C   UNL     1     -12.362  14.941  70.472  1.00  0.00    -0.342 C  
ENDBRANCH  11  13
ENDBRANCH   9  11
ENDBRANCH   8   9
ENDBRANCH   7   8
ENDBRANCH   5   7
ENDBRANCH   4   5
ENDBRANCH   2   4
BRANCH   2  19
HETATM   19  C   UNL     1     -10.699  15.059  64.907  1.00  0.00    -0.397 C  
BRANCH  19  20
HETATM   20  O   UNL     1     -10.837  16.478  64.746  1.00  0.00    -0.720 OA 
BRANCH  20  21
HETATM   21  C   UNL     1     -10.640  17.205  65.889  1.00  0.00    -0.215 A  
HETATM   22  C   UNL     1     -10.614  18.592  65.729  1.00  0.00    -0.265 A  
HETATM   23  H   UNL     1      -9.989  19.255  70.066  1.00  0.00     0.000 HD 
HETATM   24  O   UNL     1     -10.088  19.638  69.202  1.00  0.00    -0.438 OA 
HETATM   25  C   UNL     1     -10.426  19.429  66.832  1.00  0.00    -0.569 A  
HETATM   26  C   UNL     1     -10.282  18.867  68.096  1.00  0.00    -0.391 A  
HETATM   27  C   UNL     1     -10.517  16.656  67.167  1.00  0.00    -0.300 A  
HETATM   28  C   UNL     1     -10.336  17.490  68.272  1.00  0.00    -0.379 A  
ENDBRANCH  20  21
ENDBRANCH  19  20
ENDBRANCH   2  19
TORSDOF 10
ENDMDL
MODEL        3
REMARK 921   NORMALIZED FREE ENERGY PREDICTED BY IDOCK:   -6.38 KCAL/MOL
REMARK 922        TOTAL FREE ENERGY PREDICTED BY IDOCK:  -11.25 KCAL/MOL
REMARK 923 INTER-LIGAND FREE ENERGY PREDICTED BY IDOCK:  -10.23 KCAL/MOL
REMARK 924 INTRA-LIGAND FREE ENERGY PREDICTED BY IDOCK:   -1.02 KCAL/MOL
REMARK 927      BINDING AFFINITY PREDICTED BY RF-SCORE:    0.00 PKD
ROOT
HETATM    1  O   UNL     1     -11.947  10.417  68.197  1.00  0.00    -0.756 OA 
HETATM    2  C   UNL     1     -11.094  11.478  68.649  1.00  0.00    -0.238 C  
HETATM    3  H   UNL     1     -11.995   9.753  68.874  1.00  0.00     0.000 HD 
ENDROOT
BRANCH   2   4
HETATM    4  C   UNL     1     -11.016  12.553  67.552  1.00  0.00    -0.251 C  
BRANCH   4   5
HETATM    5  N   UNL     1     -12.113  12.397  66.582  1.00  0.00    -0.584 NA 
HETATM    6  H   UNL     1     -12.996  12.164  67.038  1.00  0.00     0.000 HD 
BRANCH   5   7
HETATM    7  C   UNL     1     -12.224  13.602  65.752  1.00  0.00    -0.464 C  
BRANCH   7   8
HETATM    8  C   UNL     1     -10.877  14.325  65.644  1.00  0.00    -0.309 C  
BRANCH   8   9
HETATM    9  N   UNL     1     -10.984  15.672  66.168  1.00  0.00    -0.261 N  
HETATM   10  H   UNL     1     -11.247  15.795  67.146  1.00  0.00     0.000 HD 
BRANCH   9  11
HETATM   11  C   UNL     1     -10.748  16.782  65.409  1.00  0.00    -0.189 C  
HETATM   12  O   UNL     1     -11.182  16.881  64.263  1.00  0.00    -1.204 OA 
BRANCH  11  13
HETATM   13  N   UNL     1     -10.003  17.772  66.015  1.00  0.00    -0.257 N  
HETATM   14  C   UNL     1     -10.487  19.154  65.977  1.00  0.00    -0.467 C  
HETATM   15  C   UNL     1     -10.746  19.671  67.397  1.00  0.00    -0.435 C  
HETATM   16  O   UNL     1      -9.577  19.526  68.222  1.00  0.00    -0.340 OA 
HETATM   17  C   UNL     1      -9.178  18.150  68.298  1.00  0.00    -0.298 C  
HETATM   18  C   UNL     1      -8.851  17.595  66.906  1.00  0.00    -0.246 C  
ENDBRANCH  11  13
ENDBRANCH   9  11
ENDBRANCH   8   9
ENDBRANCH   7   8
ENDBRANCH   5   7
ENDBRANCH   4   5
ENDBRANCH   2   4
BRANCH   2  19
HETATM   19  C   UNL     1     -11.652  12.092  69.940  1.00  0.00    -0.221 C  
BRANCH  19  20
HETATM   20  O   UNL     1     -12.297  13.338  69.638  1.00  0.00    -0.224 OA 
BRANCH  20  21
HETATM   21  C   UNL     1     -12.448  14.178  70.708  1.00  0.00    -0.366 A  
HETATM   22  C   UNL     1     -13.306  13.731  71.714  1.00  0.00    -0.463 A  
HETATM   23  H   UNL     1     -12.605  17.357  74.163  1.00  0.00     0.000 HD 
HETATM   24  O   UNL     1     -13.054  16.526  74.073  1.00  0.00    -0.627 OA 
HETATM   25  C   UNL     1     -13.526  14.508  72.855  1.00  0.00    -0.525 A  
HETATM   26  C   UNL     1     -12.868  15.727  72.986  1.00  0.00    -0.502 A  
HETATM   27  C   UNL     1     -11.776  15.393  70.863  1.00  0.00    -0.395 A  
HETATM   28  C   UNL     1     -11.989  16.168  72.004  1.00  0.00    -0.607 A  
ENDBRANCH  20  21
ENDBRANCH  19  20
ENDBRANCH   2  19
TORSDOF 10
ENDMDL
MODEL        4
REMARK 921   NORMALIZED FREE ENERGY PREDICTED BY IDOCK:   -6.33 KCAL/MOL
REMARK 922        TOTAL FREE ENERGY PREDICTED BY IDOCK:  -11.17 KCAL/MOL
REMARK 923 INTER-LIGAND FREE ENERGY PREDICTED BY IDOCK:   -9.78 KCAL/MOL
REMARK 924 INTRA-LIGAND FREE ENERGY PREDICTED BY IDOCK:   -1.39 KCAL/MOL
REMARK 927      BINDING AFFINITY PREDICTED BY RF-SCORE:    0.00 PKD
ROOT
HETATM    1  O   UNL     1     -12.476  14.523  63.444  1.00  0.00    -1.080 OA 
HETATM    2  C   UNL     1     -11.839  14.674  64.720  1.00  0.00    -0.440 C  
HETATM    3  H   UNL     1     -13.139  15.197  63.351  1.00  0.00     0.000 HD 
ENDROOT
BRANCH   2   4
HETATM    4  C   UNL     1     -10.767  13.581  64.871  1.00  0.00    -0.381 C  
BRANCH   4   5
HETATM    5  N   UNL     1     -10.521  13.277  66.291  1.00  0.00    -0.282 NA 
HETATM    6  H   UNL     1      -9.975  14.007  66.749  1.00  0.00     0.000 HD 
BRANCH   5   7
HETATM    7  C   UNL     1     -11.793  13.026  66.978  1.00  0.00    -0.377 C  
BRANCH   7   8
HETATM    8  C   UNL     1     -11.689  13.360  68.471  1.00  0.00    -0.357 C  
BRANCH   8   9
HETATM    9  N   UNL     1     -12.219  14.684  68.730  1.00  0.00    -0.578 N  
HETATM   10  H   UNL     1     -13.035  14.994  68.203  1.00  0.00     0.000 HD 
BRANCH   9  11
HETATM   11  C   UNL     1     -11.674  15.532  69.650  1.00  0.00    -0.357 C  
HETATM   12  O   UNL     1     -10.598  16.092  69.448  1.00  0.00    -0.254 OA 
BRANCH  11  13
HETATM   13  N   UNL     1     -12.409  15.717  70.802  1.00  0.00    -0.417 N  
HETATM   14  C   UNL     1     -13.797  15.250  70.845  1.00  0.00    -0.234 C  
HETATM   15  C   UNL     1     -13.969  14.182  71.931  1.00  0.00    -0.470 C  
HETATM   16  O   UNL     1     -13.516  14.663  73.208  1.00  0.00    -0.570 OA 
HETATM   17  C   UNL     1     -12.133  15.039  73.147  1.00  0.00    -0.332 C  
HETATM   18  C   UNL     1     -11.911  16.149  72.112  1.00  0.00    -0.537 C  
ENDBRANCH  11  13
ENDBRANCH   9  11
ENDBRANCH   8   9
ENDBRANCH   7   8
ENDBRANCH   5   7
ENDBRANCH   4   5
ENDBRANCH   2   4
BRANCH   2  19
HETATM   19  C   UNL     1     -11.188  16.059  64.827  1.00  0.00    -0.339 C  
BRANCH  19  20
HETATM   20  O   UNL     1     -10.718  16.265  66.167  1.00  0.00    -0.285 OA 
BRANCH  20  21
HETATM   21  C   UNL     1      -9.981  17.405  66.345  1.00  0.00    -0.316 A  
HETATM   22  C   UNL     1      -8.596  17.231  66.392  1.00  0.00    -0.294 A  
HETATM   23  H   UNL     1      -7.894  21.574  66.920  1.00  0.00     0.000 HD 
HETATM   24  O   UNL     1      -7.519  20.705  66.847  1.00  0.00    -0.296 OA 
HETATM   25  C   UNL     1      -7.750  18.329  66.563  1.00  0.00    -0.279 A  
HETATM   26  C   UNL     1      -8.299  19.603  66.671  1.00  0.00    -0.321 A  
HETATM   27  C   UNL     1     -10.517  18.692  66.431  1.00  0.00    -0.463 A  
HETATM   28  C   UNL     1      -9.674  19.792  66.596  1.00  0.00    -0.519 A  
ENDBRANCH  20  21
ENDBRANCH  19  20
ENDBRANCH   2  19
TORSDOF 10
ENDMDL
MODEL        5
REMARK 921   NORMALIZED FREE ENERGY PREDICTED BY IDOCK:   -6.26 KCAL/MOL
REMARK 922        TOTAL FREE ENERGY PREDICTED BY IDOCK:  -11.06 KCAL/MOL
REMARK 923 INTER-LIGAND FREE ENERGY PREDICTED BY IDOCK:   -9.82 KCAL/MOL
REMARK 924 INTRA-LIGAND FREE ENERGY PREDICTED BY IDOCK:   -1.24 KCAL/MOL
REMARK 927      BINDING AFFINITY PREDICTED BY RF-SCORE:    0.00 PKD
ROOT
HETATM    1  O   UNL     1     -10.606  10.938  62.729  1.00  0.00    -0.780 OA 
HETATM    2  C   UNL     1     -10.773  11.989  63.691  1.00  0.00    -0.449 C  
HETATM    3  H   UNL     1      -9.707  10.632  62.761  1.00  0.00     0.000 HD 
ENDROOT
BRANCH   2   4
HETATM    4  C   UNL     1     -12.229  12.483  63.637  1.00  0.00    -0.550 C  
BRANCH   4   5
HETATM    5  N   UNL     1     -12.291  13.894  63.220  1.00  0.00    -1.148 NA 
HETATM    6  H   UNL     1     -13.061  14.068  62.575  1.00  0.00     0.000 HD 
BRANCH   5   7
HETATM    7  C   UNL     1     -12.353  14.764  64.400  1.00  0.00    -0.368 C  
BRANCH   7   8
HETATM    8  C   UNL     1     -11.229  15.805  64.380  1.00  0.00    -0.236 C  
BRANCH   8   9
HETATM    9  N   UNL     1     -10.413  15.691  65.572  1.00  0.00    -0.377 N  
HETATM   10  H   UNL     1     -10.441  14.819  66.100  1.00  0.00     0.000 HD 
BRANCH   9  11
HETATM   11  C   UNL     1      -9.608  16.701  66.017  1.00  0.00    -0.266 C  
HETATM   12  O   UNL     1      -8.390  16.672  65.851  1.00  0.00    -0.430 OA 
BRANCH  11  13
HETATM   13  N   UNL     1     -10.253  17.742  66.651  1.00  0.00    -0.348 N  
HETATM   14  C   UNL     1     -10.332  17.749  68.113  1.00  0.00    -0.391 C  
HETATM   15  C   UNL     1      -9.615  18.977  68.684  1.00  0.00    -0.403 C  
HETATM   16  O   UNL     1     -10.126  20.191  68.106  1.00  0.00    -0.412 OA 
HETATM   17  C   UNL     1      -9.961  20.182  66.681  1.00  0.00    -0.463 C  
HETATM   18  C   UNL     1     -10.708  19.000  66.049  1.00  0.00    -0.337 C  
ENDBRANCH  11  13
ENDBRANCH   9  11
ENDBRANCH   8   9
ENDBRANCH   7   8
ENDBRANCH   5   7
ENDBRANCH   4   5
ENDBRANCH   2   4
BRANCH   2  19
HETATM   19  C   UNL     1     -10.450  11.474  65.100  1.00  0.00    -0.286 C  
BRANCH  19  20
HETATM   20  O   UNL     1     -10.319  12.585  65.997  1.00  0.00    -0.247 OA 
BRANCH  20  21
HETATM   21  C   UNL     1     -10.864  12.386  67.238  1.00  0.00    -0.243 A  
HETATM   22  C   UNL     1     -11.011  11.053  67.629  1.00  0.00    -0.332 A  
HETATM   23  H   UNL     1     -12.720  12.212  71.550  1.00  0.00     0.000 HD 
HETATM   24  O   UNL     1     -12.464  11.511  70.963  1.00  0.00    -0.380 OA 
HETATM   25  C   UNL     1     -11.550  10.737  68.878  1.00  0.00    -0.361 A  
HETATM   26  C   UNL     1     -11.925  11.765  69.738  1.00  0.00    -0.322 A  
HETATM   27  C   UNL     1     -11.224  13.407  68.119  1.00  0.00    -0.304 A  
HETATM   28  C   UNL     1     -11.757  13.095  69.371  1.00  0.00    -0.386 A  
ENDBRANCH  20  21
ENDBRANCH  19  20
ENDBRANCH   2  19
TORSDOF 10
ENDMDL
MODEL        6
REMARK 921   NORMALIZED FREE ENERGY PREDICTED BY IDOCK:   -6.26 KCAL/MOL
REMARK 922        TOTAL FREE ENERGY PREDICTED BY IDOCK:  -11.06 KCAL/MOL
REMARK 923 INTER-LIGAND FREE ENERGY PREDICTED BY IDOCK:  -10.01 KCAL/MOL
REMARK 924 INTRA-LIGAND FREE ENERGY PREDICTED BY IDOCK:   -1.05 KCAL/MOL
REMARK 927      BINDING AFFINITY PREDICTED BY RF-SCORE:    0.00 PKD
ROOT
HETATM    1  O   UNL     1     -11.966  16.540  71.957  1.00  0.00    -0.638 OA 
HETATM    2  C   UNL     1     -12.322  15.716  70.838  1.00  0.00    -0.429 C  
HETATM    3  H   UNL     1     -12.700  16.574  72.558  1.00  0.00     0.000 HD 
ENDROOT
BRANCH   2   4
HETATM    4  C   UNL     1     -11.133  15.663  69.864  1.00  0.00    -0.319 C  
BRANCH   4   5
HETATM    5  N   UNL     1     -11.479  16.288  68.576  1.00  0.00    -0.340 NA 
HETATM    6  H   UNL     1     -12.416  16.691  68.587  1.00  0.00     0.000 HD 
BRANCH   5   7
HETATM    7  C   UNL     1     -10.459  17.277  68.209  1.00  0.00    -0.385 C  
BRANCH   7   8
HETATM    8  C   UNL     1     -10.555  17.645  66.724  1.00  0.00    -0.224 C  
BRANCH   8   9
HETATM    9  N   UNL     1     -10.086  16.548  65.901  1.00  0.00    -0.343 N  
HETATM   10  H   UNL     1      -9.145  16.189  66.057  1.00  0.00     0.000 HD 
BRANCH   9  11
HETATM   11  C   UNL     1     -10.851  15.976  64.925  1.00  0.00    -0.372 C  
HETATM   12  O   UNL     1     -11.423  16.656  64.076  1.00  0.00    -1.192 OA 
BRANCH  11  13
HETATM   13  N   UNL     1     -10.929  14.600  64.958  1.00  0.00    -0.380 N  
HETATM   14  C   UNL     1     -10.327  13.877  66.081  1.00  0.00    -0.301 C  
HETATM   15  C   UNL     1     -11.398  13.099  66.855  1.00  0.00    -0.318 C  
HETATM   16  O   UNL     1     -12.138  12.228  65.981  1.00  0.00    -0.623 OA 
HETATM   17  C   UNL     1     -12.776  12.980  64.938  1.00  0.00    -0.390 C  
HETATM   18  C   UNL     1     -11.743  13.736  64.095  1.00  0.00    -0.364 C  
ENDBRANCH  11  13
ENDBRANCH   9  11
ENDBRANCH   8   9
ENDBRANCH   7   8
ENDBRANCH   5   7
ENDBRANCH   4   5
ENDBRANCH   2   4
BRANCH   2  19
HETATM   19  C   UNL     1     -12.669  14.299  71.313  1.00  0.00    -0.357 C  
BRANCH  19  20
HETATM   20  O   UNL     1     -12.380  13.359  70.268  1.00  0.00    -0.323 OA 
BRANCH  20  21
HETATM   21  C   UNL     1     -12.395  12.047  70.659  1.00  0.00    -0.304 A  
HETATM   22  C   UNL     1     -11.538  11.196  69.959  1.00  0.00    -0.421 A  
HETATM   23  H   UNL     1     -12.766   7.691  72.377  1.00  0.00     0.000 HD 
HETATM   24  O   UNL     1     -12.231   8.028  71.668  1.00  0.00    -0.286 OA 
HETATM   25  C   UNL     1     -11.470   9.838  70.282  1.00  0.00    -0.317 A  
HETATM   26  C   UNL     1     -12.253   9.344  71.320  1.00  0.00    -0.345 A  
HETATM   27  C   UNL     1     -13.159  11.543  71.713  1.00  0.00    -0.503 A  
HETATM   28  C   UNL     1     -13.088  10.188  72.043  1.00  0.00    -0.538 A  
ENDBRANCH  20  21
ENDBRANCH  19  20
ENDBRANCH   2  19
TORSDOF 10
ENDMDL
MODEL        7
REMARK 921   NORMALIZED FREE ENERGY PREDICTED BY IDOCK:   -6.23 KCAL/MOL
REMARK 922        TOTAL FREE ENERGY PREDICTED BY IDOCK:  -11.01 KCAL/MOL
REMARK 923 INTER-LIGAND FREE ENERGY PREDICTED BY IDOCK:  -10.14 KCAL/MOL
REMARK 924 INTRA-LIGAND FREE ENERGY PREDICTED BY IDOCK:   -0.87 KCAL/MOL
REMARK 927      BINDING AFFINITY PREDICTED BY RF-SCORE:    0.00 PKD
ROOT
HETATM    1  O   UNL     1     -12.365  14.237  63.502  1.00  0.00    -1.080 OA 
HETATM    2  C   UNL     1     -12.056  14.716  64.818  1.00  0.00    -0.421 C  
HETATM    3  H   UNL     1     -12.424  14.979  62.912  1.00  0.00     0.000 HD 
ENDROOT
BRANCH   2   4
HETATM    4  C   UNL     1     -11.961  13.515  65.774  1.00  0.00    -0.403 C  
BRANCH   4   5
HETATM    5  N   UNL     1     -10.563  13.082  65.939  1.00  0.00    -0.271 NA 
HETATM    6  H   UNL     1      -9.908  13.731  65.502  1.00  0.00     0.000 HD 
BRANCH   5   7
HETATM    7  C   UNL     1     -10.266  12.875  67.361  1.00  0.00    -0.230 C  
BRANCH   7   8
HETATM    8  C   UNL     1     -11.546  12.908  68.203  1.00  0.00    -0.336 C  
BRANCH   8   9
HETATM    9  N   UNL     1     -11.357  13.736  69.377  1.00  0.00    -0.319 N  
HETATM   10  H   UNL     1     -10.602  14.422  69.373  1.00  0.00     0.000 HD 
BRANCH   9  11
HETATM   11  C   UNL     1     -12.145  13.638  70.488  1.00  0.00    -0.339 C  
HETATM   12  O   UNL     1     -12.630  12.563  70.837  1.00  0.00    -0.334 OA 
BRANCH  11  13
HETATM   13  N   UNL     1     -12.349  14.812  71.182  1.00  0.00    -0.308 N  
HETATM   14  C   UNL     1     -13.666  15.451  71.132  1.00  0.00    -0.417 C  
HETATM   15  C   UNL     1     -14.282  15.520  72.534  1.00  0.00    -0.415 C  
HETATM   16  O   UNL     1     -13.394  16.173  73.458  1.00  0.00    -0.623 OA 
HETATM   17  C   UNL     1     -12.143  15.475  73.538  1.00  0.00    -0.501 C  
HETATM   18  C   UNL     1     -11.454  15.424  72.169  1.00  0.00    -0.433 C  
ENDBRANCH  11  13
ENDBRANCH   9  11
ENDBRANCH   8   9
ENDBRANCH   7   8
ENDBRANCH   5   7
ENDBRANCH   4   5
ENDBRANCH   2   4
BRANCH   2  19
HETATM   19  C   UNL     1     -10.723  15.477  64.805  1.00  0.00    -0.304 C  
BRANCH  19  20
HETATM   20  O   UNL     1     -10.973  16.880  64.646  1.00  0.00    -0.894 OA 
BRANCH  20  21
HETATM   21  C   UNL     1     -10.693  17.639  65.751  1.00  0.00    -0.110 A  
HETATM   22  C   UNL     1     -10.463  16.930  66.932  1.00  0.00    -0.271 A  
HETATM   23  H   UNL     1      -9.739  20.651  69.228  1.00  0.00     0.000 HD 
HETATM   24  O   UNL     1      -9.797  19.704  69.235  1.00  0.00    -0.416 OA 
HETATM   25  C   UNL     1     -10.162  17.607  68.117  1.00  0.00    -0.371 A  
HETATM   26  C   UNL     1     -10.078  18.996  68.106  1.00  0.00    -0.395 A  
HETATM   27  C   UNL     1     -10.584  19.031  65.750  1.00  0.00    -0.388 A  
HETATM   28  C   UNL     1     -10.277  19.710  66.930  1.00  0.00    -0.560 A  
ENDBRANCH  20  21
ENDBRANCH  19  20
ENDBRANCH   2  19
TORSDOF 10
ENDMDL
MODEL        8
REMARK 921   NORMALIZED FREE ENERGY PREDICTED BY IDOCK:   -6.20 KCAL/MOL
REMARK 922        TOTAL FREE ENERGY PREDICTED BY IDOCK:  -10.96 KCAL/MOL
REMARK 923 INTER-LIGAND FREE ENERGY PREDICTED BY IDOCK:   -9.88 KCAL/MOL
REMARK 924 INTRA-LIGAND FREE ENERGY PREDICTED BY IDOCK:   -1.08 KCAL/MOL
REMARK 927      BINDING AFFINITY PREDICTED BY RF-SCORE:    0.00 PKD
ROOT
HETATM    1  O   UNL     1     -14.158  15.531  73.101  1.00  0.00    -0.500 OA 
HETATM    2  C   UNL     1     -13.875  14.792  71.906  1.00  0.00    -0.446 C  
HETATM    3  H   UNL     1     -14.910  15.142  73.532  1.00  0.00     0.000 HD 
ENDROOT
BRANCH   2   4
HETATM    4  C   UNL     1     -12.658  15.423  71.208  1.00  0.00    -0.412 C  
BRANCH   4   5
HETATM    5  N   UNL     1     -12.754  15.276  69.746  1.00  0.00    -0.622 NA 
HETATM    6  H   UNL     1     -13.614  15.683  69.377  1.00  0.00     0.000 HD 
BRANCH   5   7
HETATM    7  C   UNL     1     -11.560  15.839  69.106  1.00  0.00    -0.392 C  
BRANCH   7   8
HETATM    8  C   UNL     1     -11.361  15.260  67.701  1.00  0.00    -0.312 C  
BRANCH   8   9
HETATM    9  N   UNL     1     -12.336  14.219  67.441  1.00  0.00    -0.591 N  
HETATM   10  H   UNL     1     -13.314  14.400  67.666  1.00  0.00     0.000 HD 
BRANCH   9  11
HETATM   11  C   UNL     1     -12.000  13.008  66.908  1.00  0.00    -0.352 C  
HETATM   12  O   UNL     1     -12.127  11.966  67.549  1.00  0.00    -0.573 OA 
BRANCH  11  13
HETATM   13  N   UNL     1     -11.523  13.037  65.614  1.00  0.00    -0.321 N  
HETATM   14  C   UNL     1     -10.195  12.488  65.331  1.00  0.00    -0.283 C  
HETATM   15  C   UNL     1     -10.298  11.310  64.355  1.00  0.00    -0.329 C  
HETATM   16  O   UNL     1     -10.997  11.691  63.156  1.00  0.00    -0.300 OA 
HETATM   17  C   UNL     1     -12.320  12.150  63.466  1.00  0.00    -0.574 C  
HETATM   18  C   UNL     1     -12.275  13.367  64.399  1.00  0.00    -0.389 C  
ENDBRANCH  11  13
ENDBRANCH   9  11
ENDBRANCH   8   9
ENDBRANCH   7   8
ENDBRANCH   5   7
ENDBRANCH   4   5
ENDBRANCH   2   4
BRANCH   2  19
HETATM   19  C   UNL     1     -13.576  13.326  72.247  1.00  0.00    -0.605 C  
BRANCH  19  20
HETATM   20  O   UNL     1     -12.771  12.747  71.210  1.00  0.00    -0.368 OA 
BRANCH  20  21
HETATM   21  C   UNL     1     -12.634  11.387  71.285  1.00  0.00    -0.374 A  
HETATM   22  C   UNL     1     -11.545  10.848  70.596  1.00  0.00    -0.341 A  
HETATM   23  H   UNL     1     -12.557   6.727  71.871  1.00  0.00     0.000 HD 
HETATM   24  O   UNL     1     -11.977   7.293  71.377  1.00  0.00    -0.288 OA 
HETATM   25  C   UNL     1     -11.308   9.471  70.613  1.00  0.00    -0.364 A  
HETATM   26  C   UNL     1     -12.158   8.642  71.336  1.00  0.00    -0.303 A  
HETATM   27  C   UNL     1     -13.466  10.545  72.026  1.00  0.00    -0.330 A  
HETATM   28  C   UNL     1     -13.228   9.170  72.049  1.00  0.00    -0.505 A  
ENDBRANCH  20  21
ENDBRANCH  19  20
ENDBRANCH   2  19
TORSDOF 10
ENDMDL
MODEL        9
REMARK 921   NORMALIZED FREE ENERGY PREDICTED BY IDOCK:   -6.18 KCAL/MOL
REMARK 922        TOTAL FREE ENERGY PREDICTED BY IDOCK:  -10.94 KCAL/MOL
REMARK 923 INTER-LIGAND FREE ENERGY PREDICTED BY IDOCK:   -9.94 KCAL/MOL
REMARK 924 INTRA-LIGAND FREE ENERGY PREDICTED BY IDOCK:   -1.00 KCAL/MOL
REMARK 927      BINDING AFFINITY PREDICTED BY RF-SCORE:    0.00 PKD
ROOT
HETATM    1  O   UNL     1     -12.065  16.117  63.711  1.00  0.00    -1.355 OA 
HETATM    2  C   UNL     1     -11.492  15.145  64.596  1.00  0.00    -0.362 C  
HETATM    3  H   UNL     1     -12.678  15.680  63.132  1.00  0.00     0.000 HD 
ENDROOT
BRANCH   2   4
HETATM    4  C   UNL     1     -10.497  15.852  65.533  1.00  0.00    -0.404 C  
BRANCH   4   5
HETATM    5  N   UNL     1      -9.432  14.931  65.962  1.00  0.00    -0.400 NA 
HETATM    6  H   UNL     1      -8.599  15.011  65.378  1.00  0.00     0.000 HD 
BRANCH   5   7
HETATM    7  C   UNL     1      -9.129  15.140  67.383  1.00  0.00    -0.191 C  
BRANCH   7   8
HETATM    8  C   UNL     1     -10.181  16.037  68.045  1.00  0.00    -0.245 C  
BRANCH   8   9
HETATM    9  N   UNL     1     -10.509  15.540  69.366  1.00  0.00    -0.235 N  
HETATM   10  H   UNL     1      -9.828  15.662  70.116  1.00  0.00     0.000 HD 
BRANCH   9  11
HETATM   11  C   UNL     1     -11.690  14.917  69.650  1.00  0.00    -0.320 C  
HETATM   12  O   UNL     1     -12.100  13.978  68.970  1.00  0.00    -0.346 OA 
BRANCH  11  13
HETATM   13  N   UNL     1     -12.375  15.405  70.743  1.00  0.00    -0.364 N  
HETATM   14  C   UNL     1     -13.810  15.137  70.864  1.00  0.00    -0.241 C  
HETATM   15  C   UNL     1     -14.099  14.319  72.128  1.00  0.00    -0.540 C  
HETATM   16  O   UNL     1     -13.565  14.966  73.297  1.00  0.00    -0.513 OA 
HETATM   17  C   UNL     1     -12.147  15.142  73.175  1.00  0.00    -0.387 C  
HETATM   18  C   UNL     1     -11.803  16.004  71.953  1.00  0.00    -0.534 C  
ENDBRANCH  11  13
ENDBRANCH   9  11
ENDBRANCH   8   9
ENDBRANCH   7   8
ENDBRANCH   5   7
ENDBRANCH   4   5
ENDBRANCH   2   4
BRANCH   2  19
HETATM   19  C   UNL     1     -12.592  14.467  65.423  1.00  0.00    -0.330 C  
BRANCH  19  20
HETATM   20  O   UNL     1     -12.923  13.201  64.834  1.00  0.00    -0.734 OA 
BRANCH  20  21
HETATM   21  C   UNL     1     -11.888  12.307  64.782  1.00  0.00    -0.364 A  
HETATM   22  C   UNL     1     -11.380  11.893  66.015  1.00  0.00    -0.375 A  
HETATM   23  H   UNL     1      -8.407   9.228  64.093  1.00  0.00     0.000 HD 
HETATM   24  O   UNL     1      -8.768   9.577  64.899  1.00  0.00    -0.165 OA 
HETATM   25  C   UNL     1     -10.328  10.977  66.076  1.00  0.00    -0.311 A  
HETATM   26  C   UNL     1      -9.799  10.466  64.896  1.00  0.00    -0.334 A  
HETATM   27  C   UNL     1     -11.363  11.769  63.605  1.00  0.00    -0.525 A  
HETATM   28  C   UNL     1     -10.316  10.847  63.663  1.00  0.00    -0.364 A  
ENDBRANCH  20  21
ENDBRANCH  19  20
ENDBRANCH   2  19
TORSDOF 10
ENDMDL
MODEL       10
REMARK 921   NORMALIZED FREE ENERGY PREDICTED BY IDOCK:   -6.09 KCAL/MOL
REMARK 922        TOTAL FREE ENERGY PREDICTED BY IDOCK:  -10.79 KCAL/MOL
REMARK 923 INTER-LIGAND FREE ENERGY PREDICTED BY IDOCK:   -9.32 KCAL/MOL
REMARK 924 INTRA-LIGAND FREE ENERGY PREDICTED BY IDOCK:   -1.47 KCAL/MOL
REMARK 927      BINDING AFFINITY PREDICTED BY RF-SCORE:    0.00 PKD
ROOT
HETATM    1  O   UNL     1      -8.390  11.670  66.203  1.00  0.00    -0.353 OA 
HETATM    2  C   UNL     1      -9.658  12.325  66.345  1.00  0.00    -0.237 C  
HETATM    3  H   UNL     1      -7.703  12.271  66.468  1.00  0.00     0.000 HD 
ENDROOT
BRANCH   2   4
HETATM    4  C   UNL     1     -10.769  11.352  65.914  1.00  0.00    -0.255 C  
BRANCH   4   5
HETATM    5  N   UNL     1     -12.083  12.017  65.920  1.00  0.00    -0.493 NA 
HETATM    6  H   UNL     1     -12.162  12.699  66.675  1.00  0.00     0.000 HD 
BRANCH   5   7
HETATM    7  C   UNL     1     -12.350  12.615  64.607  1.00  0.00    -0.476 C  
BRANCH   7   8
HETATM    8  C   UNL     1     -12.460  14.140  64.707  1.00  0.00    -0.373 C  
BRANCH   8   9
HETATM    9  N   UNL     1     -11.144  14.745  64.664  1.00  0.00    -0.578 N  
HETATM   10  H   UNL     1     -10.347  14.161  64.413  1.00  0.00     0.000 HD 
BRANCH   9  11
HETATM   11  C   UNL     1     -10.927  16.064  64.945  1.00  0.00    -0.384 C  
HETATM   12  O   UNL     1     -11.363  16.956  64.219  1.00  0.00    -1.202 OA 
BRANCH  11  13
HETATM   13  N   UNL     1     -10.200  16.319  66.088  1.00  0.00    -0.329 N  
HETATM   14  C   UNL     1      -8.777  15.973  66.122  1.00  0.00    -0.313 C  
HETATM   15  C   UNL     1      -7.924  17.229  66.330  1.00  0.00    -0.303 C  
HETATM   16  O   UNL     1      -8.337  17.946  67.507  1.00  0.00    -0.224 OA 
HETATM   17  C   UNL     1      -9.715  18.336  67.405  1.00  0.00    -0.296 C  
HETATM   18  C   UNL     1     -10.622  17.109  67.250  1.00  0.00    -0.270 C  
ENDBRANCH  11  13
ENDBRANCH   9  11
ENDBRANCH   8   9
ENDBRANCH   7   8
ENDBRANCH   5   7
ENDBRANCH   4   5
ENDBRANCH   2   4
BRANCH   2  19
HETATM   19  C   UNL     1      -9.875  12.749  67.803  1.00  0.00    -0.220 C  
BRANCH  19  20
HETATM   20  O   UNL     1     -10.991  13.648  67.879  1.00  0.00    -0.249 OA 
BRANCH  20  21
HETATM   21  C   UNL     1     -11.702  13.579  69.047  1.00  0.00    -0.327 A  
HETATM   22  C   UNL     1     -11.859  12.301  69.587  1.00  0.00    -0.393 A  
HETATM   23  H   UNL     1     -14.154  13.857  73.045  1.00  0.00     0.000 HD 
HETATM   24  O   UNL     1     -13.792  13.101  72.597  1.00  0.00    -0.691 OA 
HETATM   25  C   UNL     1     -12.563  12.118  70.781  1.00  0.00    -0.305 A  
HETATM   26  C   UNL     1     -13.092  13.225  71.436  1.00  0.00    -0.277 A  
HETATM   27  C   UNL     1     -12.219  14.684  69.727  1.00  0.00    -0.347 A  
HETATM   28  C   UNL     1     -12.916  14.505  70.924  1.00  0.00    -0.424 A  
ENDBRANCH  20  21
ENDBRANCH  19  20
ENDBRANCH   2  19
TORSDOF 10
ENDMDL
MODEL       11
REMARK 921   NORMALIZED FREE ENERGY PREDICTED BY IDOCK:   -6.07 KCAL/MOL
REMARK 922        TOTAL FREE ENERGY PREDICTED BY IDOCK:  -10.76 KCAL/MOL
REMARK 923 INTER-LIGAND FREE ENERGY PREDICTED BY IDOCK:   -9.39 KCAL/MOL
REMARK 924 INTRA-LIGAND FREE ENERGY PREDICTED BY IDOCK:   -1.37 KCAL/MOL
REMARK 927      BINDING AFFINITY PREDICTED BY RF-SCORE:    0.00 PKD
ROOT
HETATM    1  O   UNL     1     -13.256  15.329  73.379  1.00  0.00    -0.481 OA 
HETATM    2  C   UNL     1     -13.893  14.754  72.230  1.00  0.00    -0.485 C  
HETATM    3  H   UNL     1     -13.622  14.934  74.162  1.00  0.00     0.000 HD 
ENDROOT
BRANCH   2   4
HETATM    4  C   UNL     1     -13.301  15.394  70.963  1.00  0.00    -0.480 C  
BRANCH   4   5
HETATM    5  N   UNL     1     -12.041  16.094  71.266  1.00  0.00    -0.596 NA 
HETATM    6  H   UNL     1     -11.588  15.721  72.100  1.00  0.00     0.000 HD 
BRANCH   5   7
HETATM    7  C   UNL     1     -11.155  16.062  70.097  1.00  0.00    -0.371 C  
BRANCH   7   8
HETATM    8  C   UNL     1     -11.875  15.483  68.873  1.00  0.00    -0.338 C  
BRANCH   8   9
HETATM    9  N   UNL     1     -11.416  14.135  68.609  1.00  0.00    -0.279 N  
HETATM   10  H   UNL     1     -11.906  13.357  69.052  1.00  0.00     0.000 HD 
BRANCH   9  11
HETATM   11  C   UNL     1     -10.357  13.860  67.792  1.00  0.00    -0.240 C  
HETATM   12  O   UNL     1      -9.228  13.680  68.243  1.00  0.00    -0.196 OA 
BRANCH  11  13
HETATM   13  N   UNL     1     -10.644  13.794  66.445  1.00  0.00    -0.281 N  
HETATM   14  C   UNL     1     -11.731  12.924  65.988  1.00  0.00    -0.404 C  
HETATM   15  C   UNL     1     -12.828  13.749  65.306  1.00  0.00    -0.384 C  
HETATM   16  O   UNL     1     -12.287  14.550  64.240  1.00  0.00    -0.597 OA 
HETATM   17  C   UNL     1     -11.281  15.443  64.738  1.00  0.00    -0.395 C  
HETATM   18  C   UNL     1     -10.127  14.665  65.384  1.00  0.00    -0.372 C  
ENDBRANCH  11  13
ENDBRANCH   9  11
ENDBRANCH   8   9
ENDBRANCH   7   8
ENDBRANCH   5   7
ENDBRANCH   4   5
ENDBRANCH   2   4
BRANCH   2  19
HETATM   19  C   UNL     1     -13.665  13.237  72.201  1.00  0.00    -0.526 C  
BRANCH  19  20
HETATM   20  O   UNL     1     -12.708  12.915  71.182  1.00  0.00    -0.360 OA 
BRANCH  20  21
HETATM   21  C   UNL     1     -12.414  11.583  71.074  1.00  0.00    -0.356 A  
HETATM   22  C   UNL     1     -13.166  10.728  71.881  1.00  0.00    -0.524 A  
HETATM   23  H   UNL     1     -11.082   7.140  70.323  1.00  0.00     0.000 HD 
HETATM   24  O   UNL     1     -11.738   7.494  70.912  1.00  0.00    -0.289 OA 
HETATM   25  C   UNL     1     -12.952   9.347  71.844  1.00  0.00    -0.502 A  
HETATM   26  C   UNL     1     -11.992   8.830  70.981  1.00  0.00    -0.251 A  
HETATM   27  C   UNL     1     -11.469  11.048  70.196  1.00  0.00    -0.383 A  
HETATM   28  C   UNL     1     -11.257   9.669  70.151  1.00  0.00    -0.302 A  
ENDBRANCH  20  21
ENDBRANCH  19  20
ENDBRANCH   2  19
TORSDOF 10
ENDMDL
MODEL       12
REMARK 921   NORMALIZED FREE ENERGY PREDICTED BY IDOCK:   -6.04 KCAL/MOL
REMARK 922        TOTAL FREE ENERGY PREDICTED BY IDOCK:  -10.72 KCAL/MOL
REMARK 923 INTER-LIGAND FREE ENERGY PREDICTED BY IDOCK:   -9.64 KCAL/MOL
REMARK 924 INTRA-LIGAND FREE ENERGY PREDICTED BY IDOCK:   -1.08 KCAL/MOL
REMARK 927      BINDING AFFINITY PREDICTED BY RF-SCORE:    0.00 PKD
ROOT
HETATM    1  O   UNL     1     -11.058   8.995  68.788  1.00  0.00    -0.446 OA 
HETATM    2  C   UNL     1     -10.518  10.194  69.361  1.00  0.00    -0.233 C  
HETATM    3  H   UNL     1     -11.370   8.434  69.489  1.00  0.00     0.000 HD 
ENDROOT
BRANCH   2   4
HETATM    4  C   UNL     1     -10.014  11.102  68.226  1.00  0.00    -0.187 C  
BRANCH   4   5
HETATM    5  N   UNL     1      -9.087  12.123  68.741  1.00  0.00    -0.387 NA 
HETATM    6  H   UNL     1      -8.411  11.731  69.397  1.00  0.00     0.000 HD 
BRANCH   5   7
HETATM    7  C   UNL     1      -8.432  12.816  67.626  1.00  0.00    -0.178 C  
BRANCH   7   8
HETATM    8  C   UNL     1      -8.951  14.251  67.485  1.00  0.00    -0.196 C  
BRANCH   8   9
HETATM    9  N   UNL     1      -9.169  14.575  66.089  1.00  0.00    -0.498 N  
HETATM   10  H   UNL     1      -8.535  14.183  65.393  1.00  0.00     0.000 HD 
BRANCH   9  11
HETATM   11  C   UNL     1     -10.186  15.382  65.667  1.00  0.00    -0.376 C  
HETATM   12  O   UNL     1     -10.003  16.573  65.424  1.00  0.00    -0.552 OA 
BRANCH  11  13
HETATM   13  N   UNL     1     -11.415  14.771  65.529  1.00  0.00    -0.342 N  
HETATM   14  C   UNL     1     -12.054  14.741  64.211  1.00  0.00    -0.394 C  
HETATM   15  C   UNL     1     -12.241  13.295  63.738  1.00  0.00    -0.439 C  
HETATM   16  O   UNL     1     -12.964  12.521  64.711  1.00  0.00    -0.827 OA 
HETATM   17  C   UNL     1     -12.270  12.509  65.967  1.00  0.00    -0.190 C  
HETATM   18  C   UNL     1     -12.104  13.932  66.516  1.00  0.00    -0.449 C  
ENDBRANCH  11  13
ENDBRANCH   9  11
ENDBRANCH   8   9
ENDBRANCH   7   8
ENDBRANCH   5   7
ENDBRANCH   4   5
ENDBRANCH   2   4
BRANCH   2  19
HETATM   19  C   UNL     1     -11.595  10.926  70.172  1.00  0.00    -0.338 C  
BRANCH  19  20
HETATM   20  O   UNL     1     -11.774  12.249  69.646  1.00  0.00    -0.301 OA 
BRANCH  20  21
HETATM   21  C   UNL     1     -12.379  13.128  70.504  1.00  0.00    -0.304 A  
HETATM   22  C   UNL     1     -12.286  14.477  70.156  1.00  0.00    -0.399 A  
HETATM   23  H   UNL     1     -14.625  15.734  73.704  1.00  0.00     0.000 HD 
HETATM   24  O   UNL     1     -14.151  15.994  72.923  1.00  0.00    -0.530 OA 
HETATM   25  C   UNL     1     -12.873  15.458  70.959  1.00  0.00    -0.525 A  
HETATM   26  C   UNL     1     -13.568  15.077  72.102  1.00  0.00    -0.427 A  
HETATM   27  C   UNL     1     -13.098  12.758  71.643  1.00  0.00    -0.428 A  
HETATM   28  C   UNL     1     -13.692  13.735  72.443  1.00  0.00    -0.692 A  
ENDBRANCH  20  21
ENDBRANCH  19  20
ENDBRANCH   2  19
TORSDOF 10
ENDMDL
MODEL       13
REMARK 921   NORMALIZED FREE ENERGY PREDICTED BY IDOCK:   -6.00 KCAL/MOL
REMARK 922        TOTAL FREE ENERGY PREDICTED BY IDOCK:  -10.65 KCAL/MOL
REMARK 923 INTER-LIGAND FREE ENERGY PREDICTED BY IDOCK:   -9.18 KCAL/MOL
REMARK 924 INTRA-LIGAND FREE ENERGY PREDICTED BY IDOCK:   -1.47 KCAL/MOL
REMARK 927      BINDING AFFINITY PREDICTED BY RF-SCORE:    0.00 PKD
ROOT
HETATM    1  O   UNL     1     -10.846   8.787  72.115  1.00  0.00    -0.354 OA 
HETATM    2  C   UNL     1     -10.721   9.455  70.851  1.00  0.00    -0.323 C  
HETATM    3  H   UNL     1     -10.969   9.439  72.795  1.00  0.00     0.000 HD 
ENDROOT
BRANCH   2   4
HETATM    4  C   UNL     1     -10.520   8.399  69.751  1.00  0.00    -0.220 C  
BRANCH   4   5
HETATM    5  N   UNL     1     -11.019   8.888  68.455  1.00  0.00    -0.457 NA 
HETATM    6  H   UNL     1     -11.576   9.737  68.555  1.00  0.00     0.000 HD 
BRANCH   5   7
HETATM    7  C   UNL     1      -9.901   9.069  67.522  1.00  0.00    -0.179 C  
BRANCH   7   8
HETATM    8  C   UNL     1     -10.206  10.171  66.501  1.00  0.00    -0.223 C  
BRANCH   8   9
HETATM    9  N   UNL     1     -11.143  11.127  67.054  1.00  0.00    -0.294 N  
HETATM   10  H   UNL     1     -11.829  10.800  67.735  1.00  0.00     0.000 HD 
BRANCH   9  11
HETATM   11  C   UNL     1     -11.147  12.447  66.704  1.00  0.00    -0.289 C  
HETATM   12  O   UNL     1     -10.384  13.254  67.232  1.00  0.00    -0.244 OA 
BRANCH  11  13
HETATM   13  N   UNL     1     -12.050  12.801  65.724  1.00  0.00    -0.451 N  
HETATM   14  C   UNL     1     -12.540  14.181  65.669  1.00  0.00    -0.470 C  
HETATM   15  C   UNL     1     -12.147  14.837  64.341  1.00  0.00    -0.440 C  
HETATM   16  O   UNL     1     -12.599  14.054  63.222  1.00  0.00    -0.801 OA 
HETATM   17  C   UNL     1     -12.038  12.735  63.268  1.00  0.00    -0.439 C  
HETATM   18  C   UNL     1     -12.447  12.008  64.555  1.00  0.00    -0.172 C  
ENDBRANCH  11  13
ENDBRANCH   9  11
ENDBRANCH   8   9
ENDBRANCH   7   8
ENDBRANCH   5   7
ENDBRANCH   4   5
ENDBRANCH   2   4
BRANCH   2  19
HETATM   19  C   UNL     1     -11.983  10.277  70.559  1.00  0.00    -0.323 C  
BRANCH  19  20
HETATM   20  O   UNL     1     -11.610  11.551  70.017  1.00  0.00    -0.301 OA 
BRANCH  20  21
HETATM   21  C   UNL     1     -12.246  12.622  70.584  1.00  0.00    -0.285 A  
HETATM   22  C   UNL     1     -13.068  12.332  71.675  1.00  0.00    -0.408 A  
HETATM   23  H   UNL     1     -14.162  16.593  72.207  1.00  0.00     0.000 HD 
HETATM   24  O   UNL     1     -14.265  15.697  72.501  1.00  0.00    -0.557 OA 
HETATM   25  C   UNL     1     -13.759  13.353  72.333  1.00  0.00    -0.698 A  
HETATM   26  C   UNL     1     -13.608  14.667  71.901  1.00  0.00    -0.392 A  
HETATM   27  C   UNL     1     -12.086  13.948  70.175  1.00  0.00    -0.418 A  
HETATM   28  C   UNL     1     -12.770  14.971  70.834  1.00  0.00    -0.437 A  
ENDBRANCH  20  21
ENDBRANCH  19  20
ENDBRANCH   2  19
TORSDOF 10
ENDMDL
MODEL       14
REMARK 921   NORMALIZED FREE ENERGY PREDICTED BY IDOCK:   -6.00 KCAL/MOL
REMARK 922        TOTAL FREE ENERGY PREDICTED BY IDOCK:  -10.64 KCAL/MOL
REMARK 923 INTER-LIGAND FREE ENERGY PREDICTED BY IDOCK:   -9.42 KCAL/MOL
REMARK 924 INTRA-LIGAND FREE ENERGY PREDICTED BY IDOCK:   -1.21 KCAL/MOL
REMARK 927      BINDING AFFINITY PREDICTED BY RF-SCORE:    0.00 PKD
ROOT
HETATM    1  O   UNL     1     -13.741  15.597  70.759  1.00  0.00    -0.843 OA 
HETATM    2  C   UNL     1     -12.373  15.240  70.518  1.00  0.00    -0.387 C  
HETATM    3  H   UNL     1     -13.807  16.543  70.809  1.00  0.00     0.000 HD 
ENDROOT
BRANCH   2   4
HETATM    4  C   UNL     1     -12.268  13.707  70.438  1.00  0.00    -0.363 C  
BRANCH   4   5
HETATM    5  N   UNL     1     -11.071  13.301  69.682  1.00  0.00    -0.466 NA 
HETATM    6  H   UNL     1     -10.221  13.381  70.239  1.00  0.00     0.000 HD 
BRANCH   5   7
HETATM    7  C   UNL     1     -11.252  11.946  69.146  1.00  0.00    -0.255 C  
BRANCH   7   8
HETATM    8  C   UNL     1     -11.755  11.987  67.699  1.00  0.00    -0.294 C  
BRANCH   8   9
HETATM    9  N   UNL     1     -10.728  11.512  66.794  1.00  0.00    -0.257 N  
HETATM   10  H   UNL     1     -10.646  10.508  66.633  1.00  0.00     0.000 HD 
BRANCH   9  11
HETATM   11  C   UNL     1      -9.866  12.351  66.147  1.00  0.00    -0.252 C  
HETATM   12  O   UNL     1      -8.721  12.534  66.555  1.00  0.00    -0.150 OA 
BRANCH  11  13
HETATM   13  N   UNL     1     -10.364  12.962  65.016  1.00  0.00    -0.313 N  
HETATM   14  C   UNL     1     -10.844  12.133  63.908  1.00  0.00    -0.406 C  
HETATM   15  C   UNL     1     -12.336  12.382  63.658  1.00  0.00    -0.548 C  
HETATM   16  O   UNL     1     -12.598  13.780  63.444  1.00  0.00    -0.842 OA 
HETATM   17  C   UNL     1     -12.186  14.553  64.581  1.00  0.00    -0.460 C  
HETATM   18  C   UNL     1     -10.684  14.384  64.844  1.00  0.00    -0.426 C  
ENDBRANCH  11  13
ENDBRANCH   9  11
ENDBRANCH   8   9
ENDBRANCH   7   8
ENDBRANCH   5   7
ENDBRANCH   4   5
ENDBRANCH   2   4
BRANCH   2  19
HETATM   19  C   UNL     1     -11.887  15.864  69.203  1.00  0.00    -0.330 C  
BRANCH  19  20
HETATM   20  O   UNL     1     -10.684  16.607  69.442  1.00  0.00    -0.321 OA 
BRANCH  20  21
HETATM   21  C   UNL     1     -10.411  17.569  68.506  1.00  0.00    -0.380 A  
HETATM   22  C   UNL     1     -10.502  17.162  67.173  1.00  0.00    -0.291 A  
HETATM   23  H   UNL     1      -9.437  21.199  65.688  1.00  0.00     0.000 HD 
HETATM   24  O   UNL     1      -9.660  20.301  65.477  1.00  0.00    -0.126 OA 
HETATM   25  C   UNL     1     -10.251  18.066  66.138  1.00  0.00    -0.364 A  
HETATM   26  C   UNL     1      -9.923  19.382  66.447  1.00  0.00    -0.414 A  
HETATM   27  C   UNL     1     -10.103  18.899  68.802  1.00  0.00    -0.415 A  
HETATM   28  C   UNL     1      -9.858  19.806  67.770  1.00  0.00    -0.520 A  
ENDBRANCH  20  21
ENDBRANCH  19  20
ENDBRANCH   2  19
TORSDOF 10
ENDMDL
MODEL       15
REMARK 921   NORMALIZED FREE ENERGY PREDICTED BY IDOCK:   -5.99 KCAL/MOL
REMARK 922        TOTAL FREE ENERGY PREDICTED BY IDOCK:  -10.63 KCAL/MOL
REMARK 923 INTER-LIGAND FREE ENERGY PREDICTED BY IDOCK:   -9.70 KCAL/MOL
REMARK 924 INTRA-LIGAND FREE ENERGY PREDICTED BY IDOCK:   -0.93 KCAL/MOL
REMARK 927      BINDING AFFINITY PREDICTED BY RF-SCORE:    0.00 PKD
ROOT
HETATM    1  O   UNL     1     -11.997  10.785  67.944  1.00  0.00    -0.753 OA 
HETATM    2  C   UNL     1     -11.425  12.069  68.233  1.00  0.00    -0.303 C  
HETATM    3  H   UNL     1     -11.758  10.180  68.636  1.00  0.00     0.000 HD 
ENDROOT
BRANCH   2   4
HETATM    4  C   UNL     1     -11.812  13.048  67.111  1.00  0.00    -0.373 C  
BRANCH   4   5
HETATM    5  N   UNL     1     -10.628  13.450  66.333  1.00  0.00    -0.283 NA 
HETATM    6  H   UNL     1     -10.702  14.410  65.994  1.00  0.00     0.000 HD 
BRANCH   5   7
HETATM    7  C   UNL     1      -9.411  13.238  67.124  1.00  0.00    -0.240 C  
BRANCH   7   8
HETATM    8  C   UNL     1      -8.529  14.492  67.128  1.00  0.00    -0.212 C  
BRANCH   8   9
HETATM    9  N   UNL     1      -8.993  15.439  66.135  1.00  0.00    -0.422 N  
HETATM   10  H   UNL     1      -9.556  15.094  65.358  1.00  0.00     0.000 HD 
BRANCH   9  11
HETATM   11  C   UNL     1      -8.709  16.774  66.196  1.00  0.00    -0.264 C  
HETATM   12  O   UNL     1      -7.628  17.218  65.815  1.00  0.00    -0.440 OA 
BRANCH  11  13
HETATM   13  N   UNL     1      -9.711  17.574  66.702  1.00  0.00    -0.286 N  
HETATM   14  C   UNL     1      -9.903  17.648  68.152  1.00  0.00    -0.318 C  
HETATM   15  C   UNL     1      -9.683  19.081  68.651  1.00  0.00    -0.410 C  
HETATM   16  O   UNL     1     -10.522  20.010  67.943  1.00  0.00    -0.391 OA 
HETATM   17  C   UNL     1     -10.253  19.965  66.535  1.00  0.00    -0.491 C  
HETATM   18  C   UNL     1     -10.511  18.563  65.970  1.00  0.00    -0.400 C  
ENDBRANCH  11  13
ENDBRANCH   9  11
ENDBRANCH   8   9
ENDBRANCH   7   8
ENDBRANCH   5   7
ENDBRANCH   4   5
ENDBRANCH   2   4
BRANCH   2  19
HETATM   19  C   UNL     1     -11.946  12.589  69.579  1.00  0.00    -0.266 C  
BRANCH  19  20
HETATM   20  O   UNL     1     -12.288  13.977  69.456  1.00  0.00    -0.332 OA 
BRANCH  20  21
HETATM   21  C   UNL     1     -12.443  14.635  70.647  1.00  0.00    -0.344 A  
HETATM   22  C   UNL     1     -13.545  14.252  71.414  1.00  0.00    -0.395 A  
HETATM   23  H   UNL     1     -12.524  17.125  74.630  1.00  0.00     0.000 HD 
HETATM   24  O   UNL     1     -13.120  16.458  74.310  1.00  0.00    -0.616 OA 
HETATM   25  C   UNL     1     -13.792  14.856  72.649  1.00  0.00    -0.516 A  
HETATM   26  C   UNL     1     -12.919  15.833  73.118  1.00  0.00    -0.544 A  
HETATM   27  C   UNL     1     -11.562  15.601  71.139  1.00  0.00    -0.462 A  
HETATM   28  C   UNL     1     -11.803  16.202  72.376  1.00  0.00    -0.637 A  
ENDBRANCH  20  21
ENDBRANCH  19  20
ENDBRANCH   2  19
TORSDOF 10
ENDMDL
MODEL       16
REMARK 921   NORMALIZED FREE ENERGY PREDICTED BY IDOCK:   -5.97 KCAL/MOL
REMARK 922        TOTAL FREE ENERGY PREDICTED BY IDOCK:  -10.60 KCAL/MOL
REMARK 923 INTER-LIGAND FREE ENERGY PREDICTED BY IDOCK:   -9.25 KCAL/MOL
REMARK 924 INTRA-LIGAND FREE ENERGY PREDICTED BY IDOCK:   -1.35 KCAL/MOL
REMARK 927      BINDING AFFINITY PREDICTED BY RF-SCORE:    0.00 PKD
ROOT
HETATM    1  O   UNL     1     -11.721   7.502  70.130  1.00  0.00    -0.489 OA 
HETATM    2  C   UNL     1     -10.679   8.425  70.476  1.00  0.00    -0.227 C  
HETATM    3  H   UNL     1     -12.079   7.132  70.929  1.00  0.00     0.000 HD 
ENDROOT
BRANCH   2   4
HETATM    4  C   UNL     1     -10.099   9.023  69.183  1.00  0.00    -0.195 C  
BRANCH   4   5
HETATM    5  N   UNL     1     -11.041   8.869  68.062  1.00  0.00    -0.468 NA 
HETATM    6  H   UNL     1     -11.474   9.756  67.802  1.00  0.00     0.000 HD 
BRANCH   5   7
HETATM    7  C   UNL     1     -10.368   8.231  66.924  1.00  0.00    -0.320 C  
BRANCH   7   8
HETATM    8  C   UNL     1      -9.447   9.220  66.201  1.00  0.00    -0.236 C  
BRANCH   8   9
HETATM    9  N   UNL     1     -10.228  10.240  65.530  1.00  0.00    -0.270 N  
HETATM   10  H   UNL     1     -10.786   9.972  64.720  1.00  0.00     0.000 HD 
BRANCH   9  11
HETATM   11  C   UNL     1     -10.250  11.543  65.937  1.00  0.00    -0.244 C  
HETATM   12  O   UNL     1     -10.020  11.855  67.105  1.00  0.00    -0.193 OA 
BRANCH  11  13
HETATM   13  N   UNL     1     -10.536  12.470  64.957  1.00  0.00    -0.290 N  
HETATM   14  C   UNL     1     -10.985  12.004  63.643  1.00  0.00    -0.448 C  
HETATM   15  C   UNL     1     -12.395  12.523  63.343  1.00  0.00    -0.477 C  
HETATM   16  O   UNL     1     -12.457  13.955  63.463  1.00  0.00    -0.810 OA 
HETATM   17  C   UNL     1     -12.085  14.369  64.786  1.00  0.00    -0.452 C  
HETATM   18  C   UNL     1     -10.656  13.923  65.119  1.00  0.00    -0.379 C  
ENDBRANCH  11  13
ENDBRANCH   9  11
ENDBRANCH   8   9
ENDBRANCH   7   8
ENDBRANCH   5   7
ENDBRANCH   4   5
ENDBRANCH   2   4
BRANCH   2  19
HETATM   19  C   UNL     1     -11.236   9.546  71.363  1.00  0.00    -0.382 C  
BRANCH  19  20
HETATM   20  O   UNL     1     -12.413  10.098  70.756  1.00  0.00    -0.309 OA 
BRANCH  20  21
HETATM   21  C   UNL     1     -12.601  11.434  70.984  1.00  0.00    -0.386 A  
HETATM   22  C   UNL     1     -12.032  12.296  70.044  1.00  0.00    -0.379 A  
HETATM   23  H   UNL     1     -13.545  15.883  72.162  1.00  0.00     0.000 HD 
HETATM   24  O   UNL     1     -13.051  15.533  71.430  1.00  0.00    -0.453 OA 
HETATM   25  C   UNL     1     -12.170  13.680  70.177  1.00  0.00    -0.413 A  
HETATM   26  C   UNL     1     -12.894  14.193  71.249  1.00  0.00    -0.359 A  
HETATM   27  C   UNL     1     -13.344  11.962  72.042  1.00  0.00    -0.425 A  
HETATM   28  C   UNL     1     -13.489  13.344  72.175  1.00  0.00    -0.646 A  
ENDBRANCH  20  21
ENDBRANCH  19  20
ENDBRANCH   2  19
TORSDOF 10
ENDMDL
MODEL       17
REMARK 921   NORMALIZED FREE ENERGY PREDICTED BY IDOCK:   -5.92 KCAL/MOL
REMARK 922        TOTAL FREE ENERGY PREDICTED BY IDOCK:  -10.52 KCAL/MOL
REMARK 923 INTER-LIGAND FREE ENERGY PREDICTED BY IDOCK:   -9.56 KCAL/MOL
REMARK 924 INTRA-LIGAND FREE ENERGY PREDICTED BY IDOCK:   -0.96 KCAL/MOL
REMARK 927      BINDING AFFINITY PREDICTED BY RF-SCORE:    0.00 PKD
ROOT
HETATM    1  O   UNL     1     -12.372  15.741  63.539  1.00  0.00    -0.878 OA 
HETATM    2  C   UNL     1     -11.993  14.749  64.503  1.00  0.00    -0.440 C  
HETATM    3  H   UNL     1     -12.594  16.544  63.996  1.00  0.00     0.000 HD 
ENDROOT
BRANCH   2   4
HETATM    4  C   UNL     1     -11.633  13.450  63.761  1.00  0.00    -0.313 C  
BRANCH   4   5
HETATM    5  N   UNL     1     -10.236  13.065  64.021  1.00  0.00    -0.659 NA 
HETATM    6  H   UNL     1      -9.931  13.341  64.955  1.00  0.00     0.000 HD 
BRANCH   5   7
HETATM    7  C   UNL     1     -10.060  11.627  63.787  1.00  0.00    -0.381 C  
BRANCH   7   8
HETATM    8  C   UNL     1     -10.143  10.839  65.099  1.00  0.00    -0.299 C  
BRANCH   8   9
HETATM    9  N   UNL     1     -10.089  11.739  66.233  1.00  0.00    -0.211 N  
HETATM   10  H   UNL     1      -9.255  12.313  66.360  1.00  0.00     0.000 HD 
BRANCH   9  11
HETATM   11  C   UNL     1     -11.105  11.852  67.138  1.00  0.00    -0.293 C  
HETATM   12  O   UNL     1     -12.242  12.167  66.792  1.00  0.00    -0.553 OA 
BRANCH  11  13
HETATM   13  N   UNL     1     -10.770  11.582  68.449  1.00  0.00    -0.197 N  
HETATM   14  C   UNL     1     -11.605  12.122  69.525  1.00  0.00    -0.315 C  
HETATM   15  C   UNL     1     -12.220  10.984  70.348  1.00  0.00    -0.373 C  
HETATM   16  O   UNL     1     -11.204  10.094  70.842  1.00  0.00    -0.337 OA 
HETATM   17  C   UNL     1     -10.457   9.526  69.756  1.00  0.00    -0.231 C  
HETATM   18  C   UNL     1      -9.772  10.620  68.929  1.00  0.00    -0.202 C  
ENDBRANCH  11  13
ENDBRANCH   9  11
ENDBRANCH   8   9
ENDBRANCH   7   8
ENDBRANCH   5   7
ENDBRANCH   4   5
ENDBRANCH   2   4
BRANCH   2  19
HETATM   19  C   UNL     1     -10.786  15.234  65.317  1.00  0.00    -0.415 C  
BRANCH  19  20
HETATM   20  O   UNL     1     -10.495  16.597  64.977  1.00  0.00    -0.664 OA 
BRANCH  20  21
HETATM   21  C   UNL     1     -10.406  17.447  66.047  1.00  0.00    -0.304 A  
HETATM   22  C   UNL     1     -10.141  16.845  67.279  1.00  0.00    -0.286 A  
HETATM   23  H   UNL     1     -10.148  20.746  69.381  1.00  0.00     0.000 HD 
HETATM   24  O   UNL     1     -10.058  19.802  69.443  1.00  0.00    -0.387 OA 
HETATM   25  C   UNL     1     -10.023  17.620  68.435  1.00  0.00    -0.356 A  
HETATM   26  C   UNL     1     -10.155  19.002  68.345  1.00  0.00    -0.403 A  
HETATM   27  C   UNL     1     -10.514  18.837  65.968  1.00  0.00    -0.483 A  
HETATM   28  C   UNL     1     -10.390  19.615  67.120  1.00  0.00    -0.581 A  
ENDBRANCH  20  21
ENDBRANCH  19  20
ENDBRANCH   2  19
TORSDOF 10
ENDMDL
MODEL       18
REMARK 921   NORMALIZED FREE ENERGY PREDICTED BY IDOCK:   -5.82 KCAL/MOL
REMARK 922        TOTAL FREE ENERGY PREDICTED BY IDOCK:  -10.36 KCAL/MOL
REMARK 923 INTER-LIGAND FREE ENERGY PREDICTED BY IDOCK:   -9.29 KCAL/MOL
REMARK 924 INTRA-LIGAND FREE ENERGY PREDICTED BY IDOCK:   -1.07 KCAL/MOL
REMARK 927      BINDING AFFINITY PREDICTED BY RF-SCORE:    0.00 PKD
ROOT
HETATM    1  O   UNL     1     -12.649  10.444  69.294  1.00  0.00    -0.686 OA 
HETATM    2  C   UNL     1     -11.320  10.860  68.953  1.00  0.00    -0.288 C  
HETATM    3  H   UNL     1     -12.732  10.431  70.240  1.00  0.00     0.000 HD 
ENDROOT
BRANCH   2   4
HETATM    4  C   UNL     1     -11.185  10.881  67.420  1.00  0.00    -0.273 C  
BRANCH   4   5
HETATM    5  N   UNL     1      -9.789  10.656  67.011  1.00  0.00    -0.180 NA 
HETATM    6  H   UNL     1      -9.577   9.663  66.903  1.00  0.00     0.000 HD 
BRANCH   5   7
HETATM    7  C   UNL     1      -9.494  11.417  65.792  1.00  0.00    -0.233 C  
BRANCH   7   8
HETATM    8  C   UNL     1     -10.441  11.023  64.652  1.00  0.00    -0.329 C  
BRANCH   8   9
HETATM    9  N   UNL     1     -10.912  12.204  63.957  1.00  0.00    -0.343 N  
HETATM   10  H   UNL     1     -10.277  12.678  63.315  1.00  0.00     0.000 HD 
BRANCH   9  11
HETATM   11  C   UNL     1     -12.170  12.708  64.123  1.00  0.00    -0.450 C  
HETATM   12  O   UNL     1     -13.161  12.116  63.697  1.00  0.00    -0.787 OA 
BRANCH  11  13
HETATM   13  N   UNL     1     -12.248  13.907  64.800  1.00  0.00    -0.407 N  
HETATM   14  C   UNL     1     -12.247  13.901  66.265  1.00  0.00    -0.461 C  
HETATM   15  C   UNL     1     -11.028  14.659  66.804  1.00  0.00    -0.323 C  
HETATM   16  O   UNL     1     -10.968  15.992  66.264  1.00  0.00    -0.218 OA 
HETATM   17  C   UNL     1     -10.892  15.955  64.832  1.00  0.00    -0.400 C  
HETATM   18  C   UNL     1     -12.119  15.254  64.235  1.00  0.00    -0.208 C  
ENDBRANCH  11  13
ENDBRANCH   9  11
ENDBRANCH   8   9
ENDBRANCH   7   8
ENDBRANCH   5   7
ENDBRANCH   4   5
ENDBRANCH   2   4
BRANCH   2  19
HETATM   19  C   UNL     1     -11.040  12.258  69.518  1.00  0.00    -0.033 C  
BRANCH  19  20
HETATM   20  O   UNL     1     -12.272  12.985  69.631  1.00  0.00    -0.255 OA 
BRANCH  20  21
HETATM   21  C   UNL     1     -12.351  13.809  70.721  1.00  0.00    -0.379 A  
HETATM   22  C   UNL     1     -13.223  13.396  71.731  1.00  0.00    -0.495 A  
HETATM   23  H   UNL     1     -12.251  16.914  74.245  1.00  0.00     0.000 HD 
HETATM   24  O   UNL     1     -12.755  16.115  74.145  1.00  0.00    -0.647 OA 
HETATM   25  C   UNL     1     -13.375  14.160  72.891  1.00  0.00    -0.532 A  
HETATM   26  C   UNL     1     -12.637  15.330  73.038  1.00  0.00    -0.430 A  
HETATM   27  C   UNL     1     -11.600  14.974  70.892  1.00  0.00    -0.364 A  
HETATM   28  C   UNL     1     -11.745  15.736  72.052  1.00  0.00    -0.572 A  
ENDBRANCH  20  21
ENDBRANCH  19  20
ENDBRANCH   2  19
TORSDOF 10
ENDMDL
MODEL       19
REMARK 921   NORMALIZED FREE ENERGY PREDICTED BY IDOCK:   -5.79 KCAL/MOL
REMARK 922        TOTAL FREE ENERGY PREDICTED BY IDOCK:  -10.32 KCAL/MOL
REMARK 923 INTER-LIGAND FREE ENERGY PREDICTED BY IDOCK:   -8.62 KCAL/MOL
REMARK 924 INTRA-LIGAND FREE ENERGY PREDICTED BY IDOCK:   -1.69 KCAL/MOL
REMARK 927      BINDING AFFINITY PREDICTED BY RF-SCORE:    0.00 PKD
ROOT
HETATM    1  O   UNL     1      -9.520  15.727  69.248  1.00  0.00    -0.238 OA 
HETATM    2  C   UNL     1     -10.723  16.500  69.134  1.00  0.00    -0.335 C  
HETATM    3  H   UNL     1      -9.565  15.206  70.041  1.00  0.00     0.000 HD 
ENDROOT
BRANCH   2   4
HETATM    4  C   UNL     1     -10.649  17.345  67.851  1.00  0.00    -0.383 C  
BRANCH   4   5
HETATM    5  N   UNL     1      -9.292  17.319  67.280  1.00  0.00    -0.234 NA 
HETATM    6  H   UNL     1      -8.686  16.657  67.766  1.00  0.00     0.000 HD 
BRANCH   5   7
HETATM    7  C   UNL     1      -9.358  17.049  65.839  1.00  0.00    -0.060 C  
BRANCH   7   8
HETATM    8  C   UNL     1     -10.055  15.713  65.559  1.00  0.00    -0.362 C  
BRANCH   8   9
HETATM    9  N   UNL     1      -9.222  14.608  65.990  1.00  0.00    -0.513 N  
HETATM   10  H   UNL     1      -8.219  14.655  65.810  1.00  0.00     0.000 HD 
BRANCH   9  11
HETATM   11  C   UNL     1      -9.722  13.508  66.626  1.00  0.00    -0.280 C  
HETATM   12  O   UNL     1      -9.408  13.237  67.783  1.00  0.00    -0.193 OA 
BRANCH  11  13
HETATM   13  N   UNL     1     -10.597  12.739  65.888  1.00  0.00    -0.270 N  
HETATM   14  C   UNL     1     -12.005  12.675  66.290  1.00  0.00    -0.374 C  
HETATM   15  C   UNL     1     -12.905  13.231  65.181  1.00  0.00    -0.310 C  
HETATM   16  O   UNL     1     -12.665  12.558  63.933  1.00  0.00    -0.679 OA 
HETATM   17  C   UNL     1     -11.295  12.708  63.533  1.00  0.00    -0.463 C  
HETATM   18  C   UNL     1     -10.348  12.116  64.584  1.00  0.00    -0.297 C  
ENDBRANCH  11  13
ENDBRANCH   9  11
ENDBRANCH   8   9
ENDBRANCH   7   8
ENDBRANCH   5   7
ENDBRANCH   4   5
ENDBRANCH   2   4
BRANCH   2  19
HETATM   19  C   UNL     1     -11.945  15.574  69.077  1.00  0.00    -0.301 C  
BRANCH  19  20
HETATM   20  O   UNL     1     -12.554  15.505  70.374  1.00  0.00    -0.419 OA 
BRANCH  20  21
HETATM   21  C   UNL     1     -12.733  14.235  70.855  1.00  0.00    -0.357 A  
HETATM   22  C   UNL     1     -12.099  13.220  70.137  1.00  0.00    -0.403 A  
HETATM   23  H   UNL     1     -13.597  10.095  72.899  1.00  0.00     0.000 HD 
HETATM   24  O   UNL     1     -13.094  10.302  72.121  1.00  0.00    -0.438 OA 
HETATM   25  C   UNL     1     -12.210  11.888  70.545  1.00  0.00    -0.426 A  
HETATM   26  C   UNL     1     -12.947  11.584  71.685  1.00  0.00    -0.394 A  
HETATM   27  C   UNL     1     -13.451  13.919  72.010  1.00  0.00    -0.543 A  
HETATM   28  C   UNL     1     -13.558  12.590  72.424  1.00  0.00    -0.353 A  
ENDBRANCH  20  21
ENDBRANCH  19  20
ENDBRANCH   2  19
TORSDOF 10
ENDMDL
MODEL       20
REMARK 921   NORMALIZED FREE ENERGY PREDICTED BY IDOCK:   -5.78 KCAL/MOL
REMARK 922        TOTAL FREE ENERGY PREDICTED BY IDOCK:  -10.29 KCAL/MOL
REMARK 923 INTER-LIGAND FREE ENERGY PREDICTED BY IDOCK:   -9.09 KCAL/MOL
REMARK 924 INTRA-LIGAND FREE ENERGY PREDICTED BY IDOCK:   -1.20 KCAL/MOL
REMARK 927      BINDING AFFINITY PREDICTED BY RF-SCORE:    0.00 PKD
ROOT
HETATM    1  O   UNL     1     -10.091  15.088  69.982  1.00  0.00    -0.471 OA 
HETATM    2  C   UNL     1     -11.307  15.329  69.261  1.00  0.00    -0.298 C  
HETATM    3  H   UNL     1     -10.308  14.801  70.861  1.00  0.00     0.000 HD 
ENDROOT
BRANCH   2   4
HETATM    4  C   UNL     1     -10.955  15.794  67.837  1.00  0.00    -0.324 C  
BRANCH   4   5
HETATM    5  N   UNL     1      -9.914  14.937  67.245  1.00  0.00    -0.229 NA 
HETATM    6  H   UNL     1     -10.188  13.954  67.236  1.00  0.00     0.000 HD 
BRANCH   5   7
HETATM    7  C   UNL     1      -9.565  15.424  65.906  1.00  0.00    -0.351 C  
BRANCH   7   8
HETATM    8  C   UNL     1     -10.814  15.865  65.135  1.00  0.00    -0.421 C  
BRANCH   8   9
HETATM    9  N   UNL     1     -11.344  14.762  64.358  1.00  0.00    -0.638 N  
HETATM   10  H   UNL     1     -11.029  14.649  63.395  1.00  0.00     0.000 HD 
BRANCH   9  11
HETATM   11  C   UNL     1     -12.246  13.869  64.861  1.00  0.00    -0.422 C  
HETATM   12  O   UNL     1     -13.352  14.229  65.260  1.00  0.00    -0.660 OA 
BRANCH  11  13
HETATM   13  N   UNL     1     -11.834  12.553  64.883  1.00  0.00    -0.366 N  
HETATM   14  C   UNL     1     -11.752  11.810  63.624  1.00  0.00    -0.415 C  
HETATM   15  C   UNL     1     -10.310  11.360  63.358  1.00  0.00    -0.402 C  
HETATM   16  O   UNL     1      -9.790  10.609  64.469  1.00  0.00    -0.272 OA 
HETATM   17  C   UNL     1      -9.814  11.395  65.669  1.00  0.00    -0.235 C  
HETATM   18  C   UNL     1     -11.245  11.827  66.013  1.00  0.00    -0.296 C  
ENDBRANCH  11  13
ENDBRANCH   9  11
ENDBRANCH   8   9
ENDBRANCH   7   8
ENDBRANCH   5   7
ENDBRANCH   4   5
ENDBRANCH   2   4
BRANCH   2  19
HETATM   19  C   UNL     1     -12.147  14.046  69.196  1.00  0.00    -0.337 C  
BRANCH  19  20
HETATM   20  O   UNL     1     -12.402  13.573  70.525  1.00  0.00    -0.339 OA 
BRANCH  20  21
HETATM   21  C   UNL     1     -12.350  12.212  70.667  1.00  0.00    -0.295 A  
HETATM   22  C   UNL     1     -13.122  11.680  71.702  1.00  0.00    -0.456 A  
HETATM   23  H   UNL     1     -11.883   7.538  70.727  1.00  0.00     0.000 HD 
HETATM   24  O   UNL     1     -12.388   8.112  71.290  1.00  0.00    -0.303 OA 
HETATM   25  C   UNL     1     -13.146  10.301  71.930  1.00  0.00    -0.568 A  
HETATM   26  C   UNL     1     -12.406   9.460  71.105  1.00  0.00    -0.308 A  
HETATM   27  C   UNL     1     -11.629  11.354  69.833  1.00  0.00    -0.402 A  
HETATM   28  C   UNL     1     -11.657   9.976  70.054  1.00  0.00    -0.279 A  
ENDBRANCH  20  21
ENDBRANCH  19  20
ENDBRANCH   2  19
TORSDOF 10
ENDMDL
MODEL       21
REMARK 921   NORMALIZED FREE ENERGY PREDICTED BY IDOCK:   -5.77 KCAL/MOL
REMARK 922        TOTAL FREE ENERGY PREDICTED BY IDOCK:  -10.29 KCAL/MOL
REMARK 923 INTER-LIGAND FREE ENERGY PREDICTED BY IDOCK:   -8.66 KCAL/MOL
REMARK 924 INTRA-LIGAND FREE ENERGY PREDICTED BY IDOCK:   -1.62 KCAL/MOL
REMARK 927      BINDING AFFINITY PREDICTED BY RF-SCORE:    0.00 PKD
ROOT
HETATM    1  O   UNL     1     -12.489  13.915  62.993  1.00  0.00    -1.099 OA 
HETATM    2  C   UNL     1     -12.260  12.680  63.684  1.00  0.00    -0.536 C  
HETATM    3  H   UNL     1     -13.379  14.202  63.165  1.00  0.00     0.000 HD 
ENDROOT
BRANCH   2   4
HETATM    4  C   UNL     1     -10.820  12.216  63.405  1.00  0.00    -0.414 C  
BRANCH   4   5
HETATM    5  N   UNL     1     -10.602  10.846  63.901  1.00  0.00    -0.510 NA 
HETATM    6  H   UNL     1     -10.987  10.145  63.268  1.00  0.00     0.000 HD 
BRANCH   5   7
HETATM    7  C   UNL     1      -9.175  10.628  64.162  1.00  0.00    -0.236 C  
BRANCH   7   8
HETATM    8  C   UNL     1      -8.926  10.309  65.641  1.00  0.00    -0.172 C  
BRANCH   8   9
HETATM    9  N   UNL     1     -10.151  10.452  66.401  1.00  0.00    -0.220 N  
HETATM   10  H   UNL     1     -10.796  11.202  66.151  1.00  0.00     0.000 HD 
BRANCH   9  11
HETATM   11  C   UNL     1     -10.478   9.627  67.439  1.00  0.00    -0.257 C  
HETATM   12  O   UNL     1     -10.691   8.429  67.264  1.00  0.00    -0.285 OA 
BRANCH  11  13
HETATM   13  N   UNL     1     -10.544  10.225  68.679  1.00  0.00    -0.196 N  
HETATM   14  C   UNL     1     -11.620  11.180  68.956  1.00  0.00    -0.324 C  
HETATM   15  C   UNL     1     -12.504  10.676  70.102  1.00  0.00    -0.270 C  
HETATM   16  O   UNL     1     -11.719  10.387  71.272  1.00  0.00    -0.338 OA 
HETATM   17  C   UNL     1     -10.726   9.392  70.984  1.00  0.00    -0.337 C  
HETATM   18  C   UNL     1      -9.777   9.869  69.878  1.00  0.00    -0.235 C  
ENDBRANCH  11  13
ENDBRANCH   9  11
ENDBRANCH   8   9
ENDBRANCH   7   8
ENDBRANCH   5   7
ENDBRANCH   4   5
ENDBRANCH   2   4
BRANCH   2  19
HETATM   19  C   UNL     1     -12.461  12.871  65.193  1.00  0.00    -0.501 C  
BRANCH  19  20
HETATM   20  O   UNL     1     -11.188  13.069  65.825  1.00  0.00    -0.283 OA 
BRANCH  20  21
HETATM   21  C   UNL     1     -11.034  14.288  66.430  1.00  0.00    -0.311 A  
HETATM   22  C   UNL     1     -10.363  15.257  65.682  1.00  0.00    -0.389 A  
HETATM   23  H   UNL     1     -10.793  18.282  68.892  1.00  0.00     0.000 HD 
HETATM   24  O   UNL     1     -10.462  18.073  68.027  1.00  0.00    -0.372 OA 
HETATM   25  C   UNL     1     -10.158  16.537  66.202  1.00  0.00    -0.365 A  
HETATM   26  C   UNL     1     -10.643  16.843  67.470  1.00  0.00    -0.307 A  
HETATM   27  C   UNL     1     -11.535  14.615  67.692  1.00  0.00    -0.364 A  
HETATM   28  C   UNL     1     -11.338  15.896  68.212  1.00  0.00    -0.342 A  
ENDBRANCH  20  21
ENDBRANCH  19  20
ENDBRANCH   2  19
TORSDOF 10
ENDMDL
MODEL       22
REMARK 921   NORMALIZED FREE ENERGY PREDICTED BY IDOCK:   -5.77 KCAL/MOL
REMARK 922        TOTAL FREE ENERGY PREDICTED BY IDOCK:  -10.29 KCAL/MOL
REMARK 923 INTER-LIGAND FREE ENERGY PREDICTED BY IDOCK:   -9.56 KCAL/MOL
REMARK 924 INTRA-LIGAND FREE ENERGY PREDICTED BY IDOCK:   -0.73 KCAL/MOL
REMARK 927      BINDING AFFINITY PREDICTED BY RF-SCORE:    0.00 PKD
ROOT
HETATM    1  O   UNL     1     -12.470  14.333  63.248  1.00  0.00    -1.133 OA 
HETATM    2  C   UNL     1     -12.407  15.092  64.463  1.00  0.00    -0.262 C  
HETATM    3  H   UNL     1     -12.189  14.884  62.527  1.00  0.00     0.000 HD 
ENDROOT
BRANCH   2   4
HETATM    4  C   UNL     1     -12.863  14.199  65.629  1.00  0.00    -0.371 C  
BRANCH   4   5
HETATM    5  N   UNL     1     -12.730  12.774  65.285  1.00  0.00    -0.691 NA 
HETATM    6  H   UNL     1     -12.668  12.628  64.277  1.00  0.00     0.000 HD 
BRANCH   5   7
HETATM    7  C   UNL     1     -11.586  12.190  65.996  1.00  0.00    -0.358 C  
BRANCH   7   8
HETATM    8  C   UNL     1     -11.749  12.332  67.514  1.00  0.00    -0.332 C  
BRANCH   8   9
HETATM    9  N   UNL     1     -11.738  11.029  68.147  1.00  0.00    -0.299 N  
HETATM   10  H   UNL     1     -12.558  10.431  68.046  1.00  0.00     0.000 HD 
BRANCH   9  11
HETATM   11  C   UNL     1     -10.677  10.568  68.873  1.00  0.00    -0.220 C  
HETATM   12  O   UNL     1      -9.536  10.567  68.414  1.00  0.00    -0.150 OA 
BRANCH  11  13
HETATM   13  N   UNL     1     -10.973  10.116  70.141  1.00  0.00    -0.295 N  
HETATM   14  C   UNL     1     -11.983  10.821  70.933  1.00  0.00    -0.333 C  
HETATM   15  C   UNL     1     -13.158   9.891  71.257  1.00  0.00    -0.400 C  
HETATM   16  O   UNL     1     -12.703   8.688  71.902  1.00  0.00    -0.325 OA 
HETATM   17  C   UNL     1     -11.775   7.984  71.065  1.00  0.00    -0.277 C  
HETATM   18  C   UNL     1     -10.549   8.852  70.754  1.00  0.00    -0.226 C  
ENDBRANCH  11  13
ENDBRANCH   9  11
ENDBRANCH   8   9
ENDBRANCH   7   8
ENDBRANCH   5   7
ENDBRANCH   4   5
ENDBRANCH   2   4
BRANCH   2  19
HETATM   19  C   UNL     1     -10.972  15.577  64.710  1.00  0.00    -0.399 C  
BRANCH  19  20
HETATM   20  O   UNL     1     -10.929  17.009  64.627  1.00  0.00    -0.968 OA 
BRANCH  20  21
HETATM   21  C   UNL     1     -10.627  17.641  65.803  1.00  0.00    -0.177 A  
HETATM   22  C   UNL     1     -10.696  19.035  65.778  1.00  0.00    -0.350 A  
HETATM   23  H   UNL     1      -9.556  19.341  70.050  1.00  0.00     0.000 HD 
HETATM   24  O   UNL     1      -9.785  19.793  69.247  1.00  0.00    -0.348 OA 
HETATM   25  C   UNL     1     -10.414  19.779  66.927  1.00  0.00    -0.596 A  
HETATM   26  C   UNL     1     -10.078  19.116  68.103  1.00  0.00    -0.402 A  
HETATM   27  C   UNL     1     -10.310  16.987  66.996  1.00  0.00    -0.304 A  
HETATM   28  C   UNL     1     -10.034  17.727  68.147  1.00  0.00    -0.342 A  
ENDBRANCH  20  21
ENDBRANCH  19  20
ENDBRANCH   2  19
TORSDOF 10
ENDMDL
MODEL       23
REMARK 921   NORMALIZED FREE ENERGY PREDICTED BY IDOCK:   -5.77 KCAL/MOL
REMARK 922        TOTAL FREE ENERGY PREDICTED BY IDOCK:  -10.28 KCAL/MOL
REMARK 923 INTER-LIGAND FREE ENERGY PREDICTED BY IDOCK:   -9.52 KCAL/MOL
REMARK 924 INTRA-LIGAND FREE ENERGY PREDICTED BY IDOCK:   -0.76 KCAL/MOL
REMARK 927      BINDING AFFINITY PREDICTED BY RF-SCORE:    0.00 PKD
ROOT
HETATM    1  O   UNL     1     -13.718  15.671  73.098  1.00  0.00    -0.601 OA 
HETATM    2  C   UNL     1     -13.712  14.942  71.863  1.00  0.00    -0.429 C  
HETATM    3  H   UNL     1     -14.439  15.362  73.633  1.00  0.00     0.000 HD 
ENDROOT
BRANCH   2   4
HETATM    4  C   UNL     1     -12.544  15.444  70.997  1.00  0.00    -0.431 C  
BRANCH   4   5
HETATM    5  N   UNL     1     -12.779  15.149  69.573  1.00  0.00    -0.557 NA 
HETATM    6  H   UNL     1     -13.627  15.598  69.225  1.00  0.00     0.000 HD 
BRANCH   5   7
HETATM    7  C   UNL     1     -11.599  15.516  68.783  1.00  0.00    -0.378 C  
BRANCH   7   8
HETATM    8  C   UNL     1     -11.721  15.012  67.340  1.00  0.00    -0.239 C  
BRANCH   8   9
HETATM    9  N   UNL     1     -10.578  15.436  66.558  1.00  0.00    -0.301 N  
HETATM   10  H   UNL     1      -9.790  14.796  66.459  1.00  0.00     0.000 HD 
BRANCH   9  11
HETATM   11  C   UNL     1     -10.510  16.656  65.948  1.00  0.00    -0.313 C  
HETATM   12  O   UNL     1     -10.834  16.805  64.771  1.00  0.00    -0.745 OA 
BRANCH  11  13
HETATM   13  N   UNL     1     -10.066  17.695  66.739  1.00  0.00    -0.320 N  
HETATM   14  C   UNL     1      -8.678  17.693  67.207  1.00  0.00    -0.235 C  
HETATM   15  C   UNL     1      -7.928  18.917  66.668  1.00  0.00    -0.270 C  
HETATM   16  O   UNL     1      -8.615  20.135  67.007  1.00  0.00    -0.319 OA 
HETATM   17  C   UNL     1      -9.944  20.134  66.466  1.00  0.00    -0.457 C  
HETATM   18  C   UNL     1     -10.760  18.957  67.017  1.00  0.00    -0.402 C  
ENDBRANCH  11  13
ENDBRANCH   9  11
ENDBRANCH   8   9
ENDBRANCH   7   8
ENDBRANCH   5   7
ENDBRANCH   4   5
ENDBRANCH   2   4
BRANCH   2  19
HETATM   19  C   UNL     1     -13.550  13.441  72.134  1.00  0.00    -0.567 C  
BRANCH  19  20
HETATM   20  O   UNL     1     -12.704  12.861  71.131  1.00  0.00    -0.360 OA 
BRANCH  20  21
HETATM   21  C   UNL     1     -12.588  11.499  71.198  1.00  0.00    -0.359 A  
HETATM   22  C   UNL     1     -11.574  10.937  70.421  1.00  0.00    -0.418 A  
HETATM   23  H   UNL     1     -12.556   6.838  71.792  1.00  0.00     0.000 HD 
HETATM   24  O   UNL     1     -12.009   7.392  71.248  1.00  0.00    -0.290 OA 
HETATM   25  C   UNL     1     -11.364   9.555  70.421  1.00  0.00    -0.318 A  
HETATM   26  C   UNL     1     -12.166   8.744  71.218  1.00  0.00    -0.287 A  
HETATM   27  C   UNL     1     -13.371  10.675  72.011  1.00  0.00    -0.409 A  
HETATM   28  C   UNL     1     -13.159   9.295  72.019  1.00  0.00    -0.512 A  
ENDBRANCH  20  21
ENDBRANCH  19  20
ENDBRANCH   2  19
TORSDOF 10
ENDMDL
MODEL       24
REMARK 921   NORMALIZED FREE ENERGY PREDICTED BY IDOCK:   -5.77 KCAL/MOL
REMARK 922        TOTAL FREE ENERGY PREDICTED BY IDOCK:  -10.27 KCAL/MOL
REMARK 923 INTER-LIGAND FREE ENERGY PREDICTED BY IDOCK:   -9.23 KCAL/MOL
REMARK 924 INTRA-LIGAND FREE ENERGY PREDICTED BY IDOCK:   -1.05 KCAL/MOL
REMARK 927      BINDING AFFINITY PREDICTED BY RF-SCORE:    0.00 PKD
ROOT
HETATM    1  O   UNL     1     -10.657  10.872  62.845  1.00  0.00    -0.781 OA 
HETATM    2  C   UNL     1     -10.722  12.151  63.490  1.00  0.00    -0.457 C  
HETATM    3  H   UNL     1      -9.748  10.601  62.793  1.00  0.00     0.000 HD 
ENDROOT
BRANCH   2   4
HETATM    4  C   UNL     1     -12.193  12.591  63.573  1.00  0.00    -0.558 C  
BRANCH   4   5
HETATM    5  N   UNL     1     -12.327  14.036  63.322  1.00  0.00    -1.145 NA 
HETATM    6  H   UNL     1     -13.129  14.248  62.729  1.00  0.00     0.000 HD 
BRANCH   5   7
HETATM    7  C   UNL     1     -12.375  14.764  64.595  1.00  0.00    -0.333 C  
BRANCH   7   8
HETATM    8  C   UNL     1     -11.382  15.932  64.602  1.00  0.00    -0.322 C  
BRANCH   8   9
HETATM    9  N   UNL     1     -10.416  15.768  65.669  1.00  0.00    -0.360 N  
HETATM   10  H   UNL     1      -9.542  15.284  65.466  1.00  0.00     0.000 HD 
BRANCH   9  11
HETATM   11  C   UNL     1     -10.627  16.234  66.935  1.00  0.00    -0.270 C  
HETATM   12  O   UNL     1     -11.218  15.561  67.778  1.00  0.00    -0.314 OA 
BRANCH  11  13
HETATM   13  N   UNL     1     -10.130  17.493  67.198  1.00  0.00    -0.310 N  
HETATM   14  C   UNL     1      -8.682  17.679  67.316  1.00  0.00    -0.235 C  
HETATM   15  C   UNL     1      -8.174  18.640  66.235  1.00  0.00    -0.237 C  
HETATM   16  O   UNL     1      -8.888  19.889  66.276  1.00  0.00    -0.360 OA 
HETATM   17  C   UNL     1     -10.293  19.675  66.080  1.00  0.00    -0.523 C  
HETATM   18  C   UNL     1     -10.867  18.761  67.170  1.00  0.00    -0.306 C  
ENDBRANCH  11  13
ENDBRANCH   9  11
ENDBRANCH   8   9
ENDBRANCH   7   8
ENDBRANCH   5   7
ENDBRANCH   4   5
ENDBRANCH   2   4
BRANCH   2  19
HETATM   19  C   UNL     1     -10.125  12.065  64.901  1.00  0.00    -0.260 C  
BRANCH  19  20
HETATM   20  O   UNL     1     -10.410  10.776  65.463  1.00  0.00    -0.265 OA 
BRANCH  20  21
HETATM   21  C   UNL     1     -10.753  10.794  66.789  1.00  0.00    -0.231 A  
HETATM   22  C   UNL     1     -11.401  11.949  67.232  1.00  0.00    -0.393 A  
HETATM   23  H   UNL     1     -11.761  10.370  71.357  1.00  0.00     0.000 HD 
HETATM   24  O   UNL     1     -11.924  11.087  70.757  1.00  0.00    -0.333 OA 
HETATM   25  C   UNL     1     -11.800  12.068  68.566  1.00  0.00    -0.369 A  
HETATM   26  C   UNL     1     -11.562  11.018  69.446  1.00  0.00    -0.312 A  
HETATM   27  C   UNL     1     -10.541   9.738  67.677  1.00  0.00    -0.333 A  
HETATM   28  C   UNL     1     -10.945   9.851  69.008  1.00  0.00    -0.223 A  
ENDBRANCH  20  21
ENDBRANCH  19  20
ENDBRANCH   2  19
TORSDOF 10
ENDMDL
MODEL       25
REMARK 921   NORMALIZED FREE ENERGY PREDICTED BY IDOCK:   -5.74 KCAL/MOL
REMARK 922        TOTAL FREE ENERGY PREDICTED BY IDOCK:  -10.24 KCAL/MOL
REMARK 923 INTER-LIGAND FREE ENERGY PREDICTED BY IDOCK:   -8.93 KCAL/MOL
REMARK 924 INTRA-LIGAND FREE ENERGY PREDICTED BY IDOCK:   -1.31 KCAL/MOL
REMARK 927      BINDING AFFINITY PREDICTED BY RF-SCORE:    0.00 PKD
ROOT
HETATM    1  O   UNL     1     -12.245  11.156  67.885  1.00  0.00    -0.604 OA 
HETATM    2  C   UNL     1     -10.814  11.080  67.945  1.00  0.00    -0.237 C  
HETATM    3  H   UNL     1     -12.491  11.961  67.445  1.00  0.00     0.000 HD 
ENDROOT
BRANCH   2   4
HETATM    4  C   UNL     1     -10.417   9.777  68.660  1.00  0.00    -0.208 C  
BRANCH   4   5
HETATM    5  N   UNL     1     -11.518   9.281  69.502  1.00  0.00    -0.427 NA 
HETATM    6  H   UNL     1     -11.613   8.266  69.448  1.00  0.00     0.000 HD 
BRANCH   5   7
HETATM    7  C   UNL     1     -11.344   9.746  70.882  1.00  0.00    -0.365 C  
BRANCH   7   8
HETATM    8  C   UNL     1     -12.631  10.382  71.418  1.00  0.00    -0.434 C  
BRANCH   8   9
HETATM    9  N   UNL     1     -12.821  11.698  70.844  1.00  0.00    -0.232 N  
HETATM   10  H   UNL     1     -12.781  11.798  69.829  1.00  0.00     0.000 HD 
BRANCH   9  11
HETATM   11  C   UNL     1     -13.052  12.810  71.602  1.00  0.00    -0.331 C  
HETATM   12  O   UNL     1     -13.412  12.725  72.775  1.00  0.00    -0.408 OA 
BRANCH  11  13
HETATM   13  N   UNL     1     -12.847  14.018  70.968  1.00  0.00    -0.341 N  
HETATM   14  C   UNL     1     -13.358  15.244  71.585  1.00  0.00    -0.463 C  
HETATM   15  C   UNL     1     -12.206  16.199  71.917  1.00  0.00    -0.430 C  
HETATM   16  O   UNL     1     -11.406  16.469  70.752  1.00  0.00    -0.314 OA 
HETATM   17  C   UNL     1     -10.859  15.253  70.221  1.00  0.00    -0.279 C  
HETATM   18  C   UNL     1     -11.973  14.279  69.819  1.00  0.00    -0.339 C  
ENDBRANCH  11  13
ENDBRANCH   9  11
ENDBRANCH   8   9
ENDBRANCH   7   8
ENDBRANCH   5   7
ENDBRANCH   4   5
ENDBRANCH   2   4
BRANCH   2  19
HETATM   19  C   UNL     1     -10.223  11.098  66.530  1.00  0.00    -0.231 C  
BRANCH  19  20
HETATM   20  O   UNL     1      -9.334  12.216  66.396  1.00  0.00    -0.221 OA 
BRANCH  20  21
HETATM   21  C   UNL     1      -9.908  13.343  65.870  1.00  0.00    -0.238 A  
HETATM   22  C   UNL     1      -9.344  14.555  66.273  1.00  0.00    -0.277 A  
HETATM   23  H   UNL     1     -12.170  16.893  63.785  1.00  0.00     0.000 HD 
HETATM   24  O   UNL     1     -11.446  16.902  64.399  1.00  0.00    -1.052 OA 
HETATM   25  C   UNL     1      -9.850  15.765  65.791  1.00  0.00    -0.383 A  
HETATM   26  C   UNL     1     -10.911  15.751  64.892  1.00  0.00    -0.413 A  
HETATM   27  C   UNL     1     -10.958  13.342  64.950  1.00  0.00    -0.353 A  
HETATM   28  C   UNL     1     -11.461  14.549  64.461  1.00  0.00    -0.349 A  
ENDBRANCH  20  21
ENDBRANCH  19  20
ENDBRANCH   2  19
TORSDOF 10
ENDMDL
MODEL       26
REMARK 921   NORMALIZED FREE ENERGY PREDICTED BY IDOCK:   -5.73 KCAL/MOL
REMARK 922        TOTAL FREE ENERGY PREDICTED BY IDOCK:  -10.22 KCAL/MOL
REMARK 923 INTER-LIGAND FREE ENERGY PREDICTED BY IDOCK:   -8.89 KCAL/MOL
REMARK 924 INTRA-LIGAND FREE ENERGY PREDICTED BY IDOCK:   -1.33 KCAL/MOL
REMARK 927      BINDING AFFINITY PREDICTED BY RF-SCORE:    0.00 PKD
ROOT
HETATM    1  O   UNL     1      -9.487   9.399  62.986  1.00  0.00    -0.517 OA 
HETATM    2  C   UNL     1      -9.309  10.580  63.781  1.00  0.00    -0.281 C  
HETATM    3  H   UNL     1      -9.050   8.673  63.415  1.00  0.00     0.000 HD 
ENDROOT
BRANCH   2   4
HETATM    4  C   UNL     1     -10.016  11.756  63.087  1.00  0.00    -0.344 C  
BRANCH   4   5
HETATM    5  N   UNL     1     -11.444  11.798  63.446  1.00  0.00    -0.694 NA 
HETATM    6  H   UNL     1     -11.602  11.528  64.417  1.00  0.00     0.000 HD 
BRANCH   5   7
HETATM    7  C   UNL     1     -11.999  13.122  63.145  1.00  0.00    -0.176 C  
BRANCH   7   8
HETATM    8  C   UNL     1     -12.159  13.957  64.421  1.00  0.00    -0.443 C  
BRANCH   8   9
HETATM    9  N   UNL     1     -10.892  14.546  64.802  1.00  0.00    -0.519 N  
HETATM   10  H   UNL     1     -10.085  13.933  64.921  1.00  0.00     0.000 HD 
BRANCH   9  11
HETATM   11  C   UNL     1     -10.731  15.886  65.008  1.00  0.00    -0.404 C  
HETATM   12  O   UNL     1     -11.174  16.716  64.216  1.00  0.00    -1.098 OA 
BRANCH  11  13
HETATM   13  N   UNL     1     -10.052  16.236  66.156  1.00  0.00    -0.324 N  
HETATM   14  C   UNL     1      -8.603  16.033  66.219  1.00  0.00    -0.328 C  
HETATM   15  C   UNL     1      -7.881  17.371  66.411  1.00  0.00    -0.302 C  
HETATM   16  O   UNL     1      -8.383  18.070  67.564  1.00  0.00    -0.229 OA 
HETATM   17  C   UNL     1      -9.789  18.320  67.432  1.00  0.00    -0.316 C  
HETATM   18  C   UNL     1     -10.570  17.007  67.292  1.00  0.00    -0.267 C  
ENDBRANCH  11  13
ENDBRANCH   9  11
ENDBRANCH   8   9
ENDBRANCH   7   8
ENDBRANCH   5   7
ENDBRANCH   4   5
ENDBRANCH   2   4
BRANCH   2  19
HETATM   19  C   UNL     1      -9.901  10.371  65.182  1.00  0.00    -0.313 C  
BRANCH  19  20
HETATM   20  O   UNL     1      -9.797  11.589  65.932  1.00  0.00    -0.215 OA 
BRANCH  20  21
HETATM   21  C   UNL     1     -10.468  11.583  67.126  1.00  0.00    -0.224 A  
HETATM   22  C   UNL     1     -10.439  10.379  67.833  1.00  0.00    -0.248 A  
HETATM   23  H   UNL     1     -12.850  12.066  71.146  1.00  0.00     0.000 HD 
HETATM   24  O   UNL     1     -12.399  11.312  70.787  1.00  0.00    -0.359 OA 
HETATM   25  C   UNL     1     -11.085  10.266  69.066  1.00  0.00    -0.277 A  
HETATM   26  C   UNL     1     -11.746  11.371  69.593  1.00  0.00    -0.345 A  
HETATM   27  C   UNL     1     -11.116  12.691  67.677  1.00  0.00    -0.303 A  
HETATM   28  C   UNL     1     -11.757  12.583  68.912  1.00  0.00    -0.367 A  
ENDBRANCH  20  21
ENDBRANCH  19  20
ENDBRANCH   2  19
TORSDOF 10
ENDMDL
MODEL       27
REMARK 921   NORMALIZED FREE ENERGY PREDICTED BY IDOCK:   -5.73 KCAL/MOL
REMARK 922        TOTAL FREE ENERGY PREDICTED BY IDOCK:  -10.21 KCAL/MOL
REMARK 923 INTER-LIGAND FREE ENERGY PREDICTED BY IDOCK:   -8.99 KCAL/MOL
REMARK 924 INTRA-LIGAND FREE ENERGY PREDICTED BY IDOCK:   -1.22 KCAL/MOL
REMARK 927      BINDING AFFINITY PREDICTED BY RF-SCORE:    0.00 PKD
ROOT
HETATM    1  O   UNL     1     -11.735  16.226  63.828  1.00  0.00    -1.511 OA 
HETATM    2  C   UNL     1     -10.797  15.606  64.719  1.00  0.00    -0.355 C  
HETATM    3  H   UNL     1     -11.868  15.657  63.079  1.00  0.00     0.000 HD 
ENDROOT
BRANCH   2   4
HETATM    4  C   UNL     1     -10.582  16.528  65.931  1.00  0.00    -0.270 C  
BRANCH   4   5
HETATM    5  N   UNL     1      -9.636  15.928  66.887  1.00  0.00    -0.224 NA 
HETATM    6  H   UNL     1      -8.836  15.503  66.417  1.00  0.00     0.000 HD 
BRANCH   5   7
HETATM    7  C   UNL     1      -9.223  16.927  67.879  1.00  0.00    -0.234 C  
BRANCH   7   8
HETATM    8  C   UNL     1     -10.421  17.418  68.700  1.00  0.00    -0.355 C  
BRANCH   8   9
HETATM    9  N   UNL     1     -10.680  16.517  69.804  1.00  0.00    -0.326 N  
HETATM   10  H   UNL     1     -10.030  16.508  70.590  1.00  0.00     0.000 HD 
BRANCH   9  11
HETATM   11  C   UNL     1     -11.758  15.679  69.838  1.00  0.00    -0.362 C  
HETATM   12  O   UNL     1     -12.040  14.957  68.883  1.00  0.00    -0.273 OA 
BRANCH  11  13
HETATM   13  N   UNL     1     -12.492  15.697  71.005  1.00  0.00    -0.429 N  
HETATM   14  C   UNL     1     -13.731  14.919  71.082  1.00  0.00    -0.386 C  
HETATM   15  C   UNL     1     -13.626  13.849  72.174  1.00  0.00    -0.506 C  
HETATM   16  O   UNL     1     -13.271  14.433  73.440  1.00  0.00    -0.576 OA 
HETATM   17  C   UNL     1     -12.015  15.121  73.346  1.00  0.00    -0.384 C  
HETATM   18  C   UNL     1     -12.080  16.243  72.303  1.00  0.00    -0.486 C  
ENDBRANCH  11  13
ENDBRANCH   9  11
ENDBRANCH   8   9
ENDBRANCH   7   8
ENDBRANCH   5   7
ENDBRANCH   4   5
ENDBRANCH   2   4
BRANCH   2  19
HETATM   19  C   UNL     1     -11.331  14.246  65.189  1.00  0.00    -0.345 C  
BRANCH  19  20
HETATM   20  O   UNL     1     -10.248  13.311  65.277  1.00  0.00    -0.303 OA 
BRANCH  20  21
HETATM   21  C   UNL     1     -10.368  12.389  66.283  1.00  0.00    -0.244 A  
HETATM   22  C   UNL     1     -10.485  11.059  65.876  1.00  0.00    -0.300 A  
HETATM   23  H   UNL     1     -10.711   9.618  70.061  1.00  0.00     0.000 HD 
HETATM   24  O   UNL     1     -10.719   9.400  69.137  1.00  0.00    -0.223 OA 
HETATM   25  C   UNL     1     -10.607  10.037  66.821  1.00  0.00    -0.229 A  
HETATM   26  C   UNL     1     -10.595  10.356  68.175  1.00  0.00    -0.211 A  
HETATM   27  C   UNL     1     -10.335  12.693  67.645  1.00  0.00    -0.221 A  
HETATM   28  C   UNL     1     -10.450  11.675  68.593  1.00  0.00    -0.234 A  
ENDBRANCH  20  21
ENDBRANCH  19  20
ENDBRANCH   2  19
TORSDOF 10
ENDMDL
MODEL       28
REMARK 921   NORMALIZED FREE ENERGY PREDICTED BY IDOCK:   -5.70 KCAL/MOL
REMARK 922        TOTAL FREE ENERGY PREDICTED BY IDOCK:  -10.17 KCAL/MOL
REMARK 923 INTER-LIGAND FREE ENERGY PREDICTED BY IDOCK:   -9.25 KCAL/MOL
REMARK 924 INTRA-LIGAND FREE ENERGY PREDICTED BY IDOCK:   -0.92 KCAL/MOL
REMARK 927      BINDING AFFINITY PREDICTED BY RF-SCORE:    0.00 PKD
ROOT
HETATM    1  O   UNL     1      -7.983  11.181  65.423  1.00  0.00    -0.366 OA 
HETATM    2  C   UNL     1      -9.379  10.936  65.201  1.00  0.00    -0.218 C  
HETATM    3  H   UNL     1      -7.882  11.669  66.232  1.00  0.00     0.000 HD 
ENDROOT
BRANCH   2   4
HETATM    4  C   UNL     1      -9.541  10.148  63.890  1.00  0.00    -0.239 C  
BRANCH   4   5
HETATM    5  N   UNL     1     -10.293  10.930  62.894  1.00  0.00    -0.782 NA 
HETATM    6  H   UNL     1     -11.024  10.377  62.447  1.00  0.00     0.000 HD 
BRANCH   5   7
HETATM    7  C   UNL     1     -10.824  12.151  63.512  1.00  0.00    -0.458 C  
BRANCH   7   8
HETATM    8  C   UNL     1     -12.351  12.090  63.632  1.00  0.00    -0.539 C  
BRANCH   8   9
HETATM    9  N   UNL     1     -12.817  13.035  64.626  1.00  0.00    -0.732 N  
HETATM   10  H   UNL     1     -13.545  12.739  65.277  1.00  0.00     0.000 HD 
BRANCH   9  11
HETATM   11  C   UNL     1     -12.324  14.304  64.729  1.00  0.00    -0.426 C  
HETATM   12  O   UNL     1     -12.655  15.188  63.941  1.00  0.00    -0.794 OA 
BRANCH  11  13
HETATM   13  N   UNL     1     -11.446  14.521  65.770  1.00  0.00    -0.340 N  
HETATM   14  C   UNL     1     -10.209  15.264  65.519  1.00  0.00    -0.388 C  
HETATM   15  C   UNL     1     -10.175  16.548  66.355  1.00  0.00    -0.316 C  
HETATM   16  O   UNL     1     -10.363  16.261  67.752  1.00  0.00    -0.270 OA 
HETATM   17  C   UNL     1     -11.620  15.603  67.969  1.00  0.00    -0.239 C  
HETATM   18  C   UNL     1     -11.687  14.280  67.197  1.00  0.00    -0.404 C  
ENDBRANCH  11  13
ENDBRANCH   9  11
ENDBRANCH   8   9
ENDBRANCH   7   8
ENDBRANCH   5   7
ENDBRANCH   4   5
ENDBRANCH   2   4
BRANCH   2  19
HETATM   19  C   UNL     1      -9.968  10.133  66.368  1.00  0.00    -0.234 C  
BRANCH  19  20
HETATM   20  O   UNL     1     -10.749  11.000  67.201  1.00  0.00    -0.235 OA 
BRANCH  20  21
HETATM   21  C   UNL     1     -11.042  10.494  68.439  1.00  0.00    -0.281 A  
HETATM   22  C   UNL     1     -12.048  11.158  69.144  1.00  0.00    -0.352 A  
HETATM   23  H   UNL     1     -11.713   8.378  72.579  1.00  0.00     0.000 HD 
HETATM   24  O   UNL     1     -12.137   9.140  72.203  1.00  0.00    -0.362 OA 
HETATM   25  C   UNL     1     -12.429  10.719  70.414  1.00  0.00    -0.430 A  
HETATM   26  C   UNL     1     -11.808   9.603  70.965  1.00  0.00    -0.347 A  
HETATM   27  C   UNL     1     -10.443   9.361  68.994  1.00  0.00    -0.233 A  
HETATM   28  C   UNL     1     -10.826   8.916  70.260  1.00  0.00    -0.265 A  
ENDBRANCH  20  21
ENDBRANCH  19  20
ENDBRANCH   2  19
TORSDOF 10
ENDMDL
MODEL       29
REMARK 921   NORMALIZED FREE ENERGY PREDICTED BY IDOCK:   -5.70 KCAL/MOL
REMARK 922        TOTAL FREE ENERGY PREDICTED BY IDOCK:  -10.17 KCAL/MOL
REMARK 923 INTER-LIGAND FREE ENERGY PREDICTED BY IDOCK:   -8.59 KCAL/MOL
REMARK 924 INTRA-LIGAND FREE ENERGY PREDICTED BY IDOCK:   -1.58 KCAL/MOL
REMARK 927      BINDING AFFINITY PREDICTED BY RF-SCORE:    0.00 PKD
ROOT
HETATM    1  O   UNL     1     -12.681  12.452  65.230  1.00  0.00    -0.617 OA 
HETATM    2  C   UNL     1     -11.262  12.364  65.042  1.00  0.00    -0.312 C  
HETATM    3  H   UNL     1     -13.013  11.593  65.462  1.00  0.00     0.000 HD 
ENDROOT
BRANCH   2   4
HETATM    4  C   UNL     1     -10.724  13.755  64.667  1.00  0.00    -0.414 C  
BRANCH   4   5
HETATM    5  N   UNL     1     -11.602  14.817  65.185  1.00  0.00    -0.362 NA 
HETATM    6  H   UNL     1     -12.023  14.563  66.079  1.00  0.00     0.000 HD 
BRANCH   5   7
HETATM    7  C   UNL     1     -10.866  16.084  65.263  1.00  0.00    -0.362 C  
BRANCH   7   8
HETATM    8  C   UNL     1      -9.549  15.912  66.028  1.00  0.00    -0.350 C  
BRANCH   8   9
HETATM    9  N   UNL     1      -9.788  15.936  67.457  1.00  0.00    -0.229 N  
HETATM   10  H   UNL     1      -9.340  15.228  68.039  1.00  0.00     0.000 HD 
BRANCH   9  11
HETATM   11  C   UNL     1     -10.587  16.866  68.058  1.00  0.00    -0.367 C  
HETATM   12  O   UNL     1     -11.625  16.546  68.633  1.00  0.00    -0.261 OA 
BRANCH  11  13
HETATM   13  N   UNL     1     -10.147  18.171  67.980  1.00  0.00    -0.347 N  
HETATM   14  C   UNL     1      -8.758  18.478  68.329  1.00  0.00    -0.311 C  
HETATM   15  C   UNL     1      -8.016  19.059  67.120  1.00  0.00    -0.255 C  
HETATM   16  O   UNL     1      -8.709  20.202  66.588  1.00  0.00    -0.319 OA 
HETATM   17  C   UNL     1     -10.039  19.845  66.185  1.00  0.00    -0.504 C  
HETATM   18  C   UNL     1     -10.847  19.308  67.372  1.00  0.00    -0.446 C  
ENDBRANCH  11  13
ENDBRANCH   9  11
ENDBRANCH   8   9
ENDBRANCH   7   8
ENDBRANCH   5   7
ENDBRANCH   4   5
ENDBRANCH   2   4
BRANCH   2  19
HETATM   19  C   UNL     1     -10.586  11.875  66.330  1.00  0.00    -0.248 C  
BRANCH  19  20
HETATM   20  O   UNL     1     -10.770  12.849  67.367  1.00  0.00    -0.234 OA 
BRANCH  20  21
HETATM   21  C   UNL     1     -11.348  12.365  68.510  1.00  0.00    -0.293 A  
HETATM   22  C   UNL     1     -11.772  13.326  69.430  1.00  0.00    -0.383 A  
HETATM   23  H   UNL     1     -13.290  10.236  72.221  1.00  0.00     0.000 HD 
HETATM   24  O   UNL     1     -13.156  11.159  72.043  1.00  0.00    -0.492 OA 
HETATM   25  C   UNL     1     -12.381  12.941  70.627  1.00  0.00    -0.385 A  
HETATM   26  C   UNL     1     -12.576  11.588  70.888  1.00  0.00    -0.341 A  
HETATM   27  C   UNL     1     -11.570  11.012  68.775  1.00  0.00    -0.386 A  
HETATM   28  C   UNL     1     -12.184  10.624  69.967  1.00  0.00    -0.373 A  
ENDBRANCH  20  21
ENDBRANCH  19  20
ENDBRANCH   2  19
TORSDOF 10
ENDMDL
MODEL       30
REMARK 921   NORMALIZED FREE ENERGY PREDICTED BY IDOCK:   -5.69 KCAL/MOL
REMARK 922        TOTAL FREE ENERGY PREDICTED BY IDOCK:  -10.15 KCAL/MOL
REMARK 923 INTER-LIGAND FREE ENERGY PREDICTED BY IDOCK:   -9.05 KCAL/MOL
REMARK 924 INTRA-LIGAND FREE ENERGY PREDICTED BY IDOCK:   -1.11 KCAL/MOL
REMARK 927      BINDING AFFINITY PREDICTED BY RF-SCORE:    0.00 PKD
ROOT
HETATM    1  O   UNL     1     -10.169  19.289  69.115  1.00  0.00    -0.573 OA 
HETATM    2  C   UNL     1     -10.551  18.242  68.213  1.00  0.00    -0.226 C  
HETATM    3  H   UNL     1     -10.554  19.117  69.966  1.00  0.00     0.000 HD 
ENDROOT
BRANCH   2   4
HETATM    4  C   UNL     1      -9.928  18.522  66.835  1.00  0.00    -0.349 C  
BRANCH   4   5
HETATM    5  N   UNL     1      -9.494  17.272  66.189  1.00  0.00    -0.448 NA 
HETATM    6  H   UNL     1      -9.292  16.540  66.871  1.00  0.00     0.000 HD 
BRANCH   5   7
HETATM    7  C   UNL     1     -10.491  16.845  65.201  1.00  0.00     0.006 C  
BRANCH   7   8
HETATM    8  C   UNL     1     -10.435  15.329  64.979  1.00  0.00    -0.382 C  
BRANCH   8   9
HETATM    9  N   UNL     1     -11.676  14.858  64.398  1.00  0.00    -0.639 N  
HETATM   10  H   UNL     1     -11.954  15.218  63.485  1.00  0.00     0.000 HD 
BRANCH   9  11
HETATM   11  C   UNL     1     -12.487  13.952  65.019  1.00  0.00    -0.419 C  
HETATM   12  O   UNL     1     -13.536  14.295  65.562  1.00  0.00    -0.580 OA 
BRANCH  11  13
HETATM   13  N   UNL     1     -12.054  12.643  64.988  1.00  0.00    -0.420 N  
HETATM   14  C   UNL     1     -11.963  11.952  63.700  1.00  0.00    -0.476 C  
HETATM   15  C   UNL     1     -10.515  11.537  63.415  1.00  0.00    -0.406 C  
HETATM   16  O   UNL     1      -9.979  10.750  64.494  1.00  0.00    -0.280 OA 
HETATM   17  C   UNL     1     -10.014  11.488  65.724  1.00  0.00    -0.233 C  
HETATM   18  C   UNL     1     -11.451  11.883  66.088  1.00  0.00    -0.288 C  
ENDBRANCH  11  13
ENDBRANCH   9  11
ENDBRANCH   8   9
ENDBRANCH   7   8
ENDBRANCH   5   7
ENDBRANCH   4   5
ENDBRANCH   2   4
BRANCH   2  19
HETATM   19  C   UNL     1     -10.062  16.885  68.739  1.00  0.00    -0.295 C  
BRANCH  19  20
HETATM   20  O   UNL     1     -11.092  15.903  68.560  1.00  0.00    -0.302 OA 
BRANCH  20  21
HETATM   21  C   UNL     1     -11.590  15.379  69.723  1.00  0.00    -0.323 A  
HETATM   22  C   UNL     1     -11.280  16.084  70.888  1.00  0.00    -0.365 A  
HETATM   23  H   UNL     1     -13.541  13.236  73.420  1.00  0.00     0.000 HD 
HETATM   24  O   UNL     1     -13.003  14.016  73.376  1.00  0.00    -0.461 OA 
HETATM   25  C   UNL     1     -11.744  15.640  72.129  1.00  0.00    -0.576 A  
HETATM   26  C   UNL     1     -12.533  14.496  72.192  1.00  0.00    -0.291 A  
HETATM   27  C   UNL     1     -12.401  14.245  69.798  1.00  0.00    -0.342 A  
HETATM   28  C   UNL     1     -12.872  13.803  71.036  1.00  0.00    -0.376 A  
ENDBRANCH  20  21
ENDBRANCH  19  20
ENDBRANCH   2  19
TORSDOF 10
ENDMDL
MODEL       31
REMARK 921   NORMALIZED FREE ENERGY PREDICTED BY IDOCK:   -5.69 KCAL/MOL
REMARK 922        TOTAL FREE ENERGY PREDICTED BY IDOCK:  -10.15 KCAL/MOL
REMARK 923 INTER-LIGAND FREE ENERGY PREDICTED BY IDOCK:   -9.25 KCAL/MOL
REMARK 924 INTRA-LIGAND FREE ENERGY PREDICTED BY IDOCK:   -0.90 KCAL/MOL
REMARK 927      BINDING AFFINITY PREDICTED BY RF-SCORE:    0.00 PKD
ROOT
HETATM    1  O   UNL     1     -12.049  12.208  66.816  1.00  0.00    -0.609 OA 
HETATM    2  C   UNL     1     -11.147  12.922  67.673  1.00  0.00    -0.264 C  
HETATM    3  H   UNL     1     -12.170  11.331  67.160  1.00  0.00     0.000 HD 
ENDROOT
BRANCH   2   4
HETATM    4  C   UNL     1     -10.951  14.341  67.113  1.00  0.00    -0.302 C  
BRANCH   4   5
HETATM    5  N   UNL     1     -11.322  14.403  65.690  1.00  0.00    -0.323 NA 
HETATM    6  H   UNL     1     -12.318  14.232  65.547  1.00  0.00     0.000 HD 
BRANCH   5   7
HETATM    7  C   UNL     1     -10.895  15.683  65.114  1.00  0.00    -0.431 C  
BRANCH   7   8
HETATM    8  C   UNL     1     -10.162  16.539  66.153  1.00  0.00    -0.346 C  
BRANCH   8   9
HETATM    9  N   UNL     1     -10.293  17.946  65.831  1.00  0.00    -0.324 N  
HETATM   10  H   UNL     1     -10.461  18.210  64.861  1.00  0.00     0.000 HD 
BRANCH   9  11
HETATM   11  C   UNL     1     -10.201  18.931  66.772  1.00  0.00    -0.394 C  
HETATM   12  O   UNL     1     -11.205  19.434  67.275  1.00  0.00    -0.362 OA 
BRANCH  11  13
HETATM   13  N   UNL     1      -8.921  19.311  67.116  1.00  0.00    -0.290 N  
HETATM   14  C   UNL     1      -8.431  19.025  68.466  1.00  0.00    -0.352 C  
HETATM   15  C   UNL     1      -7.217  18.090  68.410  1.00  0.00    -0.254 C  
HETATM   16  O   UNL     1      -6.189  18.627  67.559  1.00  0.00    -0.177 OA 
HETATM   17  C   UNL     1      -6.684  18.821  66.227  1.00  0.00    -0.218 C  
HETATM   18  C   UNL     1      -7.868  19.796  66.217  1.00  0.00    -0.328 C  
ENDBRANCH  11  13
ENDBRANCH   9  11
ENDBRANCH   8   9
ENDBRANCH   7   8
ENDBRANCH   5   7
ENDBRANCH   4   5
ENDBRANCH   2   4
BRANCH   2  19
HETATM   19  C   UNL     1     -11.717  12.998  69.095  1.00  0.00    -0.326 C  
BRANCH  19  20
HETATM   20  O   UNL     1     -12.321  14.283  69.301  1.00  0.00    -0.293 OA 
BRANCH  20  21
HETATM   21  C   UNL     1     -12.451  14.650  70.614  1.00  0.00    -0.344 A  
HETATM   22  C   UNL     1     -11.864  15.867  70.965  1.00  0.00    -0.468 A  
HETATM   23  H   UNL     1     -13.196  15.492  75.175  1.00  0.00     0.000 HD 
HETATM   24  O   UNL     1     -12.728  16.003  74.525  1.00  0.00    -0.683 OA 
HETATM   25  C   UNL     1     -11.944  16.339  72.278  1.00  0.00    -0.605 A  
HETATM   26  C   UNL     1     -12.629  15.592  73.230  1.00  0.00    -0.499 A  
HETATM   27  C   UNL     1     -13.154  13.921  71.575  1.00  0.00    -0.441 A  
HETATM   28  C   UNL     1     -13.242  14.393  72.886  1.00  0.00    -0.613 A  
ENDBRANCH  20  21
ENDBRANCH  19  20
ENDBRANCH   2  19
TORSDOF 10
ENDMDL
MODEL       32
REMARK 921   NORMALIZED FREE ENERGY PREDICTED BY IDOCK:   -5.68 KCAL/MOL
REMARK 922        TOTAL FREE ENERGY PREDICTED BY IDOCK:  -10.14 KCAL/MOL
REMARK 923 INTER-LIGAND FREE ENERGY PREDICTED BY IDOCK:   -9.24 KCAL/MOL
REMARK 924 INTRA-LIGAND FREE ENERGY PREDICTED BY IDOCK:   -0.90 KCAL/MOL
REMARK 927      BINDING AFFINITY PREDICTED BY RF-SCORE:    0.00 PKD
ROOT
HETATM    1  O   UNL     1     -14.411   8.943  73.332  1.00  0.00    -1.192 OA 
HETATM    2  C   UNL     1     -13.809   8.774  72.041  1.00  0.00    -0.451 C  
HETATM    3  H   UNL     1     -14.840   8.132  73.578  1.00  0.00     0.000 HD 
ENDROOT
BRANCH   2   4
HETATM    4  C   UNL     1     -13.114  10.087  71.642  1.00  0.00    -0.445 C  
BRANCH   4   5
HETATM    5  N   UNL     1     -12.735  10.072  70.219  1.00  0.00    -0.541 NA 
HETATM    6  H   UNL     1     -13.479  10.434  69.622  1.00  0.00     0.000 HD 
BRANCH   5   7
HETATM    7  C   UNL     1     -11.474  10.796  70.028  1.00  0.00    -0.331 C  
BRANCH   7   8
HETATM    8  C   UNL     1     -11.679  12.046  69.166  1.00  0.00    -0.330 C  
BRANCH   8   9
HETATM    9  N   UNL     1     -11.489  13.244  69.960  1.00  0.00    -0.512 N  
HETATM   10  H   UNL     1     -10.951  13.175  70.824  1.00  0.00     0.000 HD 
BRANCH   9  11
HETATM   11  C   UNL     1     -11.997  14.459  69.600  1.00  0.00    -0.336 C  
HETATM   12  O   UNL     1     -11.980  14.841  68.431  1.00  0.00    -0.303 OA 
BRANCH  11  13
HETATM   13  N   UNL     1     -12.530  15.210  70.626  1.00  0.00    -0.359 N  
HETATM   14  C   UNL     1     -13.942  15.042  70.975  1.00  0.00    -0.268 C  
HETATM   15  C   UNL     1     -14.083  14.542  72.418  1.00  0.00    -0.448 C  
HETATM   16  O   UNL     1     -13.394  15.410  73.336  1.00  0.00    -0.466 OA 
HETATM   17  C   UNL     1     -11.999  15.490  73.008  1.00  0.00    -0.461 C  
HETATM   18  C   UNL     1     -11.798  16.039  71.591  1.00  0.00    -0.507 C  
ENDBRANCH  11  13
ENDBRANCH   9  11
ENDBRANCH   8   9
ENDBRANCH   7   8
ENDBRANCH   5   7
ENDBRANCH   4   5
ENDBRANCH   2   4
BRANCH   2  19
HETATM   19  C   UNL     1     -12.783   7.634  72.080  1.00  0.00    -0.232 C  
BRANCH  19  20
HETATM   20  O   UNL     1     -12.647   7.066  70.769  1.00  0.00    -0.314 OA 
BRANCH  20  21
HETATM   21  C   UNL     1     -11.502   6.342  70.576  1.00  0.00    -0.338 A  
HETATM   22  C   UNL     1     -11.140   6.122  69.245  1.00  0.00    -0.463 A  
HETATM   23  H   UNL     1      -7.512   3.866  70.422  1.00  0.00     0.000 HD 
HETATM   24  O   UNL     1      -8.057   4.197  69.718  1.00  0.00    -0.055 OA 
HETATM   25  C   UNL     1      -9.985   5.400  68.935  1.00  0.00    -0.247 A  
HETATM   26  C   UNL     1      -9.188   4.914  69.966  1.00  0.00    -0.127 A  
HETATM   27  C   UNL     1     -10.681   5.867  71.601  1.00  0.00    -0.308 A  
HETATM   28  C   UNL     1      -9.522   5.151  71.294  1.00  0.00    -0.203 A  
ENDBRANCH  20  21
ENDBRANCH  19  20
ENDBRANCH   2  19
TORSDOF 10
ENDMDL
MODEL       33
REMARK 921   NORMALIZED FREE ENERGY PREDICTED BY IDOCK:   -5.68 KCAL/MOL
REMARK 922        TOTAL FREE ENERGY PREDICTED BY IDOCK:  -10.13 KCAL/MOL
REMARK 923 INTER-LIGAND FREE ENERGY PREDICTED BY IDOCK:   -9.51 KCAL/MOL
REMARK 924 INTRA-LIGAND FREE ENERGY PREDICTED BY IDOCK:   -0.62 KCAL/MOL
REMARK 927      BINDING AFFINITY PREDICTED BY RF-SCORE:    0.00 PKD
ROOT
HETATM    1  O   UNL     1     -12.317  14.195  63.484  1.00  0.00    -1.065 OA 
HETATM    2  C   UNL     1     -11.801  14.206  64.822  1.00  0.00    -0.417 C  
HETATM    3  H   UNL     1     -12.564  15.080  63.243  1.00  0.00     0.000 HD 
ENDROOT
BRANCH   2   4
HETATM    4  C   UNL     1     -11.402  12.773  65.211  1.00  0.00    -0.303 C  
BRANCH   4   5
HETATM    5  N   UNL     1     -12.270  12.256  66.282  1.00  0.00    -0.557 NA 
HETATM    6  H   UNL     1     -12.382  11.244  66.229  1.00  0.00     0.000 HD 
BRANCH   5   7
HETATM    7  C   UNL     1     -11.764  12.686  67.591  1.00  0.00    -0.361 C  
BRANCH   7   8
HETATM    8  C   UNL     1     -11.236  11.495  68.398  1.00  0.00    -0.255 C  
BRANCH   8   9
HETATM    9  N   UNL     1     -12.277  10.962  69.253  1.00  0.00    -0.488 N  
HETATM   10  H   UNL     1     -12.991  10.364  68.837  1.00  0.00     0.000 HD 
BRANCH   9  11
HETATM   11  C   UNL     1     -12.344  11.227  70.591  1.00  0.00    -0.383 C  
HETATM   12  O   UNL     1     -12.465  12.376  71.012  1.00  0.00    -0.368 OA 
BRANCH  11  13
HETATM   13  N   UNL     1     -12.274  10.129  71.421  1.00  0.00    -0.383 N  
HETATM   14  C   UNL     1     -13.470   9.710  72.154  1.00  0.00    -0.429 C  
HETATM   15  C   UNL     1     -13.888   8.295  71.737  1.00  0.00    -0.396 C  
HETATM   16  O   UNL     1     -12.800   7.367  71.895  1.00  0.00    -0.317 OA 
HETATM   17  C   UNL     1     -11.673   7.768  71.102  1.00  0.00    -0.284 C  
HETATM   18  C   UNL     1     -11.177   9.158  71.517  1.00  0.00    -0.360 C  
ENDBRANCH  11  13
ENDBRANCH   9  11
ENDBRANCH   8   9
ENDBRANCH   7   8
ENDBRANCH   5   7
ENDBRANCH   4   5
ENDBRANCH   2   4
BRANCH   2  19
HETATM   19  C   UNL     1     -10.577  15.128  64.911  1.00  0.00    -0.365 C  
BRANCH  19  20
HETATM   20  O   UNL     1     -11.008  16.497  64.905  1.00  0.00    -0.624 OA 
BRANCH  20  21
HETATM   21  C   UNL     1     -10.324  17.314  65.765  1.00  0.00    -0.234 A  
HETATM   22  C   UNL     1      -9.288  16.712  66.480  1.00  0.00    -0.290 A  
HETATM   23  H   UNL     1      -8.263  20.506  68.528  1.00  0.00     0.000 HD 
HETATM   24  O   UNL     1      -8.079  19.581  68.415  1.00  0.00    -0.328 OA 
HETATM   25  C   UNL     1      -8.521  17.457  67.380  1.00  0.00    -0.215 A  
HETATM   26  C   UNL     1      -8.790  18.812  67.545  1.00  0.00    -0.274 A  
HETATM   27  C   UNL     1     -10.569  18.680  65.924  1.00  0.00    -0.365 A  
HETATM   28  C   UNL     1      -9.801  19.429  66.817  1.00  0.00    -0.453 A  
ENDBRANCH  20  21
ENDBRANCH  19  20
ENDBRANCH   2  19
TORSDOF 10
ENDMDL
MODEL       34
REMARK 921   NORMALIZED FREE ENERGY PREDICTED BY IDOCK:   -5.67 KCAL/MOL
REMARK 922        TOTAL FREE ENERGY PREDICTED BY IDOCK:  -10.12 KCAL/MOL
REMARK 923 INTER-LIGAND FREE ENERGY PREDICTED BY IDOCK:   -8.72 KCAL/MOL
REMARK 924 INTRA-LIGAND FREE ENERGY PREDICTED BY IDOCK:   -1.40 KCAL/MOL
REMARK 927      BINDING AFFINITY PREDICTED BY RF-SCORE:    0.00 PKD
ROOT
HETATM    1  O   UNL     1     -12.674  14.171  67.495  1.00  0.00    -0.374 OA 
HETATM    2  C   UNL     1     -11.539  13.355  67.171  1.00  0.00    -0.358 C  
HETATM    3  H   UNL     1     -13.339  13.625  67.896  1.00  0.00     0.000 HD 
ENDROOT
BRANCH   2   4
HETATM    4  C   UNL     1     -10.462  14.240  66.521  1.00  0.00    -0.287 C  
BRANCH   4   5
HETATM    5  N   UNL     1     -10.859  15.658  66.546  1.00  0.00    -0.295 NA 
HETATM    6  H   UNL     1     -11.742  15.799  67.037  1.00  0.00     0.000 HD 
BRANCH   5   7
HETATM    7  C   UNL     1      -9.778  16.472  67.112  1.00  0.00    -0.245 C  
BRANCH   7   8
HETATM    8  C   UNL     1     -10.256  17.244  68.347  1.00  0.00    -0.358 C  
BRANCH   8   9
HETATM    9  N   UNL     1     -11.249  16.475  69.070  1.00  0.00    -0.280 N  
HETATM   10  H   UNL     1     -12.188  16.402  68.680  1.00  0.00     0.000 HD 
BRANCH   9  11
HETATM   11  C   UNL     1     -10.981  15.844  70.251  1.00  0.00    -0.362 C  
HETATM   12  O   UNL     1      -9.919  15.251  70.435  1.00  0.00    -0.094 OA 
BRANCH  11  13
HETATM   13  N   UNL     1     -11.968  15.926  71.210  1.00  0.00    -0.417 N  
HETATM   14  C   UNL     1     -13.282  15.342  70.933  1.00  0.00    -0.450 C  
HETATM   15  C   UNL     1     -13.595  14.226  71.936  1.00  0.00    -0.413 C  
HETATM   16  O   UNL     1     -13.485  14.700  73.290  1.00  0.00    -0.570 OA 
HETATM   17  C   UNL     1     -12.162  15.194  73.547  1.00  0.00    -0.482 C  
HETATM   18  C   UNL     1     -11.816  16.354  72.605  1.00  0.00    -0.448 C  
ENDBRANCH  11  13
ENDBRANCH   9  11
ENDBRANCH   8   9
ENDBRANCH   7   8
ENDBRANCH   5   7
ENDBRANCH   4   5
ENDBRANCH   2   4
BRANCH   2  19
HETATM   19  C   UNL     1     -10.978  12.701  68.440  1.00  0.00    -0.257 C  
BRANCH  19  20
HETATM   20  O   UNL     1     -12.050  12.425  69.352  1.00  0.00    -0.265 OA 
BRANCH  20  21
HETATM   21  C   UNL     1     -11.881  11.297  70.109  1.00  0.00    -0.364 A  
HETATM   22  C   UNL     1     -12.907  11.013  71.012  1.00  0.00    -0.442 A  
HETATM   23  H   UNL     1     -10.878   7.337  72.428  1.00  0.00     0.000 HD 
HETATM   24  O   UNL     1     -11.625   7.918  72.501  1.00  0.00    -0.352 OA 
HETATM   25  C   UNL     1     -12.839   9.882  71.829  1.00  0.00    -0.540 A  
HETATM   26  C   UNL     1     -11.745   9.029  71.723  1.00  0.00    -0.369 A  
HETATM   27  C   UNL     1     -10.800  10.421  69.996  1.00  0.00    -0.348 A  
HETATM   28  C   UNL     1     -10.732   9.286  70.806  1.00  0.00    -0.350 A  
ENDBRANCH  20  21
ENDBRANCH  19  20
ENDBRANCH   2  19
TORSDOF 10
ENDMDL
MODEL       35
REMARK 921   NORMALIZED FREE ENERGY PREDICTED BY IDOCK:   -5.67 KCAL/MOL
REMARK 922        TOTAL FREE ENERGY PREDICTED BY IDOCK:  -10.12 KCAL/MOL
REMARK 923 INTER-LIGAND FREE ENERGY PREDICTED BY IDOCK:   -9.14 KCAL/MOL
REMARK 924 INTRA-LIGAND FREE ENERGY PREDICTED BY IDOCK:   -0.98 KCAL/MOL
REMARK 927      BINDING AFFINITY PREDICTED BY RF-SCORE:    0.00 PKD
ROOT
HETATM    1  O   UNL     1     -14.244  14.032  72.618  1.00  0.00    -0.639 OA 
HETATM    2  C   UNL     1     -13.605  13.343  71.535  1.00  0.00    -0.133 C  
HETATM    3  H   UNL     1     -14.960  13.498  72.940  1.00  0.00     0.000 HD 
ENDROOT
BRANCH   2   4
HETATM    4  C   UNL     1     -12.445  14.209  71.013  1.00  0.00    -0.367 C  
BRANCH   4   5
HETATM    5  N   UNL     1     -11.539  13.419  70.162  1.00  0.00    -0.518 NA 
HETATM    6  H   UNL     1     -11.921  12.497  69.951  1.00  0.00     0.000 HD 
BRANCH   5   7
HETATM    7  C   UNL     1     -11.212  14.170  68.944  1.00  0.00    -0.267 C  
BRANCH   7   8
HETATM    8  C   UNL     1      -9.984  13.579  68.244  1.00  0.00    -0.237 C  
BRANCH   8   9
HETATM    9  N   UNL     1     -10.374  12.909  67.020  1.00  0.00    -0.241 N  
HETATM   10  H   UNL     1      -9.712  12.887  66.244  1.00  0.00     0.000 HD 
BRANCH   9  11
HETATM   11  C   UNL     1     -11.589  12.305  66.861  1.00  0.00    -0.361 C  
HETATM   12  O   UNL     1     -11.986  11.446  67.646  1.00  0.00    -0.630 OA 
BRANCH  11  13
HETATM   13  N   UNL     1     -12.328  12.729  65.777  1.00  0.00    -0.411 N  
HETATM   14  C   UNL     1     -12.759  14.127  65.709  1.00  0.00    -0.413 C  
HETATM   15  C   UNL     1     -12.157  14.815  64.479  1.00  0.00    -0.446 C  
HETATM   16  O   UNL     1     -12.468  14.090  63.276  1.00  0.00    -0.795 OA 
HETATM   17  C   UNL     1     -11.963  12.749  63.348  1.00  0.00    -0.535 C  
HETATM   18  C   UNL     1     -12.578  11.993  64.533  1.00  0.00    -0.113 C  
ENDBRANCH  11  13
ENDBRANCH   9  11
ENDBRANCH   8   9
ENDBRANCH   7   8
ENDBRANCH   5   7
ENDBRANCH   4   5
ENDBRANCH   2   4
BRANCH   2  19
HETATM   19  C   UNL     1     -13.067  11.988  72.011  1.00  0.00    -0.351 C  
BRANCH  19  20
HETATM   20  O   UNL     1     -13.189  11.025  70.955  1.00  0.00    -0.195 OA 
BRANCH  20  21
HETATM   21  C   UNL     1     -12.783   9.760  71.284  1.00  0.00    -0.369 A  
HETATM   22  C   UNL     1     -13.793   8.798  71.358  1.00  0.00    -0.318 A  
HETATM   23  H   UNL     1     -10.907   5.598  72.393  1.00  0.00     0.000 HD 
HETATM   24  O   UNL     1     -11.811   5.842  72.236  1.00  0.00    -0.273 OA 
HETATM   25  C   UNL     1     -13.487   7.474  71.680  1.00  0.00    -0.429 A  
HETATM   26  C   UNL     1     -12.162   7.116  71.911  1.00  0.00    -0.323 A  
HETATM   27  C   UNL     1     -11.455   9.383  71.496  1.00  0.00    -0.467 A  
HETATM   28  C   UNL     1     -11.145   8.059  71.811  1.00  0.00    -0.313 A  
ENDBRANCH  20  21
ENDBRANCH  19  20
ENDBRANCH   2  19
TORSDOF 10
ENDMDL
MODEL       36
REMARK 921   NORMALIZED FREE ENERGY PREDICTED BY IDOCK:   -5.67 KCAL/MOL
REMARK 922        TOTAL FREE ENERGY PREDICTED BY IDOCK:  -10.12 KCAL/MOL
REMARK 923 INTER-LIGAND FREE ENERGY PREDICTED BY IDOCK:   -9.11 KCAL/MOL
REMARK 924 INTRA-LIGAND FREE ENERGY PREDICTED BY IDOCK:   -1.01 KCAL/MOL
REMARK 927      BINDING AFFINITY PREDICTED BY RF-SCORE:    0.00 PKD
ROOT
HETATM    1  O   UNL     1     -10.417   8.940  66.391  1.00  0.00    -0.228 OA 
HETATM    2  C   UNL     1     -10.182  10.255  66.913  1.00  0.00    -0.230 C  
HETATM    3  H   UNL     1     -10.583   8.348  67.116  1.00  0.00     0.000 HD 
ENDROOT
BRANCH   2   4
HETATM    4  C   UNL     1      -9.912  11.213  65.740  1.00  0.00    -0.245 C  
BRANCH   4   5
HETATM    5  N   UNL     1     -11.160  11.843  65.277  1.00  0.00    -0.306 NA 
HETATM    6  H   UNL     1     -11.469  12.586  65.905  1.00  0.00     0.000 HD 
BRANCH   5   7
HETATM    7  C   UNL     1     -11.000  12.319  63.898  1.00  0.00    -0.406 C  
BRANCH   7   8
HETATM    8  C   UNL     1     -11.832  13.583  63.650  1.00  0.00    -0.333 C  
BRANCH   8   9
HETATM    9  N   UNL     1     -11.755  14.470  64.792  1.00  0.00    -0.402 N  
HETATM   10  H   UNL     1     -12.141  14.154  65.682  1.00  0.00     0.000 HD 
BRANCH   9  11
HETATM   11  C   UNL     1     -11.188  15.711  64.729  1.00  0.00    -0.382 C  
HETATM   12  O   UNL     1     -11.572  16.552  63.917  1.00  0.00    -1.175 OA 
BRANCH  11  13
HETATM   13  N   UNL     1     -10.174  15.951  65.631  1.00  0.00    -0.358 N  
HETATM   14  C   UNL     1     -10.094  17.259  66.285  1.00  0.00    -0.316 C  
HETATM   15  C   UNL     1     -10.247  17.111  67.803  1.00  0.00    -0.324 C  
HETATM   16  O   UNL     1      -9.288  16.179  68.332  1.00  0.00    -0.197 OA 
HETATM   17  C   UNL     1      -9.448  14.889  67.725  1.00  0.00    -0.203 C  
HETATM   18  C   UNL     1      -9.248  14.968  66.206  1.00  0.00    -0.289 C  
ENDBRANCH  11  13
ENDBRANCH   9  11
ENDBRANCH   8   9
ENDBRANCH   7   8
ENDBRANCH   5   7
ENDBRANCH   4   5
ENDBRANCH   2   4
BRANCH   2  19
HETATM   19  C   UNL     1     -11.405  10.737  67.706  1.00  0.00    -0.279 C  
BRANCH  19  20
HETATM   20  O   UNL     1     -11.217  10.447  69.098  1.00  0.00    -0.233 OA 
BRANCH  20  21
HETATM   21  C   UNL     1     -11.886  11.283  69.952  1.00  0.00    -0.360 A  
HETATM   22  C   UNL     1     -12.541  10.664  71.018  1.00  0.00    -0.516 A  
HETATM   23  H   UNL     1     -13.985  14.541  72.607  1.00  0.00     0.000 HD 
HETATM   24  O   UNL     1     -13.962  13.596  72.697  1.00  0.00    -0.733 OA 
HETATM   25  C   UNL     1     -13.248  11.425  71.953  1.00  0.00    -0.485 A  
HETATM   26  C   UNL     1     -13.281  12.810  71.820  1.00  0.00    -0.374 A  
HETATM   27  C   UNL     1     -11.908  12.675  69.843  1.00  0.00    -0.364 A  
HETATM   28  C   UNL     1     -12.608  13.439  70.778  1.00  0.00    -0.369 A  
ENDBRANCH  20  21
ENDBRANCH  19  20
ENDBRANCH   2  19
TORSDOF 10
ENDMDL
MODEL       37
REMARK 921   NORMALIZED FREE ENERGY PREDICTED BY IDOCK:   -5.66 KCAL/MOL
REMARK 922        TOTAL FREE ENERGY PREDICTED BY IDOCK:  -10.11 KCAL/MOL
REMARK 923 INTER-LIGAND FREE ENERGY PREDICTED BY IDOCK:   -8.93 KCAL/MOL
REMARK 924 INTRA-LIGAND FREE ENERGY PREDICTED BY IDOCK:   -1.18 KCAL/MOL
REMARK 927      BINDING AFFINITY PREDICTED BY RF-SCORE:    0.00 PKD
ROOT
HETATM    1  O   UNL     1     -12.340  14.262  63.622  1.00  0.00    -1.035 OA 
HETATM    2  C   UNL     1     -11.718  14.454  64.900  1.00  0.00    -0.408 C  
HETATM    3  H   UNL     1     -12.950  14.974  63.469  1.00  0.00     0.000 HD 
ENDROOT
BRANCH   2   4
HETATM    4  C   UNL     1     -10.731  13.301  65.149  1.00  0.00    -0.322 C  
BRANCH   4   5
HETATM    5  N   UNL     1     -10.519  13.089  66.591  1.00  0.00    -0.262 NA 
HETATM    6  H   UNL     1     -10.400  13.970  67.092  1.00  0.00     0.000 HD 
BRANCH   5   7
HETATM    7  C   UNL     1     -11.613  12.284  67.146  1.00  0.00    -0.353 C  
BRANCH   7   8
HETATM    8  C   UNL     1     -11.485  12.152  68.668  1.00  0.00    -0.296 C  
BRANCH   8   9
HETATM    9  N   UNL     1     -10.895  13.349  69.231  1.00  0.00    -0.436 N  
HETATM   10  H   UNL     1      -9.879  13.402  69.309  1.00  0.00     0.000 HD 
BRANCH   9  11
HETATM   11  C   UNL     1     -11.640  14.410  69.660  1.00  0.00    -0.292 C  
HETATM   12  O   UNL     1     -11.856  15.379  68.934  1.00  0.00    -0.349 OA 
BRANCH  11  13
HETATM   13  N   UNL     1     -12.130  14.314  70.945  1.00  0.00    -0.337 N  
HETATM   14  C   UNL     1     -11.538  15.140  71.999  1.00  0.00    -0.412 C  
HETATM   15  C   UNL     1     -12.585  16.092  72.588  1.00  0.00    -0.463 C  
HETATM   16  O   UNL     1     -13.741  15.369  73.048  1.00  0.00    -0.484 OA 
HETATM   17  C   UNL     1     -14.340  14.633  71.971  1.00  0.00    -0.558 C  
HETATM   18  C   UNL     1     -13.349  13.623  71.379  1.00  0.00    -0.248 C  
ENDBRANCH  11  13
ENDBRANCH   9  11
ENDBRANCH   8   9
ENDBRANCH   7   8
ENDBRANCH   5   7
ENDBRANCH   4   5
ENDBRANCH   2   4
BRANCH   2  19
HETATM   19  C   UNL     1     -10.971  15.793  64.931  1.00  0.00    -0.427 C  
BRANCH  19  20
HETATM   20  O   UNL     1      -9.674  15.606  65.515  1.00  0.00    -0.321 OA 
BRANCH  20  21
HETATM   21  C   UNL     1      -9.217  16.669  66.246  1.00  0.00    -0.294 A  
HETATM   22  C   UNL     1     -10.009  17.818  66.206  1.00  0.00    -0.322 A  
HETATM   23  H   UNL     1      -7.276  20.005  68.925  1.00  0.00     0.000 HD 
HETATM   24  O   UNL     1      -8.067  20.022  68.400  1.00  0.00    -0.242 OA 
HETATM   25  C   UNL     1      -9.637  18.959  66.922  1.00  0.00    -0.348 A  
HETATM   26  C   UNL     1      -8.478  18.935  67.691  1.00  0.00    -0.280 A  
HETATM   27  C   UNL     1      -8.068  16.650  67.040  1.00  0.00    -0.228 A  
HETATM   28  C   UNL     1      -7.698  17.786  67.762  1.00  0.00    -0.214 A  
ENDBRANCH  20  21
ENDBRANCH  19  20
ENDBRANCH   2  19
TORSDOF 10
ENDMDL
MODEL       38
REMARK 921   NORMALIZED FREE ENERGY PREDICTED BY IDOCK:   -5.66 KCAL/MOL
REMARK 922        TOTAL FREE ENERGY PREDICTED BY IDOCK:  -10.10 KCAL/MOL
REMARK 923 INTER-LIGAND FREE ENERGY PREDICTED BY IDOCK:   -9.25 KCAL/MOL
REMARK 924 INTRA-LIGAND FREE ENERGY PREDICTED BY IDOCK:   -0.85 KCAL/MOL
REMARK 927      BINDING AFFINITY PREDICTED BY RF-SCORE:    0.00 PKD
ROOT
HETATM    1  O   UNL     1     -14.113   8.860  73.412  1.00  0.00    -1.256 OA 
HETATM    2  C   UNL     1     -13.970   8.876  71.985  1.00  0.00    -0.437 C  
HETATM    3  H   UNL     1     -14.661   8.124  73.656  1.00  0.00     0.000 HD 
ENDROOT
BRANCH   2   4
HETATM    4  C   UNL     1     -13.084  10.070  71.589  1.00  0.00    -0.445 C  
BRANCH   4   5
HETATM    5  N   UNL     1     -12.922  10.144  70.127  1.00  0.00    -0.552 NA 
HETATM    6  H   UNL     1     -13.820  10.168  69.644  1.00  0.00     0.000 HD 
BRANCH   5   7
HETATM    7  C   UNL     1     -12.076  11.290  69.773  1.00  0.00    -0.325 C  
BRANCH   7   8
HETATM    8  C   UNL     1     -11.078  10.920  68.671  1.00  0.00    -0.252 C  
BRANCH   8   9
HETATM    9  N   UNL     1     -11.487  11.495  67.405  1.00  0.00    -0.296 N  
HETATM   10  H   UNL     1     -12.382  11.981  67.357  1.00  0.00     0.000 HD 
BRANCH   9  11
HETATM   11  C   UNL     1     -10.725  11.413  66.275  1.00  0.00    -0.270 C  
HETATM   12  O   UNL     1      -9.977  10.458  66.072  1.00  0.00    -0.218 OA 
BRANCH  11  13
HETATM   13  N   UNL     1     -10.860  12.460  65.387  1.00  0.00    -0.277 N  
HETATM   14  C   UNL     1     -10.874  12.181  63.950  1.00  0.00    -0.406 C  
HETATM   15  C   UNL     1     -12.209  12.612  63.332  1.00  0.00    -0.517 C  
HETATM   16  O   UNL     1     -12.491  13.993  63.621  1.00  0.00    -0.803 OA 
HETATM   17  C   UNL     1     -12.546  14.213  65.038  1.00  0.00    -0.380 C  
HETATM   18  C   UNL     1     -11.212  13.849  65.702  1.00  0.00    -0.306 C  
ENDBRANCH  11  13
ENDBRANCH   9  11
ENDBRANCH   8   9
ENDBRANCH   7   8
ENDBRANCH   5   7
ENDBRANCH   4   5
ENDBRANCH   2   4
BRANCH   2  19
HETATM   19  C   UNL     1     -13.327   7.570  71.501  1.00  0.00    -0.352 C  
BRANCH  19  20
HETATM   20  O   UNL     1     -11.909   7.748  71.383  1.00  0.00    -0.283 OA 
BRANCH  20  21
HETATM   21  C   UNL     1     -11.244   6.691  70.823  1.00  0.00    -0.315 A  
HETATM   22  C   UNL     1     -10.794   5.715  71.715  1.00  0.00    -0.301 A  
HETATM   23  H   UNL     1      -9.079   3.267  68.443  1.00  0.00     0.000 HD 
HETATM   24  O   UNL     1      -9.226   3.369  69.376  1.00  0.00    -0.124 OA 
HETATM   25  C   UNL     1     -10.110   4.590  71.248  1.00  0.00    -0.225 A  
HETATM   26  C   UNL     1      -9.895   4.441  69.882  1.00  0.00    -0.220 A  
HETATM   27  C   UNL     1     -11.041   6.518  69.452  1.00  0.00    -0.407 A  
HETATM   28  C   UNL     1     -10.363   5.392  68.982  1.00  0.00    -0.282 A  
ENDBRANCH  20  21
ENDBRANCH  19  20
ENDBRANCH   2  19
TORSDOF 10
ENDMDL
MODEL       39
REMARK 921   NORMALIZED FREE ENERGY PREDICTED BY IDOCK:   -5.66 KCAL/MOL
REMARK 922        TOTAL FREE ENERGY PREDICTED BY IDOCK:  -10.10 KCAL/MOL
REMARK 923 INTER-LIGAND FREE ENERGY PREDICTED BY IDOCK:   -8.89 KCAL/MOL
REMARK 924 INTRA-LIGAND FREE ENERGY PREDICTED BY IDOCK:   -1.21 KCAL/MOL
REMARK 927      BINDING AFFINITY PREDICTED BY RF-SCORE:    0.00 PKD
ROOT
HETATM    1  O   UNL     1     -12.137  16.311  71.021  1.00  0.00    -0.560 OA 
HETATM    2  C   UNL     1     -11.662  15.768  69.781  1.00  0.00    -0.348 C  
HETATM    3  H   UNL     1     -13.087  16.312  71.011  1.00  0.00     0.000 HD 
ENDROOT
BRANCH   2   4
HETATM    4  C   UNL     1     -10.124  15.767  69.797  1.00  0.00    -0.276 C  
BRANCH   4   5
HETATM    5  N   UNL     1      -9.594  14.468  69.348  1.00  0.00    -0.415 NA 
HETATM    6  H   UNL     1     -10.314  13.892  68.912  1.00  0.00     0.000 HD 
BRANCH   5   7
HETATM    7  C   UNL     1      -8.444  14.675  68.461  1.00  0.00    -0.161 C  
BRANCH   7   8
HETATM    8  C   UNL     1      -8.711  15.807  67.464  1.00  0.00    -0.176 C  
BRANCH   8   9
HETATM    9  N   UNL     1      -8.862  15.276  66.124  1.00  0.00    -0.463 N  
HETATM   10  H   UNL     1      -8.045  14.873  65.665  1.00  0.00     0.000 HD 
BRANCH   9  11
HETATM   11  C   UNL     1     -10.050  15.291  65.452  1.00  0.00    -0.362 C  
HETATM   12  O   UNL     1     -10.552  16.342  65.058  1.00  0.00    -0.620 OA 
BRANCH  11  13
HETATM   13  N   UNL     1     -10.633  14.059  65.243  1.00  0.00    -0.341 N  
HETATM   14  C   UNL     1     -11.734  13.633  66.109  1.00  0.00    -0.364 C  
HETATM   15  C   UNL     1     -13.012  13.420  65.289  1.00  0.00    -0.190 C  
HETATM   16  O   UNL     1     -12.784  12.499  64.207  1.00  0.00    -0.658 OA 
HETATM   17  C   UNL     1     -11.752  12.986  63.336  1.00  0.00    -0.415 C  
HETATM   18  C   UNL     1     -10.432  13.166  64.096  1.00  0.00    -0.326 C  
ENDBRANCH  11  13
ENDBRANCH   9  11
ENDBRANCH   8   9
ENDBRANCH   7   8
ENDBRANCH   5   7
ENDBRANCH   4   5
ENDBRANCH   2   4
BRANCH   2  19
HETATM   19  C   UNL     1     -12.182  14.337  69.595  1.00  0.00    -0.323 C  
BRANCH  19  20
HETATM   20  O   UNL     1     -12.423  13.744  70.879  1.00  0.00    -0.343 OA 
BRANCH  20  21
HETATM   21  C   UNL     1     -12.390  12.375  70.892  1.00  0.00    -0.262 A  
HETATM   22  C   UNL     1     -13.111  11.761  71.918  1.00  0.00    -0.482 A  
HETATM   23  H   UNL     1     -12.014   7.709  70.496  1.00  0.00     0.000 HD 
HETATM   24  O   UNL     1     -12.474   8.236  71.139  1.00  0.00    -0.275 OA 
HETATM   25  C   UNL     1     -13.150  10.368  72.020  1.00  0.00    -0.521 A  
HETATM   26  C   UNL     1     -12.475   9.596  71.079  1.00  0.00    -0.296 A  
HETATM   27  C   UNL     1     -11.736  11.589  69.941  1.00  0.00    -0.420 A  
HETATM   28  C   UNL     1     -11.778  10.197  70.037  1.00  0.00    -0.294 A  
ENDBRANCH  20  21
ENDBRANCH  19  20
ENDBRANCH   2  19
TORSDOF 10
ENDMDL
MODEL       40
REMARK 921   NORMALIZED FREE ENERGY PREDICTED BY IDOCK:   -5.64 KCAL/MOL
REMARK 922        TOTAL FREE ENERGY PREDICTED BY IDOCK:  -10.07 KCAL/MOL
REMARK 923 INTER-LIGAND FREE ENERGY PREDICTED BY IDOCK:   -9.11 KCAL/MOL
REMARK 924 INTRA-LIGAND FREE ENERGY PREDICTED BY IDOCK:   -0.96 KCAL/MOL
REMARK 927      BINDING AFFINITY PREDICTED BY RF-SCORE:    0.00 PKD
ROOT
HETATM    1  O   UNL     1     -10.150   9.276  65.294  1.00  0.00    -0.346 OA 
HETATM    2  C   UNL     1      -9.617  10.596  65.118  1.00  0.00    -0.251 C  
HETATM    3  H   UNL     1      -9.783   8.901  66.086  1.00  0.00     0.000 HD 
ENDROOT
BRANCH   2   4
HETATM    4  C   UNL     1     -10.211  11.203  63.835  1.00  0.00    -0.362 C  
BRANCH   4   5
HETATM    5  N   UNL     1     -11.635  11.529  64.017  1.00  0.00    -0.354 NA 
HETATM    6  H   UNL     1     -11.890  11.592  65.003  1.00  0.00     0.000 HD 
BRANCH   5   7
HETATM    7  C   UNL     1     -11.966  12.756  63.283  1.00  0.00    -0.443 C  
BRANCH   7   8
HETATM    8  C   UNL     1     -12.176  13.934  64.242  1.00  0.00    -0.408 C  
BRANCH   8   9
HETATM    9  N   UNL     1     -10.932  14.649  64.443  1.00  0.00    -0.621 N  
HETATM   10  H   UNL     1     -10.054  14.156  64.278  1.00  0.00     0.000 HD 
BRANCH   9  11
HETATM   11  C   UNL     1     -10.884  15.954  64.842  1.00  0.00    -0.400 C  
HETATM   12  O   UNL     1     -11.351  16.855  64.147  1.00  0.00    -1.208 OA 
BRANCH  11  13
HETATM   13  N   UNL     1     -10.291  16.183  66.065  1.00  0.00    -0.341 N  
HETATM   14  C   UNL     1      -9.988  17.558  66.466  1.00  0.00    -0.321 C  
HETATM   15  C   UNL     1     -10.762  17.931  67.735  1.00  0.00    -0.326 C  
HETATM   16  O   UNL     1     -10.509  16.988  68.792  1.00  0.00    -0.309 OA 
HETATM   17  C   UNL     1     -10.890  15.664  68.391  1.00  0.00    -0.290 C  
HETATM   18  C   UNL     1     -10.102  15.217  67.154  1.00  0.00    -0.239 C  
ENDBRANCH  11  13
ENDBRANCH   9  11
ENDBRANCH   8   9
ENDBRANCH   7   8
ENDBRANCH   5   7
ENDBRANCH   4   5
ENDBRANCH   2   4
BRANCH   2  19
HETATM   19  C   UNL     1      -9.974  11.477  66.323  1.00  0.00    -0.220 C  
BRANCH  19  20
HETATM   20  O   UNL     1     -11.289  11.141  66.788  1.00  0.00    -0.341 OA 
BRANCH  20  21
HETATM   21  C   UNL     1     -11.346  10.729  68.093  1.00  0.00    -0.308 A  
HETATM   22  C   UNL     1     -10.633   9.567  68.393  1.00  0.00    -0.261 A  
HETATM   23  H   UNL     1     -11.805   9.746  72.664  1.00  0.00     0.000 HD 
HETATM   24  O   UNL     1     -11.334   9.284  71.980  1.00  0.00    -0.349 OA 
HETATM   25  C   UNL     1     -10.619   9.062  69.696  1.00  0.00    -0.230 A  
HETATM   26  C   UNL     1     -11.309   9.738  70.697  1.00  0.00    -0.330 A  
HETATM   27  C   UNL     1     -12.016  11.410  69.111  1.00  0.00    -0.395 A  
HETATM   28  C   UNL     1     -11.998  10.912  70.415  1.00  0.00    -0.453 A  
ENDBRANCH  20  21
ENDBRANCH  19  20
ENDBRANCH   2  19
TORSDOF 10
ENDMDL
MODEL       41
REMARK 921   NORMALIZED FREE ENERGY PREDICTED BY IDOCK:   -5.64 KCAL/MOL
REMARK 922        TOTAL FREE ENERGY PREDICTED BY IDOCK:  -10.07 KCAL/MOL
REMARK 923 INTER-LIGAND FREE ENERGY PREDICTED BY IDOCK:   -8.49 KCAL/MOL
REMARK 924 INTRA-LIGAND FREE ENERGY PREDICTED BY IDOCK:   -1.58 KCAL/MOL
REMARK 927      BINDING AFFINITY PREDICTED BY RF-SCORE:    0.00 PKD
ROOT
HETATM    1  O   UNL     1      -9.515   9.430  63.103  1.00  0.00    -0.497 OA 
HETATM    2  C   UNL     1      -9.092  10.572  63.860  1.00  0.00    -0.233 C  
HETATM    3  H   UNL     1      -8.906   8.717  63.257  1.00  0.00     0.000 HD 
ENDROOT
BRANCH   2   4
HETATM    4  C   UNL     1     -10.078  11.726  63.610  1.00  0.00    -0.418 C  
BRANCH   4   5
HETATM    5  N   UNL     1     -11.372  11.217  63.128  1.00  0.00    -0.836 NA 
HETATM    6  H   UNL     1     -11.610  10.318  63.547  1.00  0.00     0.000 HD 
BRANCH   5   7
HETATM    7  C   UNL     1     -12.420  12.221  63.348  1.00  0.00    -0.481 C  
BRANCH   7   8
HETATM    8  C   UNL     1     -12.467  12.658  64.817  1.00  0.00    -0.484 C  
BRANCH   8   9
HETATM    9  N   UNL     1     -12.892  14.039  64.919  1.00  0.00    -0.716 N  
HETATM   10  H   UNL     1     -13.876  14.234  65.102  1.00  0.00     0.000 HD 
BRANCH   9  11
HETATM   11  C   UNL     1     -12.031  15.090  64.782  1.00  0.00    -0.311 C  
HETATM   12  O   UNL     1     -12.104  15.859  63.825  1.00  0.00    -0.780 OA 
BRANCH  11  13
HETATM   13  N   UNL     1     -11.093  15.228  65.783  1.00  0.00    -0.328 N  
HETATM   14  C   UNL     1     -11.543  15.501  67.150  1.00  0.00     0.026 C  
HETATM   15  C   UNL     1     -11.122  14.365  68.090  1.00  0.00    -0.264 C  
HETATM   16  O   UNL     1      -9.704  14.133  68.020  1.00  0.00    -0.213 OA 
HETATM   17  C   UNL     1      -9.313  13.794  66.682  1.00  0.00    -0.264 C  
HETATM   18  C   UNL     1      -9.661  14.923  65.704  1.00  0.00    -0.223 C  
ENDBRANCH  11  13
ENDBRANCH   9  11
ENDBRANCH   8   9
ENDBRANCH   7   8
ENDBRANCH   5   7
ENDBRANCH   4   5
ENDBRANCH   2   4
BRANCH   2  19
HETATM   19  C   UNL     1      -9.057  10.233  65.357  1.00  0.00    -0.185 C  
BRANCH  19  20
HETATM   20  O   UNL     1     -10.332   9.714  65.760  1.00  0.00    -0.194 OA 
BRANCH  20  21
HETATM   21  C   UNL     1     -10.529   9.670  67.114  1.00  0.00    -0.249 A  
HETATM   22  C   UNL     1     -11.187  10.770  67.667  1.00  0.00    -0.370 A  
HETATM   23  H   UNL     1     -11.009   9.045  71.745  1.00  0.00     0.000 HD 
HETATM   24  O   UNL     1     -11.275   9.770  71.193  1.00  0.00    -0.346 OA 
HETATM   25  C   UNL     1     -11.445  10.825  69.039  1.00  0.00    -0.368 A  
HETATM   26  C   UNL     1     -11.055   9.763  69.849  1.00  0.00    -0.254 A  
HETATM   27  C   UNL     1     -10.164   8.601  67.935  1.00  0.00    -0.273 A  
HETATM   28  C   UNL     1     -10.426   8.649  69.305  1.00  0.00    -0.226 A  
ENDBRANCH  20  21
ENDBRANCH  19  20
ENDBRANCH   2  19
TORSDOF 10
ENDMDL
MODEL       42
REMARK 921   NORMALIZED FREE ENERGY PREDICTED BY IDOCK:   -5.63 KCAL/MOL
REMARK 922        TOTAL FREE ENERGY PREDICTED BY IDOCK:  -10.06 KCAL/MOL
REMARK 923 INTER-LIGAND FREE ENERGY PREDICTED BY IDOCK:   -9.33 KCAL/MOL
REMARK 924 INTRA-LIGAND FREE ENERGY PREDICTED BY IDOCK:   -0.73 KCAL/MOL
REMARK 927      BINDING AFFINITY PREDICTED BY RF-SCORE:    0.00 PKD
ROOT
HETATM    1  O   UNL     1      -9.936  12.933  68.724  1.00  0.00    -0.391 OA 
HETATM    2  C   UNL     1     -11.330  12.598  68.736  1.00  0.00    -0.289 C  
HETATM    3  H   UNL     1      -9.540  12.627  69.532  1.00  0.00     0.000 HD 
ENDROOT
BRANCH   2   4
HETATM    4  C   UNL     1     -11.970  13.093  67.428  1.00  0.00    -0.327 C  
BRANCH   4   5
HETATM    5  N   UNL     1     -12.008  12.020  66.421  1.00  0.00    -0.593 NA 
HETATM    6  H   UNL     1     -12.937  11.606  66.337  1.00  0.00     0.000 HD 
BRANCH   5   7
HETATM    7  C   UNL     1     -11.510  12.521  65.135  1.00  0.00    -0.328 C  
BRANCH   7   8
HETATM    8  C   UNL     1     -11.967  13.963  64.889  1.00  0.00    -0.395 C  
BRANCH   8   9
HETATM    9  N   UNL     1     -10.821  14.839  64.746  1.00  0.00    -0.555 N  
HETATM   10  H   UNL     1      -9.918  14.426  64.515  1.00  0.00     0.000 HD 
BRANCH   9  11
HETATM   11  C   UNL     1     -10.900  16.192  64.908  1.00  0.00    -0.334 C  
HETATM   12  O   UNL     1     -11.472  16.905  64.085  1.00  0.00    -1.174 OA 
BRANCH  11  13
HETATM   13  N   UNL     1     -10.305  16.693  66.047  1.00  0.00    -0.342 N  
HETATM   14  C   UNL     1      -9.396  15.838  66.813  1.00  0.00    -0.242 C  
HETATM   15  C   UNL     1      -7.989  16.444  66.847  1.00  0.00    -0.234 C  
HETATM   16  O   UNL     1      -8.018  17.793  67.347  1.00  0.00    -0.207 OA 
HETATM   17  C   UNL     1      -8.857  18.619  66.527  1.00  0.00    -0.304 C  
HETATM   18  C   UNL     1     -10.296  18.088  66.502  1.00  0.00    -0.373 C  
ENDBRANCH  11  13
ENDBRANCH   9  11
ENDBRANCH   8   9
ENDBRANCH   7   8
ENDBRANCH   5   7
ENDBRANCH   4   5
ENDBRANCH   2   4
BRANCH   2  19
HETATM   19  C   UNL     1     -11.510  11.079  68.860  1.00  0.00    -0.296 C  
BRANCH  19  20
HETATM   20  O   UNL     1     -12.405  10.789  69.943  1.00  0.00    -0.329 OA 
BRANCH  20  21
HETATM   21  C   UNL     1     -11.935   9.870  70.843  1.00  0.00    -0.345 A  
HETATM   22  C   UNL     1     -12.903   9.235  71.623  1.00  0.00    -0.447 A  
HETATM   23  H   UNL     1      -9.859   6.796  73.725  1.00  0.00     0.000 HD 
HETATM   24  O   UNL     1     -10.775   7.021  73.625  1.00  0.00    -0.362 OA 
HETATM   25  C   UNL     1     -12.533   8.274  72.568  1.00  0.00    -0.300 A  
HETATM   26  C   UNL     1     -11.190   7.944  72.713  1.00  0.00    -0.405 A  
HETATM   27  C   UNL     1     -10.593   9.512  70.984  1.00  0.00    -0.392 A  
HETATM   28  C   UNL     1     -10.220   8.548  71.922  1.00  0.00    -0.369 A  
ENDBRANCH  20  21
ENDBRANCH  19  20
ENDBRANCH   2  19
TORSDOF 10
ENDMDL
MODEL       43
REMARK 921   NORMALIZED FREE ENERGY PREDICTED BY IDOCK:   -5.63 KCAL/MOL
REMARK 922        TOTAL FREE ENERGY PREDICTED BY IDOCK:  -10.05 KCAL/MOL
REMARK 923 INTER-LIGAND FREE ENERGY PREDICTED BY IDOCK:   -8.87 KCAL/MOL
REMARK 924 INTRA-LIGAND FREE ENERGY PREDICTED BY IDOCK:   -1.19 KCAL/MOL
REMARK 927      BINDING AFFINITY PREDICTED BY RF-SCORE:    0.00 PKD
ROOT
HETATM    1  O   UNL     1     -10.578  17.658  69.486  1.00  0.00    -0.371 OA 
HETATM    2  C   UNL     1     -10.810  16.258  69.688  1.00  0.00    -0.345 C  
HETATM    3  H   UNL     1     -10.054  17.772  68.702  1.00  0.00     0.000 HD 
ENDROOT
BRANCH   2   4
HETATM    4  C   UNL     1     -11.658  16.074  70.958  1.00  0.00    -0.431 C  
BRANCH   4   5
HETATM    5  N   UNL     1     -12.531  14.894  70.843  1.00  0.00    -0.305 NA 
HETATM    6  H   UNL     1     -12.086  14.139  70.321  1.00  0.00     0.000 HD 
BRANCH   5   7
HETATM    7  C   UNL     1     -12.967  14.459  72.175  1.00  0.00    -0.355 C  
BRANCH   7   8
HETATM    8  C   UNL     1     -14.011  13.342  72.078  1.00  0.00    -0.324 C  
BRANCH   8   9
HETATM    9  N   UNL     1     -13.416  12.063  72.410  1.00  0.00    -0.521 N  
HETATM   10  H   UNL     1     -13.400  11.771  73.387  1.00  0.00     0.000 HD 
BRANCH   9  11
HETATM   11  C   UNL     1     -12.874  11.234  71.470  1.00  0.00    -0.414 C  
HETATM   12  O   UNL     1     -12.576  11.641  70.349  1.00  0.00    -0.224 OA 
BRANCH  11  13
HETATM   13  N   UNL     1     -12.683   9.927  71.866  1.00  0.00    -0.408 N  
HETATM   14  C   UNL     1     -13.821   9.164  72.385  1.00  0.00    -0.457 C  
HETATM   15  C   UNL     1     -14.104   7.950  71.494  1.00  0.00    -0.395 C  
HETATM   16  O   UNL     1     -12.929   7.136  71.339  1.00  0.00    -0.381 OA 
HETATM   17  C   UNL     1     -11.860   7.895  70.757  1.00  0.00    -0.176 C  
HETATM   18  C   UNL     1     -11.495   9.096  71.639  1.00  0.00    -0.381 C  
ENDBRANCH  11  13
ENDBRANCH   9  11
ENDBRANCH   8   9
ENDBRANCH   7   8
ENDBRANCH   5   7
ENDBRANCH   4   5
ENDBRANCH   2   4
BRANCH   2  19
HETATM   19  C   UNL     1     -11.547  15.663  68.481  1.00  0.00    -0.370 C  
BRANCH  19  20
HETATM   20  O   UNL     1     -11.148  14.297  68.301  1.00  0.00    -0.243 OA 
BRANCH  20  21
HETATM   21  C   UNL     1     -11.504  13.751  67.097  1.00  0.00    -0.340 A  
HETATM   22  C   UNL     1     -10.942  12.506  66.806  1.00  0.00    -0.304 A  
HETATM   23  H   UNL     1     -13.045  12.277  62.911  1.00  0.00     0.000 HD 
HETATM   24  O   UNL     1     -12.444  11.868  63.523  1.00  0.00    -0.553 OA 
HETATM   25  C   UNL     1     -11.244  11.857  65.606  1.00  0.00    -0.360 A  
HETATM   26  C   UNL     1     -12.124  12.455  64.709  1.00  0.00    -0.416 A  
HETATM   27  C   UNL     1     -12.402  14.330  66.198  1.00  0.00    -0.411 A  
HETATM   28  C   UNL     1     -12.711  13.680  65.002  1.00  0.00    -0.384 A  
ENDBRANCH  20  21
ENDBRANCH  19  20
ENDBRANCH   2  19
TORSDOF 10
ENDMDL
MODEL       44
REMARK 921   NORMALIZED FREE ENERGY PREDICTED BY IDOCK:   -5.62 KCAL/MOL
REMARK 922        TOTAL FREE ENERGY PREDICTED BY IDOCK:  -10.05 KCAL/MOL
REMARK 923 INTER-LIGAND FREE ENERGY PREDICTED BY IDOCK:   -9.15 KCAL/MOL
REMARK 924 INTRA-LIGAND FREE ENERGY PREDICTED BY IDOCK:   -0.90 KCAL/MOL
REMARK 927      BINDING AFFINITY PREDICTED BY RF-SCORE:    0.00 PKD
ROOT
HETATM    1  O   UNL     1     -14.167   8.857  73.332  1.00  0.00    -1.241 OA 
HETATM    2  C   UNL     1     -13.928   8.858  71.917  1.00  0.00    -0.419 C  
HETATM    3  H   UNL     1     -14.826   8.202  73.531  1.00  0.00     0.000 HD 
ENDROOT
BRANCH   2   4
HETATM    4  C   UNL     1     -12.861   9.919  71.596  1.00  0.00    -0.436 C  
BRANCH   4   5
HETATM    5  N   UNL     1     -12.676  10.055  70.141  1.00  0.00    -0.532 NA 
HETATM    6  H   UNL     1     -13.424  10.599  69.710  1.00  0.00     0.000 HD 
BRANCH   5   7
HETATM    7  C   UNL     1     -11.351  10.616  69.854  1.00  0.00    -0.313 C  
BRANCH   7   8
HETATM    8  C   UNL     1     -11.156  10.832  68.349  1.00  0.00    -0.266 C  
BRANCH   8   9
HETATM    9  N   UNL     1     -11.668  12.130  67.955  1.00  0.00    -0.347 N  
HETATM   10  H   UNL     1     -12.070  12.734  68.671  1.00  0.00     0.000 HD 
BRANCH   9  11
HETATM   11  C   UNL     1     -11.633  12.578  66.665  1.00  0.00    -0.380 C  
HETATM   12  O   UNL     1     -12.375  12.111  65.803  1.00  0.00    -0.564 OA 
BRANCH  11  13
HETATM   13  N   UNL     1     -10.723  13.581  66.406  1.00  0.00    -0.286 N  
HETATM   14  C   UNL     1     -10.517  14.019  65.024  1.00  0.00    -0.420 C  
HETATM   15  C   UNL     1     -10.895  15.496  64.866  1.00  0.00    -0.427 C  
HETATM   16  O   UNL     1     -10.183  16.316  65.809  1.00  0.00    -0.345 OA 
HETATM   17  C   UNL     1     -10.470  15.908  67.154  1.00  0.00    -0.313 C  
HETATM   18  C   UNL     1     -10.058  14.448  67.385  1.00  0.00    -0.243 C  
ENDBRANCH  11  13
ENDBRANCH   9  11
ENDBRANCH   8   9
ENDBRANCH   7   8
ENDBRANCH   5   7
ENDBRANCH   4   5
ENDBRANCH   2   4
BRANCH   2  19
HETATM   19  C   UNL     1     -13.440   7.476  71.462  1.00  0.00    -0.359 C  
BRANCH  19  20
HETATM   20  O   UNL     1     -12.069   7.301  71.846  1.00  0.00    -0.296 OA 
BRANCH  20  21
HETATM   21  C   UNL     1     -11.338   6.502  71.008  1.00  0.00    -0.323 A  
HETATM   22  C   UNL     1     -10.561   5.522  71.629  1.00  0.00    -0.294 A  
HETATM   23  H   UNL     1      -9.063   4.003  67.745  1.00  0.00     0.000 HD 
HETATM   24  O   UNL     1      -9.051   3.932  68.692  1.00  0.00    -0.115 OA 
HETATM   25  C   UNL     1      -9.781   4.648  70.867  1.00  0.00    -0.262 A  
HETATM   26  C   UNL     1      -9.799   4.753  69.480  1.00  0.00    -0.222 A  
HETATM   27  C   UNL     1     -11.363   6.581  69.614  1.00  0.00    -0.443 A  
HETATM   28  C   UNL     1     -10.591   5.705  68.850  1.00  0.00    -0.303 A  
ENDBRANCH  20  21
ENDBRANCH  19  20
ENDBRANCH   2  19
TORSDOF 10
ENDMDL
MODEL       45
REMARK 921   NORMALIZED FREE ENERGY PREDICTED BY IDOCK:   -5.62 KCAL/MOL
REMARK 922        TOTAL FREE ENERGY PREDICTED BY IDOCK:  -10.05 KCAL/MOL
REMARK 923 INTER-LIGAND FREE ENERGY PREDICTED BY IDOCK:   -8.87 KCAL/MOL
REMARK 924 INTRA-LIGAND FREE ENERGY PREDICTED BY IDOCK:   -1.18 KCAL/MOL
REMARK 927      BINDING AFFINITY PREDICTED BY RF-SCORE:    0.00 PKD
ROOT
HETATM    1  O   UNL     1     -10.149   8.637  66.141  1.00  0.00    -0.437 OA 
HETATM    2  C   UNL     1      -9.618   9.937  66.434  1.00  0.00    -0.200 C  
HETATM    3  H   UNL     1     -10.455   8.242  66.949  1.00  0.00     0.000 HD 
ENDROOT
BRANCH   2   4
HETATM    4  C   UNL     1      -9.123  10.576  65.125  1.00  0.00    -0.197 C  
BRANCH   4   5
HETATM    5  N   UNL     1     -10.173  10.547  64.093  1.00  0.00    -0.407 NA 
HETATM    6  H   UNL     1     -11.088  10.322  64.486  1.00  0.00     0.000 HD 
BRANCH   5   7
HETATM    7  C   UNL     1     -10.187  11.815  63.355  1.00  0.00    -0.449 C  
BRANCH   7   8
HETATM    8  C   UNL     1     -11.582  12.449  63.373  1.00  0.00    -0.462 C  
BRANCH   8   9
HETATM    9  N   UNL     1     -11.537  13.750  64.010  1.00  0.00    -0.610 N  
HETATM   10  H   UNL     1     -11.010  14.497  63.556  1.00  0.00     0.000 HD 
BRANCH   9  11
HETATM   11  C   UNL     1     -12.170  14.019  65.189  1.00  0.00    -0.436 C  
HETATM   12  O   UNL     1     -13.395  14.104  65.256  1.00  0.00    -0.715 OA 
BRANCH  11  13
HETATM   13  N   UNL     1     -11.348  14.179  66.285  1.00  0.00    -0.329 N  
HETATM   14  C   UNL     1      -9.904  14.319  66.080  1.00  0.00    -0.314 C  
HETATM   15  C   UNL     1      -9.419  15.679  66.593  1.00  0.00    -0.259 C  
HETATM   16  O   UNL     1      -9.795  15.878  67.967  1.00  0.00    -0.216 OA 
HETATM   17  C   UNL     1     -11.221  15.811  68.117  1.00  0.00    -0.344 C  
HETATM   18  C   UNL     1     -11.756  14.445  67.668  1.00  0.00    -0.391 C  
ENDBRANCH  11  13
ENDBRANCH   9  11
ENDBRANCH   8   9
ENDBRANCH   7   8
ENDBRANCH   5   7
ENDBRANCH   4   5
ENDBRANCH   2   4
BRANCH   2  19
HETATM   19  C   UNL     1     -10.701  10.822  67.066  1.00  0.00    -0.265 C  
BRANCH  19  20
HETATM   20  O   UNL     1     -10.250  11.291  68.344  1.00  0.00    -0.181 OA 
BRANCH  20  21
HETATM   21  C   UNL     1     -10.965  10.819  69.412  1.00  0.00    -0.254 A  
HETATM   22  C   UNL     1     -10.543   9.593  69.930  1.00  0.00    -0.281 A  
HETATM   23  H   UNL     1     -13.678   9.642  73.062  1.00  0.00     0.000 HD 
HETATM   24  O   UNL     1     -12.948   9.182  72.666  1.00  0.00    -0.388 OA 
HETATM   25  C   UNL     1     -11.199   9.023  71.025  1.00  0.00    -0.361 A  
HETATM   26  C   UNL     1     -12.269   9.697  71.604  1.00  0.00    -0.402 A  
HETATM   27  C   UNL     1     -12.026  11.495  70.017  1.00  0.00    -0.435 A  
HETATM   28  C   UNL     1     -12.679  10.932  71.115  1.00  0.00    -0.530 A  
ENDBRANCH  20  21
ENDBRANCH  19  20
ENDBRANCH   2  19
TORSDOF 10
ENDMDL
MODEL       46
REMARK 921   NORMALIZED FREE ENERGY PREDICTED BY IDOCK:   -5.62 KCAL/MOL
REMARK 922        TOTAL FREE ENERGY PREDICTED BY IDOCK:  -10.04 KCAL/MOL
REMARK 923 INTER-LIGAND FREE ENERGY PREDICTED BY IDOCK:   -8.89 KCAL/MOL
REMARK 924 INTRA-LIGAND FREE ENERGY PREDICTED BY IDOCK:   -1.15 KCAL/MOL
REMARK 927      BINDING AFFINITY PREDICTED BY RF-SCORE:    0.00 PKD
ROOT
HETATM    1  O   UNL     1     -12.613  11.294  62.883  1.00  0.00    -0.917 OA 
HETATM    2  C   UNL     1     -11.465  11.931  63.460  1.00  0.00    -0.430 C  
HETATM    3  H   UNL     1     -12.330  10.516  62.417  1.00  0.00     0.000 HD 
ENDROOT
BRANCH   2   4
HETATM    4  C   UNL     1     -11.924  13.191  64.214  1.00  0.00    -0.411 C  
BRANCH   4   5
HETATM    5  N   UNL     1     -12.524  12.839  65.512  1.00  0.00    -0.623 NA 
HETATM    6  H   UNL     1     -12.074  12.025  65.932  1.00  0.00     0.000 HD 
BRANCH   5   7
HETATM    7  C   UNL     1     -12.504  14.002  66.406  1.00  0.00    -0.355 C  
BRANCH   7   8
HETATM    8  C   UNL     1     -11.785  13.677  67.720  1.00  0.00    -0.362 C  
BRANCH   8   9
HETATM    9  N   UNL     1     -12.487  14.269  68.841  1.00  0.00    -0.530 N  
HETATM   10  H   UNL     1     -13.399  13.893  69.098  1.00  0.00     0.000 HD 
BRANCH   9  11
HETATM   11  C   UNL     1     -11.980  15.309  69.566  1.00  0.00    -0.330 C  
HETATM   12  O   UNL     1     -11.085  16.026  69.121  1.00  0.00    -0.273 OA 
BRANCH  11  13
HETATM   13  N   UNL     1     -12.540  15.497  70.812  1.00  0.00    -0.438 N  
HETATM   14  C   UNL     1     -13.847  14.904  71.104  1.00  0.00    -0.358 C  
HETATM   15  C   UNL     1     -13.735  13.896  72.253  1.00  0.00    -0.562 C  
HETATM   16  O   UNL     1     -13.139  14.500  73.415  1.00  0.00    -0.587 OA 
HETATM   17  C   UNL     1     -11.829  15.001  73.111  1.00  0.00    -0.255 C  
HETATM   18  C   UNL     1     -11.890  16.058  72.001  1.00  0.00    -0.533 C  
ENDBRANCH  11  13
ENDBRANCH   9  11
ENDBRANCH   8   9
ENDBRANCH   7   8
ENDBRANCH   5   7
ENDBRANCH   4   5
ENDBRANCH   2   4
BRANCH   2  19
HETATM   19  C   UNL     1     -10.758  10.975  64.429  1.00  0.00    -0.269 C  
BRANCH  19  20
HETATM   20  O   UNL     1      -9.903  11.724  65.303  1.00  0.00    -0.239 OA 
BRANCH  20  21
HETATM   21  C   UNL     1      -9.672  11.136  66.518  1.00  0.00    -0.198 A  
HETATM   22  C   UNL     1      -8.678  11.730  67.300  1.00  0.00    -0.163 A  
HETATM   23  H   UNL     1      -9.277   8.813  70.582  1.00  0.00     0.000 HD 
HETATM   24  O   UNL     1      -8.798   9.565  70.256  1.00  0.00    -0.216 OA 
HETATM   25  C   UNL     1      -8.367  11.214  68.561  1.00  0.00    -0.154 A  
HETATM   26  C   UNL     1      -9.068  10.112  69.039  1.00  0.00    -0.173 A  
HETATM   27  C   UNL     1     -10.383  10.044  67.019  1.00  0.00    -0.305 A  
HETATM   28  C   UNL     1     -10.079   9.531  68.281  1.00  0.00    -0.210 A  
ENDBRANCH  20  21
ENDBRANCH  19  20
ENDBRANCH   2  19
TORSDOF 10
ENDMDL
MODEL       47
REMARK 921   NORMALIZED FREE ENERGY PREDICTED BY IDOCK:   -5.54 KCAL/MOL
REMARK 922        TOTAL FREE ENERGY PREDICTED BY IDOCK:   -9.91 KCAL/MOL
REMARK 923 INTER-LIGAND FREE ENERGY PREDICTED BY IDOCK:   -8.88 KCAL/MOL
REMARK 924 INTRA-LIGAND FREE ENERGY PREDICTED BY IDOCK:   -1.03 KCAL/MOL
REMARK 927      BINDING AFFINITY PREDICTED BY RF-SCORE:    0.00 PKD
ROOT
HETATM    1  O   UNL     1     -10.383  10.711  62.726  1.00  0.00    -0.738 OA 
HETATM    2  C   UNL     1     -10.586  11.732  63.712  1.00  0.00    -0.415 C  
HETATM    3  H   UNL     1      -9.483  10.411  62.777  1.00  0.00     0.000 HD 
ENDROOT
BRANCH   2   4
HETATM    4  C   UNL     1     -12.044  12.218  63.629  1.00  0.00    -0.554 C  
BRANCH   4   5
HETATM    5  N   UNL     1     -12.105  13.634  63.230  1.00  0.00    -0.975 NA 
HETATM    6  H   UNL     1     -12.829  13.804  62.532  1.00  0.00     0.000 HD 
BRANCH   5   7
HETATM    7  C   UNL     1     -12.273  14.483  64.415  1.00  0.00    -0.458 C  
BRANCH   7   8
HETATM    8  C   UNL     1     -11.435  15.762  64.303  1.00  0.00    -0.198 C  
BRANCH   8   9
HETATM    9  N   UNL     1     -10.440  15.808  65.355  1.00  0.00    -0.394 N  
HETATM   10  H   UNL     1      -9.896  14.968  65.549  1.00  0.00     0.000 HD 
BRANCH   9  11
HETATM   11  C   UNL     1     -10.200  16.929  66.097  1.00  0.00    -0.341 C  
HETATM   12  O   UNL     1     -10.208  18.049  65.590  1.00  0.00    -0.584 OA 
BRANCH  11  13
HETATM   13  N   UNL     1      -9.959  16.717  67.438  1.00  0.00    -0.261 N  
HETATM   14  C   UNL     1     -11.002  17.045  68.412  1.00  0.00    -0.263 C  
HETATM   15  C   UNL     1     -11.441  15.787  69.172  1.00  0.00    -0.380 C  
HETATM   16  O   UNL     1     -10.316  15.130  69.780  1.00  0.00    -0.245 OA 
HETATM   17  C   UNL     1      -9.350  14.756  68.787  1.00  0.00    -0.198 C  
HETATM   18  C   UNL     1      -8.833  15.986  68.032  1.00  0.00    -0.175 C  
ENDBRANCH  11  13
ENDBRANCH   9  11
ENDBRANCH   8   9
ENDBRANCH   7   8
ENDBRANCH   5   7
ENDBRANCH   4   5
ENDBRANCH   2   4
BRANCH   2  19
HETATM   19  C   UNL     1     -10.302  11.179  65.115  1.00  0.00    -0.293 C  
BRANCH  19  20
HETATM   20  O   UNL     1     -11.411  11.469  65.978  1.00  0.00    -0.274 OA 
BRANCH  20  21
HETATM   21  C   UNL     1     -11.272  11.011  67.261  1.00  0.00    -0.258 A  
HETATM   22  C   UNL     1     -11.920  11.760  68.245  1.00  0.00    -0.236 A  
HETATM   23  H   UNL     1     -10.545   9.040  71.462  1.00  0.00     0.000 HD 
HETATM   24  O   UNL     1     -11.030   9.821  71.226  1.00  0.00    -0.351 OA 
HETATM   25  C   UNL     1     -11.848  11.377  69.587  1.00  0.00    -0.431 A  
HETATM   26  C   UNL     1     -11.138  10.232  69.933  1.00  0.00    -0.304 A  
HETATM   27  C   UNL     1     -10.581   9.852  67.619  1.00  0.00    -0.325 A  
HETATM   28  C   UNL     1     -10.513   9.463  68.958  1.00  0.00    -0.233 A  
ENDBRANCH  20  21
ENDBRANCH  19  20
ENDBRANCH   2  19
TORSDOF 10
ENDMDL
MODEL       48
REMARK 921   NORMALIZED FREE ENERGY PREDICTED BY IDOCK:   -5.53 KCAL/MOL
REMARK 922        TOTAL FREE ENERGY PREDICTED BY IDOCK:   -9.90 KCAL/MOL
REMARK 923 INTER-LIGAND FREE ENERGY PREDICTED BY IDOCK:   -9.10 KCAL/MOL
REMARK 924 INTRA-LIGAND FREE ENERGY PREDICTED BY IDOCK:   -0.80 KCAL/MOL
REMARK 927      BINDING AFFINITY PREDICTED BY RF-SCORE:    0.00 PKD
ROOT
HETATM    1  O   UNL     1     -11.398  13.864  70.164  1.00  0.00    -0.466 OA 
HETATM    2  C   UNL     1     -11.911  12.918  69.216  1.00  0.00    -0.309 C  
HETATM    3  H   UNL     1     -11.829  13.726  70.999  1.00  0.00     0.000 HD 
ENDROOT
BRANCH   2   4
HETATM    4  C   UNL     1     -11.213  13.142  67.864  1.00  0.00    -0.270 C  
BRANCH   4   5
HETATM    5  N   UNL     1     -12.043  12.644  66.754  1.00  0.00    -0.518 NA 
HETATM    6  H   UNL     1     -12.770  12.005  67.078  1.00  0.00     0.000 HD 
BRANCH   5   7
HETATM    7  C   UNL     1     -12.598  13.771  65.996  1.00  0.00    -0.408 C  
BRANCH   7   8
HETATM    8  C   UNL     1     -11.947  13.881  64.613  1.00  0.00    -0.419 C  
BRANCH   8   9
HETATM    9  N   UNL     1     -10.761  14.711  64.677  1.00  0.00    -0.609 N  
HETATM   10  H   UNL     1      -9.849  14.267  64.570  1.00  0.00     0.000 HD 
BRANCH   9  11
HETATM   11  C   UNL     1     -10.812  16.061  64.874  1.00  0.00    -0.372 C  
HETATM   12  O   UNL     1     -11.519  16.785  64.175  1.00  0.00    -1.171 OA 
BRANCH  11  13
HETATM   13  N   UNL     1     -10.032  16.544  65.903  1.00  0.00    -0.330 N  
HETATM   14  C   UNL     1     -10.632  17.442  66.893  1.00  0.00    -0.216 C  
HETATM   15  C   UNL     1     -10.575  16.814  68.290  1.00  0.00    -0.352 C  
HETATM   16  O   UNL     1      -9.229  16.442  68.637  1.00  0.00    -0.213 OA 
HETATM   17  C   UNL     1      -8.703  15.504  67.688  1.00  0.00    -0.175 C  
HETATM   18  C   UNL     1      -8.684  16.102  66.276  1.00  0.00    -0.337 C  
ENDBRANCH  11  13
ENDBRANCH   9  11
ENDBRANCH   8   9
ENDBRANCH   7   8
ENDBRANCH   5   7
ENDBRANCH   4   5
ENDBRANCH   2   4
BRANCH   2  19
HETATM   19  C   UNL     1     -11.651  11.486  69.704  1.00  0.00    -0.333 C  
BRANCH  19  20
HETATM   20  O   UNL     1     -12.771  11.032  70.476  1.00  0.00    -0.302 OA 
BRANCH  20  21
HETATM   21  C   UNL     1     -12.652   9.759  70.964  1.00  0.00    -0.314 A  
HETATM   22  C   UNL     1     -11.355   9.241  70.996  1.00  0.00    -0.390 A  
HETATM   23  H   UNL     1     -12.743   5.411  72.742  1.00  0.00     0.000 HD 
HETATM   24  O   UNL     1     -12.013   5.929  72.423  1.00  0.00    -0.298 OA 
HETATM   25  C   UNL     1     -11.119   7.952  71.481  1.00  0.00    -0.278 A  
HETATM   26  C   UNL     1     -12.188   7.193  71.948  1.00  0.00    -0.323 A  
HETATM   27  C   UNL     1     -13.712   8.995  71.457  1.00  0.00    -0.388 A  
HETATM   28  C   UNL     1     -13.479   7.709  71.948  1.00  0.00    -0.311 A  
ENDBRANCH  20  21
ENDBRANCH  19  20
ENDBRANCH   2  19
TORSDOF 10
ENDMDL
MODEL       49
REMARK 921   NORMALIZED FREE ENERGY PREDICTED BY IDOCK:   -5.52 KCAL/MOL
REMARK 922        TOTAL FREE ENERGY PREDICTED BY IDOCK:   -9.89 KCAL/MOL
REMARK 923 INTER-LIGAND FREE ENERGY PREDICTED BY IDOCK:   -8.90 KCAL/MOL
REMARK 924 INTRA-LIGAND FREE ENERGY PREDICTED BY IDOCK:   -0.98 KCAL/MOL
REMARK 927      BINDING AFFINITY PREDICTED BY RF-SCORE:    0.00 PKD
ROOT
HETATM    1  O   UNL     1     -10.255   8.076  66.520  1.00  0.00    -0.416 OA 
HETATM    2  C   UNL     1      -9.705   9.303  67.020  1.00  0.00    -0.185 C  
HETATM    3  H   UNL     1     -10.609   7.580  67.248  1.00  0.00     0.000 HD 
ENDROOT
BRANCH   2   4
HETATM    4  C   UNL     1      -9.131  10.106  65.840  1.00  0.00    -0.156 C  
BRANCH   4   5
HETATM    5  N   UNL     1      -9.264   9.357  64.579  1.00  0.00    -0.430 NA 
HETATM    6  H   UNL     1      -9.904   8.568  64.669  1.00  0.00     0.000 HD 
BRANCH   5   7
HETATM    7  C   UNL     1      -9.657  10.264  63.495  1.00  0.00    -0.266 C  
BRANCH   7   8
HETATM    8  C   UNL     1      -9.792  11.704  64.001  1.00  0.00    -0.257 C  
BRANCH   8   9
HETATM    9  N   UNL     1     -10.731  12.442  63.180  1.00  0.00    -0.628 N  
HETATM   10  H   UNL     1     -10.453  12.701  62.234  1.00  0.00     0.000 HD 
BRANCH   9  11
HETATM   11  C   UNL     1     -11.971  12.805  63.620  1.00  0.00    -0.539 C  
HETATM   12  O   UNL     1     -12.988  12.249  63.207  1.00  0.00    -0.707 OA 
BRANCH  11  13
HETATM   13  N   UNL     1     -12.000  13.821  64.552  1.00  0.00    -0.407 N  
HETATM   14  C   UNL     1     -12.702  13.607  65.820  1.00  0.00    -0.416 C  
HETATM   15  C   UNL     1     -11.726  13.715  66.998  1.00  0.00    -0.384 C  
HETATM   16  O   UNL     1     -11.019  14.967  66.972  1.00  0.00    -0.307 OA 
HETATM   17  C   UNL     1     -10.282  15.107  65.749  1.00  0.00    -0.341 C  
HETATM   18  C   UNL     1     -11.219  15.063  64.535  1.00  0.00    -0.265 C  
ENDBRANCH  11  13
ENDBRANCH   9  11
ENDBRANCH   8   9
ENDBRANCH   7   8
ENDBRANCH   5   7
ENDBRANCH   4   5
ENDBRANCH   2   4
BRANCH   2  19
HETATM   19  C   UNL     1     -10.793  10.123  67.726  1.00  0.00    -0.292 C  
BRANCH  19  20
HETATM   20  O   UNL     1     -10.359  10.450  69.054  1.00  0.00    -0.189 OA 
BRANCH  20  21
HETATM   21  C   UNL     1     -11.212  10.051  70.048  1.00  0.00    -0.288 A  
HETATM   22  C   UNL     1     -12.159  10.995  70.450  1.00  0.00    -0.463 A  
HETATM   23  H   UNL     1     -13.918   8.220  73.424  1.00  0.00     0.000 HD 
HETATM   24  O   UNL     1     -13.933   9.082  73.025  1.00  0.00    -0.367 OA 
HETATM   25  C   UNL     1     -13.083  10.689  71.453  1.00  0.00    -0.499 A  
HETATM   26  C   UNL     1     -13.061   9.427  72.038  1.00  0.00    -0.433 A  
HETATM   27  C   UNL     1     -11.216   8.780  70.628  1.00  0.00    -0.294 A  
HETATM   28  C   UNL     1     -12.142   8.469  71.625  1.00  0.00    -0.373 A  
ENDBRANCH  20  21
ENDBRANCH  19  20
ENDBRANCH   2  19
TORSDOF 10
ENDMDL
MODEL       50
REMARK 921   NORMALIZED FREE ENERGY PREDICTED BY IDOCK:   -5.52 KCAL/MOL
REMARK 922        TOTAL FREE ENERGY PREDICTED BY IDOCK:   -9.88 KCAL/MOL
REMARK 923 INTER-LIGAND FREE ENERGY PREDICTED BY IDOCK:   -8.86 KCAL/MOL
REMARK 924 INTRA-LIGAND FREE ENERGY PREDICTED BY IDOCK:   -1.02 KCAL/MOL
REMARK 927      BINDING AFFINITY PREDICTED BY RF-SCORE:    0.00 PKD
ROOT
HETATM    1  O   UNL     1     -14.061   8.905  73.250  1.00  0.00    -1.211 OA 
HETATM    2  C   UNL     1     -13.222   8.876  72.088  1.00  0.00    -0.429 C  
HETATM    3  H   UNL     1     -14.150   8.021  73.586  1.00  0.00     0.000 HD 
ENDROOT
BRANCH   2   4
HETATM    4  C   UNL     1     -13.079  10.308  71.544  1.00  0.00    -0.433 C  
BRANCH   4   5
HETATM    5  N   UNL     1     -12.665  10.296  70.131  1.00  0.00    -0.557 NA 
HETATM    6  H   UNL     1     -13.448  10.473  69.502  1.00  0.00     0.000 HD 
BRANCH   5   7
HETATM    7  C   UNL     1     -11.566  11.245  69.922  1.00  0.00    -0.334 C  
BRANCH   7   8
HETATM    8  C   UNL     1     -11.847  12.161  68.725  1.00  0.00    -0.303 C  
BRANCH   8   9
HETATM    9  N   UNL     1     -11.809  11.405  67.490  1.00  0.00    -0.137 N  
HETATM   10  H   UNL     1     -12.607  10.815  67.255  1.00  0.00     0.000 HD 
BRANCH   9  11
HETATM   11  C   UNL     1     -10.751  11.448  66.628  1.00  0.00    -0.269 C  
HETATM   12  O   UNL     1      -9.760  10.738  66.791  1.00  0.00    -0.179 OA 
BRANCH  11  13
HETATM   13  N   UNL     1     -10.877  12.328  65.573  1.00  0.00    -0.273 N  
HETATM   14  C   UNL     1     -10.983  11.799  64.211  1.00  0.00    -0.359 C  
HETATM   15  C   UNL     1     -12.324  12.197  63.584  1.00  0.00    -0.568 C  
HETATM   16  O   UNL     1     -12.516  13.622  63.632  1.00  0.00    -0.728 OA 
HETATM   17  C   UNL     1     -12.483  14.092  64.987  1.00  0.00    -0.419 C  
HETATM   18  C   UNL     1     -11.137  13.770  65.647  1.00  0.00    -0.295 C  
ENDBRANCH  11  13
ENDBRANCH   9  11
ENDBRANCH   8   9
ENDBRANCH   7   8
ENDBRANCH   5   7
ENDBRANCH   4   5
ENDBRANCH   2   4
BRANCH   2  19
HETATM   19  C   UNL     1     -11.838   8.317  72.447  1.00  0.00    -0.396 C  
BRANCH  19  20
HETATM   20  O   UNL     1     -11.661   7.039  71.818  1.00  0.00    -0.258 OA 
BRANCH  20  21
HETATM   21  C   UNL     1     -11.063   7.086  70.588  1.00  0.00    -0.272 A  
HETATM   22  C   UNL     1     -10.025   8.010  70.452  1.00  0.00    -0.188 A  
HETATM   23  H   UNL     1      -9.308   6.845  66.237  1.00  0.00     0.000 HD 
HETATM   24  O   UNL     1      -9.067   7.404  66.966  1.00  0.00    -0.127 OA 
HETATM   25  C   UNL     1      -9.342   8.134  69.239  1.00  0.00    -0.151 A  
HETATM   26  C   UNL     1      -9.695   7.316  68.171  1.00  0.00    -0.145 A  
HETATM   27  C   UNL     1     -11.392   6.255  69.514  1.00  0.00    -0.475 A  
HETATM   28  C   UNL     1     -10.707   6.373  68.304  1.00  0.00    -0.351 A  
ENDBRANCH  20  21
ENDBRANCH  19  20
ENDBRANCH   2  19
TORSDOF 10
ENDMDL
MODEL       51
REMARK 921   NORMALIZED FREE ENERGY PREDICTED BY IDOCK:   -5.50 KCAL/MOL
REMARK 922        TOTAL FREE ENERGY PREDICTED BY IDOCK:   -9.85 KCAL/MOL
REMARK 923 INTER-LIGAND FREE ENERGY PREDICTED BY IDOCK:   -8.83 KCAL/MOL
REMARK 924 INTRA-LIGAND FREE ENERGY PREDICTED BY IDOCK:   -1.02 KCAL/MOL
REMARK 927      BINDING AFFINITY PREDICTED BY RF-SCORE:    0.00 PKD
ROOT
HETATM    1  O   UNL     1     -10.622  11.128  62.916  1.00  0.00    -0.755 OA 
HETATM    2  C   UNL     1     -11.024  11.485  64.246  1.00  0.00    -0.341 C  
HETATM    3  H   UNL     1     -11.128  11.640  62.296  1.00  0.00     0.000 HD 
ENDROOT
BRANCH   2   4
HETATM    4  C   UNL     1     -10.205  10.655  65.250  1.00  0.00    -0.282 C  
BRANCH   4   5
HETATM    5  N   UNL     1     -10.250  11.259  66.592  1.00  0.00    -0.221 NA 
HETATM    6  H   UNL     1     -10.501  12.248  66.558  1.00  0.00     0.000 HD 
BRANCH   5   7
HETATM    7  C   UNL     1     -11.151  10.491  67.459  1.00  0.00    -0.290 C  
BRANCH   7   8
HETATM    8  C   UNL     1     -11.389  11.216  68.789  1.00  0.00    -0.277 C  
BRANCH   8   9
HETATM    9  N   UNL     1     -12.478  10.593  69.515  1.00  0.00    -0.521 N  
HETATM   10  H   UNL     1     -13.150  10.028  68.996  1.00  0.00     0.000 HD 
BRANCH   9  11
HETATM   11  C   UNL     1     -12.642  10.731  70.864  1.00  0.00    -0.401 C  
HETATM   12  O   UNL     1     -12.999  11.797  71.362  1.00  0.00    -0.398 OA 
BRANCH  11  13
HETATM   13  N   UNL     1     -12.387   9.602  71.614  1.00  0.00    -0.380 N  
HETATM   14  C   UNL     1     -13.511   8.788  72.082  1.00  0.00    -0.427 C  
HETATM   15  C   UNL     1     -13.429   7.373  71.497  1.00  0.00    -0.372 C  
HETATM   16  O   UNL     1     -12.158   6.765  71.788  1.00  0.00    -0.321 OA 
HETATM   17  C   UNL     1     -11.085   7.551  71.248  1.00  0.00    -0.246 C  
HETATM   18  C   UNL     1     -11.086   8.964  71.843  1.00  0.00    -0.372 C  
ENDBRANCH  11  13
ENDBRANCH   9  11
ENDBRANCH   8   9
ENDBRANCH   7   8
ENDBRANCH   5   7
ENDBRANCH   4   5
ENDBRANCH   2   4
BRANCH   2  19
HETATM   19  C   UNL     1     -10.783  12.981  64.489  1.00  0.00    -0.385 C  
BRANCH  19  20
HETATM   20  O   UNL     1     -11.822  13.502  65.330  1.00  0.00    -0.330 OA 
BRANCH  20  21
HETATM   21  C   UNL     1     -11.436  14.538  66.139  1.00  0.00    -0.357 A  
HETATM   22  C   UNL     1     -11.904  14.487  67.454  1.00  0.00    -0.416 A  
HETATM   23  H   UNL     1      -9.826  18.253  68.521  1.00  0.00     0.000 HD 
HETATM   24  O   UNL     1     -10.388  17.541  68.801  1.00  0.00    -0.353 OA 
HETATM   25  C   UNL     1     -11.565  15.490  68.365  1.00  0.00    -0.368 A  
HETATM   26  C   UNL     1     -10.741  16.534  67.955  1.00  0.00    -0.343 A  
HETATM   27  C   UNL     1     -10.592  15.579  65.747  1.00  0.00    -0.370 A  
HETATM   28  C   UNL     1     -10.246  16.579  66.657  1.00  0.00    -0.302 A  
ENDBRANCH  20  21
ENDBRANCH  19  20
ENDBRANCH   2  19
TORSDOF 10
ENDMDL
MODEL       52
REMARK 921   NORMALIZED FREE ENERGY PREDICTED BY IDOCK:   -5.49 KCAL/MOL
REMARK 922        TOTAL FREE ENERGY PREDICTED BY IDOCK:   -9.84 KCAL/MOL
REMARK 923 INTER-LIGAND FREE ENERGY PREDICTED BY IDOCK:   -9.11 KCAL/MOL
REMARK 924 INTRA-LIGAND FREE ENERGY PREDICTED BY IDOCK:   -0.73 KCAL/MOL
REMARK 927      BINDING AFFINITY PREDICTED BY RF-SCORE:    0.00 PKD
ROOT
HETATM    1  O   UNL     1     -14.135   8.844  73.464  1.00  0.00    -1.189 OA 
HETATM    2  C   UNL     1     -14.019   8.945  72.038  1.00  0.00    -0.437 C  
HETATM    3  H   UNL     1     -14.778   8.176  73.672  1.00  0.00     0.000 HD 
ENDROOT
BRANCH   2   4
HETATM    4  C   UNL     1     -12.978  10.026  71.701  1.00  0.00    -0.449 C  
BRANCH   4   5
HETATM    5  N   UNL     1     -12.805  10.154  70.244  1.00  0.00    -0.572 NA 
HETATM    6  H   UNL     1     -13.535  10.729  69.822  1.00  0.00     0.000 HD 
BRANCH   5   7
HETATM    7  C   UNL     1     -11.462  10.661  69.940  1.00  0.00    -0.317 C  
BRANCH   7   8
HETATM    8  C   UNL     1     -11.230  10.739  68.427  1.00  0.00    -0.284 C  
BRANCH   8   9
HETATM    9  N   UNL     1     -10.594  11.994  68.078  1.00  0.00    -0.201 N  
HETATM   10  H   UNL     1      -9.592  12.094  68.242  1.00  0.00     0.000 HD 
BRANCH   9  11
HETATM   11  C   UNL     1     -11.278  13.046  67.540  1.00  0.00    -0.284 C  
HETATM   12  O   UNL     1     -11.971  13.785  68.236  1.00  0.00    -0.357 OA 
BRANCH  11  13
HETATM   13  N   UNL     1     -11.131  13.219  66.180  1.00  0.00    -0.283 N  
HETATM   14  C   UNL     1     -11.473  12.117  65.278  1.00  0.00    -0.336 C  
HETATM   15  C   UNL     1     -12.615  12.526  64.340  1.00  0.00    -0.410 C  
HETATM   16  O   UNL     1     -12.292  13.733  63.627  1.00  0.00    -0.678 OA 
HETATM   17  C   UNL     1     -12.039  14.809  64.541  1.00  0.00    -0.446 C  
HETATM   18  C   UNL     1     -10.865  14.476  65.470  1.00  0.00    -0.336 C  
ENDBRANCH  11  13
ENDBRANCH   9  11
ENDBRANCH   8   9
ENDBRANCH   7   8
ENDBRANCH   5   7
ENDBRANCH   4   5
ENDBRANCH   2   4
BRANCH   2  19
HETATM   19  C   UNL     1     -13.581   7.599  71.445  1.00  0.00    -0.296 C  
BRANCH  19  20
HETATM   20  O   UNL     1     -12.363   7.173  72.072  1.00  0.00    -0.304 OA 
BRANCH  20  21
HETATM   21  C   UNL     1     -11.536   6.432  71.270  1.00  0.00    -0.311 A  
HETATM   22  C   UNL     1     -11.680   6.637  69.896  1.00  0.00    -0.333 A  
HETATM   23  H   UNL     1      -8.479   3.721  68.952  1.00  0.00     0.000 HD 
HETATM   24  O   UNL     1      -9.130   4.330  68.625  1.00  0.00    -0.111 OA 
HETATM   25  C   UNL     1     -10.881   5.937  68.988  1.00  0.00    -0.383 A  
HETATM   26  C   UNL     1      -9.928   5.044  69.467  1.00  0.00    -0.232 A  
HETATM   27  C   UNL     1     -10.560   5.550  71.737  1.00  0.00    -0.296 A  
HETATM   28  C   UNL     1      -9.756   4.854  70.833  1.00  0.00    -0.264 A  
ENDBRANCH  20  21
ENDBRANCH  19  20
ENDBRANCH   2  19
TORSDOF 10
ENDMDL
MODEL       53
REMARK 921   NORMALIZED FREE ENERGY PREDICTED BY IDOCK:   -5.49 KCAL/MOL
REMARK 922        TOTAL FREE ENERGY PREDICTED BY IDOCK:   -9.83 KCAL/MOL
REMARK 923 INTER-LIGAND FREE ENERGY PREDICTED BY IDOCK:   -8.23 KCAL/MOL
REMARK 924 INTRA-LIGAND FREE ENERGY PREDICTED BY IDOCK:   -1.60 KCAL/MOL
REMARK 927      BINDING AFFINITY PREDICTED BY RF-SCORE:    0.00 PKD
ROOT
HETATM    1  O   UNL     1     -12.373  14.362  63.211  1.00  0.00    -1.079 OA 
HETATM    2  C   UNL     1     -12.269  12.981  63.585  1.00  0.00    -0.491 C  
HETATM    3  H   UNL     1     -13.265  14.653  63.361  1.00  0.00     0.000 HD 
ENDROOT
BRANCH   2   4
HETATM    4  C   UNL     1     -10.825  12.509  63.342  1.00  0.00    -0.302 C  
BRANCH   4   5
HETATM    5  N   UNL     1     -10.749  11.039  63.318  1.00  0.00    -0.752 NA 
HETATM    6  H   UNL     1     -11.297  10.640  62.555  1.00  0.00     0.000 HD 
BRANCH   5   7
HETATM    7  C   UNL     1      -9.346  10.610  63.270  1.00  0.00    -0.306 C  
BRANCH   7   8
HETATM    8  C   UNL     1      -8.965   9.826  64.531  1.00  0.00    -0.238 C  
BRANCH   8   9
HETATM    9  N   UNL     1      -9.888  10.122  65.608  1.00  0.00    -0.262 N  
HETATM   10  H   UNL     1     -10.402  11.002  65.582  1.00  0.00     0.000 HD 
BRANCH   9  11
HETATM   11  C   UNL     1     -10.099   9.272  66.656  1.00  0.00    -0.271 C  
HETATM   12  O   UNL     1     -10.391   8.091  66.476  1.00  0.00    -0.260 OA 
BRANCH  11  13
HETATM   13  N   UNL     1      -9.955   9.825  67.911  1.00  0.00    -0.156 N  
HETATM   14  C   UNL     1     -10.763   9.305  69.016  1.00  0.00    -0.167 C  
HETATM   15  C   UNL     1      -9.863   8.721  70.111  1.00  0.00    -0.176 C  
HETATM   16  O   UNL     1      -8.892   9.685  70.553  1.00  0.00    -0.225 OA 
HETATM   17  C   UNL     1      -8.069  10.113  69.458  1.00  0.00    -0.170 C  
HETATM   18  C   UNL     1      -8.915  10.759  68.354  1.00  0.00    -0.153 C  
ENDBRANCH  11  13
ENDBRANCH   9  11
ENDBRANCH   8   9
ENDBRANCH   7   8
ENDBRANCH   5   7
ENDBRANCH   4   5
ENDBRANCH   2   4
BRANCH   2  19
HETATM   19  C   UNL     1     -12.631  12.804  65.066  1.00  0.00    -0.468 C  
BRANCH  19  20
HETATM   20  O   UNL     1     -11.430  12.703  65.844  1.00  0.00    -0.326 OA 
BRANCH  20  21
HETATM   21  C   UNL     1     -11.436  13.434  67.002  1.00  0.00    -0.337 A  
HETATM   22  C   UNL     1     -11.190  14.801  66.857  1.00  0.00    -0.347 A  
HETATM   23  H   UNL     1     -11.600  15.510  71.213  1.00  0.00     0.000 HD 
HETATM   24  O   UNL     1     -11.427  15.876  70.354  1.00  0.00    -0.324 OA 
HETATM   25  C   UNL     1     -11.180  15.640  67.974  1.00  0.00    -0.339 A  
HETATM   26  C   UNL     1     -11.434  15.104  69.233  1.00  0.00    -0.311 A  
HETATM   27  C   UNL     1     -11.711  12.912  68.268  1.00  0.00    -0.390 A  
HETATM   28  C   UNL     1     -11.709  13.749  69.385  1.00  0.00    -0.379 A  
ENDBRANCH  20  21
ENDBRANCH  19  20
ENDBRANCH   2  19
TORSDOF 10
ENDMDL
MODEL       54
REMARK 921   NORMALIZED FREE ENERGY PREDICTED BY IDOCK:   -5.48 KCAL/MOL
REMARK 922        TOTAL FREE ENERGY PREDICTED BY IDOCK:   -9.82 KCAL/MOL
REMARK 923 INTER-LIGAND FREE ENERGY PREDICTED BY IDOCK:   -9.14 KCAL/MOL
REMARK 924 INTRA-LIGAND FREE ENERGY PREDICTED BY IDOCK:   -0.69 KCAL/MOL
REMARK 927      BINDING AFFINITY PREDICTED BY RF-SCORE:    0.00 PKD
ROOT
HETATM    1  O   UNL     1     -13.706  16.112  73.704  1.00  0.00    -0.884 OA 
HETATM    2  C   UNL     1     -13.041  15.105  72.928  1.00  0.00    -0.479 C  
HETATM    3  H   UNL     1     -13.051  16.660  74.120  1.00  0.00     0.000 HD 
ENDROOT
BRANCH   2   4
HETATM    4  C   UNL     1     -14.102  14.218  72.255  1.00  0.00    -0.526 C  
BRANCH   4   5
HETATM    5  N   UNL     1     -13.962  12.815  72.680  1.00  0.00    -0.652 NA 
HETATM    6  H   UNL     1     -14.861  12.334  72.713  1.00  0.00     0.000 HD 
BRANCH   5   7
HETATM    7  C   UNL     1     -12.999  12.122  71.816  1.00  0.00    -0.332 C  
BRANCH   7   8
HETATM    8  C   UNL     1     -13.281  10.616  71.770  1.00  0.00    -0.421 C  
BRANCH   8   9
HETATM    9  N   UNL     1     -12.741  10.038  70.556  1.00  0.00    -0.529 N  
HETATM   10  H   UNL     1     -13.390   9.720  69.837  1.00  0.00     0.000 HD 
BRANCH   9  11
HETATM   11  C   UNL     1     -11.401   9.902  70.334  1.00  0.00    -0.307 C  
HETATM   12  O   UNL     1     -10.725  10.830  69.893  1.00  0.00    -0.236 OA 
BRANCH  11  13
HETATM   13  N   UNL     1     -10.867   8.668  70.642  1.00  0.00    -0.223 N  
HETATM   14  C   UNL     1     -10.918   8.194  72.027  1.00  0.00    -0.286 C  
HETATM   15  C   UNL     1     -11.743   6.905  72.123  1.00  0.00    -0.288 C  
HETATM   16  O   UNL     1     -11.242   5.902  71.222  1.00  0.00    -0.273 OA 
HETATM   17  C   UNL     1     -11.279   6.373  69.868  1.00  0.00    -0.420 C  
HETATM   18  C   UNL     1     -10.422   7.635  69.701  1.00  0.00    -0.235 C  
ENDBRANCH  11  13
ENDBRANCH   9  11
ENDBRANCH   8   9
ENDBRANCH   7   8
ENDBRANCH   5   7
ENDBRANCH   4   5
ENDBRANCH   2   4
BRANCH   2  19
HETATM   19  C   UNL     1     -12.156  15.758  71.859  1.00  0.00    -0.465 C  
BRANCH  19  20
HETATM   20  O   UNL     1     -12.835  15.736  70.595  1.00  0.00    -0.438 OA 
BRANCH  20  21
HETATM   21  C   UNL     1     -12.028  15.495  69.516  1.00  0.00    -0.350 A  
HETATM   22  C   UNL     1     -12.150  14.230  68.938  1.00  0.00    -0.314 A  
HETATM   23  H   UNL     1      -9.112  15.159  65.848  1.00  0.00     0.000 HD 
HETATM   24  O   UNL     1      -9.714  14.522  66.215  1.00  0.00    -0.281 OA 
HETATM   25  C   UNL     1     -11.377  13.882  67.827  1.00  0.00    -0.335 A  
HETATM   26  C   UNL     1     -10.495  14.814  67.291  1.00  0.00    -0.264 A  
HETATM   27  C   UNL     1     -11.155  16.429  68.954  1.00  0.00    -0.328 A  
HETATM   28  C   UNL     1     -10.387  16.087  67.840  1.00  0.00    -0.269 A  
ENDBRANCH  20  21
ENDBRANCH  19  20
ENDBRANCH   2  19
TORSDOF 10
ENDMDL
MODEL       55
REMARK 921   NORMALIZED FREE ENERGY PREDICTED BY IDOCK:   -5.47 KCAL/MOL
REMARK 922        TOTAL FREE ENERGY PREDICTED BY IDOCK:   -9.81 KCAL/MOL
REMARK 923 INTER-LIGAND FREE ENERGY PREDICTED BY IDOCK:   -8.63 KCAL/MOL
REMARK 924 INTRA-LIGAND FREE ENERGY PREDICTED BY IDOCK:   -1.18 KCAL/MOL
REMARK 927      BINDING AFFINITY PREDICTED BY RF-SCORE:    0.00 PKD
ROOT
HETATM    1  O   UNL     1     -13.771  15.623  73.247  1.00  0.00    -0.625 OA 
HETATM    2  C   UNL     1     -14.082  14.898  72.050  1.00  0.00    -0.517 C  
HETATM    3  H   UNL     1     -14.296  15.278  73.960  1.00  0.00     0.000 HD 
ENDROOT
BRANCH   2   4
HETATM    4  C   UNL     1     -13.232  15.458  70.896  1.00  0.00    -0.455 C  
BRANCH   4   5
HETATM    5  N   UNL     1     -11.810  15.520  71.272  1.00  0.00    -0.356 NA 
HETATM    6  H   UNL     1     -11.549  14.764  71.906  1.00  0.00     0.000 HD 
BRANCH   5   7
HETATM    7  C   UNL     1     -10.973  15.540  70.067  1.00  0.00    -0.319 C  
BRANCH   7   8
HETATM    8  C   UNL     1     -11.831  15.597  68.798  1.00  0.00    -0.321 C  
BRANCH   8   9
HETATM    9  N   UNL     1     -12.060  14.261  68.284  1.00  0.00    -0.549 N  
HETATM   10  H   UNL     1     -12.636  13.621  68.829  1.00  0.00     0.000 HD 
BRANCH   9  11
HETATM   11  C   UNL     1     -11.537  13.825  67.100  1.00  0.00    -0.364 C  
HETATM   12  O   UNL     1     -11.784  14.397  66.040  1.00  0.00    -0.364 OA 
BRANCH  11  13
HETATM   13  N   UNL     1     -10.720  12.718  67.181  1.00  0.00    -0.243 N  
HETATM   14  C   UNL     1     -10.916  11.615  66.237  1.00  0.00    -0.289 C  
HETATM   15  C   UNL     1      -9.662  11.414  65.378  1.00  0.00    -0.230 C  
HETATM   16  O   UNL     1      -8.496  11.226  66.200  1.00  0.00    -0.173 OA 
HETATM   17  C   UNL     1      -8.292  12.360  67.056  1.00  0.00    -0.157 C  
HETATM   18  C   UNL     1      -9.498  12.575  67.980  1.00  0.00    -0.209 C  
ENDBRANCH  11  13
ENDBRANCH   9  11
ENDBRANCH   8   9
ENDBRANCH   7   8
ENDBRANCH   5   7
ENDBRANCH   4   5
ENDBRANCH   2   4
BRANCH   2  19
HETATM   19  C   UNL     1     -13.780  13.405  72.240  1.00  0.00    -0.607 C  
BRANCH  19  20
HETATM   20  O   UNL     1     -12.932  12.949  71.177  1.00  0.00    -0.279 OA 
BRANCH  20  21
HETATM   21  C   UNL     1     -12.664  11.606  71.197  1.00  0.00    -0.325 A  
HETATM   22  C   UNL     1     -13.472  10.838  72.037  1.00  0.00    -0.296 A  
HETATM   23  H   UNL     1     -11.402   7.091  70.890  1.00  0.00     0.000 HD 
HETATM   24  O   UNL     1     -12.076   7.506  71.416  1.00  0.00    -0.303 OA 
HETATM   25  C   UNL     1     -13.288   9.456  72.128  1.00  0.00    -0.545 A  
HETATM   26  C   UNL     1     -12.302   8.848  71.358  1.00  0.00    -0.313 A  
HETATM   27  C   UNL     1     -11.693  10.980  70.413  1.00  0.00    -0.437 A  
HETATM   28  C   UNL     1     -11.511   9.598  70.496  1.00  0.00    -0.352 A  
ENDBRANCH  20  21
ENDBRANCH  19  20
ENDBRANCH   2  19
TORSDOF 10
ENDMDL
MODEL       56
REMARK 921   NORMALIZED FREE ENERGY PREDICTED BY IDOCK:   -5.46 KCAL/MOL
REMARK 922        TOTAL FREE ENERGY PREDICTED BY IDOCK:   -9.78 KCAL/MOL
REMARK 923 INTER-LIGAND FREE ENERGY PREDICTED BY IDOCK:   -9.12 KCAL/MOL
REMARK 924 INTRA-LIGAND FREE ENERGY PREDICTED BY IDOCK:   -0.66 KCAL/MOL
REMARK 927      BINDING AFFINITY PREDICTED BY RF-SCORE:    0.00 PKD
ROOT
HETATM    1  O   UNL     1     -14.124   8.970  73.233  1.00  0.00    -1.218 OA 
HETATM    2  C   UNL     1     -13.467   8.879  71.961  1.00  0.00    -0.433 C  
HETATM    3  H   UNL     1     -14.267   8.092  73.567  1.00  0.00     0.000 HD 
ENDROOT
BRANCH   2   4
HETATM    4  C   UNL     1     -13.237  10.301  71.420  1.00  0.00    -0.370 C  
BRANCH   4   5
HETATM    5  N   UNL     1     -12.947  10.274  69.976  1.00  0.00    -0.521 NA 
HETATM    6  H   UNL     1     -13.797  10.327  69.415  1.00  0.00     0.000 HD 
BRANCH   5   7
HETATM    7  C   UNL     1     -11.995  11.339  69.636  1.00  0.00    -0.353 C  
BRANCH   7   8
HETATM    8  C   UNL     1     -11.448  11.157  68.215  1.00  0.00    -0.303 C  
BRANCH   8   9
HETATM    9  N   UNL     1     -11.492  12.413  67.493  1.00  0.00    -0.324 N  
HETATM   10  H   UNL     1     -12.349  12.965  67.527  1.00  0.00     0.000 HD 
BRANCH   9  11
HETATM   11  C   UNL     1     -10.435  12.887  66.770  1.00  0.00    -0.254 C  
HETATM   12  O   UNL     1      -9.322  13.025  67.274  1.00  0.00    -0.205 OA 
BRANCH  11  13
HETATM   13  N   UNL     1     -10.702  13.190  65.452  1.00  0.00    -0.288 N  
HETATM   14  C   UNL     1     -11.107  12.116  64.541  1.00  0.00    -0.325 C  
HETATM   15  C   UNL     1     -12.514  12.381  63.992  1.00  0.00    -0.459 C  
HETATM   16  O   UNL     1     -12.594  13.677  63.375  1.00  0.00    -0.799 OA 
HETATM   17  C   UNL     1     -12.266  14.708  64.317  1.00  0.00    -0.408 C  
HETATM   18  C   UNL     1     -10.843  14.524  64.859  1.00  0.00    -0.421 C  
ENDBRANCH  11  13
ENDBRANCH   9  11
ENDBRANCH   8   9
ENDBRANCH   7   8
ENDBRANCH   5   7
ENDBRANCH   4   5
ENDBRANCH   2   4
BRANCH   2  19
HETATM   19  C   UNL     1     -12.123   8.155  72.108  1.00  0.00    -0.357 C  
BRANCH  19  20
HETATM   20  O   UNL     1     -11.944   7.248  71.011  1.00  0.00    -0.311 OA 
BRANCH  20  21
HETATM   21  C   UNL     1     -11.279   6.094  71.326  1.00  0.00    -0.287 A  
HETATM   22  C   UNL     1     -10.608   5.473  70.271  1.00  0.00    -0.357 A  
HETATM   23  H   UNL     1      -9.125   2.225  72.896  1.00  0.00     0.000 HD 
HETATM   24  O   UNL     1      -9.162   2.596  72.023  1.00  0.00    -0.084 OA 
HETATM   25  C   UNL     1      -9.892   4.292  70.484  1.00  0.00    -0.269 A  
HETATM   26  C   UNL     1      -9.838   3.749  71.763  1.00  0.00    -0.174 A  
HETATM   27  C   UNL     1     -11.198   5.550  72.610  1.00  0.00    -0.348 A  
HETATM   28  C   UNL     1     -10.477   4.375  72.828  1.00  0.00    -0.253 A  
ENDBRANCH  20  21
ENDBRANCH  19  20
ENDBRANCH   2  19
TORSDOF 10
ENDMDL
MODEL       57
REMARK 921   NORMALIZED FREE ENERGY PREDICTED BY IDOCK:   -5.45 KCAL/MOL
REMARK 922        TOTAL FREE ENERGY PREDICTED BY IDOCK:   -9.78 KCAL/MOL
REMARK 923 INTER-LIGAND FREE ENERGY PREDICTED BY IDOCK:   -8.49 KCAL/MOL
REMARK 924 INTRA-LIGAND FREE ENERGY PREDICTED BY IDOCK:   -1.29 KCAL/MOL
REMARK 927      BINDING AFFINITY PREDICTED BY RF-SCORE:    0.00 PKD
ROOT
HETATM    1  O   UNL     1      -9.716  12.336  69.017  1.00  0.00    -0.412 OA 
HETATM    2  C   UNL     1     -10.776  11.414  69.303  1.00  0.00    -0.151 C  
HETATM    3  H   UNL     1      -8.998  11.862  68.614  1.00  0.00     0.000 HD 
ENDROOT
BRANCH   2   4
HETATM    4  C   UNL     1     -11.938  12.182  69.956  1.00  0.00    -0.315 C  
BRANCH   4   5
HETATM    5  N   UNL     1     -12.004  13.564  69.454  1.00  0.00    -0.329 NA 
HETATM    6  H   UNL     1     -12.738  13.683  68.756  1.00  0.00     0.000 HD 
BRANCH   5   7
HETATM    7  C   UNL     1     -12.154  14.499  70.575  1.00  0.00    -0.325 C  
BRANCH   7   8
HETATM    8  C   UNL     1     -11.211  15.698  70.425  1.00  0.00    -0.357 C  
BRANCH   8   9
HETATM    9  N   UNL     1     -11.275  16.226  69.077  1.00  0.00    -0.335 N  
HETATM   10  H   UNL     1     -12.109  16.740  68.794  1.00  0.00     0.000 HD 
BRANCH   9  11
HETATM   11  C   UNL     1     -10.267  16.064  68.171  1.00  0.00    -0.243 C  
HETATM   12  O   UNL     1      -9.910  14.947  67.800  1.00  0.00    -0.215 OA 
BRANCH  11  13
HETATM   13  N   UNL     1      -9.692  17.226  67.703  1.00  0.00    -0.266 N  
HETATM   14  C   UNL     1     -10.094  17.746  66.394  1.00  0.00    -0.357 C  
HETATM   15  C   UNL     1     -10.730  19.133  66.539  1.00  0.00    -0.366 C  
HETATM   16  O   UNL     1      -9.853  20.035  67.237  1.00  0.00    -0.373 OA 
HETATM   17  C   UNL     1      -9.543  19.530  68.544  1.00  0.00    -0.399 C  
HETATM   18  C   UNL     1      -8.851  18.164  68.456  1.00  0.00    -0.299 C  
ENDBRANCH  11  13
ENDBRANCH   9  11
ENDBRANCH   8   9
ENDBRANCH   7   8
ENDBRANCH   5   7
ENDBRANCH   4   5
ENDBRANCH   2   4
BRANCH   2  19
HETATM   19  C   UNL     1     -11.259  10.743  68.010  1.00  0.00    -0.307 C  
BRANCH  19  20
HETATM   20  O   UNL     1     -10.347  11.045  66.944  1.00  0.00    -0.216 OA 
BRANCH  20  21
HETATM   21  C   UNL     1     -10.909  11.696  65.879  1.00  0.00    -0.287 A  
HETATM   22  C   UNL     1     -11.816  12.709  66.196  1.00  0.00    -0.477 A  
HETATM   23  H   UNL     1     -12.525  13.650  61.924  1.00  0.00     0.000 HD 
HETATM   24  O   UNL     1     -12.730  13.840  62.831  1.00  0.00    -0.558 OA 
HETATM   25  C   UNL     1     -12.443  13.441  65.184  1.00  0.00    -0.509 A  
HETATM   26  C   UNL     1     -12.142  13.162  63.855  1.00  0.00    -0.470 A  
HETATM   27  C   UNL     1     -10.600  11.442  64.541  1.00  0.00    -0.390 A  
HETATM   28  C   UNL     1     -11.218  12.176  63.528  1.00  0.00    -0.536 A  
ENDBRANCH  20  21
ENDBRANCH  19  20
ENDBRANCH   2  19
TORSDOF 10
ENDMDL
MODEL       58
REMARK 921   NORMALIZED FREE ENERGY PREDICTED BY IDOCK:   -5.45 KCAL/MOL
REMARK 922        TOTAL FREE ENERGY PREDICTED BY IDOCK:   -9.77 KCAL/MOL
REMARK 923 INTER-LIGAND FREE ENERGY PREDICTED BY IDOCK:   -8.78 KCAL/MOL
REMARK 924 INTRA-LIGAND FREE ENERGY PREDICTED BY IDOCK:   -1.00 KCAL/MOL
REMARK 927      BINDING AFFINITY PREDICTED BY RF-SCORE:    0.00 PKD
ROOT
HETATM    1  O   UNL     1     -13.760  15.707  70.614  1.00  0.00    -0.847 OA 
HETATM    2  C   UNL     1     -12.776  14.796  70.105  1.00  0.00    -0.219 C  
HETATM    3  H   UNL     1     -14.514  15.210  70.909  1.00  0.00     0.000 HD 
ENDROOT
BRANCH   2   4
HETATM    4  C   UNL     1     -11.555  15.601  69.627  1.00  0.00    -0.356 C  
BRANCH   4   5
HETATM    5  N   UNL     1     -10.326  14.794  69.710  1.00  0.00    -0.439 NA 
HETATM    6  H   UNL     1     -10.505  13.807  69.526  1.00  0.00     0.000 HD 
BRANCH   5   7
HETATM    7  C   UNL     1      -9.302  15.345  68.815  1.00  0.00    -0.209 C  
BRANCH   7   8
HETATM    8  C   UNL     1      -9.812  15.418  67.371  1.00  0.00    -0.216 C  
BRANCH   8   9
HETATM    9  N   UNL     1      -9.215  14.368  66.571  1.00  0.00    -0.372 N  
HETATM   10  H   UNL     1      -8.508  14.622  65.882  1.00  0.00     0.000 HD 
BRANCH   9  11
HETATM   11  C   UNL     1      -9.560  13.053  66.701  1.00  0.00    -0.259 C  
HETATM   12  O   UNL     1      -8.879  12.272  67.363  1.00  0.00    -0.169 OA 
BRANCH  11  13
HETATM   13  N   UNL     1     -10.715  12.672  66.051  1.00  0.00    -0.264 N  
HETATM   14  C   UNL     1     -12.011  13.078  66.600  1.00  0.00    -0.387 C  
HETATM   15  C   UNL     1     -12.762  13.966  65.601  1.00  0.00    -0.495 C  
HETATM   16  O   UNL     1     -12.892  13.314  64.325  1.00  0.00    -0.649 OA 
HETATM   17  C   UNL     1     -11.601  13.001  63.783  1.00  0.00    -0.457 C  
HETATM   18  C   UNL     1     -10.824  12.067  64.719  1.00  0.00    -0.306 C  
ENDBRANCH  11  13
ENDBRANCH   9  11
ENDBRANCH   8   9
ENDBRANCH   7   8
ENDBRANCH   5   7
ENDBRANCH   4   5
ENDBRANCH   2   4
BRANCH   2  19
HETATM   19  C   UNL     1     -12.351  13.809  71.199  1.00  0.00    -0.345 C  
BRANCH  19  20
HETATM   20  O   UNL     1     -13.268  12.706  71.233  1.00  0.00    -0.216 OA 
BRANCH  20  21
HETATM   21  C   UNL     1     -12.688  11.475  71.085  1.00  0.00    -0.356 A  
HETATM   22  C   UNL     1     -11.619  11.412  70.189  1.00  0.00    -0.368 A  
HETATM   23  H   UNL     1     -11.011   7.089  70.951  1.00  0.00     0.000 HD 
HETATM   24  O   UNL     1     -10.738   7.865  70.477  1.00  0.00    -0.224 OA 
HETATM   25  C   UNL     1     -10.951  10.205  69.968  1.00  0.00    -0.364 A  
HETATM   26  C   UNL     1     -11.350   9.067  70.662  1.00  0.00    -0.265 A  
HETATM   27  C   UNL     1     -13.064  10.331  71.792  1.00  0.00    -0.570 A  
HETATM   28  C   UNL     1     -12.394   9.125  71.578  1.00  0.00    -0.421 A  
ENDBRANCH  20  21
ENDBRANCH  19  20
ENDBRANCH   2  19
TORSDOF 10
ENDMDL
MODEL       59
REMARK 921   NORMALIZED FREE ENERGY PREDICTED BY IDOCK:   -5.41 KCAL/MOL
REMARK 922        TOTAL FREE ENERGY PREDICTED BY IDOCK:   -9.71 KCAL/MOL
REMARK 923 INTER-LIGAND FREE ENERGY PREDICTED BY IDOCK:   -8.80 KCAL/MOL
REMARK 924 INTRA-LIGAND FREE ENERGY PREDICTED BY IDOCK:   -0.91 KCAL/MOL
REMARK 927      BINDING AFFINITY PREDICTED BY RF-SCORE:    0.00 PKD
ROOT
HETATM    1  O   UNL     1     -10.501  10.841  69.810  1.00  0.00    -0.397 OA 
HETATM    2  C   UNL     1     -11.847  11.066  69.370  1.00  0.00    -0.335 C  
HETATM    3  H   UNL     1      -9.930  10.820  69.051  1.00  0.00     0.000 HD 
ENDROOT
BRANCH   2   4
HETATM    4  C   UNL     1     -12.771  11.098  70.600  1.00  0.00    -0.263 C  
BRANCH   4   5
HETATM    5  N   UNL     1     -13.501   9.827  70.744  1.00  0.00    -0.588 NA 
HETATM    6  H   UNL     1     -13.338   9.202  69.955  1.00  0.00     0.000 HD 
BRANCH   5   7
HETATM    7  C   UNL     1     -13.164   9.197  72.025  1.00  0.00    -0.441 C  
BRANCH   7   8
HETATM    8  C   UNL     1     -11.872   8.380  71.916  1.00  0.00    -0.336 C  
BRANCH   8   9
HETATM    9  N   UNL     1     -11.749   7.804  70.592  1.00  0.00    -0.438 N  
HETATM   10  H   UNL     1     -12.234   8.256  69.817  1.00  0.00     0.000 HD 
BRANCH   9  11
HETATM   11  C   UNL     1     -11.012   6.683  70.338  1.00  0.00    -0.290 C  
HETATM   12  O   UNL     1     -11.025   5.719  71.102  1.00  0.00    -0.265 OA 
BRANCH  11  13
HETATM   13  N   UNL     1     -10.267   6.708  69.178  1.00  0.00    -0.171 N  
HETATM   14  C   UNL     1     -10.530   5.709  68.139  1.00  0.00    -0.195 C  
HETATM   15  C   UNL     1     -10.988   6.390  66.844  1.00  0.00    -0.341 C  
HETATM   16  O   UNL     1     -10.039   7.383  66.417  1.00  0.00    -0.143 OA 
HETATM   17  C   UNL     1      -9.866   8.386  67.428  1.00  0.00    -0.191 C  
HETATM   18  C   UNL     1      -9.353   7.766  68.734  1.00  0.00    -0.146 C  
ENDBRANCH  11  13
ENDBRANCH   9  11
ENDBRANCH   8   9
ENDBRANCH   7   8
ENDBRANCH   5   7
ENDBRANCH   4   5
ENDBRANCH   2   4
BRANCH   2  19
HETATM   19  C   UNL     1     -11.942  12.397  68.614  1.00  0.00    -0.225 C  
BRANCH  19  20
HETATM   20  O   UNL     1     -11.973  12.144  67.202  1.00  0.00    -0.580 OA 
BRANCH  20  21
HETATM   21  C   UNL     1     -11.833  13.259  66.419  1.00  0.00    -0.396 A  
HETATM   22  C   UNL     1     -10.966  14.238  66.906  1.00  0.00    -0.304 A  
HETATM   23  H   UNL     1     -11.649  16.842  63.386  1.00  0.00     0.000 HD 
HETATM   24  O   UNL     1     -11.212  16.720  64.220  1.00  0.00    -1.163 OA 
HETATM   25  C   UNL     1     -10.745  15.412  66.182  1.00  0.00    -0.316 A  
HETATM   26  C   UNL     1     -11.385  15.591  64.960  1.00  0.00    -0.299 A  
HETATM   27  C   UNL     1     -12.452  13.440  65.180  1.00  0.00    -0.509 A  
HETATM   28  C   UNL     1     -12.229  14.610  64.451  1.00  0.00    -0.473 A  
ENDBRANCH  20  21
ENDBRANCH  19  20
ENDBRANCH   2  19
TORSDOF 10
ENDMDL
MODEL       60
REMARK 921   NORMALIZED FREE ENERGY PREDICTED BY IDOCK:   -5.38 KCAL/MOL
REMARK 922        TOTAL FREE ENERGY PREDICTED BY IDOCK:   -9.67 KCAL/MOL
REMARK 923 INTER-LIGAND FREE ENERGY PREDICTED BY IDOCK:   -8.36 KCAL/MOL
REMARK 924 INTRA-LIGAND FREE ENERGY PREDICTED BY IDOCK:   -1.31 KCAL/MOL
REMARK 927      BINDING AFFINITY PREDICTED BY RF-SCORE:    0.00 PKD
ROOT
HETATM    1  O   UNL     1     -10.680   8.572  71.797  1.00  0.00    -0.254 OA 
HETATM    2  C   UNL     1     -10.650   9.696  70.906  1.00  0.00    -0.316 C  
HETATM    3  H   UNL     1     -10.894   8.880  72.670  1.00  0.00     0.000 HD 
ENDROOT
BRANCH   2   4
HETATM    4  C   UNL     1     -10.304   9.197  69.492  1.00  0.00    -0.215 C  
BRANCH   4   5
HETATM    5  N   UNL     1      -8.901   9.496  69.157  1.00  0.00    -0.140 NA 
HETATM    6  H   UNL     1      -8.498   8.792  68.538  1.00  0.00     0.000 HD 
BRANCH   5   7
HETATM    7  C   UNL     1      -8.796  10.848  68.596  1.00  0.00    -0.158 C  
BRANCH   7   8
HETATM    8  C   UNL     1      -9.730  11.021  67.393  1.00  0.00    -0.168 C  
BRANCH   8   9
HETATM    9  N   UNL     1     -10.502  12.241  67.525  1.00  0.00    -0.211 N  
HETATM   10  H   UNL     1     -10.545  12.695  68.437  1.00  0.00     0.000 HD 
BRANCH   9  11
HETATM   11  C   UNL     1     -11.174  12.807  66.480  1.00  0.00    -0.307 C  
HETATM   12  O   UNL     1     -12.266  12.378  66.110  1.00  0.00    -0.635 OA 
BRANCH  11  13
HETATM   13  N   UNL     1     -10.552  13.883  65.884  1.00  0.00    -0.287 N  
HETATM   14  C   UNL     1     -10.955  14.283  64.533  1.00  0.00    -0.298 C  
HETATM   15  C   UNL     1     -11.519  15.708  64.541  1.00  0.00    -0.300 C  
HETATM   16  O   UNL     1     -10.584  16.632  65.126  1.00  0.00    -0.645 OA 
HETATM   17  C   UNL     1     -10.272  16.252  66.474  1.00  0.00    -0.300 C  
HETATM   18  C   UNL     1      -9.651  14.851  66.519  1.00  0.00    -0.276 C  
ENDBRANCH  11  13
ENDBRANCH   9  11
ENDBRANCH   8   9
ENDBRANCH   7   8
ENDBRANCH   5   7
ENDBRANCH   4   5
ENDBRANCH   2   4
BRANCH   2  19
HETATM   19  C   UNL     1     -12.015  10.397  70.890  1.00  0.00    -0.377 C  
BRANCH  19  20
HETATM   20  O   UNL     1     -11.901  11.651  70.203  1.00  0.00    -0.330 OA 
BRANCH  20  21
HETATM   21  C   UNL     1     -12.491  12.708  70.842  1.00  0.00    -0.278 A  
HETATM   22  C   UNL     1     -12.339  13.952  70.225  1.00  0.00    -0.413 A  
HETATM   23  H   UNL     1     -14.713  15.992  73.363  1.00  0.00     0.000 HD 
HETATM   24  O   UNL     1     -14.211  16.069  72.561  1.00  0.00    -0.397 OA 
HETATM   25  C   UNL     1     -12.908  15.097  70.790  1.00  0.00    -0.473 A  
HETATM   26  C   UNL     1     -13.643  14.984  71.965  1.00  0.00    -0.420 A  
HETATM   27  C   UNL     1     -13.251  12.606  72.009  1.00  0.00    -0.531 A  
HETATM   28  C   UNL     1     -13.826  13.747  72.572  1.00  0.00    -0.626 A  
ENDBRANCH  20  21
ENDBRANCH  19  20
ENDBRANCH   2  19
TORSDOF 10
ENDMDL
MODEL       61
REMARK 921   NORMALIZED FREE ENERGY PREDICTED BY IDOCK:   -5.37 KCAL/MOL
REMARK 922        TOTAL FREE ENERGY PREDICTED BY IDOCK:   -9.65 KCAL/MOL
REMARK 923 INTER-LIGAND FREE ENERGY PREDICTED BY IDOCK:   -8.34 KCAL/MOL
REMARK 924 INTRA-LIGAND FREE ENERGY PREDICTED BY IDOCK:   -1.31 KCAL/MOL
REMARK 927      BINDING AFFINITY PREDICTED BY RF-SCORE:    0.00 PKD
ROOT
HETATM    1  O   UNL     1     -10.930   7.547  67.090  1.00  0.00    -0.519 OA 
HETATM    2  C   UNL     1      -9.701   8.241  66.837  1.00  0.00    -0.225 C  
HETATM    3  H   UNL     1     -10.763   6.843  67.705  1.00  0.00     0.000 HD 
ENDROOT
BRANCH   2   4
HETATM    4  C   UNL     1      -9.971   9.381  65.840  1.00  0.00    -0.256 C  
BRANCH   4   5
HETATM    5  N   UNL     1      -8.739  10.134  65.554  1.00  0.00    -0.151 NA 
HETATM    6  H   UNL     1      -7.982   9.525  65.241  1.00  0.00     0.000 HD 
BRANCH   5   7
HETATM    7  C   UNL     1      -9.017  11.205  64.591  1.00  0.00     0.002 C  
BRANCH   7   8
HETATM    8  C   UNL     1     -10.260  10.886  63.753  1.00  0.00    -0.343 C  
BRANCH   8   9
HETATM    9  N   UNL     1     -10.905  12.109  63.320  1.00  0.00    -0.647 N  
HETATM   10  H   UNL     1     -10.396  12.735  62.696  1.00  0.00     0.000 HD 
BRANCH   9  11
HETATM   11  C   UNL     1     -12.166  12.460  63.712  1.00  0.00    -0.533 C  
HETATM   12  O   UNL     1     -13.156  11.852  63.310  1.00  0.00    -0.674 OA 
BRANCH  11  13
HETATM   13  N   UNL     1     -12.244  13.525  64.585  1.00  0.00    -0.403 N  
HETATM   14  C   UNL     1     -12.228  13.270  66.027  1.00  0.00    -0.424 C  
HETATM   15  C   UNL     1     -11.009  13.935  66.676  1.00  0.00    -0.301 C  
HETATM   16  O   UNL     1     -10.963  15.340  66.372  1.00  0.00    -0.320 OA 
HETATM   17  C   UNL     1     -10.902  15.550  64.954  1.00  0.00    -0.427 C  
HETATM   18  C   UNL     1     -12.130  14.950  64.256  1.00  0.00    -0.353 C  
ENDBRANCH  11  13
ENDBRANCH   9  11
ENDBRANCH   8   9
ENDBRANCH   7   8
ENDBRANCH   5   7
ENDBRANCH   4   5
ENDBRANCH   2   4
BRANCH   2  19
HETATM   19  C   UNL     1      -9.139   8.817  68.144  1.00  0.00    -0.140 C  
BRANCH  19  20
HETATM   20  O   UNL     1      -9.575  10.175  68.296  1.00  0.00    -0.138 OA 
BRANCH  20  21
HETATM   21  C   UNL     1     -10.542  10.362  69.247  1.00  0.00    -0.232 A  
HETATM   22  C   UNL     1     -10.666   9.344  70.195  1.00  0.00    -0.282 A  
HETATM   23  H   UNL     1     -13.935  11.468  72.303  1.00  0.00     0.000 HD 
HETATM   24  O   UNL     1     -13.380  10.699  72.254  1.00  0.00    -0.386 OA 
HETATM   25  C   UNL     1     -11.617   9.437  71.214  1.00  0.00    -0.434 A  
HETATM   26  C   UNL     1     -12.431  10.563  71.286  1.00  0.00    -0.419 A  
HETATM   27  C   UNL     1     -11.350  11.497  69.344  1.00  0.00    -0.355 A  
HETATM   28  C   UNL     1     -12.297  11.596  70.365  1.00  0.00    -0.373 A  
ENDBRANCH  20  21
ENDBRANCH  19  20
ENDBRANCH   2  19
TORSDOF 10
ENDMDL
MODEL       62
REMARK 921   NORMALIZED FREE ENERGY PREDICTED BY IDOCK:   -5.36 KCAL/MOL
REMARK 922        TOTAL FREE ENERGY PREDICTED BY IDOCK:   -9.63 KCAL/MOL
REMARK 923 INTER-LIGAND FREE ENERGY PREDICTED BY IDOCK:   -8.64 KCAL/MOL
REMARK 924 INTRA-LIGAND FREE ENERGY PREDICTED BY IDOCK:   -0.99 KCAL/MOL
REMARK 927      BINDING AFFINITY PREDICTED BY RF-SCORE:    0.00 PKD
ROOT
HETATM    1  O   UNL     1     -11.584  14.877  66.018  1.00  0.00    -0.323 OA 
HETATM    2  C   UNL     1     -12.094  14.021  67.050  1.00  0.00    -0.420 C  
HETATM    3  H   UNL     1     -12.058  15.700  66.040  1.00  0.00     0.000 HD 
ENDROOT
BRANCH   2   4
HETATM    4  C   UNL     1     -11.326  12.689  67.012  1.00  0.00    -0.323 C  
BRANCH   4   5
HETATM    5  N   UNL     1     -12.083  11.625  67.694  1.00  0.00    -0.573 NA 
HETATM    6  H   UNL     1     -12.812  11.233  67.098  1.00  0.00     0.000 HD 
BRANCH   5   7
HETATM    7  C   UNL     1     -11.164  10.594  68.191  1.00  0.00    -0.302 C  
BRANCH   7   8
HETATM    8  C   UNL     1     -11.235  10.480  69.717  1.00  0.00    -0.298 C  
BRANCH   8   9
HETATM    9  N   UNL     1      -9.925  10.191  70.264  1.00  0.00    -0.410 N  
HETATM   10  H   UNL     1      -9.174  10.865  70.114  1.00  0.00     0.000 HD 
BRANCH   9  11
HETATM   11  C   UNL     1      -9.652   9.054  70.970  1.00  0.00    -0.279 C  
HETATM   12  O   UNL     1      -8.891   9.065  71.935  1.00  0.00    -0.360 OA 
BRANCH  11  13
HETATM   13  N   UNL     1     -10.289   7.912  70.532  1.00  0.00    -0.203 N  
HETATM   14  C   UNL     1      -9.733   7.177  69.394  1.00  0.00    -0.160 C  
HETATM   15  C   UNL     1      -9.332   5.759  69.815  1.00  0.00    -0.147 C  
HETATM   16  O   UNL     1     -10.437   5.067  70.423  1.00  0.00    -0.249 OA 
HETATM   17  C   UNL     1     -10.904   5.776  71.579  1.00  0.00    -0.253 C  
HETATM   18  C   UNL     1     -11.373   7.188  71.205  1.00  0.00    -0.275 C  
ENDBRANCH  11  13
ENDBRANCH   9  11
ENDBRANCH   8   9
ENDBRANCH   7   8
ENDBRANCH   5   7
ENDBRANCH   4   5
ENDBRANCH   2   4
BRANCH   2  19
HETATM   19  C   UNL     1     -11.919  14.683  68.423  1.00  0.00    -0.254 C  
BRANCH  19  20
HETATM   20  O   UNL     1     -12.358  13.782  69.449  1.00  0.00    -0.310 OA 
BRANCH  20  21
HETATM   21  C   UNL     1     -12.515  14.353  70.683  1.00  0.00    -0.350 A  
HETATM   22  C   UNL     1     -11.939  15.615  70.845  1.00  0.00    -0.440 A  
HETATM   23  H   UNL     1     -13.351  15.912  75.035  1.00  0.00     0.000 HD 
HETATM   24  O   UNL     1     -12.873  16.314  74.320  1.00  0.00    -0.694 OA 
HETATM   25  C   UNL     1     -12.046  16.291  72.063  1.00  0.00    -0.493 A  
HETATM   26  C   UNL     1     -12.747  15.702  73.111  1.00  0.00    -0.486 A  
HETATM   27  C   UNL     1     -13.234  13.783  71.735  1.00  0.00    -0.467 A  
HETATM   28  C   UNL     1     -13.349  14.459  72.951  1.00  0.00    -0.575 A  
ENDBRANCH  20  21
ENDBRANCH  19  20
ENDBRANCH   2  19
TORSDOF 10
ENDMDL
MODEL       63
REMARK 921   NORMALIZED FREE ENERGY PREDICTED BY IDOCK:   -5.35 KCAL/MOL
REMARK 922        TOTAL FREE ENERGY PREDICTED BY IDOCK:   -9.61 KCAL/MOL
REMARK 923 INTER-LIGAND FREE ENERGY PREDICTED BY IDOCK:   -8.39 KCAL/MOL
REMARK 924 INTRA-LIGAND FREE ENERGY PREDICTED BY IDOCK:   -1.22 KCAL/MOL
REMARK 927      BINDING AFFINITY PREDICTED BY RF-SCORE:    0.00 PKD
ROOT
HETATM    1  O   UNL     1     -11.033   8.720  69.280  1.00  0.00    -0.404 OA 
HETATM    2  C   UNL     1     -10.575  10.036  69.619  1.00  0.00    -0.252 C  
HETATM    3  H   UNL     1     -11.202   8.238  70.081  1.00  0.00     0.000 HD 
ENDROOT
BRANCH   2   4
HETATM    4  C   UNL     1     -10.301  10.814  68.321  1.00  0.00    -0.173 C  
BRANCH   4   5
HETATM    5  N   UNL     1      -9.452  11.989  68.580  1.00  0.00    -0.378 NA 
HETATM    6  H   UNL     1      -8.544  11.727  68.963  1.00  0.00     0.000 HD 
BRANCH   5   7
HETATM    7  C   UNL     1      -9.324  12.796  67.361  1.00  0.00    -0.193 C  
BRANCH   7   8
HETATM    8  C   UNL     1      -9.052  14.266  67.697  1.00  0.00    -0.192 C  
BRANCH   8   9
HETATM    9  N   UNL     1      -8.752  15.013  66.492  1.00  0.00    -0.425 N  
HETATM   10  H   UNL     1      -7.878  14.819  66.003  1.00  0.00     0.000 HD 
BRANCH   9  11
HETATM   11  C   UNL     1      -9.590  15.963  65.982  1.00  0.00    -0.350 C  
HETATM   12  O   UNL     1     -10.426  15.688  65.123  1.00  0.00    -0.397 OA 
BRANCH  11  13
HETATM   13  N   UNL     1      -9.437  17.232  66.499  1.00  0.00    -0.260 N  
HETATM   14  C   UNL     1     -10.578  17.880  67.151  1.00  0.00    -0.307 C  
HETATM   15  C   UNL     1     -10.260  18.172  68.622  1.00  0.00    -0.366 C  
HETATM   16  O   UNL     1      -9.052  18.942  68.748  1.00  0.00    -0.345 OA 
HETATM   17  C   UNL     1      -7.942  18.242  68.167  1.00  0.00    -0.284 C  
HETATM   18  C   UNL     1      -8.183  17.972  66.676  1.00  0.00    -0.261 C  
ENDBRANCH  11  13
ENDBRANCH   9  11
ENDBRANCH   8   9
ENDBRANCH   7   8
ENDBRANCH   5   7
ENDBRANCH   4   5
ENDBRANCH   2   4
BRANCH   2  19
HETATM   19  C   UNL     1     -11.635  10.769  70.451  1.00  0.00    -0.339 C  
BRANCH  19  20
HETATM   20  O   UNL     1     -12.125  11.898  69.714  1.00  0.00    -0.290 OA 
BRANCH  20  21
HETATM   21  C   UNL     1     -12.516  12.959  70.487  1.00  0.00    -0.217 A  
HETATM   22  C   UNL     1     -13.054  12.635  71.734  1.00  0.00    -0.461 A  
HETATM   23  H   UNL     1     -13.659  16.900  72.773  1.00  0.00     0.000 HD 
HETATM   24  O   UNL     1     -13.750  15.992  73.033  1.00  0.00    -0.590 OA 
HETATM   25  C   UNL     1     -13.478  13.642  72.606  1.00  0.00    -0.608 A  
HETATM   26  C   UNL     1     -13.344  14.973  72.225  1.00  0.00    -0.398 A  
HETATM   27  C   UNL     1     -12.367  14.300  70.127  1.00  0.00    -0.413 A  
HETATM   28  C   UNL     1     -12.783  15.308  70.998  1.00  0.00    -0.487 A  
ENDBRANCH  20  21
ENDBRANCH  19  20
ENDBRANCH   2  19
TORSDOF 10
ENDMDL
MODEL       64
REMARK 921   NORMALIZED FREE ENERGY PREDICTED BY IDOCK:   -5.34 KCAL/MOL
REMARK 922        TOTAL FREE ENERGY PREDICTED BY IDOCK:   -9.60 KCAL/MOL
REMARK 923 INTER-LIGAND FREE ENERGY PREDICTED BY IDOCK:   -8.29 KCAL/MOL
REMARK 924 INTRA-LIGAND FREE ENERGY PREDICTED BY IDOCK:   -1.31 KCAL/MOL
REMARK 927      BINDING AFFINITY PREDICTED BY RF-SCORE:    0.00 PKD
ROOT
HETATM    1  O   UNL     1      -9.562  11.408  69.007  1.00  0.00    -0.383 OA 
HETATM    2  C   UNL     1     -10.924  10.971  68.896  1.00  0.00    -0.227 C  
HETATM    3  H   UNL     1      -9.160  11.381  68.147  1.00  0.00     0.000 HD 
ENDROOT
BRANCH   2   4
HETATM    4  C   UNL     1     -11.574  11.015  70.289  1.00  0.00    -0.322 C  
BRANCH   4   5
HETATM    5  N   UNL     1     -12.662  12.006  70.331  1.00  0.00    -0.006 NA 
HETATM    6  H   UNL     1     -13.579  11.571  70.223  1.00  0.00     0.000 HD 
BRANCH   5   7
HETATM    7  C   UNL     1     -12.571  12.800  71.562  1.00  0.00    -0.155 C  
BRANCH   7   8
HETATM    8  C   UNL     1     -13.531  13.994  71.521  1.00  0.00    -0.328 C  
BRANCH   8   9
HETATM    9  N   UNL     1     -13.070  14.980  70.565  1.00  0.00    -0.623 N  
HETATM   10  H   UNL     1     -13.641  15.164  69.740  1.00  0.00     0.000 HD 
BRANCH   9  11
HETATM   11  C   UNL     1     -11.904  15.674  70.721  1.00  0.00    -0.384 C  
HETATM   12  O   UNL     1     -11.618  16.217  71.787  1.00  0.00    -0.459 OA 
BRANCH  11  13
HETATM   13  N   UNL     1     -11.080  15.713  69.616  1.00  0.00    -0.272 N  
HETATM   14  C   UNL     1     -11.451  16.560  68.479  1.00  0.00    -0.133 C  
HETATM   15  C   UNL     1     -10.386  17.637  68.244  1.00  0.00    -0.384 C  
HETATM   16  O   UNL     1      -9.082  17.051  68.084  1.00  0.00    -0.225 OA 
HETATM   17  C   UNL     1      -8.722  16.293  69.248  1.00  0.00    -0.151 C  
HETATM   18  C   UNL     1      -9.726  15.162  69.499  1.00  0.00    -0.165 C  
ENDBRANCH  11  13
ENDBRANCH   9  11
ENDBRANCH   8   9
ENDBRANCH   7   8
ENDBRANCH   5   7
ENDBRANCH   4   5
ENDBRANCH   2   4
BRANCH   2  19
HETATM   19  C   UNL     1     -11.696  11.882  67.933  1.00  0.00    -0.298 C  
BRANCH  19  20
HETATM   20  O   UNL     1     -10.992  11.968  66.686  1.00  0.00    -0.259 OA 
BRANCH  20  21
HETATM   21  C   UNL     1     -11.185  13.137  66.000  1.00  0.00    -0.292 A  
HETATM   22  C   UNL     1     -10.131  14.051  66.049  1.00  0.00    -0.327 A  
HETATM   23  H   UNL     1     -12.290  16.945  63.479  1.00  0.00     0.000 HD 
HETATM   24  O   UNL     1     -11.508  16.745  63.980  1.00  0.00    -1.198 OA 
HETATM   25  C   UNL     1     -10.221  15.273  65.378  1.00  0.00    -0.414 A  
HETATM   26  C   UNL     1     -11.366  15.565  64.645  1.00  0.00    -0.357 A  
HETATM   27  C   UNL     1     -12.320  13.434  65.242  1.00  0.00    -0.513 A  
HETATM   28  C   UNL     1     -12.410  14.651  64.565  1.00  0.00    -0.416 A  
ENDBRANCH  20  21
ENDBRANCH  19  20
ENDBRANCH   2  19
TORSDOF 10
ENDMDL
MODEL       65
REMARK 921   NORMALIZED FREE ENERGY PREDICTED BY IDOCK:   -5.34 KCAL/MOL
REMARK 922        TOTAL FREE ENERGY PREDICTED BY IDOCK:   -9.60 KCAL/MOL
REMARK 923 INTER-LIGAND FREE ENERGY PREDICTED BY IDOCK:   -8.11 KCAL/MOL
REMARK 924 INTRA-LIGAND FREE ENERGY PREDICTED BY IDOCK:   -1.49 KCAL/MOL
REMARK 927      BINDING AFFINITY PREDICTED BY RF-SCORE:    0.00 PKD
ROOT
HETATM    1  O   UNL     1     -11.431   9.796  68.706  1.00  0.00    -0.480 OA 
HETATM    2  C   UNL     1     -10.861  11.050  69.105  1.00  0.00    -0.237 C  
HETATM    3  H   UNL     1     -12.305   9.726  69.072  1.00  0.00     0.000 HD 
ENDROOT
BRANCH   2   4
HETATM    4  C   UNL     1      -9.446  11.163  68.514  1.00  0.00    -0.193 C  
BRANCH   4   5
HETATM    5  N   UNL     1      -8.857  12.481  68.802  1.00  0.00    -0.385 NA 
HETATM    6  H   UNL     1      -8.380  12.497  69.704  1.00  0.00     0.000 HD 
BRANCH   5   7
HETATM    7  C   UNL     1      -7.973  12.888  67.704  1.00  0.00    -0.167 C  
BRANCH   7   8
HETATM    8  C   UNL     1      -7.179  14.147  68.071  1.00  0.00    -0.143 C  
BRANCH   8   9
HETATM    9  N   UNL     1      -7.968  15.335  67.814  1.00  0.00    -0.136 N  
HETATM   10  H   UNL     1      -8.040  15.675  66.856  1.00  0.00     0.000 HD 
BRANCH   9  11
HETATM   11  C   UNL     1      -8.621  16.017  68.801  1.00  0.00    -0.223 C  
HETATM   12  O   UNL     1      -9.187  15.430  69.722  1.00  0.00    -0.247 OA 
BRANCH  11  13
HETATM   13  N   UNL     1      -8.593  17.391  68.695  1.00  0.00    -0.274 N  
HETATM   14  C   UNL     1      -7.300  18.078  68.647  1.00  0.00    -0.282 C  
HETATM   15  C   UNL     1      -7.140  18.830  67.321  1.00  0.00    -0.205 C  
HETATM   16  O   UNL     1      -8.242  19.728  67.100  1.00  0.00    -0.277 OA 
HETATM   17  C   UNL     1      -9.484  19.010  67.076  1.00  0.00    -0.317 C  
HETATM   18  C   UNL     1      -9.722  18.281  68.404  1.00  0.00    -0.357 C  
ENDBRANCH  11  13
ENDBRANCH   9  11
ENDBRANCH   8   9
ENDBRANCH   7   8
ENDBRANCH   5   7
ENDBRANCH   4   5
ENDBRANCH   2   4
BRANCH   2  19
HETATM   19  C   UNL     1     -11.729  12.211  68.601  1.00  0.00    -0.330 C  
BRANCH  19  20
HETATM   20  O   UNL     1     -12.004  12.032  67.204  1.00  0.00    -0.601 OA 
BRANCH  20  21
HETATM   21  C   UNL     1     -11.847  13.158  66.441  1.00  0.00    -0.400 A  
HETATM   22  C   UNL     1     -12.323  13.074  65.131  1.00  0.00    -0.536 A  
HETATM   23  H   UNL     1     -11.133  17.251  64.249  1.00  0.00     0.000 HD 
HETATM   24  O   UNL     1     -11.520  16.444  63.932  1.00  0.00    -1.063 OA 
HETATM   25  C   UNL     1     -12.219  14.169  64.269  1.00  0.00    -0.449 A  
HETATM   26  C   UNL     1     -11.652  15.351  64.734  1.00  0.00    -0.286 A  
HETATM   27  C   UNL     1     -11.301  14.358  66.901  1.00  0.00    -0.357 A  
HETATM   28  C   UNL     1     -11.202  15.456  66.045  1.00  0.00    -0.168 A  
ENDBRANCH  20  21
ENDBRANCH  19  20
ENDBRANCH   2  19
TORSDOF 10
ENDMDL
MODEL       66
REMARK 921   NORMALIZED FREE ENERGY PREDICTED BY IDOCK:   -5.33 KCAL/MOL
REMARK 922        TOTAL FREE ENERGY PREDICTED BY IDOCK:   -9.59 KCAL/MOL
REMARK 923 INTER-LIGAND FREE ENERGY PREDICTED BY IDOCK:   -8.27 KCAL/MOL
REMARK 924 INTRA-LIGAND FREE ENERGY PREDICTED BY IDOCK:   -1.32 KCAL/MOL
REMARK 927      BINDING AFFINITY PREDICTED BY RF-SCORE:    0.00 PKD
ROOT
HETATM    1  O   UNL     1     -11.147   7.405  67.461  1.00  0.00    -0.531 OA 
HETATM    2  C   UNL     1     -10.812   8.800  67.439  1.00  0.00    -0.017 C  
HETATM    3  H   UNL     1     -11.635   7.195  66.674  1.00  0.00     0.000 HD 
ENDROOT
BRANCH   2   4
HETATM    4  C   UNL     1     -10.022   9.141  68.714  1.00  0.00    -0.176 C  
BRANCH   4   5
HETATM    5  N   UNL     1     -10.258  10.536  69.123  1.00  0.00    -0.214 NA 
HETATM    6  H   UNL     1      -9.886  11.200  68.444  1.00  0.00     0.000 HD 
BRANCH   5   7
HETATM    7  C   UNL     1     -11.687  10.749  69.378  1.00  0.00    -0.306 C  
BRANCH   7   8
HETATM    8  C   UNL     1     -11.911  11.967  70.281  1.00  0.00    -0.281 C  
BRANCH   8   9
HETATM    9  N   UNL     1     -12.317  13.113  69.494  1.00  0.00    -0.126 N  
HETATM   10  H   UNL     1     -13.070  12.996  68.816  1.00  0.00     0.000 HD 
BRANCH   9  11
HETATM   11  C   UNL     1     -11.735  14.342  69.621  1.00  0.00    -0.308 C  
HETATM   12  O   UNL     1     -10.785  14.678  68.916  1.00  0.00    -0.234 OA 
BRANCH  11  13
HETATM   13  N   UNL     1     -12.288  15.168  70.577  1.00  0.00    -0.332 N  
HETATM   14  C   UNL     1     -13.711  15.037  70.898  1.00  0.00    -0.259 C  
HETATM   15  C   UNL     1     -13.895  14.640  72.367  1.00  0.00    -0.475 C  
HETATM   16  O   UNL     1     -13.223  15.563  73.241  1.00  0.00    -0.488 OA 
HETATM   17  C   UNL     1     -11.819  15.608  72.948  1.00  0.00    -0.455 C  
HETATM   18  C   UNL     1     -11.573  16.055  71.502  1.00  0.00    -0.456 C  
ENDBRANCH  11  13
ENDBRANCH   9  11
ENDBRANCH   8   9
ENDBRANCH   7   8
ENDBRANCH   5   7
ENDBRANCH   4   5
ENDBRANCH   2   4
BRANCH   2  19
HETATM   19  C   UNL     1      -9.964   9.121  66.201  1.00  0.00    -0.268 C  
BRANCH  19  20
HETATM   20  O   UNL     1      -9.565  10.499  66.238  1.00  0.00    -0.175 OA 
BRANCH  20  21
HETATM   21  C   UNL     1     -10.372  11.347  65.528  1.00  0.00    -0.266 A  
HETATM   22  C   UNL     1     -10.439  11.111  64.153  1.00  0.00    -0.442 A  
HETATM   23  H   UNL     1     -13.276  14.460  63.542  1.00  0.00     0.000 HD 
HETATM   24  O   UNL     1     -12.769  13.758  63.153  1.00  0.00    -0.743 OA 
HETATM   25  C   UNL     1     -11.238  11.914  63.335  1.00  0.00    -0.463 A  
HETATM   26  C   UNL     1     -11.981  12.942  63.906  1.00  0.00    -0.480 A  
HETATM   27  C   UNL     1     -11.140  12.368  66.091  1.00  0.00    -0.340 A  
HETATM   28  C   UNL     1     -11.945  13.168  65.277  1.00  0.00    -0.437 A  
ENDBRANCH  20  21
ENDBRANCH  19  20
ENDBRANCH   2  19
TORSDOF 10
ENDMDL
MODEL       67
REMARK 921   NORMALIZED FREE ENERGY PREDICTED BY IDOCK:   -5.33 KCAL/MOL
REMARK 922        TOTAL FREE ENERGY PREDICTED BY IDOCK:   -9.58 KCAL/MOL
REMARK 923 INTER-LIGAND FREE ENERGY PREDICTED BY IDOCK:   -8.30 KCAL/MOL
REMARK 924 INTRA-LIGAND FREE ENERGY PREDICTED BY IDOCK:   -1.28 KCAL/MOL
REMARK 927      BINDING AFFINITY PREDICTED BY RF-SCORE:    0.00 PKD
ROOT
HETATM    1  O   UNL     1     -11.429   6.560  68.918  1.00  0.00    -0.596 OA 
HETATM    2  C   UNL     1     -10.426   7.566  68.719  1.00  0.00    -0.194 C  
HETATM    3  H   UNL     1     -11.308   6.172  69.776  1.00  0.00     0.000 HD 
ENDROOT
BRANCH   2   4
HETATM    4  C   UNL     1     -10.623   8.195  67.329  1.00  0.00    -0.273 C  
BRANCH   4   5
HETATM    5  N   UNL     1      -9.429   8.954  66.921  1.00  0.00    -0.165 NA 
HETATM    6  H   UNL     1      -8.635   8.342  66.729  1.00  0.00     0.000 HD 
BRANCH   5   7
HETATM    7  C   UNL     1      -9.749   9.816  65.777  1.00  0.00    -0.273 C  
BRANCH   7   8
HETATM    8  C   UNL     1     -10.179  11.212  66.240  1.00  0.00    -0.239 C  
BRANCH   8   9
HETATM    9  N   UNL     1     -10.325  12.099  65.103  1.00  0.00    -0.271 N  
HETATM   10  H   UNL     1      -9.545  12.190  64.453  1.00  0.00     0.000 HD 
BRANCH   9  11
HETATM   11  C   UNL     1     -11.462  12.816  64.866  1.00  0.00    -0.320 C  
HETATM   12  O   UNL     1     -12.406  12.336  64.241  1.00  0.00    -0.431 OA 
BRANCH  11  13
HETATM   13  N   UNL     1     -11.478  14.096  65.377  1.00  0.00    -0.317 N  
HETATM   14  C   UNL     1     -12.097  14.337  66.683  1.00  0.00    -0.420 C  
HETATM   15  C   UNL     1     -11.061  14.873  67.678  1.00  0.00    -0.311 C  
HETATM   16  O   UNL     1     -10.406  16.045  67.162  1.00  0.00    -0.284 OA 
HETATM   17  C   UNL     1      -9.746  15.752  65.922  1.00  0.00    -0.354 C  
HETATM   18  C   UNL     1     -10.748  15.263  64.869  1.00  0.00    -0.400 C  
ENDBRANCH  11  13
ENDBRANCH   9  11
ENDBRANCH   8   9
ENDBRANCH   7   8
ENDBRANCH   5   7
ENDBRANCH   4   5
ENDBRANCH   2   4
BRANCH   2  19
HETATM   19  C   UNL     1     -10.540   8.649  69.801  1.00  0.00    -0.224 C  
BRANCH  19  20
HETATM   20  O   UNL     1     -11.070   9.850  69.222  1.00  0.00    -0.229 OA 
BRANCH  20  21
HETATM   21  C   UNL     1     -11.786  10.634  70.086  1.00  0.00    -0.332 A  
HETATM   22  C   UNL     1     -11.699  12.010  69.872  1.00  0.00    -0.374 A  
HETATM   23  H   UNL     1     -14.429  12.885  73.251  1.00  0.00     0.000 HD 
HETATM   24  O   UNL     1     -13.885  13.226  72.551  1.00  0.00    -0.668 OA 
HETATM   25  C   UNL     1     -12.396  12.901  70.693  1.00  0.00    -0.385 A  
HETATM   26  C   UNL     1     -13.193  12.401  71.718  1.00  0.00    -0.334 A  
HETATM   27  C   UNL     1     -12.607  10.145  71.105  1.00  0.00    -0.486 A  
HETATM   28  C   UNL     1     -13.310  11.031  71.923  1.00  0.00    -0.423 A  
ENDBRANCH  20  21
ENDBRANCH  19  20
ENDBRANCH   2  19
TORSDOF 10
ENDMDL
MODEL       68
REMARK 921   NORMALIZED FREE ENERGY PREDICTED BY IDOCK:   -5.31 KCAL/MOL
REMARK 922        TOTAL FREE ENERGY PREDICTED BY IDOCK:   -9.55 KCAL/MOL
REMARK 923 INTER-LIGAND FREE ENERGY PREDICTED BY IDOCK:   -8.23 KCAL/MOL
REMARK 924 INTRA-LIGAND FREE ENERGY PREDICTED BY IDOCK:   -1.33 KCAL/MOL
REMARK 927      BINDING AFFINITY PREDICTED BY RF-SCORE:    0.00 PKD
ROOT
HETATM    1  O   UNL     1      -9.642  13.777  65.954  1.00  0.00    -0.454 OA 
HETATM    2  C   UNL     1     -10.544  13.294  66.959  1.00  0.00    -0.259 C  
HETATM    3  H   UNL     1      -8.818  13.311  66.032  1.00  0.00     0.000 HD 
ENDROOT
BRANCH   2   4
HETATM    4  C   UNL     1     -11.878  14.049  66.832  1.00  0.00    -0.430 C  
BRANCH   4   5
HETATM    5  N   UNL     1     -12.458  14.320  68.158  1.00  0.00    -0.500 NA 
HETATM    6  H   UNL     1     -13.121  13.597  68.440  1.00  0.00     0.000 HD 
BRANCH   5   7
HETATM    7  C   UNL     1     -11.389  14.502  69.147  1.00  0.00    -0.277 C  
BRANCH   7   8
HETATM    8  C   UNL     1     -11.366  15.939  69.678  1.00  0.00    -0.342 C  
BRANCH   8   9
HETATM    9  N   UNL     1     -10.809  16.836  68.684  1.00  0.00    -0.346 N  
HETATM   10  H   UNL     1     -11.420  17.532  68.259  1.00  0.00     0.000 HD 
BRANCH   9  11
HETATM   11  C   UNL     1      -9.501  16.787  68.295  1.00  0.00    -0.240 C  
HETATM   12  O   UNL     1      -8.642  16.250  68.992  1.00  0.00    -0.242 OA 
BRANCH  11  13
HETATM   13  N   UNL     1      -9.219  17.369  67.077  1.00  0.00    -0.240 N  
HETATM   14  C   UNL     1     -10.091  18.434  66.576  1.00  0.00    -0.388 C  
HETATM   15  C   UNL     1      -9.303  19.740  66.413  1.00  0.00    -0.401 C  
HETATM   16  O   UNL     1      -8.146  19.546  65.581  1.00  0.00    -0.409 OA 
HETATM   17  C   UNL     1      -7.279  18.551  66.142  1.00  0.00    -0.266 C  
HETATM   18  C   UNL     1      -8.001  17.204  66.276  1.00  0.00    -0.304 C  
ENDBRANCH  11  13
ENDBRANCH   9  11
ENDBRANCH   8   9
ENDBRANCH   7   8
ENDBRANCH   5   7
ENDBRANCH   4   5
ENDBRANCH   2   4
BRANCH   2  19
HETATM   19  C   UNL     1     -10.780  11.788  66.781  1.00  0.00    -0.253 C  
BRANCH  19  20
HETATM   20  O   UNL     1     -11.926  11.389  67.545  1.00  0.00    -0.626 OA 
BRANCH  20  21
HETATM   21  C   UNL     1     -11.635  10.767  68.729  1.00  0.00    -0.280 A  
HETATM   22  C   UNL     1     -10.480   9.981  68.734  1.00  0.00    -0.229 A  
HETATM   23  H   UNL     1     -11.034   8.886  72.992  1.00  0.00     0.000 HD 
HETATM   24  O   UNL     1     -10.515   8.796  72.202  1.00  0.00    -0.337 OA 
HETATM   25  C   UNL     1     -10.087   9.307  69.893  1.00  0.00    -0.230 A  
HETATM   26  C   UNL     1     -10.849   9.438  71.049  1.00  0.00    -0.336 A  
HETATM   27  C   UNL     1     -12.377  10.908  69.903  1.00  0.00    -0.354 A  
HETATM   28  C   UNL     1     -11.984  10.241  71.065  1.00  0.00    -0.483 A  
ENDBRANCH  20  21
ENDBRANCH  19  20
ENDBRANCH   2  19
TORSDOF 10
ENDMDL
MODEL       69
REMARK 921   NORMALIZED FREE ENERGY PREDICTED BY IDOCK:   -5.30 KCAL/MOL
REMARK 922        TOTAL FREE ENERGY PREDICTED BY IDOCK:   -9.54 KCAL/MOL
REMARK 923 INTER-LIGAND FREE ENERGY PREDICTED BY IDOCK:   -8.27 KCAL/MOL
REMARK 924 INTRA-LIGAND FREE ENERGY PREDICTED BY IDOCK:   -1.28 KCAL/MOL
REMARK 927      BINDING AFFINITY PREDICTED BY RF-SCORE:    0.00 PKD
ROOT
HETATM    1  O   UNL     1      -9.920  10.121  70.405  1.00  0.00    -0.397 OA 
HETATM    2  C   UNL     1     -10.810  10.413  69.319  1.00  0.00    -0.241 C  
HETATM    3  H   UNL     1      -9.185   9.619  70.073  1.00  0.00     0.000 HD 
ENDROOT
BRANCH   2   4
HETATM    4  C   UNL     1     -12.000  11.225  69.858  1.00  0.00    -0.365 C  
BRANCH   4   5
HETATM    5  N   UNL     1     -12.365  10.787  71.215  1.00  0.00    -0.370 NA 
HETATM    6  H   UNL     1     -12.639  11.570  71.809  1.00  0.00     0.000 HD 
BRANCH   5   7
HETATM    7  C   UNL     1     -13.408   9.757  71.147  1.00  0.00    -0.291 C  
BRANCH   7   8
HETATM    8  C   UNL     1     -13.517   8.991  72.470  1.00  0.00    -0.429 C  
BRANCH   8   9
HETATM    9  N   UNL     1     -12.867   7.701  72.362  1.00  0.00    -0.513 N  
HETATM   10  H   UNL     1     -13.440   6.859  72.419  1.00  0.00     0.000 HD 
BRANCH   9  11
HETATM   11  C   UNL     1     -11.519   7.563  72.185  1.00  0.00    -0.291 C  
HETATM   12  O   UNL     1     -10.726   8.395  72.624  1.00  0.00    -0.339 OA 
BRANCH  11  13
HETATM   13  N   UNL     1     -11.120   6.438  71.496  1.00  0.00    -0.262 N  
HETATM   14  C   UNL     1     -11.452   6.315  70.075  1.00  0.00    -0.390 C  
HETATM   15  C   UNL     1     -10.176   6.239  69.229  1.00  0.00    -0.193 C  
HETATM   16  O   UNL     1      -9.318   5.176  69.682  1.00  0.00    -0.116 OA 
HETATM   17  C   UNL     1      -8.951   5.371  71.055  1.00  0.00    -0.139 C  
HETATM   18  C   UNL     1     -10.191   5.400  71.957  1.00  0.00    -0.203 C  
ENDBRANCH  11  13
ENDBRANCH   9  11
ENDBRANCH   8   9
ENDBRANCH   7   8
ENDBRANCH   5   7
ENDBRANCH   4   5
ENDBRANCH   2   4
BRANCH   2  19
HETATM   19  C   UNL     1     -10.079  11.218  68.236  1.00  0.00    -0.188 C  
BRANCH  19  20
HETATM   20  O   UNL     1     -10.288  10.601  66.958  1.00  0.00    -0.210 OA 
BRANCH  20  21
HETATM   21  C   UNL     1     -10.888  11.405  66.026  1.00  0.00    -0.249 A  
HETATM   22  C   UNL     1     -10.613  11.098  64.692  1.00  0.00    -0.386 A  
HETATM   23  H   UNL     1     -13.191  14.389  63.223  1.00  0.00     0.000 HD 
HETATM   24  O   UNL     1     -12.607  13.672  63.008  1.00  0.00    -0.729 OA 
HETATM   25  C   UNL     1     -11.180  11.851  63.661  1.00  0.00    -0.522 A  
HETATM   26  C   UNL     1     -12.036  12.902  63.975  1.00  0.00    -0.451 A  
HETATM   27  C   UNL     1     -11.767  12.448  66.327  1.00  0.00    -0.457 A  
HETATM   28  C   UNL     1     -12.340  13.198  65.299  1.00  0.00    -0.532 A  
ENDBRANCH  20  21
ENDBRANCH  19  20
ENDBRANCH   2  19
TORSDOF 10
ENDMDL
MODEL       70
REMARK 921   NORMALIZED FREE ENERGY PREDICTED BY IDOCK:   -5.29 KCAL/MOL
REMARK 922        TOTAL FREE ENERGY PREDICTED BY IDOCK:   -9.53 KCAL/MOL
REMARK 923 INTER-LIGAND FREE ENERGY PREDICTED BY IDOCK:   -8.71 KCAL/MOL
REMARK 924 INTRA-LIGAND FREE ENERGY PREDICTED BY IDOCK:   -0.82 KCAL/MOL
REMARK 927      BINDING AFFINITY PREDICTED BY RF-SCORE:    0.00 PKD
ROOT
HETATM    1  O   UNL     1     -14.229   8.843  73.371  1.00  0.00    -1.241 OA 
HETATM    2  C   UNL     1     -14.018   8.825  71.953  1.00  0.00    -0.436 C  
HETATM    3  H   UNL     1     -14.811   8.129  73.604  1.00  0.00     0.000 HD 
ENDROOT
BRANCH   2   4
HETATM    4  C   UNL     1     -13.077   9.982  71.577  1.00  0.00    -0.433 C  
BRANCH   4   5
HETATM    5  N   UNL     1     -13.006  10.151  70.116  1.00  0.00    -0.552 NA 
HETATM    6  H   UNL     1     -13.596  10.917  69.791  1.00  0.00     0.000 HD 
BRANCH   5   7
HETATM    7  C   UNL     1     -11.610  10.315  69.697  1.00  0.00    -0.201 C  
BRANCH   7   8
HETATM    8  C   UNL     1     -11.243  11.797  69.564  1.00  0.00    -0.195 C  
BRANCH   8   9
HETATM    9  N   UNL     1     -11.555  12.278  68.233  1.00  0.00    -0.310 N  
HETATM   10  H   UNL     1     -11.545  11.613  67.460  1.00  0.00     0.000 HD 
BRANCH   9  11
HETATM   11  C   UNL     1     -11.861  13.582  67.971  1.00  0.00    -0.365 C  
HETATM   12  O   UNL     1     -12.040  14.395  68.876  1.00  0.00    -0.311 OA 
BRANCH  11  13
HETATM   13  N   UNL     1     -11.948  13.918  66.636  1.00  0.00    -0.421 N  
HETATM   14  C   UNL     1     -10.792  14.532  65.978  1.00  0.00    -0.310 C  
HETATM   15  C   UNL     1     -10.288  13.640  64.837  1.00  0.00    -0.388 C  
HETATM   16  O   UNL     1     -11.346  13.337  63.910  1.00  0.00    -0.381 OA 
HETATM   17  C   UNL     1     -12.427  12.669  64.575  1.00  0.00    -0.448 C  
HETATM   18  C   UNL     1     -13.008  13.542  65.694  1.00  0.00    -0.168 C  
ENDBRANCH  11  13
ENDBRANCH   9  11
ENDBRANCH   8   9
ENDBRANCH   7   8
ENDBRANCH   5   7
ENDBRANCH   4   5
ENDBRANCH   2   4
BRANCH   2  19
HETATM   19  C   UNL     1     -13.396   7.489  71.526  1.00  0.00    -0.352 C  
BRANCH  19  20
HETATM   20  O   UNL     1     -12.011   7.465  71.898  1.00  0.00    -0.285 OA 
BRANCH  20  21
HETATM   21  C   UNL     1     -11.263   6.515  71.256  1.00  0.00    -0.288 A  
HETATM   22  C   UNL     1     -10.684   5.544  72.075  1.00  0.00    -0.293 A  
HETATM   23  H   UNL     1      -8.848   3.472  68.614  1.00  0.00     0.000 HD 
HETATM   24  O   UNL     1      -8.971   3.506  69.554  1.00  0.00    -0.090 OA 
HETATM   25  C   UNL     1      -9.906   4.523  71.522  1.00  0.00    -0.260 A  
HETATM   26  C   UNL     1      -9.726   4.474  70.143  1.00  0.00    -0.217 A  
HETATM   27  C   UNL     1     -11.093   6.441  69.872  1.00  0.00    -0.444 A  
HETATM   28  C   UNL     1     -10.322   5.419  69.315  1.00  0.00    -0.322 A  
ENDBRANCH  20  21
ENDBRANCH  19  20
ENDBRANCH   2  19
TORSDOF 10
ENDMDL
MODEL       71
REMARK 921   NORMALIZED FREE ENERGY PREDICTED BY IDOCK:   -5.29 KCAL/MOL
REMARK 922        TOTAL FREE ENERGY PREDICTED BY IDOCK:   -9.52 KCAL/MOL
REMARK 923 INTER-LIGAND FREE ENERGY PREDICTED BY IDOCK:   -8.57 KCAL/MOL
REMARK 924 INTRA-LIGAND FREE ENERGY PREDICTED BY IDOCK:   -0.95 KCAL/MOL
REMARK 927      BINDING AFFINITY PREDICTED BY RF-SCORE:    0.00 PKD
ROOT
HETATM    1  O   UNL     1     -12.247  10.330  69.171  1.00  0.00    -0.621 OA 
HETATM    2  C   UNL     1     -11.062  11.089  68.894  1.00  0.00    -0.239 C  
HETATM    3  H   UNL     1     -12.767  10.798  69.813  1.00  0.00     0.000 HD 
ENDROOT
BRANCH   2   4
HETATM    4  C   UNL     1     -10.219  10.330  67.854  1.00  0.00    -0.183 C  
BRANCH   4   5
HETATM    5  N   UNL     1     -10.859   9.056  67.486  1.00  0.00    -0.466 NA 
HETATM    6  H   UNL     1     -11.341   9.115  66.589  1.00  0.00     0.000 HD 
BRANCH   5   7
HETATM    7  C   UNL     1      -9.870   7.972  67.509  1.00  0.00    -0.172 C  
BRANCH   7   8
HETATM    8  C   UNL     1     -10.552   6.604  67.622  1.00  0.00    -0.263 C  
BRANCH   8   9
HETATM    9  N   UNL     1     -11.342   6.532  68.834  1.00  0.00    -0.590 N  
HETATM   10  H   UNL     1     -12.313   6.844  68.803  1.00  0.00     0.000 HD 
BRANCH   9  11
HETATM   11  C   UNL     1     -10.843   6.063  70.016  1.00  0.00    -0.359 C  
HETATM   12  O   UNL     1     -10.367   4.933  70.109  1.00  0.00    -0.265 OA 
BRANCH  11  13
HETATM   13  N   UNL     1     -10.906   6.939  71.079  1.00  0.00    -0.235 N  
HETATM   14  C   UNL     1     -11.575   6.518  72.312  1.00  0.00    -0.292 C  
HETATM   15  C   UNL     1     -10.586   6.512  73.484  1.00  0.00    -0.290 C  
HETATM   16  O   UNL     1      -9.941   7.790  73.623  1.00  0.00    -0.301 OA 
HETATM   17  C   UNL     1      -9.232   8.133  72.424  1.00  0.00    -0.226 C  
HETATM   18  C   UNL     1     -10.185   8.209  71.225  1.00  0.00    -0.195 C  
ENDBRANCH  11  13
ENDBRANCH   9  11
ENDBRANCH   8   9
ENDBRANCH   7   8
ENDBRANCH   5   7
ENDBRANCH   4   5
ENDBRANCH   2   4
BRANCH   2  19
HETATM   19  C   UNL     1     -11.434  12.474  68.350  1.00  0.00    -0.312 C  
BRANCH  19  20
HETATM   20  O   UNL     1     -12.178  12.328  67.133  1.00  0.00    -0.506 OA 
BRANCH  20  21
HETATM   21  C   UNL     1     -12.033  13.360  66.246  1.00  0.00    -0.411 A  
HETATM   22  C   UNL     1     -11.311  14.462  66.710  1.00  0.00    -0.360 A  
HETATM   23  H   UNL     1     -11.769  16.604  62.858  1.00  0.00     0.000 HD 
HETATM   24  O   UNL     1     -11.427  16.612  63.743  1.00  0.00    -1.015 OA 
HETATM   25  C   UNL     1     -11.098  15.568  65.884  1.00  0.00    -0.205 A  
HETATM   26  C   UNL     1     -11.599  15.556  64.586  1.00  0.00    -0.281 A  
HETATM   27  C   UNL     1     -12.511  13.352  64.934  1.00  0.00    -0.447 A  
HETATM   28  C   UNL     1     -12.294  14.453  64.104  1.00  0.00    -0.340 A  
ENDBRANCH  20  21
ENDBRANCH  19  20
ENDBRANCH   2  19
TORSDOF 10
ENDMDL
MODEL       72
REMARK 921   NORMALIZED FREE ENERGY PREDICTED BY IDOCK:   -5.28 KCAL/MOL
REMARK 922        TOTAL FREE ENERGY PREDICTED BY IDOCK:   -9.51 KCAL/MOL
REMARK 923 INTER-LIGAND FREE ENERGY PREDICTED BY IDOCK:   -8.57 KCAL/MOL
REMARK 924 INTRA-LIGAND FREE ENERGY PREDICTED BY IDOCK:   -0.94 KCAL/MOL
REMARK 927      BINDING AFFINITY PREDICTED BY RF-SCORE:    0.00 PKD
ROOT
HETATM    1  O   UNL     1     -10.250   9.454  66.093  1.00  0.00    -0.279 OA 
HETATM    2  C   UNL     1     -10.370  10.612  66.931  1.00  0.00    -0.236 C  
HETATM    3  H   UNL     1     -10.072   8.697  66.639  1.00  0.00     0.000 HD 
ENDROOT
BRANCH   2   4
HETATM    4  C   UNL     1     -10.658  11.836  66.045  1.00  0.00    -0.260 C  
BRANCH   4   5
HETATM    5  N   UNL     1     -12.042  12.305  66.228  1.00  0.00    -0.620 NA 
HETATM    6  H   UNL     1     -12.430  12.008  67.123  1.00  0.00     0.000 HD 
BRANCH   5   7
HETATM    7  C   UNL     1     -12.107  13.760  66.054  1.00  0.00    -0.436 C  
BRANCH   7   8
HETATM    8  C   UNL     1     -11.045  14.466  66.905  1.00  0.00    -0.323 C  
BRANCH   8   9
HETATM    9  N   UNL     1     -11.495  15.792  67.278  1.00  0.00    -0.066 N  
HETATM   10  H   UNL     1     -12.348  16.154  66.852  1.00  0.00     0.000 HD 
BRANCH   9  11
HETATM   11  C   UNL     1     -10.828  16.575  68.175  1.00  0.00    -0.345 C  
HETATM   12  O   UNL     1     -10.928  16.392  69.387  1.00  0.00    -0.312 OA 
BRANCH  11  13
HETATM   13  N   UNL     1     -10.039  17.566  67.631  1.00  0.00    -0.314 N  
HETATM   14  C   UNL     1     -10.172  17.883  66.207  1.00  0.00    -0.363 C  
HETATM   15  C   UNL     1     -10.629  19.334  66.020  1.00  0.00    -0.461 C  
HETATM   16  O   UNL     1      -9.750  20.246  66.701  1.00  0.00    -0.415 OA 
HETATM   17  C   UNL     1      -9.705  19.954  68.105  1.00  0.00    -0.383 C  
HETATM   18  C   UNL     1      -9.198  18.528  68.353  1.00  0.00    -0.324 C  
ENDBRANCH  11  13
ENDBRANCH   9  11
ENDBRANCH   8   9
ENDBRANCH   7   8
ENDBRANCH   5   7
ENDBRANCH   4   5
ENDBRANCH   2   4
BRANCH   2  19
HETATM   19  C   UNL     1     -11.510  10.421  67.940  1.00  0.00    -0.036 C  
BRANCH  19  20
HETATM   20  O   UNL     1     -10.989  10.508  69.273  1.00  0.00    -0.212 OA 
BRANCH  20  21
HETATM   21  C   UNL     1     -11.788  11.183  70.156  1.00  0.00    -0.365 A  
HETATM   22  C   UNL     1     -11.846  12.568  69.985  1.00  0.00    -0.363 A  
HETATM   23  H   UNL     1     -14.669  13.041  73.368  1.00  0.00     0.000 HD 
HETATM   24  O   UNL     1     -14.161  13.460  72.684  1.00  0.00    -0.767 OA 
HETATM   25  C   UNL     1     -12.637  13.353  70.828  1.00  0.00    -0.369 A  
HETATM   26  C   UNL     1     -13.381  12.740  71.831  1.00  0.00    -0.413 A  
HETATM   27  C   UNL     1     -12.557  10.579  71.152  1.00  0.00    -0.520 A  
HETATM   28  C   UNL     1     -13.354  11.360  71.992  1.00  0.00    -0.388 A  
ENDBRANCH  20  21
ENDBRANCH  19  20
ENDBRANCH   2  19
TORSDOF 10
ENDMDL
MODEL       73
REMARK 921   NORMALIZED FREE ENERGY PREDICTED BY IDOCK:   -5.28 KCAL/MOL
REMARK 922        TOTAL FREE ENERGY PREDICTED BY IDOCK:   -9.51 KCAL/MOL
REMARK 923 INTER-LIGAND FREE ENERGY PREDICTED BY IDOCK:   -8.14 KCAL/MOL
REMARK 924 INTRA-LIGAND FREE ENERGY PREDICTED BY IDOCK:   -1.37 KCAL/MOL
REMARK 927      BINDING AFFINITY PREDICTED BY RF-SCORE:    0.00 PKD
ROOT
HETATM    1  O   UNL     1     -10.977   7.648  68.077  1.00  0.00    -0.459 OA 
HETATM    2  C   UNL     1     -10.730   9.059  68.001  1.00  0.00    -0.125 C  
HETATM    3  H   UNL     1     -11.465   7.380  67.308  1.00  0.00     0.000 HD 
ENDROOT
BRANCH   2   4
HETATM    4  C   UNL     1      -9.940   9.492  69.248  1.00  0.00    -0.187 C  
BRANCH   4   5
HETATM    5  N   UNL     1     -10.240  10.890  69.601  1.00  0.00    -0.445 NA 
HETATM    6  H   UNL     1      -9.794  11.550  68.963  1.00  0.00     0.000 HD 
BRANCH   5   7
HETATM    7  C   UNL     1     -11.692  11.090  69.673  1.00  0.00    -0.329 C  
BRANCH   7   8
HETATM    8  C   UNL     1     -12.034  12.405  70.383  1.00  0.00    -0.257 C  
BRANCH   8   9
HETATM    9  N   UNL     1     -12.217  13.468  69.416  1.00  0.00    -0.278 N  
HETATM   10  H   UNL     1     -12.501  13.222  68.468  1.00  0.00     0.000 HD 
BRANCH   9  11
HETATM   11  C   UNL     1     -12.025  14.786  69.719  1.00  0.00    -0.321 C  
HETATM   12  O   UNL     1     -12.774  15.383  70.490  1.00  0.00    -0.410 OA 
BRANCH  11  13
HETATM   13  N   UNL     1     -10.942  15.386  69.113  1.00  0.00    -0.237 N  
HETATM   14  C   UNL     1     -10.162  14.629  68.131  1.00  0.00    -0.231 C  
HETATM   15  C   UNL     1     -10.220  15.310  66.759  1.00  0.00    -0.272 C  
HETATM   16  O   UNL     1      -9.800  16.684  66.845  1.00  0.00    -0.247 OA 
HETATM   17  C   UNL     1     -10.635  17.412  67.757  1.00  0.00    -0.371 C  
HETATM   18  C   UNL     1     -10.572  16.805  69.164  1.00  0.00    -0.343 C  
ENDBRANCH  11  13
ENDBRANCH   9  11
ENDBRANCH   8   9
ENDBRANCH   7   8
ENDBRANCH   5   7
ENDBRANCH   4   5
ENDBRANCH   2   4
BRANCH   2  19
HETATM   19  C   UNL     1      -9.925   9.389  66.736  1.00  0.00    -0.239 C  
BRANCH  19  20
HETATM   20  O   UNL     1      -9.695  10.803  66.670  1.00  0.00    -0.181 OA 
BRANCH  20  21
HETATM   21  C   UNL     1     -10.415  11.455  65.706  1.00  0.00    -0.262 A  
HETATM   22  C   UNL     1     -11.575  12.097  66.146  1.00  0.00    -0.418 A  
HETATM   23  H   UNL     1     -12.509  13.575  62.074  1.00  0.00     0.000 HD 
HETATM   24  O   UNL     1     -12.763  13.529  62.987  1.00  0.00    -0.668 OA 
HETATM   25  C   UNL     1     -12.381  12.798  65.246  1.00  0.00    -0.546 A  
HETATM   26  C   UNL     1     -12.009  12.866  63.907  1.00  0.00    -0.480 A  
HETATM   27  C   UNL     1     -10.041  11.550  64.364  1.00  0.00    -0.328 A  
HETATM   28  C   UNL     1     -10.841  12.256  63.463  1.00  0.00    -0.508 A  
ENDBRANCH  20  21
ENDBRANCH  19  20
ENDBRANCH   2  19
TORSDOF 10
ENDMDL
MODEL       74
REMARK 921   NORMALIZED FREE ENERGY PREDICTED BY IDOCK:   -5.28 KCAL/MOL
REMARK 922        TOTAL FREE ENERGY PREDICTED BY IDOCK:   -9.50 KCAL/MOL
REMARK 923 INTER-LIGAND FREE ENERGY PREDICTED BY IDOCK:   -8.64 KCAL/MOL
REMARK 924 INTRA-LIGAND FREE ENERGY PREDICTED BY IDOCK:   -0.86 KCAL/MOL
REMARK 927      BINDING AFFINITY PREDICTED BY RF-SCORE:    0.00 PKD
ROOT
HETATM    1  O   UNL     1      -9.947  10.253  66.401  1.00  0.00    -0.209 OA 
HETATM    2  C   UNL     1      -9.602  10.962  67.599  1.00  0.00    -0.163 C  
HETATM    3  H   UNL     1      -9.479   9.426  66.389  1.00  0.00     0.000 HD 
ENDROOT
BRANCH   2   4
HETATM    4  C   UNL     1     -10.360  12.301  67.618  1.00  0.00    -0.204 C  
BRANCH   4   5
HETATM    5  N   UNL     1     -11.691  12.162  67.004  1.00  0.00    -0.548 NA 
HETATM    6  H   UNL     1     -12.432  12.116  67.703  1.00  0.00     0.000 HD 
BRANCH   5   7
HETATM    7  C   UNL     1     -11.913  13.243  66.036  1.00  0.00    -0.423 C  
BRANCH   7   8
HETATM    8  C   UNL     1     -11.428  14.587  66.589  1.00  0.00    -0.366 C  
BRANCH   8   9
HETATM    9  N   UNL     1     -10.595  15.263  65.614  1.00  0.00    -0.337 N  
HETATM   10  H   UNL     1      -9.920  14.712  65.084  1.00  0.00     0.000 HD 
BRANCH   9  11
HETATM   11  C   UNL     1     -10.677  16.605  65.375  1.00  0.00    -0.215 C  
HETATM   12  O   UNL     1     -11.302  17.049  64.413  1.00  0.00    -1.140 OA 
BRANCH  11  13
HETATM   13  N   UNL     1     -10.023  17.414  66.280  1.00  0.00    -0.301 N  
HETATM   14  C   UNL     1      -8.599  17.191  66.539  1.00  0.00    -0.271 C  
HETATM   15  C   UNL     1      -7.782  18.427  66.147  1.00  0.00    -0.218 C  
HETATM   16  O   UNL     1      -8.278  19.605  66.807  1.00  0.00    -0.277 OA 
HETATM   17  C   UNL     1      -9.653  19.835  66.470  1.00  0.00    -0.406 C  
HETATM   18  C   UNL     1     -10.528  18.648  66.892  1.00  0.00    -0.402 C  
ENDBRANCH  11  13
ENDBRANCH   9  11
ENDBRANCH   8   9
ENDBRANCH   7   8
ENDBRANCH   5   7
ENDBRANCH   4   5
ENDBRANCH   2   4
BRANCH   2  19
HETATM   19  C   UNL     1      -9.981  10.133  68.833  1.00  0.00    -0.199 C  
BRANCH  19  20
HETATM   20  O   UNL     1     -10.597  10.984  69.811  1.00  0.00    -0.156 OA 
BRANCH  20  21
HETATM   21  C   UNL     1     -11.507  10.359  70.621  1.00  0.00    -0.349 A  
HETATM   22  C   UNL     1     -12.537  11.164  71.111  1.00  0.00    -0.513 A  
HETATM   23  H   UNL     1     -14.381   7.777  73.293  1.00  0.00     0.000 HD 
HETATM   24  O   UNL     1     -14.410   8.700  73.074  1.00  0.00    -0.395 OA 
HETATM   25  C   UNL     1     -13.523  10.625  71.941  1.00  0.00    -0.341 A  
HETATM   26  C   UNL     1     -13.479   9.273  72.263  1.00  0.00    -0.482 A  
HETATM   27  C   UNL     1     -11.488   8.998  70.933  1.00  0.00    -0.347 A  
HETATM   28  C   UNL     1     -12.475   8.455  71.756  1.00  0.00    -0.375 A  
ENDBRANCH  20  21
ENDBRANCH  19  20
ENDBRANCH   2  19
TORSDOF 10
ENDMDL
MODEL       75
REMARK 921   NORMALIZED FREE ENERGY PREDICTED BY IDOCK:   -5.27 KCAL/MOL
REMARK 922        TOTAL FREE ENERGY PREDICTED BY IDOCK:   -9.49 KCAL/MOL
REMARK 923 INTER-LIGAND FREE ENERGY PREDICTED BY IDOCK:   -8.28 KCAL/MOL
REMARK 924 INTRA-LIGAND FREE ENERGY PREDICTED BY IDOCK:   -1.21 KCAL/MOL
REMARK 927      BINDING AFFINITY PREDICTED BY RF-SCORE:    0.00 PKD
ROOT
HETATM    1  O   UNL     1     -14.076   8.835  73.284  1.00  0.00    -1.180 OA 
HETATM    2  C   UNL     1     -13.205   9.123  72.180  1.00  0.00    -0.458 C  
HETATM    3  H   UNL     1     -14.169   7.893  73.363  1.00  0.00     0.000 HD 
ENDROOT
BRANCH   2   4
HETATM    4  C   UNL     1     -13.055  10.648  72.052  1.00  0.00    -0.396 C  
BRANCH   4   5
HETATM    5  N   UNL     1     -12.879  11.044  70.645  1.00  0.00    -0.264 NA 
HETATM    6  H   UNL     1     -13.770  11.246  70.190  1.00  0.00     0.000 HD 
BRANCH   5   7
HETATM    7  C   UNL     1     -11.947  12.173  70.553  1.00  0.00    -0.216 C  
BRANCH   7   8
HETATM    8  C   UNL     1     -12.584  13.461  71.088  1.00  0.00    -0.345 C  
BRANCH   8   9
HETATM    9  N   UNL     1     -12.820  14.395  70.005  1.00  0.00    -0.494 N  
HETATM   10  H   UNL     1     -13.774  14.518  69.667  1.00  0.00     0.000 HD 
BRANCH   9  11
HETATM   11  C   UNL     1     -11.820  15.117  69.420  1.00  0.00    -0.330 C  
HETATM   12  O   UNL     1     -11.312  16.084  69.984  1.00  0.00    -0.320 OA 
BRANCH  11  13
HETATM   13  N   UNL     1     -11.423  14.684  68.172  1.00  0.00    -0.308 N  
HETATM   14  C   UNL     1      -9.996  14.505  67.899  1.00  0.00    -0.226 C  
HETATM   15  C   UNL     1      -9.694  13.041  67.557  1.00  0.00    -0.206 C  
HETATM   16  O   UNL     1     -10.518  12.583  66.470  1.00  0.00    -0.235 OA 
HETATM   17  C   UNL     1     -11.908  12.702  66.804  1.00  0.00    -0.370 C  
HETATM   18  C   UNL     1     -12.279  14.160  67.102  1.00  0.00    -0.313 C  
ENDBRANCH  11  13
ENDBRANCH   9  11
ENDBRANCH   8   9
ENDBRANCH   7   8
ENDBRANCH   5   7
ENDBRANCH   4   5
ENDBRANCH   2   4
BRANCH   2  19
HETATM   19  C   UNL     1     -11.830   8.483  72.410  1.00  0.00    -0.367 C  
BRANCH  19  20
HETATM   20  O   UNL     1     -10.882   9.043  71.490  1.00  0.00    -0.292 OA 
BRANCH  20  21
HETATM   21  C   UNL     1     -10.774   8.373  70.301  1.00  0.00    -0.234 A  
HETATM   22  C   UNL     1     -10.999   6.996  70.358  1.00  0.00    -0.301 A  
HETATM   23  H   UNL     1     -10.341   6.534  66.000  1.00  0.00     0.000 HD 
HETATM   24  O   UNL     1     -10.537   6.116  66.829  1.00  0.00    -0.259 OA 
HETATM   25  C   UNL     1     -10.921   6.217  69.200  1.00  0.00    -0.442 A  
HETATM   26  C   UNL     1     -10.633   6.830  67.985  1.00  0.00    -0.231 A  
HETATM   27  C   UNL     1     -10.509   8.978  69.071  1.00  0.00    -0.235 A  
HETATM   28  C   UNL     1     -10.437   8.204  67.911  1.00  0.00    -0.259 A  
ENDBRANCH  20  21
ENDBRANCH  19  20
ENDBRANCH   2  19
TORSDOF 10
ENDMDL
MODEL       76
REMARK 921   NORMALIZED FREE ENERGY PREDICTED BY IDOCK:   -5.27 KCAL/MOL
REMARK 922        TOTAL FREE ENERGY PREDICTED BY IDOCK:   -9.49 KCAL/MOL
REMARK 923 INTER-LIGAND FREE ENERGY PREDICTED BY IDOCK:   -8.72 KCAL/MOL
REMARK 924 INTRA-LIGAND FREE ENERGY PREDICTED BY IDOCK:   -0.77 KCAL/MOL
REMARK 927      BINDING AFFINITY PREDICTED BY RF-SCORE:    0.00 PKD
ROOT
HETATM    1  O   UNL     1     -10.277  14.438  69.395  1.00  0.00    -0.405 OA 
HETATM    2  C   UNL     1     -11.578  13.881  69.164  1.00  0.00    -0.313 C  
HETATM    3  H   UNL     1     -10.281  14.891  70.230  1.00  0.00     0.000 HD 
ENDROOT
BRANCH   2   4
HETATM    4  C   UNL     1     -11.571  13.149  67.811  1.00  0.00    -0.337 C  
BRANCH   4   5
HETATM    5  N   UNL     1     -12.415  13.850  66.829  1.00  0.00    -0.478 NA 
HETATM    6  H   UNL     1     -12.582  14.821  67.092  1.00  0.00     0.000 HD 
BRANCH   5   7
HETATM    7  C   UNL     1     -11.825  13.736  65.490  1.00  0.00    -0.363 C  
BRANCH   7   8
HETATM    8  C   UNL     1     -10.427  14.362  65.447  1.00  0.00    -0.373 C  
BRANCH   8   9
HETATM    9  N   UNL     1     -10.521  15.804  65.340  1.00  0.00    -0.394 N  
HETATM   10  H   UNL     1     -11.245  16.202  64.742  1.00  0.00     0.000 HD 
BRANCH   9  11
HETATM   11  C   UNL     1      -9.682  16.651  66.006  1.00  0.00    -0.278 C  
HETATM   12  O   UNL     1      -8.472  16.441  66.066  1.00  0.00    -0.347 OA 
BRANCH  11  13
HETATM   13  N   UNL     1     -10.282  17.747  66.590  1.00  0.00    -0.348 N  
HETATM   14  C   UNL     1     -10.330  17.839  68.051  1.00  0.00    -0.393 C  
HETATM   15  C   UNL     1      -9.565  19.076  68.536  1.00  0.00    -0.386 C  
HETATM   16  O   UNL     1     -10.052  20.270  67.899  1.00  0.00    -0.396 OA 
HETATM   17  C   UNL     1      -9.918  20.174  66.473  1.00  0.00    -0.457 C  
HETATM   18  C   UNL     1     -10.713  18.982  65.926  1.00  0.00    -0.327 C  
ENDBRANCH  11  13
ENDBRANCH   9  11
ENDBRANCH   8   9
ENDBRANCH   7   8
ENDBRANCH   5   7
ENDBRANCH   4   5
ENDBRANCH   2   4
BRANCH   2  19
HETATM   19  C   UNL     1     -11.941  12.898  70.285  1.00  0.00    -0.283 C  
BRANCH  19  20
HETATM   20  O   UNL     1     -12.264  11.621  69.717  1.00  0.00    -0.275 OA 
BRANCH  20  21
HETATM   21  C   UNL     1     -12.122  10.562  70.573  1.00  0.00    -0.345 A  
HETATM   22  C   UNL     1     -11.014   9.744  70.348  1.00  0.00    -0.371 A  
HETATM   23  H   UNL     1     -12.041   7.118  73.767  1.00  0.00     0.000 HD 
HETATM   24  O   UNL     1     -11.450   7.302  73.046  1.00  0.00    -0.244 OA 
HETATM   25  C   UNL     1     -10.771   8.639  71.168  1.00  0.00    -0.303 A  
HETATM   26  C   UNL     1     -11.636   8.370  72.223  1.00  0.00    -0.383 A  
HETATM   27  C   UNL     1     -12.970  10.294  71.650  1.00  0.00    -0.570 A  
HETATM   28  C   UNL     1     -12.727   9.195  72.475  1.00  0.00    -0.352 A  
ENDBRANCH  20  21
ENDBRANCH  19  20
ENDBRANCH   2  19
TORSDOF 10
ENDMDL
MODEL       77
REMARK 921   NORMALIZED FREE ENERGY PREDICTED BY IDOCK:   -5.27 KCAL/MOL
REMARK 922        TOTAL FREE ENERGY PREDICTED BY IDOCK:   -9.49 KCAL/MOL
REMARK 923 INTER-LIGAND FREE ENERGY PREDICTED BY IDOCK:   -8.40 KCAL/MOL
REMARK 924 INTRA-LIGAND FREE ENERGY PREDICTED BY IDOCK:   -1.09 KCAL/MOL
REMARK 927      BINDING AFFINITY PREDICTED BY RF-SCORE:    0.00 PKD
ROOT
HETATM    1  O   UNL     1     -14.292   9.241  73.029  1.00  0.00    -1.004 OA 
HETATM    2  C   UNL     1     -13.491   9.044  71.856  1.00  0.00    -0.425 C  
HETATM    3  H   UNL     1     -14.574   8.394  73.354  1.00  0.00     0.000 HD 
ENDROOT
BRANCH   2   4
HETATM    4  C   UNL     1     -13.035  10.415  71.330  1.00  0.00    -0.443 C  
BRANCH   4   5
HETATM    5  N   UNL     1     -12.761  10.361  69.884  1.00  0.00    -0.537 NA 
HETATM    6  H   UNL     1     -13.549  10.702  69.333  1.00  0.00     0.000 HD 
BRANCH   5   7
HETATM    7  C   UNL     1     -11.522  11.086  69.581  1.00  0.00    -0.303 C  
BRANCH   7   8
HETATM    8  C   UNL     1     -11.766  12.187  68.543  1.00  0.00    -0.330 C  
BRANCH   8   9
HETATM    9  N   UNL     1     -11.658  11.650  67.202  1.00  0.00    -0.269 N  
HETATM   10  H   UNL     1     -12.453  11.140  66.816  1.00  0.00     0.000 HD 
BRANCH   9  11
HETATM   11  C   UNL     1     -10.540  11.798  66.433  1.00  0.00    -0.255 C  
HETATM   12  O   UNL     1      -9.454  11.341  66.784  1.00  0.00    -0.174 OA 
BRANCH  11  13
HETATM   13  N   UNL     1     -10.716  12.482  65.248  1.00  0.00    -0.278 N  
HETATM   14  C   UNL     1     -11.104  11.741  64.046  1.00  0.00    -0.390 C  
HETATM   15  C   UNL     1     -12.465  12.225  63.533  1.00  0.00    -0.534 C  
HETATM   16  O   UNL     1     -12.461  13.647  63.317  1.00  0.00    -0.801 OA 
HETATM   17  C   UNL     1     -12.153  14.343  64.534  1.00  0.00    -0.481 C  
HETATM   18  C   UNL     1     -10.773  13.937  65.065  1.00  0.00    -0.386 C  
ENDBRANCH  11  13
ENDBRANCH   9  11
ENDBRANCH   8   9
ENDBRANCH   7   8
ENDBRANCH   5   7
ENDBRANCH   4   5
ENDBRANCH   2   4
BRANCH   2  19
HETATM   19  C   UNL     1     -12.266   8.181  72.188  1.00  0.00    -0.350 C  
BRANCH  19  20
HETATM   20  O   UNL     1     -11.651   7.734  70.972  1.00  0.00    -0.280 OA 
BRANCH  20  21
HETATM   21  C   UNL     1     -10.293   7.571  71.045  1.00  0.00    -0.199 A  
HETATM   22  C   UNL     1      -9.603   8.549  71.764  1.00  0.00    -0.337 A  
HETATM   23  H   UNL     1      -5.704   6.565  71.052  1.00  0.00     0.000 HD 
HETATM   24  O   UNL     1      -6.174   7.293  71.440  1.00  0.00    -0.037 OA 
HETATM   25  C   UNL     1      -8.215   8.475  71.906  1.00  0.00    -0.201 A  
HETATM   26  C   UNL     1      -7.527   7.408  71.338  1.00  0.00    -0.080 A  
HETATM   27  C   UNL     1      -9.593   6.494  70.499  1.00  0.00    -0.180 A  
HETATM   28  C   UNL     1      -8.207   6.413  70.645  1.00  0.00    -0.125 A  
ENDBRANCH  20  21
ENDBRANCH  19  20
ENDBRANCH   2  19
TORSDOF 10
ENDMDL
MODEL       78
REMARK 921   NORMALIZED FREE ENERGY PREDICTED BY IDOCK:   -5.26 KCAL/MOL
REMARK 922        TOTAL FREE ENERGY PREDICTED BY IDOCK:   -9.48 KCAL/MOL
REMARK 923 INTER-LIGAND FREE ENERGY PREDICTED BY IDOCK:   -7.91 KCAL/MOL
REMARK 924 INTRA-LIGAND FREE ENERGY PREDICTED BY IDOCK:   -1.57 KCAL/MOL
REMARK 927      BINDING AFFINITY PREDICTED BY RF-SCORE:    0.00 PKD
ROOT
HETATM    1  O   UNL     1      -9.664   9.014  67.638  1.00  0.00    -0.146 OA 
HETATM    2  C   UNL     1      -9.460   8.742  69.031  1.00  0.00    -0.160 C  
HETATM    3  H   UNL     1     -10.445   8.557  67.347  1.00  0.00     0.000 HD 
ENDROOT
BRANCH   2   4
HETATM    4  C   UNL     1      -8.195   9.480  69.500  1.00  0.00    -0.134 C  
BRANCH   4   5
HETATM    5  N   UNL     1      -8.418  10.936  69.537  1.00  0.00    -0.376 NA 
HETATM    6  H   UNL     1      -8.384  11.303  70.488  1.00  0.00     0.000 HD 
BRANCH   5   7
HETATM    7  C   UNL     1      -7.464  11.612  68.651  1.00  0.00    -0.117 C  
BRANCH   7   8
HETATM    8  C   UNL     1      -8.030  12.942  68.142  1.00  0.00    -0.153 C  
BRANCH   8   9
HETATM    9  N   UNL     1      -8.274  12.874  66.715  1.00  0.00    -0.408 N  
HETATM   10  H   UNL     1      -7.617  13.334  66.085  1.00  0.00     0.000 HD 
BRANCH   9  11
HETATM   11  C   UNL     1      -9.346  12.218  66.179  1.00  0.00    -0.176 C  
HETATM   12  O   UNL     1      -9.248  11.070  65.751  1.00  0.00    -0.192 OA 
BRANCH  11  13
HETATM   13  N   UNL     1     -10.529  12.926  66.159  1.00  0.00    -0.265 N  
HETATM   14  C   UNL     1     -10.488  14.381  65.994  1.00  0.00    -0.301 C  
HETATM   15  C   UNL     1     -11.215  14.796  64.709  1.00  0.00    -0.385 C  
HETATM   16  O   UNL     1     -12.559  14.283  64.686  1.00  0.00    -0.627 OA 
HETATM   17  C   UNL     1     -12.555  12.850  64.771  1.00  0.00    -0.425 C  
HETATM   18  C   UNL     1     -11.887  12.379  66.069  1.00  0.00    -0.395 C  
ENDBRANCH  11  13
ENDBRANCH   9  11
ENDBRANCH   8   9
ENDBRANCH   7   8
ENDBRANCH   5   7
ENDBRANCH   4   5
ENDBRANCH   2   4
BRANCH   2  19
HETATM   19  C   UNL     1     -10.671   9.215  69.846  1.00  0.00    -0.231 C  
BRANCH  19  20
HETATM   20  O   UNL     1     -11.181  10.432  69.283  1.00  0.00    -0.230 OA 
BRANCH  20  21
HETATM   21  C   UNL     1     -11.892  11.212  70.156  1.00  0.00    -0.365 A  
HETATM   22  C   UNL     1     -11.839  12.587  69.922  1.00  0.00    -0.373 A  
HETATM   23  H   UNL     1     -14.501  13.449  73.359  1.00  0.00     0.000 HD 
HETATM   24  O   UNL     1     -13.983  13.792  72.641  1.00  0.00    -0.710 OA 
HETATM   25  C   UNL     1     -12.534  13.473  70.749  1.00  0.00    -0.428 A  
HETATM   26  C   UNL     1     -13.294  12.971  71.801  1.00  0.00    -0.378 A  
HETATM   27  C   UNL     1     -12.676  10.720  71.201  1.00  0.00    -0.532 A  
HETATM   28  C   UNL     1     -13.377  11.602  72.025  1.00  0.00    -0.405 A  
ENDBRANCH  20  21
ENDBRANCH  19  20
ENDBRANCH   2  19
TORSDOF 10
ENDMDL
MODEL       79
REMARK 921   NORMALIZED FREE ENERGY PREDICTED BY IDOCK:   -5.26 KCAL/MOL
REMARK 922        TOTAL FREE ENERGY PREDICTED BY IDOCK:   -9.48 KCAL/MOL
REMARK 923 INTER-LIGAND FREE ENERGY PREDICTED BY IDOCK:   -8.05 KCAL/MOL
REMARK 924 INTRA-LIGAND FREE ENERGY PREDICTED BY IDOCK:   -1.43 KCAL/MOL
REMARK 927      BINDING AFFINITY PREDICTED BY RF-SCORE:    0.00 PKD
ROOT
HETATM    1  O   UNL     1     -11.149   9.487  69.252  1.00  0.00    -0.380 OA 
HETATM    2  C   UNL     1     -11.856  10.690  68.921  1.00  0.00    -0.145 C  
HETATM    3  H   UNL     1     -11.135   8.920  68.490  1.00  0.00     0.000 HD 
ENDROOT
BRANCH   2   4
HETATM    4  C   UNL     1     -11.878  11.608  70.155  1.00  0.00    -0.344 C  
BRANCH   4   5
HETATM    5  N   UNL     1     -12.232  12.987  69.780  1.00  0.00    -0.228 NA 
HETATM    6  H   UNL     1     -13.182  13.051  69.414  1.00  0.00     0.000 HD 
BRANCH   5   7
HETATM    7  C   UNL     1     -12.020  13.887  70.919  1.00  0.00    -0.231 C  
BRANCH   7   8
HETATM    8  C   UNL     1     -11.728  15.316  70.447  1.00  0.00    -0.310 C  
BRANCH   8   9
HETATM    9  N   UNL     1     -10.346  15.437  70.027  1.00  0.00    -0.398 N  
HETATM   10  H   UNL     1      -9.663  14.781  70.404  1.00  0.00     0.000 HD 
BRANCH   9  11
HETATM   11  C   UNL     1      -9.922  16.390  69.146  1.00  0.00    -0.273 C  
HETATM   12  O   UNL     1     -10.694  17.231  68.689  1.00  0.00    -0.340 OA 
BRANCH  11  13
HETATM   13  N   UNL     1      -8.583  16.345  68.817  1.00  0.00    -0.239 N  
HETATM   14  C   UNL     1      -7.836  15.104  69.033  1.00  0.00    -0.181 C  
HETATM   15  C   UNL     1      -7.300  14.563  67.703  1.00  0.00    -0.183 C  
HETATM   16  O   UNL     1      -6.518  15.556  67.016  1.00  0.00    -0.285 OA 
HETATM   17  C   UNL     1      -7.305  16.727  66.754  1.00  0.00    -0.240 C  
HETATM   18  C   UNL     1      -7.823  17.345  68.059  1.00  0.00    -0.207 C  
ENDBRANCH  11  13
ENDBRANCH   9  11
ENDBRANCH   8   9
ENDBRANCH   7   8
ENDBRANCH   5   7
ENDBRANCH   4   5
ENDBRANCH   2   4
BRANCH   2  19
HETATM   19  C   UNL     1     -11.164  11.407  67.753  1.00  0.00    -0.283 C  
BRANCH  19  20
HETATM   20  O   UNL     1     -12.153  11.872  66.824  1.00  0.00    -0.593 OA 
BRANCH  20  21
HETATM   21  C   UNL     1     -11.854  13.064  66.220  1.00  0.00    -0.408 A  
HETATM   22  C   UNL     1     -12.694  13.439  65.170  1.00  0.00    -0.459 A  
HETATM   23  H   UNL     1     -10.466  17.213  64.508  1.00  0.00     0.000 HD 
HETATM   24  O   UNL     1     -11.181  16.647  64.242  1.00  0.00    -1.098 OA 
HETATM   25  C   UNL     1     -12.483  14.641  64.489  1.00  0.00    -0.312 A  
HETATM   26  C   UNL     1     -11.436  15.470  64.878  1.00  0.00    -0.279 A  
HETATM   27  C   UNL     1     -10.821  13.916  66.615  1.00  0.00    -0.289 A  
HETATM   28  C   UNL     1     -10.611  15.120  65.941  1.00  0.00    -0.347 A  
ENDBRANCH  20  21
ENDBRANCH  19  20
ENDBRANCH   2  19
TORSDOF 10
ENDMDL
MODEL       80
REMARK 921   NORMALIZED FREE ENERGY PREDICTED BY IDOCK:   -5.23 KCAL/MOL
REMARK 922        TOTAL FREE ENERGY PREDICTED BY IDOCK:   -9.43 KCAL/MOL
REMARK 923 INTER-LIGAND FREE ENERGY PREDICTED BY IDOCK:   -8.35 KCAL/MOL
REMARK 924 INTRA-LIGAND FREE ENERGY PREDICTED BY IDOCK:   -1.08 KCAL/MOL
REMARK 927      BINDING AFFINITY PREDICTED BY RF-SCORE:    0.00 PKD
ROOT
HETATM    1  O   UNL     1     -13.243  15.302  70.161  1.00  0.00    -0.651 OA 
HETATM    2  C   UNL     1     -12.064  14.535  70.442  1.00  0.00    -0.322 C  
HETATM    3  H   UNL     1     -12.982  16.157  69.840  1.00  0.00     0.000 HD 
ENDROOT
BRANCH   2   4
HETATM    4  C   UNL     1     -12.487  13.150  70.962  1.00  0.00    -0.318 C  
BRANCH   4   5
HETATM    5  N   UNL     1     -11.723  12.081  70.296  1.00  0.00    -0.530 NA 
HETATM    6  H   UNL     1     -10.821  11.920  70.745  1.00  0.00     0.000 HD 
BRANCH   5   7
HETATM    7  C   UNL     1     -12.530  10.858  70.225  1.00  0.00    -0.303 C  
BRANCH   7   8
HETATM    8  C   UNL     1     -13.015  10.434  71.616  1.00  0.00    -0.475 C  
BRANCH   8   9
HETATM    9  N   UNL     1     -12.225   9.323  72.109  1.00  0.00    -0.341 N  
HETATM   10  H   UNL     1     -11.545   9.499  72.848  1.00  0.00     0.000 HD 
BRANCH   9  11
HETATM   11  C   UNL     1     -12.353   8.052  71.627  1.00  0.00    -0.314 C  
HETATM   12  O   UNL     1     -13.400   7.419  71.754  1.00  0.00    -0.349 OA 
BRANCH  11  13
HETATM   13  N   UNL     1     -11.242   7.541  70.989  1.00  0.00    -0.258 N  
HETATM   14  C   UNL     1     -11.325   6.222  70.358  1.00  0.00    -0.372 C  
HETATM   15  C   UNL     1     -11.078   6.333  68.849  1.00  0.00    -0.362 C  
HETATM   16  O   UNL     1      -9.828   6.990  68.576  1.00  0.00    -0.143 OA 
HETATM   17  C   UNL     1      -9.814   8.307  69.143  1.00  0.00    -0.179 C  
HETATM   18  C   UNL     1     -10.001   8.252  70.664  1.00  0.00    -0.183 C  
ENDBRANCH  11  13
ENDBRANCH   9  11
ENDBRANCH   8   9
ENDBRANCH   7   8
ENDBRANCH   5   7
ENDBRANCH   4   5
ENDBRANCH   2   4
BRANCH   2  19
HETATM   19  C   UNL     1     -11.220  14.376  69.170  1.00  0.00    -0.272 C  
BRANCH  19  20
HETATM   20  O   UNL     1     -12.029  14.655  68.019  1.00  0.00    -0.326 OA 
BRANCH  20  21
HETATM   21  C   UNL     1     -11.776  13.858  66.936  1.00  0.00    -0.399 A  
HETATM   22  C   UNL     1     -10.795  12.881  67.117  1.00  0.00    -0.278 A  
HETATM   23  H   UNL     1     -11.296  11.363  62.984  1.00  0.00     0.000 HD 
HETATM   24  O   UNL     1     -10.840  11.292  63.814  1.00  0.00    -0.381 OA 
HETATM   25  C   UNL     1     -10.463  12.009  66.077  1.00  0.00    -0.284 A  
HETATM   26  C   UNL     1     -11.131  12.112  64.862  1.00  0.00    -0.319 A  
HETATM   27  C   UNL     1     -12.455  13.935  65.718  1.00  0.00    -0.530 A  
HETATM   28  C   UNL     1     -12.130  13.061  64.679  1.00  0.00    -0.463 A  
ENDBRANCH  20  21
ENDBRANCH  19  20
ENDBRANCH   2  19
TORSDOF 10
ENDMDL
MODEL       81
REMARK 921   NORMALIZED FREE ENERGY PREDICTED BY IDOCK:   -5.23 KCAL/MOL
REMARK 922        TOTAL FREE ENERGY PREDICTED BY IDOCK:   -9.43 KCAL/MOL
REMARK 923 INTER-LIGAND FREE ENERGY PREDICTED BY IDOCK:   -8.14 KCAL/MOL
REMARK 924 INTRA-LIGAND FREE ENERGY PREDICTED BY IDOCK:   -1.29 KCAL/MOL
REMARK 927      BINDING AFFINITY PREDICTED BY RF-SCORE:    0.00 PKD
ROOT
HETATM    1  O   UNL     1     -10.868  14.862  70.984  1.00  0.00    -0.545 OA 
HETATM    2  C   UNL     1     -11.190  15.422  69.703  1.00  0.00    -0.283 C  
HETATM    3  H   UNL     1     -11.674  14.601  71.415  1.00  0.00     0.000 HD 
ENDROOT
BRANCH   2   4
HETATM    4  C   UNL     1      -9.886  15.846  69.006  1.00  0.00    -0.234 C  
BRANCH   4   5
HETATM    5  N   UNL     1      -8.728  15.142  69.583  1.00  0.00    -0.439 NA 
HETATM    6  H   UNL     1      -8.819  14.129  69.506  1.00  0.00     0.000 HD 
BRANCH   5   7
HETATM    7  C   UNL     1      -7.487  15.631  68.971  1.00  0.00    -0.181 C  
BRANCH   7   8
HETATM    8  C   UNL     1      -7.783  16.596  67.817  1.00  0.00    -0.163 C  
BRANCH   8   9
HETATM    9  N   UNL     1      -6.984  17.798  67.945  1.00  0.00    -0.190 N  
HETATM   10  H   UNL     1      -6.119  17.868  67.409  1.00  0.00     0.000 HD 
BRANCH   9  11
HETATM   11  C   UNL     1      -7.340  18.840  68.753  1.00  0.00    -0.312 C  
HETATM   12  O   UNL     1      -6.716  19.099  69.780  1.00  0.00    -0.221 OA 
BRANCH  11  13
HETATM   13  N   UNL     1      -8.431  19.573  68.335  1.00  0.00    -0.352 N  
HETATM   14  C   UNL     1      -8.345  20.330  67.084  1.00  0.00    -0.336 C  
HETATM   15  C   UNL     1      -9.382  19.821  66.076  1.00  0.00    -0.298 C  
HETATM   16  O   UNL     1     -10.706  19.847  66.638  1.00  0.00    -0.464 OA 
HETATM   17  C   UNL     1     -10.771  19.032  67.818  1.00  0.00    -0.356 C  
HETATM   18  C   UNL     1      -9.790  19.533  68.885  1.00  0.00    -0.445 C  
ENDBRANCH  11  13
ENDBRANCH   9  11
ENDBRANCH   8   9
ENDBRANCH   7   8
ENDBRANCH   5   7
ENDBRANCH   4   5
ENDBRANCH   2   4
BRANCH   2  19
HETATM   19  C   UNL     1     -11.928  14.389  68.842  1.00  0.00    -0.302 C  
BRANCH  19  20
HETATM   20  O   UNL     1     -10.972  13.570  68.152  1.00  0.00    -0.240 OA 
BRANCH  20  21
HETATM   21  C   UNL     1     -11.366  13.158  66.908  1.00  0.00    -0.318 A  
HETATM   22  C   UNL     1     -12.234  14.017  66.230  1.00  0.00    -0.493 A  
HETATM   23  H   UNL     1     -12.390  11.350  62.694  1.00  0.00     0.000 HD 
HETATM   24  O   UNL     1     -12.684  12.154  63.106  1.00  0.00    -0.621 OA 
HETATM   25  C   UNL     1     -12.692  13.695  64.950  1.00  0.00    -0.320 A  
HETATM   26  C   UNL     1     -12.261  12.518  64.348  1.00  0.00    -0.449 A  
HETATM   27  C   UNL     1     -10.924  11.990  66.282  1.00  0.00    -0.340 A  
HETATM   28  C   UNL     1     -11.374  11.670  65.000  1.00  0.00    -0.237 A  
ENDBRANCH  20  21
ENDBRANCH  19  20
ENDBRANCH   2  19
TORSDOF 10
ENDMDL
MODEL       82
REMARK 921   NORMALIZED FREE ENERGY PREDICTED BY IDOCK:   -5.20 KCAL/MOL
REMARK 922        TOTAL FREE ENERGY PREDICTED BY IDOCK:   -9.38 KCAL/MOL
REMARK 923 INTER-LIGAND FREE ENERGY PREDICTED BY IDOCK:   -8.59 KCAL/MOL
REMARK 924 INTRA-LIGAND FREE ENERGY PREDICTED BY IDOCK:   -0.79 KCAL/MOL
REMARK 927      BINDING AFFINITY PREDICTED BY RF-SCORE:    0.00 PKD
ROOT
HETATM    1  O   UNL     1     -12.445  12.557  65.667  1.00  0.00    -0.648 OA 
HETATM    2  C   UNL     1     -11.737  12.717  66.904  1.00  0.00    -0.383 C  
HETATM    3  H   UNL     1     -12.748  13.408  65.375  1.00  0.00     0.000 HD 
ENDROOT
BRANCH   2   4
HETATM    4  C   UNL     1     -11.246  11.337  67.376  1.00  0.00    -0.303 C  
BRANCH   4   5
HETATM    5  N   UNL     1     -12.028  10.868  68.532  1.00  0.00    -0.762 NA 
HETATM    6  H   UNL     1     -11.910   9.867  68.692  1.00  0.00     0.000 HD 
BRANCH   5   7
HETATM    7  C   UNL     1     -11.689  11.658  69.722  1.00  0.00    -0.352 C  
BRANCH   7   8
HETATM    8  C   UNL     1     -12.620  11.322  70.892  1.00  0.00    -0.371 C  
BRANCH   8   9
HETATM    9  N   UNL     1     -13.186   9.999  70.724  1.00  0.00    -0.591 N  
HETATM   10  H   UNL     1     -13.763   9.816  69.903  1.00  0.00     0.000 HD 
BRANCH   9  11
HETATM   11  C   UNL     1     -12.978   8.987  71.617  1.00  0.00    -0.361 C  
HETATM   12  O   UNL     1     -13.827   8.684  72.453  1.00  0.00    -0.394 OA 
BRANCH  11  13
HETATM   13  N   UNL     1     -11.768   8.335  71.509  1.00  0.00    -0.280 N  
HETATM   14  C   UNL     1     -10.886   8.268  72.676  1.00  0.00    -0.311 C  
HETATM   15  C   UNL     1     -10.660   6.810  73.095  1.00  0.00    -0.287 C  
HETATM   16  O   UNL     1     -10.166   6.026  71.995  1.00  0.00    -0.188 OA 
HETATM   17  C   UNL     1     -11.092   6.053  70.899  1.00  0.00    -0.284 C  
HETATM   18  C   UNL     1     -11.313   7.487  70.401  1.00  0.00    -0.233 C  
ENDBRANCH  11  13
ENDBRANCH   9  11
ENDBRANCH   8   9
ENDBRANCH   7   8
ENDBRANCH   5   7
ENDBRANCH   4   5
ENDBRANCH   2   4
BRANCH   2  19
HETATM   19  C   UNL     1     -10.539  13.656  66.711  1.00  0.00    -0.273 C  
BRANCH  19  20
HETATM   20  O   UNL     1     -10.541  14.653  67.743  1.00  0.00    -0.247 OA 
BRANCH  20  21
HETATM   21  C   UNL     1     -10.567  15.945  67.290  1.00  0.00    -0.314 A  
HETATM   22  C   UNL     1     -10.533  16.934  68.275  1.00  0.00    -0.352 A  
HETATM   23  H   UNL     1     -10.629  20.181  65.261  1.00  0.00     0.000 HD 
HETATM   24  O   UNL     1     -10.606  19.940  66.179  1.00  0.00    -0.467 OA 
HETATM   25  C   UNL     1     -10.548  18.286  67.922  1.00  0.00    -0.392 A  
HETATM   26  C   UNL     1     -10.581  18.638  66.577  1.00  0.00    -0.358 A  
HETATM   27  C   UNL     1     -10.577  16.313  65.943  1.00  0.00    -0.307 A  
HETATM   28  C   UNL     1     -10.586  17.662  65.587  1.00  0.00    -0.137 A  
ENDBRANCH  20  21
ENDBRANCH  19  20
ENDBRANCH   2  19
TORSDOF 10
ENDMDL
MODEL       83
REMARK 921   NORMALIZED FREE ENERGY PREDICTED BY IDOCK:   -5.17 KCAL/MOL
REMARK 922        TOTAL FREE ENERGY PREDICTED BY IDOCK:   -9.33 KCAL/MOL
REMARK 923 INTER-LIGAND FREE ENERGY PREDICTED BY IDOCK:   -8.13 KCAL/MOL
REMARK 924 INTRA-LIGAND FREE ENERGY PREDICTED BY IDOCK:   -1.20 KCAL/MOL
REMARK 927      BINDING AFFINITY PREDICTED BY RF-SCORE:    0.00 PKD
ROOT
HETATM    1  O   UNL     1      -6.544  10.236  67.842  1.00  0.00    -0.061 OA 
HETATM    2  C   UNL     1      -7.894   9.799  67.632  1.00  0.00    -0.095 C  
HETATM    3  H   UNL     1      -6.051  10.107  67.040  1.00  0.00     0.000 HD 
ENDROOT
BRANCH   2   4
HETATM    4  C   UNL     1      -8.690  10.008  68.931  1.00  0.00    -0.146 C  
BRANCH   4   5
HETATM    5  N   UNL     1      -9.564   8.855  69.205  1.00  0.00    -0.160 NA 
HETATM    6  H   UNL     1      -9.146   8.210  69.876  1.00  0.00     0.000 HD 
BRANCH   5   7
HETATM    7  C   UNL     1     -10.887   9.318  69.637  1.00  0.00    -0.212 C  
BRANCH   7   8
HETATM    8  C   UNL     1     -10.873  10.819  69.947  1.00  0.00    -0.202 C  
BRANCH   8   9
HETATM    9  N   UNL     1     -12.225  11.339  69.994  1.00  0.00    -0.318 N  
HETATM   10  H   UNL     1     -12.781  11.328  69.139  1.00  0.00     0.000 HD 
BRANCH   9  11
HETATM   11  C   UNL     1     -12.785  11.841  71.133  1.00  0.00    -0.305 C  
HETATM   12  O   UNL     1     -13.060  11.116  72.088  1.00  0.00    -0.463 OA 
BRANCH  11  13
HETATM   13  N   UNL     1     -13.011  13.201  71.137  1.00  0.00    -0.250 N  
HETATM   14  C   UNL     1     -13.832  13.785  72.200  1.00  0.00    -0.554 C  
HETATM   15  C   UNL     1     -13.012  14.786  73.023  1.00  0.00    -0.510 C  
HETATM   16  O   UNL     1     -12.420  15.789  72.179  1.00  0.00    -0.386 OA 
HETATM   17  C   UNL     1     -11.563  15.185  71.200  1.00  0.00    -0.360 C  
HETATM   18  C   UNL     1     -12.346  14.213  70.309  1.00  0.00    -0.356 C  
ENDBRANCH  11  13
ENDBRANCH   9  11
ENDBRANCH   8   9
ENDBRANCH   7   8
ENDBRANCH   5   7
ENDBRANCH   4   5
ENDBRANCH   2   4
BRANCH   2  19
HETATM   19  C   UNL     1      -8.539  10.599  66.492  1.00  0.00    -0.142 C  
BRANCH  19  20
HETATM   20  O   UNL     1      -9.965  10.468  66.564  1.00  0.00    -0.199 OA 
BRANCH  20  21
HETATM   21  C   UNL     1     -10.660  11.369  65.801  1.00  0.00    -0.260 A  
HETATM   22  C   UNL     1     -10.390  11.340  64.432  1.00  0.00    -0.388 A  
HETATM   23  H   UNL     1     -13.299  14.583  63.615  1.00  0.00     0.000 HD 
HETATM   24  O   UNL     1     -12.656  13.977  63.268  1.00  0.00    -0.801 OA 
HETATM   25  C   UNL     1     -11.050  12.212  63.562  1.00  0.00    -0.525 A  
HETATM   26  C   UNL     1     -11.992  13.100  64.071  1.00  0.00    -0.460 A  
HETATM   27  C   UNL     1     -11.625  12.250  66.296  1.00  0.00    -0.446 A  
HETATM   28  C   UNL     1     -12.290  13.118  65.429  1.00  0.00    -0.532 A  
ENDBRANCH  20  21
ENDBRANCH  19  20
ENDBRANCH   2  19
TORSDOF 10
ENDMDL
MODEL       84
REMARK 921   NORMALIZED FREE ENERGY PREDICTED BY IDOCK:   -5.16 KCAL/MOL
REMARK 922        TOTAL FREE ENERGY PREDICTED BY IDOCK:   -9.31 KCAL/MOL
REMARK 923 INTER-LIGAND FREE ENERGY PREDICTED BY IDOCK:   -8.21 KCAL/MOL
REMARK 924 INTRA-LIGAND FREE ENERGY PREDICTED BY IDOCK:   -1.11 KCAL/MOL
REMARK 927      BINDING AFFINITY PREDICTED BY RF-SCORE:    0.00 PKD
ROOT
HETATM    1  O   UNL     1     -12.759  14.239  66.428  1.00  0.00    -0.524 OA 
HETATM    2  C   UNL     1     -11.759  13.255  66.732  1.00  0.00    -0.385 C  
HETATM    3  H   UNL     1     -13.613  13.823  66.446  1.00  0.00     0.000 HD 
ENDROOT
BRANCH   2   4
HETATM    4  C   UNL     1     -10.376  13.928  66.701  1.00  0.00    -0.278 C  
BRANCH   4   5
HETATM    5  N   UNL     1      -9.510  13.400  67.768  1.00  0.00    -0.203 NA 
HETATM    6  H   UNL     1      -9.143  12.476  67.540  1.00  0.00     0.000 HD 
BRANCH   5   7
HETATM    7  C   UNL     1      -8.440  14.359  68.066  1.00  0.00    -0.164 C  
BRANCH   7   8
HETATM    8  C   UNL     1      -8.878  15.361  69.139  1.00  0.00    -0.249 C  
BRANCH   8   9
HETATM    9  N   UNL     1      -9.991  14.831  69.901  1.00  0.00    -0.437 N  
HETATM   10  H   UNL     1     -10.086  13.819  69.984  1.00  0.00     0.000 HD 
BRANCH   9  11
HETATM   11  C   UNL     1     -10.915  15.628  70.513  1.00  0.00    -0.350 C  
HETATM   12  O   UNL     1     -11.090  16.794  70.164  1.00  0.00    -0.228 OA 
BRANCH  11  13
HETATM   13  N   UNL     1     -11.632  15.036  71.532  1.00  0.00    -0.361 N  
HETATM   14  C   UNL     1     -11.993  15.833  72.707  1.00  0.00    -0.492 C  
HETATM   15  C   UNL     1     -13.517  15.924  72.845  1.00  0.00    -0.554 C  
HETATM   16  O   UNL     1     -14.114  14.616  72.870  1.00  0.00    -0.457 OA 
HETATM   17  C   UNL     1     -13.803  13.894  71.670  1.00  0.00    -0.296 C  
HETATM   18  C   UNL     1     -12.287  13.724  71.509  1.00  0.00    -0.194 C  
ENDBRANCH  11  13
ENDBRANCH   9  11
ENDBRANCH   8   9
ENDBRANCH   7   8
ENDBRANCH   5   7
ENDBRANCH   4   5
ENDBRANCH   2   4
BRANCH   2  19
HETATM   19  C   UNL     1     -12.013  12.653  68.120  1.00  0.00    -0.222 C  
BRANCH  19  20
HETATM   20  O   UNL     1     -12.034  11.222  68.024  1.00  0.00    -0.621 OA 
BRANCH  20  21
HETATM   21  C   UNL     1     -11.448  10.570  69.076  1.00  0.00    -0.237 A  
HETATM   22  C   UNL     1     -12.243  10.417  70.214  1.00  0.00    -0.349 A  
HETATM   23  H   UNL     1      -9.036   8.252  72.375  1.00  0.00     0.000 HD 
HETATM   24  O   UNL     1      -9.918   8.605  72.392  1.00  0.00    -0.302 OA 
HETATM   25  C   UNL     1     -11.745   9.761  71.343  1.00  0.00    -0.475 A  
HETATM   26  C   UNL     1     -10.453   9.245  71.317  1.00  0.00    -0.338 A  
HETATM   27  C   UNL     1     -10.161  10.027  69.056  1.00  0.00    -0.216 A  
HETATM   28  C   UNL     1      -9.663   9.365  70.179  1.00  0.00    -0.274 A  
ENDBRANCH  20  21
ENDBRANCH  19  20
ENDBRANCH   2  19
TORSDOF 10
ENDMDL
MODEL       85
REMARK 921   NORMALIZED FREE ENERGY PREDICTED BY IDOCK:   -5.16 KCAL/MOL
REMARK 922        TOTAL FREE ENERGY PREDICTED BY IDOCK:   -9.31 KCAL/MOL
REMARK 923 INTER-LIGAND FREE ENERGY PREDICTED BY IDOCK:   -8.13 KCAL/MOL
REMARK 924 INTRA-LIGAND FREE ENERGY PREDICTED BY IDOCK:   -1.18 KCAL/MOL
REMARK 927      BINDING AFFINITY PREDICTED BY RF-SCORE:    0.00 PKD
ROOT
HETATM    1  O   UNL     1     -10.543  13.730  69.543  1.00  0.00    -0.447 OA 
HETATM    2  C   UNL     1     -10.642  14.699  68.490  1.00  0.00    -0.245 C  
HETATM    3  H   UNL     1      -9.766  13.916  70.058  1.00  0.00     0.000 HD 
ENDROOT
BRANCH   2   4
HETATM    4  C   UNL     1     -11.899  14.397  67.656  1.00  0.00    -0.378 C  
BRANCH   4   5
HETATM    5  N   UNL     1     -11.642  14.606  66.221  1.00  0.00    -0.363 NA 
HETATM    6  H   UNL     1     -10.678  14.386  65.969  1.00  0.00     0.000 HD 
BRANCH   5   7
HETATM    7  C   UNL     1     -12.608  13.844  65.421  1.00  0.00    -0.507 C  
BRANCH   7   8
HETATM    8  C   UNL     1     -11.985  13.377  64.101  1.00  0.00    -0.450 C  
BRANCH   8   9
HETATM    9  N   UNL     1     -10.634  12.902  64.319  1.00  0.00    -0.389 N  
HETATM   10  H   UNL     1      -9.932  13.565  64.649  1.00  0.00     0.000 HD 
BRANCH   9  11
HETATM   11  C   UNL     1     -10.261  11.607  64.103  1.00  0.00    -0.326 C  
HETATM   12  O   UNL     1     -10.149  11.152  62.966  1.00  0.00    -0.318 OA 
BRANCH  11  13
HETATM   13  N   UNL     1     -10.016  10.859  65.235  1.00  0.00    -0.255 N  
HETATM   14  C   UNL     1      -9.376   9.549  65.102  1.00  0.00    -0.252 C  
HETATM   15  C   UNL     1      -8.033   9.530  65.840  1.00  0.00    -0.111 C  
HETATM   16  O   UNL     1      -8.192   9.920  67.215  1.00  0.00    -0.119 OA 
HETATM   17  C   UNL     1      -8.750  11.239  67.307  1.00  0.00    -0.145 C  
HETATM   18  C   UNL     1     -10.125  11.301  66.630  1.00  0.00    -0.214 C  
ENDBRANCH  11  13
ENDBRANCH   9  11
ENDBRANCH   8   9
ENDBRANCH   7   8
ENDBRANCH   5   7
ENDBRANCH   4   5
ENDBRANCH   2   4
BRANCH   2  19
HETATM   19  C   UNL     1     -10.735  16.113  69.077  1.00  0.00    -0.287 C  
BRANCH  19  20
HETATM   20  O   UNL     1     -11.034  17.048  68.031  1.00  0.00    -0.360 OA 
BRANCH  20  21
HETATM   21  C   UNL     1     -10.111  18.048  67.877  1.00  0.00    -0.355 A  
HETATM   22  C   UNL     1     -10.546  19.170  67.169  1.00  0.00    -0.564 A  
HETATM   23  H   UNL     1      -6.637  21.201  67.651  1.00  0.00     0.000 HD 
HETATM   24  O   UNL     1      -7.517  21.231  67.296  1.00  0.00    -0.449 OA 
HETATM   25  C   UNL     1      -9.686  20.252  66.960  1.00  0.00    -0.598 A  
HETATM   26  C   UNL     1      -8.396  20.208  67.479  1.00  0.00    -0.332 A  
HETATM   27  C   UNL     1      -8.822  18.026  68.411  1.00  0.00    -0.300 A  
HETATM   28  C   UNL     1      -7.963  19.108  68.210  1.00  0.00    -0.361 A  
ENDBRANCH  20  21
ENDBRANCH  19  20
ENDBRANCH   2  19
TORSDOF 10
ENDMDL
MODEL       86
REMARK 921   NORMALIZED FREE ENERGY PREDICTED BY IDOCK:   -5.15 KCAL/MOL
REMARK 922        TOTAL FREE ENERGY PREDICTED BY IDOCK:   -9.30 KCAL/MOL
REMARK 923 INTER-LIGAND FREE ENERGY PREDICTED BY IDOCK:   -8.36 KCAL/MOL
REMARK 924 INTRA-LIGAND FREE ENERGY PREDICTED BY IDOCK:   -0.94 KCAL/MOL
REMARK 927      BINDING AFFINITY PREDICTED BY RF-SCORE:    0.00 PKD
ROOT
HETATM    1  O   UNL     1     -14.279   9.077  73.007  1.00  0.00    -1.107 OA 
HETATM    2  C   UNL     1     -13.594   9.268  71.761  1.00  0.00    -0.398 C  
HETATM    3  H   UNL     1     -14.631   8.195  73.031  1.00  0.00     0.000 HD 
ENDROOT
BRANCH   2   4
HETATM    4  C   UNL     1     -13.026  10.697  71.722  1.00  0.00    -0.472 C  
BRANCH   4   5
HETATM    5  N   UNL     1     -11.869  10.779  70.814  1.00  0.00    -0.342 NA 
HETATM    6  H   UNL     1     -11.511   9.856  70.567  1.00  0.00     0.000 HD 
BRANCH   5   7
HETATM    7  C   UNL     1     -12.216  11.570  69.629  1.00  0.00    -0.229 C  
BRANCH   7   8
HETATM    8  C   UNL     1     -11.874  13.050  69.833  1.00  0.00    -0.307 C  
BRANCH   8   9
HETATM    9  N   UNL     1     -12.389  13.844  68.735  1.00  0.00    -0.453 N  
HETATM   10  H   UNL     1     -13.391  13.823  68.547  1.00  0.00     0.000 HD 
BRANCH   9  11
HETATM   11  C   UNL     1     -11.591  14.618  67.943  1.00  0.00    -0.348 C  
HETATM   12  O   UNL     1     -11.108  15.672  68.353  1.00  0.00    -0.292 OA 
BRANCH  11  13
HETATM   13  N   UNL     1     -11.363  14.135  66.672  1.00  0.00    -0.332 N  
HETATM   14  C   UNL     1     -10.302  13.147  66.463  1.00  0.00    -0.283 C  
HETATM   15  C   UNL     1     -10.888  11.835  65.929  1.00  0.00    -0.291 C  
HETATM   16  O   UNL     1     -11.663  12.061  64.739  1.00  0.00    -0.333 OA 
HETATM   17  C   UNL     1     -12.739  12.973  65.001  1.00  0.00    -0.410 C  
HETATM   18  C   UNL     1     -12.205  14.327  65.486  1.00  0.00    -0.402 C  
ENDBRANCH  11  13
ENDBRANCH   9  11
ENDBRANCH   8   9
ENDBRANCH   7   8
ENDBRANCH   5   7
ENDBRANCH   4   5
ENDBRANCH   2   4
BRANCH   2  19
HETATM   19  C   UNL     1     -12.454   8.251  71.622  1.00  0.00    -0.320 C  
BRANCH  19  20
HETATM   20  O   UNL     1     -11.522   8.426  72.698  1.00  0.00    -0.380 OA 
BRANCH  20  21
HETATM   21  C   UNL     1     -10.879   7.283  73.090  1.00  0.00    -0.357 A  
HETATM   22  C   UNL     1     -11.452   6.085  72.657  1.00  0.00    -0.297 A  
HETATM   23  H   UNL     1      -8.311   3.664  74.633  1.00  0.00     0.000 HD 
HETATM   24  O   UNL     1      -9.107   3.676  74.115  1.00  0.00    -0.090 OA 
HETATM   25  C   UNL     1     -10.873   4.860  72.994  1.00  0.00    -0.331 A  
HETATM   26  C   UNL     1      -9.707   4.843  73.753  1.00  0.00    -0.135 A  
HETATM   27  C   UNL     1      -9.696   7.252  73.832  1.00  0.00    -0.323 A  
HETATM   28  C   UNL     1      -9.111   6.029  74.164  1.00  0.00    -0.131 A  
ENDBRANCH  20  21
ENDBRANCH  19  20
ENDBRANCH   2  19
TORSDOF 10
ENDMDL
MODEL       87
REMARK 921   NORMALIZED FREE ENERGY PREDICTED BY IDOCK:   -5.15 KCAL/MOL
REMARK 922        TOTAL FREE ENERGY PREDICTED BY IDOCK:   -9.30 KCAL/MOL
REMARK 923 INTER-LIGAND FREE ENERGY PREDICTED BY IDOCK:   -8.46 KCAL/MOL
REMARK 924 INTRA-LIGAND FREE ENERGY PREDICTED BY IDOCK:   -0.84 KCAL/MOL
REMARK 927      BINDING AFFINITY PREDICTED BY RF-SCORE:    0.00 PKD
ROOT
HETATM    1  O   UNL     1     -10.007  13.000  68.689  1.00  0.00    -0.354 OA 
HETATM    2  C   UNL     1     -10.761  13.801  67.769  1.00  0.00    -0.246 C  
HETATM    3  H   UNL     1      -9.445  13.569  69.202  1.00  0.00     0.000 HD 
ENDROOT
BRANCH   2   4
HETATM    4  C   UNL     1     -11.669  12.879  66.938  1.00  0.00    -0.382 C  
BRANCH   4   5
HETATM    5  N   UNL     1     -12.216  13.590  65.770  1.00  0.00    -0.434 NA 
HETATM    6  H   UNL     1     -11.651  14.402  65.519  1.00  0.00     0.000 HD 
BRANCH   5   7
HETATM    7  C   UNL     1     -12.376  12.661  64.646  1.00  0.00    -0.476 C  
BRANCH   7   8
HETATM    8  C   UNL     1     -11.108  12.609  63.787  1.00  0.00    -0.453 C  
BRANCH   8   9
HETATM    9  N   UNL     1     -10.748  11.235  63.500  1.00  0.00    -0.567 N  
HETATM   10  H   UNL     1     -11.493  10.545  63.407  1.00  0.00     0.000 HD 
BRANCH   9  11
HETATM   11  C   UNL     1      -9.454  10.825  63.349  1.00  0.00    -0.316 C  
HETATM   12  O   UNL     1      -8.802  11.114  62.348  1.00  0.00    -0.311 OA 
BRANCH  11  13
HETATM   13  N   UNL     1      -8.939  10.082  64.390  1.00  0.00    -0.211 N  
HETATM   14  C   UNL     1      -7.530  10.246  64.756  1.00  0.00    -0.103 C  
HETATM   15  C   UNL     1      -7.405  10.760  66.195  1.00  0.00    -0.127 C  
HETATM   16  O   UNL     1      -8.110   9.905  67.112  1.00  0.00    -0.115 OA 
HETATM   17  C   UNL     1      -9.501   9.830  66.768  1.00  0.00    -0.163 C  
HETATM   18  C   UNL     1      -9.687   9.267  65.354  1.00  0.00    -0.099 C  
ENDBRANCH  11  13
ENDBRANCH   9  11
ENDBRANCH   8   9
ENDBRANCH   7   8
ENDBRANCH   5   7
ENDBRANCH   4   5
ENDBRANCH   2   4
BRANCH   2  19
HETATM   19  C   UNL     1     -11.615  14.823  68.531  1.00  0.00    -0.321 C  
BRANCH  19  20
HETATM   20  O   UNL     1     -12.526  14.134  69.398  1.00  0.00    -0.277 OA 
BRANCH  20  21
HETATM   21  C   UNL     1     -12.642  14.675  70.651  1.00  0.00    -0.357 A  
HETATM   22  C   UNL     1     -11.736  15.691  70.959  1.00  0.00    -0.444 A  
HETATM   23  H   UNL     1     -13.458  16.234  75.007  1.00  0.00     0.000 HD 
HETATM   24  O   UNL     1     -12.803  16.499  74.372  1.00  0.00    -0.691 OA 
HETATM   25  C   UNL     1     -11.772  16.317  72.208  1.00  0.00    -0.530 A  
HETATM   26  C   UNL     1     -12.731  15.928  73.138  1.00  0.00    -0.524 A  
HETATM   27  C   UNL     1     -13.614  14.310  71.585  1.00  0.00    -0.461 A  
HETATM   28  C   UNL     1     -13.657  14.937  72.831  1.00  0.00    -0.493 A  
ENDBRANCH  20  21
ENDBRANCH  19  20
ENDBRANCH   2  19
TORSDOF 10
ENDMDL
MODEL       88
REMARK 921   NORMALIZED FREE ENERGY PREDICTED BY IDOCK:   -5.14 KCAL/MOL
REMARK 922        TOTAL FREE ENERGY PREDICTED BY IDOCK:   -9.28 KCAL/MOL
REMARK 923 INTER-LIGAND FREE ENERGY PREDICTED BY IDOCK:   -8.18 KCAL/MOL
REMARK 924 INTRA-LIGAND FREE ENERGY PREDICTED BY IDOCK:   -1.09 KCAL/MOL
REMARK 927      BINDING AFFINITY PREDICTED BY RF-SCORE:    0.00 PKD
ROOT
HETATM    1  O   UNL     1     -10.944  11.515  69.256  1.00  0.00    -0.247 OA 
HETATM    2  C   UNL     1     -10.799  12.340  68.091  1.00  0.00    -0.227 C  
HETATM    3  H   UNL     1     -10.840  12.057  70.029  1.00  0.00     0.000 HD 
ENDROOT
BRANCH   2   4
HETATM    4  C   UNL     1     -10.965  11.462  66.839  1.00  0.00    -0.299 C  
BRANCH   4   5
HETATM    5  N   UNL     1     -11.280  10.072  67.208  1.00  0.00    -0.323 NA 
HETATM    6  H   UNL     1     -12.098   9.720  66.711  1.00  0.00     0.000 HD 
BRANCH   5   7
HETATM    7  C   UNL     1     -10.103   9.219  67.003  1.00  0.00    -0.247 C  
BRANCH   7   8
HETATM    8  C   UNL     1      -9.839   8.338  68.229  1.00  0.00    -0.172 C  
BRANCH   8   9
HETATM    9  N   UNL     1     -10.925   8.458  69.181  1.00  0.00    -0.430 N  
HETATM   10  H   UNL     1     -11.361   9.371  69.311  1.00  0.00     0.000 HD 
BRANCH   9  11
HETATM   11  C   UNL     1     -11.389   7.401  69.911  1.00  0.00    -0.076 C  
HETATM   12  O   UNL     1     -11.253   6.243  69.521  1.00  0.00    -0.380 OA 
BRANCH  11  13
HETATM   13  N   UNL     1     -12.006   7.723  71.101  1.00  0.00    -0.299 N  
HETATM   14  C   UNL     1     -11.838   9.070  71.652  1.00  0.00    -0.360 C  
HETATM   15  C   UNL     1     -13.191   9.784  71.748  1.00  0.00    -0.436 C  
HETATM   16  O   UNL     1     -14.136   9.003  72.500  1.00  0.00    -0.483 OA 
HETATM   17  C   UNL     1     -14.334   7.720  71.888  1.00  0.00    -0.422 C  
HETATM   18  C   UNL     1     -13.017   6.937  71.817  1.00  0.00    -0.277 C  
ENDBRANCH  11  13
ENDBRANCH   9  11
ENDBRANCH   8   9
ENDBRANCH   7   8
ENDBRANCH   5   7
ENDBRANCH   4   5
ENDBRANCH   2   4
BRANCH   2  19
HETATM   19  C   UNL     1     -11.858  13.450  68.092  1.00  0.00    -0.361 C  
BRANCH  19  20
HETATM   20  O   UNL     1     -11.293  14.650  68.640  1.00  0.00    -0.257 OA 
BRANCH  20  21
HETATM   21  C   UNL     1     -11.765  14.989  69.880  1.00  0.00    -0.307 A  
HETATM   22  C   UNL     1     -12.769  14.165  70.393  1.00  0.00    -0.341 A  
HETATM   23  H   UNL     1     -13.021  16.516  74.142  1.00  0.00     0.000 HD 
HETATM   24  O   UNL     1     -13.346  15.784  73.631  1.00  0.00    -0.461 OA 
HETATM   25  C   UNL     1     -13.317  14.418  71.654  1.00  0.00    -0.442 A  
HETATM   26  C   UNL     1     -12.841  15.490  72.402  1.00  0.00    -0.405 A  
HETATM   27  C   UNL     1     -11.281  16.048  70.651  1.00  0.00    -0.395 A  
HETATM   28  C   UNL     1     -11.821  16.299  71.913  1.00  0.00    -0.538 A  
ENDBRANCH  20  21
ENDBRANCH  19  20
ENDBRANCH   2  19
TORSDOF 10
ENDMDL
MODEL       89
REMARK 921   NORMALIZED FREE ENERGY PREDICTED BY IDOCK:   -5.11 KCAL/MOL
REMARK 922        TOTAL FREE ENERGY PREDICTED BY IDOCK:   -9.24 KCAL/MOL
REMARK 923 INTER-LIGAND FREE ENERGY PREDICTED BY IDOCK:   -7.98 KCAL/MOL
REMARK 924 INTRA-LIGAND FREE ENERGY PREDICTED BY IDOCK:   -1.26 KCAL/MOL
REMARK 927      BINDING AFFINITY PREDICTED BY RF-SCORE:    0.00 PKD
ROOT
HETATM    1  O   UNL     1      -7.374   9.240  65.831  1.00  0.00    -0.092 OA 
HETATM    2  C   UNL     1      -8.566   8.689  65.253  1.00  0.00    -0.180 C  
HETATM    3  H   UNL     1      -6.880   9.683  65.151  1.00  0.00     0.000 HD 
ENDROOT
BRANCH   2   4
HETATM    4  C   UNL     1      -9.365   7.972  66.355  1.00  0.00    -0.200 C  
BRANCH   4   5
HETATM    5  N   UNL     1     -10.513   8.786  66.787  1.00  0.00    -0.255 NA 
HETATM    6  H   UNL     1     -11.402   8.370  66.510  1.00  0.00     0.000 HD 
BRANCH   5   7
HETATM    7  C   UNL     1     -10.444   9.024  68.233  1.00  0.00    -0.200 C  
BRANCH   7   8
HETATM    8  C   UNL     1     -10.884  10.450  68.580  1.00  0.00    -0.232 C  
BRANCH   8   9
HETATM    9  N   UNL     1     -10.810  10.668  70.011  1.00  0.00    -0.429 N  
HETATM   10  H   UNL     1      -9.891  10.748  70.445  1.00  0.00     0.000 HD 
BRANCH   9  11
HETATM   11  C   UNL     1     -11.919  10.770  70.802  1.00  0.00    -0.362 C  
HETATM   12  O   UNL     1     -12.639  11.767  70.773  1.00  0.00    -0.317 OA 
BRANCH  11  13
HETATM   13  N   UNL     1     -12.172   9.688  71.618  1.00  0.00    -0.383 N  
HETATM   14  C   UNL     1     -13.536   9.460  72.100  1.00  0.00    -0.457 C  
HETATM   15  C   UNL     1     -14.065   8.113  71.594  1.00  0.00    -0.426 C  
HETATM   16  O   UNL     1     -13.176   7.040  71.951  1.00  0.00    -0.308 OA 
HETATM   17  C   UNL     1     -11.870   7.260  71.398  1.00  0.00    -0.305 C  
HETATM   18  C   UNL     1     -11.268   8.572  71.916  1.00  0.00    -0.327 C  
ENDBRANCH  11  13
ENDBRANCH   9  11
ENDBRANCH   8   9
ENDBRANCH   7   8
ENDBRANCH   5   7
ENDBRANCH   4   5
ENDBRANCH   2   4
BRANCH   2  19
HETATM   19  C   UNL     1      -9.419   9.804  64.635  1.00  0.00    -0.229 C  
BRANCH  19  20
HETATM   20  O   UNL     1      -9.210  11.025  65.359  1.00  0.00    -0.203 OA 
BRANCH  20  21
HETATM   21  C   UNL     1     -10.083  12.032  65.045  1.00  0.00    -0.264 A  
HETATM   22  C   UNL     1     -10.816  11.856  63.870  1.00  0.00    -0.456 A  
HETATM   23  H   UNL     1     -12.953  15.699  64.422  1.00  0.00     0.000 HD 
HETATM   24  O   UNL     1     -12.819  14.926  63.886  1.00  0.00    -0.697 OA 
HETATM   25  C   UNL     1     -11.740  12.821  63.460  1.00  0.00    -0.597 A  
HETATM   26  C   UNL     1     -11.937  13.953  64.245  1.00  0.00    -0.444 A  
HETATM   27  C   UNL     1     -10.307  13.162  65.835  1.00  0.00    -0.295 A  
HETATM   28  C   UNL     1     -11.235  14.124  65.432  1.00  0.00    -0.325 A  
ENDBRANCH  20  21
ENDBRANCH  19  20
ENDBRANCH   2  19
TORSDOF 10
ENDMDL
MODEL       90
REMARK 921   NORMALIZED FREE ENERGY PREDICTED BY IDOCK:   -5.09 KCAL/MOL
REMARK 922        TOTAL FREE ENERGY PREDICTED BY IDOCK:   -9.21 KCAL/MOL
REMARK 923 INTER-LIGAND FREE ENERGY PREDICTED BY IDOCK:   -8.39 KCAL/MOL
REMARK 924 INTRA-LIGAND FREE ENERGY PREDICTED BY IDOCK:   -0.82 KCAL/MOL
REMARK 927      BINDING AFFINITY PREDICTED BY RF-SCORE:    0.00 PKD
ROOT
HETATM    1  O   UNL     1      -9.586  12.807  68.745  1.00  0.00    -0.403 OA 
HETATM    2  C   UNL     1     -10.891  13.076  68.214  1.00  0.00    -0.246 C  
HETATM    3  H   UNL     1      -9.638  12.796  69.694  1.00  0.00     0.000 HD 
ENDROOT
BRANCH   2   4
HETATM    4  C   UNL     1     -10.807  13.093  66.678  1.00  0.00    -0.280 C  
BRANCH   4   5
HETATM    5  N   UNL     1     -11.796  14.023  66.107  1.00  0.00    -0.387 NA 
HETATM    6  H   UNL     1     -12.203  14.632  66.817  1.00  0.00     0.000 HD 
BRANCH   5   7
HETATM    7  C   UNL     1     -11.193  14.785  65.008  1.00  0.00    -0.395 C  
BRANCH   7   8
HETATM    8  C   UNL     1     -10.084  15.711  65.521  1.00  0.00    -0.362 C  
BRANCH   8   9
HETATM    9  N   UNL     1     -10.640  16.982  65.939  1.00  0.00    -0.282 N  
HETATM   10  H   UNL     1     -11.134  17.548  65.250  1.00  0.00     0.000 HD 
BRANCH   9  11
HETATM   11  C   UNL     1     -10.532  17.452  67.217  1.00  0.00    -0.321 C  
HETATM   12  O   UNL     1     -10.952  16.807  68.176  1.00  0.00    -0.356 OA 
BRANCH  11  13
HETATM   13  N   UNL     1      -9.919  18.680  67.350  1.00  0.00    -0.318 N  
HETATM   14  C   UNL     1      -9.322  19.044  68.637  1.00  0.00    -0.380 C  
HETATM   15  C   UNL     1      -7.814  19.268  68.485  1.00  0.00    -0.348 C  
HETATM   16  O   UNL     1      -7.535  20.240  67.462  1.00  0.00    -0.285 OA 
HETATM   17  C   UNL     1      -8.068  19.813  66.200  1.00  0.00    -0.342 C  
HETATM   18  C   UNL     1      -9.588  19.627  66.280  1.00  0.00    -0.405 C  
ENDBRANCH  11  13
ENDBRANCH   9  11
ENDBRANCH   8   9
ENDBRANCH   7   8
ENDBRANCH   5   7
ENDBRANCH   4   5
ENDBRANCH   2   4
BRANCH   2  19
HETATM   19  C   UNL     1     -11.882  11.996  68.668  1.00  0.00    -0.311 C  
BRANCH  19  20
HETATM   20  O   UNL     1     -12.054  12.072  70.090  1.00  0.00    -0.322 OA 
BRANCH  20  21
HETATM   21  C   UNL     1     -11.934  10.875  70.745  1.00  0.00    -0.346 A  
HETATM   22  C   UNL     1     -13.040  10.483  71.501  1.00  0.00    -0.532 A  
HETATM   23  H   UNL     1     -11.068   6.718  72.754  1.00  0.00     0.000 HD 
HETATM   24  O   UNL     1     -11.834   7.276  72.804  1.00  0.00    -0.165 OA 
HETATM   25  C   UNL     1     -13.026   9.276  72.204  1.00  0.00    -0.503 A  
HETATM   26  C   UNL     1     -11.903   8.458  72.131  1.00  0.00    -0.375 A  
HETATM   27  C   UNL     1     -10.822  10.034  70.662  1.00  0.00    -0.367 A  
HETATM   28  C   UNL     1     -10.807   8.824  71.358  1.00  0.00    -0.359 A  
ENDBRANCH  20  21
ENDBRANCH  19  20
ENDBRANCH   2  19
TORSDOF 10
ENDMDL
MODEL       91
REMARK 921   NORMALIZED FREE ENERGY PREDICTED BY IDOCK:   -5.09 KCAL/MOL
REMARK 922        TOTAL FREE ENERGY PREDICTED BY IDOCK:   -9.20 KCAL/MOL
REMARK 923 INTER-LIGAND FREE ENERGY PREDICTED BY IDOCK:   -7.81 KCAL/MOL
REMARK 924 INTRA-LIGAND FREE ENERGY PREDICTED BY IDOCK:   -1.40 KCAL/MOL
REMARK 927      BINDING AFFINITY PREDICTED BY RF-SCORE:    0.00 PKD
ROOT
HETATM    1  O   UNL     1      -9.503  12.115  63.094  1.00  0.00    -0.647 OA 
HETATM    2  C   UNL     1     -10.450  11.362  63.865  1.00  0.00    -0.387 C  
HETATM    3  H   UNL     1      -9.973  12.622  62.443  1.00  0.00     0.000 HD 
ENDROOT
BRANCH   2   4
HETATM    4  C   UNL     1      -9.688  10.540  64.919  1.00  0.00    -0.300 C  
BRANCH   4   5
HETATM    5  N   UNL     1      -8.574  11.317  65.489  1.00  0.00    -0.376 NA 
HETATM    6  H   UNL     1      -8.577  12.284  65.163  1.00  0.00     0.000 HD 
BRANCH   5   7
HETATM    7  C   UNL     1      -8.596  11.228  66.953  1.00  0.00    -0.150 C  
BRANCH   7   8
HETATM    8  C   UNL     1      -9.710  10.290  67.433  1.00  0.00    -0.160 C  
BRANCH   8   9
HETATM    9  N   UNL     1      -9.496   9.920  68.818  1.00  0.00    -0.152 N  
HETATM   10  H   UNL     1      -8.731  10.360  69.328  1.00  0.00     0.000 HD 
BRANCH   9  11
HETATM   11  C   UNL     1     -10.277   9.008  69.468  1.00  0.00    -0.203 C  
HETATM   12  O   UNL     1     -10.429   7.867  69.035  1.00  0.00    -0.214 OA 
BRANCH  11  13
HETATM   13  N   UNL     1     -10.868   9.451  70.633  1.00  0.00    -0.258 N  
HETATM   14  C   UNL     1     -11.703  10.654  70.597  1.00  0.00    -0.356 C  
HETATM   15  C   UNL     1     -13.142  10.320  71.007  1.00  0.00    -0.373 C  
HETATM   16  O   UNL     1     -13.178   9.670  72.290  1.00  0.00    -0.433 OA 
HETATM   17  C   UNL     1     -12.413   8.457  72.264  1.00  0.00    -0.361 C  
HETATM   18  C   UNL     1     -10.947   8.740  71.913  1.00  0.00    -0.365 C  
ENDBRANCH  11  13
ENDBRANCH   9  11
ENDBRANCH   8   9
ENDBRANCH   7   8
ENDBRANCH   5   7
ENDBRANCH   4   5
ENDBRANCH   2   4
BRANCH   2  19
HETATM   19  C   UNL     1     -11.439  12.307  64.559  1.00  0.00    -0.341 C  
BRANCH  19  20
HETATM   20  O   UNL     1     -10.769  13.523  64.919  1.00  0.00    -0.335 OA 
BRANCH  20  21
HETATM   21  C   UNL     1     -11.067  13.992  66.170  1.00  0.00    -0.302 A  
HETATM   22  C   UNL     1     -10.665  15.302  66.439  1.00  0.00    -0.318 A  
HETATM   23  H   UNL     1     -12.338  15.156  70.541  1.00  0.00     0.000 HD 
HETATM   24  O   UNL     1     -11.875  15.658  69.881  1.00  0.00    -0.327 OA 
HETATM   25  C   UNL     1     -10.926  15.881  67.684  1.00  0.00    -0.298 A  
HETATM   26  C   UNL     1     -11.604  15.144  68.650  1.00  0.00    -0.338 A  
HETATM   27  C   UNL     1     -11.767  13.272  67.141  1.00  0.00    -0.425 A  
HETATM   28  C   UNL     1     -12.034  13.849  68.383  1.00  0.00    -0.391 A  
ENDBRANCH  20  21
ENDBRANCH  19  20
ENDBRANCH   2  19
TORSDOF 10
ENDMDL
MODEL       92
REMARK 921   NORMALIZED FREE ENERGY PREDICTED BY IDOCK:   -5.08 KCAL/MOL
REMARK 922        TOTAL FREE ENERGY PREDICTED BY IDOCK:   -9.18 KCAL/MOL
REMARK 923 INTER-LIGAND FREE ENERGY PREDICTED BY IDOCK:   -7.54 KCAL/MOL
REMARK 924 INTRA-LIGAND FREE ENERGY PREDICTED BY IDOCK:   -1.64 KCAL/MOL
REMARK 927      BINDING AFFINITY PREDICTED BY RF-SCORE:    0.00 PKD
ROOT
HETATM    1  O   UNL     1     -12.575  14.149  63.027  1.00  0.00    -1.002 OA 
HETATM    2  C   UNL     1     -12.353  12.998  63.854  1.00  0.00    -0.375 C  
HETATM    3  H   UNL     1     -13.407  14.541  63.264  1.00  0.00     0.000 HD 
ENDROOT
BRANCH   2   4
HETATM    4  C   UNL     1     -11.006  12.363  63.469  1.00  0.00    -0.450 C  
BRANCH   4   5
HETATM    5  N   UNL     1     -10.921  10.975  63.954  1.00  0.00    -0.477 NA 
HETATM    6  H   UNL     1     -11.591  10.365  63.485  1.00  0.00     0.000 HD 
BRANCH   5   7
HETATM    7  C   UNL     1      -9.545  10.483  63.826  1.00  0.00    -0.311 C  
BRANCH   7   8
HETATM    8  C   UNL     1      -8.920  10.226  65.202  1.00  0.00    -0.191 C  
BRANCH   8   9
HETATM    9  N   UNL     1      -8.736  11.474  65.914  1.00  0.00    -0.370 N  
HETATM   10  H   UNL     1      -9.052  12.338  65.474  1.00  0.00     0.000 HD 
BRANCH   9  11
HETATM   11  C   UNL     1      -8.158  11.543  67.150  1.00  0.00    -0.159 C  
HETATM   12  O   UNL     1      -7.043  12.036  67.310  1.00  0.00    -0.130 OA 
BRANCH  11  13
HETATM   13  N   UNL     1      -8.907  11.032  68.188  1.00  0.00    -0.136 N  
HETATM   14  C   UNL     1     -10.089  11.767  68.645  1.00  0.00    -0.189 C  
HETATM   15  C   UNL     1     -11.353  10.922  68.453  1.00  0.00    -0.304 C  
HETATM   16  O   UNL     1     -11.225   9.643  69.098  1.00  0.00    -0.149 OA 
HETATM   17  C   UNL     1     -10.103   8.920  68.571  1.00  0.00    -0.188 C  
HETATM   18  C   UNL     1      -8.798   9.697  68.787  1.00  0.00    -0.130 C  
ENDBRANCH  11  13
ENDBRANCH   9  11
ENDBRANCH   8   9
ENDBRANCH   7   8
ENDBRANCH   5   7
ENDBRANCH   4   5
ENDBRANCH   2   4
BRANCH   2  19
HETATM   19  C   UNL     1     -12.332  13.406  65.333  1.00  0.00    -0.477 C  
BRANCH  19  20
HETATM   20  O   UNL     1     -10.975  13.449  65.799  1.00  0.00    -0.277 OA 
BRANCH  20  21
HETATM   21  C   UNL     1     -10.621  14.616  66.419  1.00  0.00    -0.301 A  
HETATM   22  C   UNL     1     -11.317  14.917  67.591  1.00  0.00    -0.348 A  
HETATM   23  H   UNL     1      -9.032  18.666  68.194  1.00  0.00     0.000 HD 
HETATM   24  O   UNL     1      -9.715  18.084  68.506  1.00  0.00    -0.319 OA 
HETATM   25  C   UNL     1     -11.029  16.081  68.308  1.00  0.00    -0.335 A  
HETATM   26  C   UNL     1     -10.029  16.933  67.850  1.00  0.00    -0.274 A  
HETATM   27  C   UNL     1      -9.604  15.469  65.984  1.00  0.00    -0.380 A  
HETATM   28  C   UNL     1      -9.309  16.629  66.701  1.00  0.00    -0.272 A  
ENDBRANCH  20  21
ENDBRANCH  19  20
ENDBRANCH   2  19
TORSDOF 10
ENDMDL
MODEL       93
REMARK 921   NORMALIZED FREE ENERGY PREDICTED BY IDOCK:   -5.07 KCAL/MOL
REMARK 922        TOTAL FREE ENERGY PREDICTED BY IDOCK:   -9.18 KCAL/MOL
REMARK 923 INTER-LIGAND FREE ENERGY PREDICTED BY IDOCK:   -8.12 KCAL/MOL
REMARK 924 INTRA-LIGAND FREE ENERGY PREDICTED BY IDOCK:   -1.05 KCAL/MOL
REMARK 927      BINDING AFFINITY PREDICTED BY RF-SCORE:    0.00 PKD
ROOT
HETATM    1  O   UNL     1     -12.151   7.982  73.112  1.00  0.00    -0.656 OA 
HETATM    2  C   UNL     1     -12.553   8.320  71.777  1.00  0.00    -0.333 C  
HETATM    3  H   UNL     1     -12.698   7.270  73.425  1.00  0.00     0.000 HD 
ENDROOT
BRANCH   2   4
HETATM    4  C   UNL     1     -11.669   9.473  71.271  1.00  0.00    -0.370 C  
BRANCH   4   5
HETATM    5  N   UNL     1     -11.775   9.615  69.809  1.00  0.00    -0.448 NA 
HETATM    6  H   UNL     1     -12.516  10.263  69.541  1.00  0.00     0.000 HD 
BRANCH   5   7
HETATM    7  C   UNL     1     -10.476  10.000  69.246  1.00  0.00    -0.225 C  
BRANCH   7   8
HETATM    8  C   UNL     1     -10.459  11.484  68.862  1.00  0.00    -0.187 C  
BRANCH   8   9
HETATM    9  N   UNL     1     -11.601  11.803  68.028  1.00  0.00    -0.314 N  
HETATM   10  H   UNL     1     -12.282  11.069  67.833  1.00  0.00     0.000 HD 
BRANCH   9  11
HETATM   11  C   UNL     1     -11.804  13.043  67.495  1.00  0.00    -0.355 C  
HETATM   12  O   UNL     1     -12.240  13.971  68.174  1.00  0.00    -0.325 OA 
BRANCH  11  13
HETATM   13  N   UNL     1     -11.483  13.179  66.161  1.00  0.00    -0.317 N  
HETATM   14  C   UNL     1     -11.628  12.025  65.270  1.00  0.00    -0.279 C  
HETATM   15  C   UNL     1     -12.653  12.322  64.170  1.00  0.00    -0.394 C  
HETATM   16  O   UNL     1     -12.311  13.522  63.454  1.00  0.00    -0.715 OA 
HETATM   17  C   UNL     1     -12.254  14.645  64.346  1.00  0.00    -0.452 C  
HETATM   18  C   UNL     1     -11.201  14.425  65.439  1.00  0.00    -0.335 C  
ENDBRANCH  11  13
ENDBRANCH   9  11
ENDBRANCH   8   9
ENDBRANCH   7   8
ENDBRANCH   5   7
ENDBRANCH   4   5
ENDBRANCH   2   4
BRANCH   2  19
HETATM   19  C   UNL     1     -12.402   7.105  70.854  1.00  0.00    -0.292 C  
BRANCH  19  20
HETATM   20  O   UNL     1     -11.019   6.732  70.774  1.00  0.00    -0.238 OA 
BRANCH  20  21
HETATM   21  C   UNL     1     -10.674   6.054  69.636  1.00  0.00    -0.335 A  
HETATM   22  C   UNL     1      -9.919   4.895  69.826  1.00  0.00    -0.314 A  
HETATM   23  H   UNL     1      -9.780   4.066  65.474  1.00  0.00     0.000 HD 
HETATM   24  O   UNL     1      -9.524   3.801  66.349  1.00  0.00    -0.177 OA 
HETATM   25  C   UNL     1      -9.519   4.124  68.731  1.00  0.00    -0.231 A  
HETATM   26  C   UNL     1      -9.894   4.512  67.449  1.00  0.00    -0.157 A  
HETATM   27  C   UNL     1     -11.063   6.420  68.346  1.00  0.00    -0.374 A  
HETATM   28  C   UNL     1     -10.671   5.648  67.251  1.00  0.00    -0.299 A  
ENDBRANCH  20  21
ENDBRANCH  19  20
ENDBRANCH   2  19
TORSDOF 10
ENDMDL
MODEL       94
REMARK 921   NORMALIZED FREE ENERGY PREDICTED BY IDOCK:   -5.06 KCAL/MOL
REMARK 922        TOTAL FREE ENERGY PREDICTED BY IDOCK:   -9.15 KCAL/MOL
REMARK 923 INTER-LIGAND FREE ENERGY PREDICTED BY IDOCK:   -8.06 KCAL/MOL
REMARK 924 INTRA-LIGAND FREE ENERGY PREDICTED BY IDOCK:   -1.09 KCAL/MOL
REMARK 927      BINDING AFFINITY PREDICTED BY RF-SCORE:    0.00 PKD
ROOT
HETATM    1  O   UNL     1     -11.184   5.507  66.156  1.00  0.00    -0.774 OA 
HETATM    2  C   UNL     1     -10.173   5.612  67.168  1.00  0.00    -0.212 C  
HETATM    3  H   UNL     1     -11.758   4.781  66.371  1.00  0.00     0.000 HD 
ENDROOT
BRANCH   2   4
HETATM    4  C   UNL     1      -9.243   6.786  66.819  1.00  0.00    -0.150 C  
BRANCH   4   5
HETATM    5  N   UNL     1     -10.019   7.976  66.431  1.00  0.00    -0.449 NA 
HETATM    6  H   UNL     1     -10.785   8.160  67.080  1.00  0.00     0.000 HD 
BRANCH   5   7
HETATM    7  C   UNL     1      -9.128   9.133  66.289  1.00  0.00    -0.178 C  
BRANCH   7   8
HETATM    8  C   UNL     1      -8.958   9.522  64.816  1.00  0.00    -0.218 C  
BRANCH   8   9
HETATM    9  N   UNL     1     -10.189  10.084  64.297  1.00  0.00    -0.384 N  
HETATM   10  H   UNL     1     -10.988   9.465  64.159  1.00  0.00     0.000 HD 
BRANCH   9  11
HETATM   11  C   UNL     1     -10.324  11.407  63.986  1.00  0.00    -0.362 C  
HETATM   12  O   UNL     1      -9.916  11.860  62.918  1.00  0.00    -0.300 OA 
BRANCH  11  13
HETATM   13  N   UNL     1     -10.949  12.183  64.939  1.00  0.00    -0.300 N  
HETATM   14  C   UNL     1     -10.156  12.746  66.034  1.00  0.00    -0.268 C  
HETATM   15  C   UNL     1     -10.199  14.278  65.995  1.00  0.00    -0.315 C  
HETATM   16  O   UNL     1     -11.555  14.758  66.002  1.00  0.00    -0.349 OA 
HETATM   17  C   UNL     1     -12.280  14.248  64.873  1.00  0.00    -0.440 C  
HETATM   18  C   UNL     1     -12.316  12.715  64.892  1.00  0.00    -0.498 C  
ENDBRANCH  11  13
ENDBRANCH   9  11
ENDBRANCH   8   9
ENDBRANCH   7   8
ENDBRANCH   5   7
ENDBRANCH   4   5
ENDBRANCH   2   4
BRANCH   2  19
HETATM   19  C   UNL     1     -10.818   5.849  68.539  1.00  0.00    -0.248 C  
BRANCH  19  20
HETATM   20  O   UNL     1     -10.174   6.957  69.186  1.00  0.00    -0.174 OA 
BRANCH  20  21
HETATM   21  C   UNL     1     -10.979   7.670  70.033  1.00  0.00    -0.228 A  
HETATM   22  C   UNL     1     -11.995   6.946  70.659  1.00  0.00    -0.400 A  
HETATM   23  H   UNL     1     -13.428  10.520  72.853  1.00  0.00     0.000 HD 
HETATM   24  O   UNL     1     -13.538   9.595  72.669  1.00  0.00    -0.327 OA 
HETATM   25  C   UNL     1     -12.870   7.576  71.548  1.00  0.00    -0.397 A  
HETATM   26  C   UNL     1     -12.709   8.931  71.818  1.00  0.00    -0.364 A  
HETATM   27  C   UNL     1     -10.815   9.025  70.329  1.00  0.00    -0.269 A  
HETATM   28  C   UNL     1     -11.682   9.656  71.223  1.00  0.00    -0.458 A  
ENDBRANCH  20  21
ENDBRANCH  19  20
ENDBRANCH   2  19
TORSDOF 10
ENDMDL
MODEL       95
REMARK 921   NORMALIZED FREE ENERGY PREDICTED BY IDOCK:   -5.05 KCAL/MOL
REMARK 922        TOTAL FREE ENERGY PREDICTED BY IDOCK:   -9.13 KCAL/MOL
REMARK 923 INTER-LIGAND FREE ENERGY PREDICTED BY IDOCK:   -8.41 KCAL/MOL
REMARK 924 INTRA-LIGAND FREE ENERGY PREDICTED BY IDOCK:   -0.72 KCAL/MOL
REMARK 927      BINDING AFFINITY PREDICTED BY RF-SCORE:    0.00 PKD
ROOT
HETATM    1  O   UNL     1     -12.491  14.217  69.005  1.00  0.00    -0.559 OA 
HETATM    2  C   UNL     1     -11.449  13.988  68.046  1.00  0.00    -0.311 C  
HETATM    3  H   UNL     1     -12.213  14.902  69.601  1.00  0.00     0.000 HD 
ENDROOT
BRANCH   2   4
HETATM    4  C   UNL     1     -11.899  12.878  67.081  1.00  0.00    -0.362 C  
BRANCH   4   5
HETATM    5  N   UNL     1     -12.139  11.617  67.803  1.00  0.00    -0.579 NA 
HETATM    6  H   UNL     1     -12.693  10.961  67.253  1.00  0.00     0.000 HD 
BRANCH   5   7
HETATM    7  C   UNL     1     -10.862  11.034  68.232  1.00  0.00    -0.215 C  
BRANCH   7   8
HETATM    8  C   UNL     1     -10.892  10.674  69.722  1.00  0.00    -0.261 C  
BRANCH   8   9
HETATM    9  N   UNL     1     -12.204  10.187  70.098  1.00  0.00    -0.484 N  
HETATM   10  H   UNL     1     -12.915  10.094  69.373  1.00  0.00     0.000 HD 
BRANCH   9  11
HETATM   11  C   UNL     1     -12.527   9.847  71.380  1.00  0.00    -0.398 C  
HETATM   12  O   UNL     1     -13.117  10.630  72.122  1.00  0.00    -0.460 OA 
BRANCH  11  13
HETATM   13  N   UNL     1     -12.156   8.579  71.773  1.00  0.00    -0.311 N  
HETATM   14  C   UNL     1     -12.823   7.421  71.173  1.00  0.00    -0.260 C  
HETATM   15  C   UNL     1     -11.812   6.552  70.415  1.00  0.00    -0.313 C  
HETATM   16  O   UNL     1     -10.718   6.169  71.266  1.00  0.00    -0.236 OA 
HETATM   17  C   UNL     1     -10.041   7.328  71.774  1.00  0.00    -0.179 C  
HETATM   18  C   UNL     1     -10.996   8.208  72.591  1.00  0.00    -0.370 C  
ENDBRANCH  11  13
ENDBRANCH   9  11
ENDBRANCH   8   9
ENDBRANCH   7   8
ENDBRANCH   5   7
ENDBRANCH   4   5
ENDBRANCH   2   4
BRANCH   2  19
HETATM   19  C   UNL     1     -11.160  15.274  67.260  1.00  0.00    -0.325 C  
BRANCH  19  20
HETATM   20  O   UNL     1     -11.281  16.406  68.133  1.00  0.00    -0.346 OA 
BRANCH  20  21
HETATM   21  C   UNL     1     -10.324  17.369  67.955  1.00  0.00    -0.362 A  
HETATM   22  C   UNL     1     -10.755  18.548  67.343  1.00  0.00    -0.424 A  
HETATM   23  H   UNL     1      -6.722  20.365  67.607  1.00  0.00     0.000 HD 
HETATM   24  O   UNL     1      -7.625  20.455  67.328  1.00  0.00    -0.300 OA 
HETATM   25  C   UNL     1      -9.861  19.598  67.120  1.00  0.00    -0.489 A  
HETATM   26  C   UNL     1      -8.538  19.465  67.529  1.00  0.00    -0.300 A  
HETATM   27  C   UNL     1      -8.998  17.258  68.381  1.00  0.00    -0.269 A  
HETATM   28  C   UNL     1      -8.104  18.308  68.166  1.00  0.00    -0.297 A  
ENDBRANCH  20  21
ENDBRANCH  19  20
ENDBRANCH   2  19
TORSDOF 10
ENDMDL
MODEL       96
REMARK 921   NORMALIZED FREE ENERGY PREDICTED BY IDOCK:   -5.04 KCAL/MOL
REMARK 922        TOTAL FREE ENERGY PREDICTED BY IDOCK:   -9.12 KCAL/MOL
REMARK 923 INTER-LIGAND FREE ENERGY PREDICTED BY IDOCK:   -8.21 KCAL/MOL
REMARK 924 INTRA-LIGAND FREE ENERGY PREDICTED BY IDOCK:   -0.91 KCAL/MOL
REMARK 927      BINDING AFFINITY PREDICTED BY RF-SCORE:    0.00 PKD
ROOT
HETATM    1  O   UNL     1     -11.904  12.519  70.456  1.00  0.00    -0.525 OA 
HETATM    2  C   UNL     1     -12.194  11.167  70.074  1.00  0.00    -0.326 C  
HETATM    3  H   UNL     1     -12.332  12.701  71.284  1.00  0.00     0.000 HD 
ENDROOT
BRANCH   2   4
HETATM    4  C   UNL     1     -11.502  10.872  68.732  1.00  0.00    -0.308 C  
BRANCH   4   5
HETATM    5  N   UNL     1     -12.094  11.671  67.647  1.00  0.00    -0.573 NA 
HETATM    6  H   UNL     1     -12.872  12.244  67.975  1.00  0.00     0.000 HD 
BRANCH   5   7
HETATM    7  C   UNL     1     -11.057  12.475  66.991  1.00  0.00    -0.281 C  
BRANCH   7   8
HETATM    8  C   UNL     1     -11.562  13.890  66.690  1.00  0.00    -0.374 C  
BRANCH   8   9
HETATM    9  N   UNL     1     -12.217  14.451  67.854  1.00  0.00    -0.620 N  
HETATM   10  H   UNL     1     -13.186  14.194  68.039  1.00  0.00     0.000 HD 
BRANCH   9  11
HETATM   11  C   UNL     1     -11.592  15.308  68.714  1.00  0.00    -0.362 C  
HETATM   12  O   UNL     1     -11.947  15.415  69.887  1.00  0.00    -0.318 OA 
BRANCH  11  13
HETATM   13  N   UNL     1     -10.545  16.030  68.181  1.00  0.00    -0.275 N  
HETATM   14  C   UNL     1     -10.743  17.446  67.861  1.00  0.00    -0.351 C  
HETATM   15  C   UNL     1      -9.797  18.321  68.692  1.00  0.00    -0.380 C  
HETATM   16  O   UNL     1      -8.429  17.911  68.521  1.00  0.00    -0.296 OA 
HETATM   17  C   UNL     1      -8.258  16.542  68.917  1.00  0.00    -0.241 C  
HETATM   18  C   UNL     1      -9.142  15.613  68.077  1.00  0.00    -0.183 C  
ENDBRANCH  11  13
ENDBRANCH   9  11
ENDBRANCH   8   9
ENDBRANCH   7   8
ENDBRANCH   5   7
ENDBRANCH   4   5
ENDBRANCH   2   4
BRANCH   2  19
HETATM   19  C   UNL     1     -11.686  10.193  71.146  1.00  0.00    -0.366 C  
BRANCH  19  20
HETATM   20  O   UNL     1     -11.271   8.969  70.523  1.00  0.00    -0.255 OA 
BRANCH  20  21
HETATM   21  C   UNL     1     -11.158   7.904  71.376  1.00  0.00    -0.243 A  
HETATM   22  C   UNL     1     -10.371   8.115  72.510  1.00  0.00    -0.401 A  
HETATM   23  H   UNL     1     -11.109   4.006  73.998  1.00  0.00     0.000 HD 
HETATM   24  O   UNL     1     -10.679   4.842  74.132  1.00  0.00    -0.289 OA 
HETATM   25  C   UNL     1     -10.195   7.095  73.449  1.00  0.00    -0.367 A  
HETATM   26  C   UNL     1     -10.825   5.871  73.252  1.00  0.00    -0.261 A  
HETATM   27  C   UNL     1     -11.803   6.677  71.202  1.00  0.00    -0.414 A  
HETATM   28  C   UNL     1     -11.634   5.659  72.142  1.00  0.00    -0.202 A  
ENDBRANCH  20  21
ENDBRANCH  19  20
ENDBRANCH   2  19
TORSDOF 10
ENDMDL
MODEL       97
REMARK 921   NORMALIZED FREE ENERGY PREDICTED BY IDOCK:   -5.04 KCAL/MOL
REMARK 922        TOTAL FREE ENERGY PREDICTED BY IDOCK:   -9.12 KCAL/MOL
REMARK 923 INTER-LIGAND FREE ENERGY PREDICTED BY IDOCK:   -8.37 KCAL/MOL
REMARK 924 INTRA-LIGAND FREE ENERGY PREDICTED BY IDOCK:   -0.74 KCAL/MOL
REMARK 927      BINDING AFFINITY PREDICTED BY RF-SCORE:    0.00 PKD
ROOT
HETATM    1  O   UNL     1      -9.382  11.008  69.319  1.00  0.00    -0.393 OA 
HETATM    2  C   UNL     1     -10.777  10.824  69.042  1.00  0.00    -0.228 C  
HETATM    3  H   UNL     1      -8.927  11.176  68.503  1.00  0.00     0.000 HD 
ENDROOT
BRANCH   2   4
HETATM    4  C   UNL     1     -11.514  10.552  70.364  1.00  0.00    -0.341 C  
BRANCH   4   5
HETATM    5  N   UNL     1     -12.941  10.279  70.125  1.00  0.00    -0.549 NA 
HETATM    6  H   UNL     1     -13.080   9.578  69.396  1.00  0.00     0.000 HD 
BRANCH   5   7
HETATM    7  C   UNL     1     -13.598   9.903  71.382  1.00  0.00    -0.223 C  
BRANCH   7   8
HETATM    8  C   UNL     1     -12.578   9.394  72.408  1.00  0.00    -0.237 C  
BRANCH   8   9
HETATM    9  N   UNL     1     -12.763   7.976  72.643  1.00  0.00    -0.576 N  
HETATM   10  H   UNL     1     -13.366   7.685  73.413  1.00  0.00     0.000 HD 
BRANCH   9  11
HETATM   11  C   UNL     1     -12.165   7.015  71.880  1.00  0.00    -0.327 C  
HETATM   12  O   UNL     1     -12.673   6.619  70.832  1.00  0.00    -0.234 OA 
BRANCH  11  13
HETATM   13  N   UNL     1     -10.965   6.534  72.358  1.00  0.00    -0.236 N  
HETATM   14  C   UNL     1     -10.855   5.117  72.714  1.00  0.00    -0.258 C  
HETATM   15  C   UNL     1      -9.802   4.425  71.841  1.00  0.00    -0.180 C  
HETATM   16  O   UNL     1      -8.537   5.105  71.917  1.00  0.00    -0.126 OA 
HETATM   17  C   UNL     1      -8.668   6.468  71.488  1.00  0.00    -0.132 C  
HETATM   18  C   UNL     1      -9.672   7.226  72.366  1.00  0.00    -0.154 C  
ENDBRANCH  11  13
ENDBRANCH   9  11
ENDBRANCH   8   9
ENDBRANCH   7   8
ENDBRANCH   5   7
ENDBRANCH   4   5
ENDBRANCH   2   4
BRANCH   2  19
HETATM   19  C   UNL     1     -11.355  12.079  68.373  1.00  0.00    -0.279 C  
BRANCH  19  20
HETATM   20  O   UNL     1     -11.605  11.812  66.986  1.00  0.00    -0.480 OA 
BRANCH  20  21
HETATM   21  C   UNL     1     -11.636  12.922  66.187  1.00  0.00    -0.372 A  
HETATM   22  C   UNL     1     -10.900  14.019  66.642  1.00  0.00    -0.297 A  
HETATM   23  H   UNL     1     -12.011  16.450  63.107  1.00  0.00     0.000 HD 
HETATM   24  O   UNL     1     -11.543  16.402  63.932  1.00  0.00    -1.100 OA 
HETATM   25  C   UNL     1     -10.858  15.201  65.898  1.00  0.00    -0.342 A  
HETATM   26  C   UNL     1     -11.544  15.271  64.690  1.00  0.00    -0.333 A  
HETATM   27  C   UNL     1     -12.301  12.999  64.961  1.00  0.00    -0.526 A  
HETATM   28  C   UNL     1     -12.256  14.176  64.213  1.00  0.00    -0.449 A  
ENDBRANCH  20  21
ENDBRANCH  19  20
ENDBRANCH   2  19
TORSDOF 10
ENDMDL
MODEL       98
REMARK 921   NORMALIZED FREE ENERGY PREDICTED BY IDOCK:   -5.01 KCAL/MOL
REMARK 922        TOTAL FREE ENERGY PREDICTED BY IDOCK:   -9.08 KCAL/MOL
REMARK 923 INTER-LIGAND FREE ENERGY PREDICTED BY IDOCK:   -8.21 KCAL/MOL
REMARK 924 INTRA-LIGAND FREE ENERGY PREDICTED BY IDOCK:   -0.88 KCAL/MOL
REMARK 927      BINDING AFFINITY PREDICTED BY RF-SCORE:    0.00 PKD
ROOT
HETATM    1  O   UNL     1     -14.224   9.105  73.187  1.00  0.00    -1.118 OA 
HETATM    2  C   UNL     1     -13.459   9.283  71.987  1.00  0.00    -0.451 C  
HETATM    3  H   UNL     1     -14.334   8.174  73.344  1.00  0.00     0.000 HD 
ENDROOT
BRANCH   2   4
HETATM    4  C   UNL     1     -13.282  10.790  71.732  1.00  0.00    -0.418 C  
BRANCH   4   5
HETATM    5  N   UNL     1     -12.040  11.056  70.986  1.00  0.00    -0.330 NA 
HETATM    6  H   UNL     1     -11.760  10.259  70.415  1.00  0.00     0.000 HD 
BRANCH   5   7
HETATM    7  C   UNL     1     -12.184  12.280  70.191  1.00  0.00    -0.226 C  
BRANCH   7   8
HETATM    8  C   UNL     1     -12.775  13.418  71.031  1.00  0.00    -0.307 C  
BRANCH   8   9
HETATM    9  N   UNL     1     -12.717  14.668  70.300  1.00  0.00    -0.511 N  
HETATM   10  H   UNL     1     -13.406  14.837  69.567  1.00  0.00     0.000 HD 
BRANCH   9  11
HETATM   11  C   UNL     1     -11.779  15.629  70.550  1.00  0.00    -0.366 C  
HETATM   12  O   UNL     1     -11.740  16.222  71.627  1.00  0.00    -0.480 OA 
BRANCH  11  13
HETATM   13  N   UNL     1     -10.890  15.877  69.526  1.00  0.00    -0.278 N  
HETATM   14  C   UNL     1      -9.530  15.342  69.617  1.00  0.00    -0.216 C  
HETATM   15  C   UNL     1      -9.258  14.368  68.465  1.00  0.00    -0.198 C  
HETATM   16  O   UNL     1      -9.517  14.986  67.192  1.00  0.00    -0.206 OA 
HETATM   17  C   UNL     1     -10.879  15.428  67.111  1.00  0.00    -0.321 C  
HETATM   18  C   UNL     1     -11.191  16.451  68.210  1.00  0.00    -0.300 C  
ENDBRANCH  11  13
ENDBRANCH   9  11
ENDBRANCH   8   9
ENDBRANCH   7   8
ENDBRANCH   5   7
ENDBRANCH   4   5
ENDBRANCH   2   4
BRANCH   2  19
HETATM   19  C   UNL     1     -12.084   8.616  72.131  1.00  0.00    -0.381 C  
BRANCH  19  20
HETATM   20  O   UNL     1     -11.780   7.883  70.936  1.00  0.00    -0.288 OA 
BRANCH  20  21
HETATM   21  C   UNL     1     -11.153   6.684  71.145  1.00  0.00    -0.279 A  
HETATM   22  C   UNL     1     -11.312   6.130  72.417  1.00  0.00    -0.340 A  
HETATM   23  H   UNL     1      -8.875   2.581  71.364  1.00  0.00     0.000 HD 
HETATM   24  O   UNL     1      -9.378   3.040  72.025  1.00  0.00    -0.106 OA 
HETATM   25  C   UNL     1     -10.720   4.905  72.734  1.00  0.00    -0.289 A  
HETATM   26  C   UNL     1      -9.982   4.232  71.765  1.00  0.00    -0.184 A  
HETATM   27  C   UNL     1     -10.429   5.988  70.175  1.00  0.00    -0.309 A  
HETATM   28  C   UNL     1      -9.842   4.760  70.487  1.00  0.00    -0.301 A  
ENDBRANCH  20  21
ENDBRANCH  19  20
ENDBRANCH   2  19
TORSDOF 10
ENDMDL
MODEL       99
REMARK 921   NORMALIZED FREE ENERGY PREDICTED BY IDOCK:   -5.01 KCAL/MOL
REMARK 922        TOTAL FREE ENERGY PREDICTED BY IDOCK:   -9.08 KCAL/MOL
REMARK 923 INTER-LIGAND FREE ENERGY PREDICTED BY IDOCK:   -7.81 KCAL/MOL
REMARK 924 INTRA-LIGAND FREE ENERGY PREDICTED BY IDOCK:   -1.27 KCAL/MOL
REMARK 927      BINDING AFFINITY PREDICTED BY RF-SCORE:    0.00 PKD
ROOT
HETATM    1  O   UNL     1     -10.163   8.222  66.984  1.00  0.00    -0.252 OA 
HETATM    2  C   UNL     1     -10.597   9.552  66.668  1.00  0.00    -0.104 C  
HETATM    3  H   UNL     1     -10.140   7.709  66.184  1.00  0.00     0.000 HD 
ENDROOT
BRANCH   2   4
HETATM    4  C   UNL     1     -10.635  10.382  67.963  1.00  0.00    -0.221 C  
BRANCH   4   5
HETATM    5  N   UNL     1     -11.975  10.951  68.184  1.00  0.00    -0.796 NA 
HETATM    6  H   UNL     1     -12.386  10.631  69.061  1.00  0.00     0.000 HD 
BRANCH   5   7
HETATM    7  C   UNL     1     -11.917  12.415  68.106  1.00  0.00    -0.214 C  
BRANCH   7   8
HETATM    8  C   UNL     1     -10.542  12.938  68.537  1.00  0.00    -0.253 C  
BRANCH   8   9
HETATM    9  N   UNL     1     -10.461  14.371  68.335  1.00  0.00    -0.239 N  
HETATM   10  H   UNL     1     -11.317  14.882  68.118  1.00  0.00     0.000 HD 
BRANCH   9  11
HETATM   11  C   UNL     1      -9.289  15.065  68.424  1.00  0.00    -0.193 C  
HETATM   12  O   UNL     1      -8.256  14.533  68.828  1.00  0.00    -0.151 OA 
BRANCH  11  13
HETATM   13  N   UNL     1      -9.345  16.385  68.027  1.00  0.00    -0.214 N  
HETATM   14  C   UNL     1      -8.096  17.114  67.796  1.00  0.00    -0.193 C  
HETATM   15  C   UNL     1      -8.005  17.573  66.336  1.00  0.00    -0.285 C  
HETATM   16  O   UNL     1      -9.162  18.341  65.961  1.00  0.00    -0.508 OA 
HETATM   17  C   UNL     1     -10.359  17.568  66.128  1.00  0.00    -0.329 C  
HETATM   18  C   UNL     1     -10.530  17.128  67.588  1.00  0.00    -0.355 C  
ENDBRANCH  11  13
ENDBRANCH   9  11
ENDBRANCH   8   9
ENDBRANCH   7   8
ENDBRANCH   5   7
ENDBRANCH   4   5
ENDBRANCH   2   4
BRANCH   2  19
HETATM   19  C   UNL     1      -9.634  10.200  65.664  1.00  0.00    -0.243 C  
BRANCH  19  20
HETATM   20  O   UNL     1     -10.334  10.485  64.445  1.00  0.00    -0.341 OA 
BRANCH  20  21
HETATM   21  C   UNL     1     -10.800  11.768  64.340  1.00  0.00    -0.334 A  
HETATM   22  C   UNL     1     -11.968  11.931  63.592  1.00  0.00    -0.578 A  
HETATM   23  H   UNL     1     -12.023  16.304  64.306  1.00  0.00     0.000 HD 
HETATM   24  O   UNL     1     -12.434  15.554  63.894  1.00  0.00    -0.656 OA 
HETATM   25  C   UNL     1     -12.533  13.198  63.427  1.00  0.00    -0.328 A  
HETATM   26  C   UNL     1     -11.930  14.297  64.030  1.00  0.00    -0.297 A  
HETATM   27  C   UNL     1     -10.218  12.877  64.959  1.00  0.00    -0.289 A  
HETATM   28  C   UNL     1     -10.783  14.143  64.802  1.00  0.00    -0.436 A  
ENDBRANCH  20  21
ENDBRANCH  19  20
ENDBRANCH   2  19
TORSDOF 10
ENDMDL
MODEL      100
REMARK 921   NORMALIZED FREE ENERGY PREDICTED BY IDOCK:   -4.99 KCAL/MOL
REMARK 922        TOTAL FREE ENERGY PREDICTED BY IDOCK:   -9.05 KCAL/MOL
REMARK 923 INTER-LIGAND FREE ENERGY PREDICTED BY IDOCK:   -7.98 KCAL/MOL
REMARK 924 INTRA-LIGAND FREE ENERGY PREDICTED BY IDOCK:   -1.07 KCAL/MOL
REMARK 927      BINDING AFFINITY PREDICTED BY RF-SCORE:    0.00 PKD
ROOT
HETATM    1  O   UNL     1      -9.921  14.054  69.233  1.00  0.00    -0.428 OA 
HETATM    2  C   UNL     1     -11.313  14.157  68.901  1.00  0.00    -0.277 C  
HETATM    3  H   UNL     1      -9.843  13.791  70.143  1.00  0.00     0.000 HD 
ENDROOT
BRANCH   2   4
HETATM    4  C   UNL     1     -11.440  14.583  67.428  1.00  0.00    -0.368 C  
BRANCH   4   5
HETATM    5  N   UNL     1     -12.263  13.625  66.671  1.00  0.00    -0.410 NA 
HETATM    6  H   UNL     1     -13.094  13.340  67.192  1.00  0.00     0.000 HD 
BRANCH   5   7
HETATM    7  C   UNL     1     -12.602  14.182  65.357  1.00  0.00    -0.466 C  
BRANCH   7   8
HETATM    8  C   UNL     1     -11.710  13.590  64.260  1.00  0.00    -0.416 C  
BRANCH   8   9
HETATM    9  N   UNL     1     -11.433  12.194  64.532  1.00  0.00    -0.327 N  
HETATM   10  H   UNL     1     -12.139  11.643  65.020  1.00  0.00     0.000 HD 
BRANCH   9  11
HETATM   11  C   UNL     1     -10.267  11.585  64.164  1.00  0.00    -0.325 C  
HETATM   12  O   UNL     1      -9.876  11.600  62.998  1.00  0.00    -0.393 OA 
BRANCH  11  13
HETATM   13  N   UNL     1      -9.569  10.968  65.180  1.00  0.00    -0.225 N  
HETATM   14  C   UNL     1     -10.186  10.854  66.503  1.00  0.00    -0.232 C  
HETATM   15  C   UNL     1     -10.360   9.380  66.889  1.00  0.00    -0.238 C  
HETATM   16  O   UNL     1      -9.110   8.673  66.808  1.00  0.00    -0.136 OA 
HETATM   17  C   UNL     1      -8.574   8.742  65.479  1.00  0.00    -0.174 C  
HETATM   18  C   UNL     1      -8.327  10.197  65.061  1.00  0.00    -0.155 C  
ENDBRANCH  11  13
ENDBRANCH   9  11
ENDBRANCH   8   9
ENDBRANCH   7   8
ENDBRANCH   5   7
ENDBRANCH   4   5
ENDBRANCH   2   4
BRANCH   2  19
HETATM   19  C   UNL     1     -12.010  12.807  69.113  1.00  0.00    -0.246 C  
BRANCH  19  20
HETATM   20  O   UNL     1     -12.227  12.594  70.515  1.00  0.00    -0.365 OA 
BRANCH  20  21
HETATM   21  C   UNL     1     -12.311  11.280  70.888  1.00  0.00    -0.388 A  
HETATM   22  C   UNL     1     -11.352  10.430  70.334  1.00  0.00    -0.417 A  
HETATM   23  H   UNL     1     -12.975   6.913  72.488  1.00  0.00     0.000 HD 
HETATM   24  O   UNL     1     -12.329   7.253  71.880  1.00  0.00    -0.309 OA 
HETATM   25  C   UNL     1     -11.343   9.069  70.653  1.00  0.00    -0.311 A  
HETATM   26  C   UNL     1     -12.289   8.571  71.543  1.00  0.00    -0.314 A  
HETATM   27  C   UNL     1     -13.241  10.771  71.797  1.00  0.00    -0.523 A  
HETATM   28  C   UNL     1     -13.230   9.414  72.123  1.00  0.00    -0.541 A  
ENDBRANCH  20  21
ENDBRANCH  19  20
ENDBRANCH   2  19
TORSDOF 10
ENDMDL
MODEL      101
REMARK 921   NORMALIZED FREE ENERGY PREDICTED BY IDOCK:   -4.99 KCAL/MOL
REMARK 922        TOTAL FREE ENERGY PREDICTED BY IDOCK:   -9.04 KCAL/MOL
REMARK 923 INTER-LIGAND FREE ENERGY PREDICTED BY IDOCK:   -7.87 KCAL/MOL
REMARK 924 INTRA-LIGAND FREE ENERGY PREDICTED BY IDOCK:   -1.17 KCAL/MOL
REMARK 927      BINDING AFFINITY PREDICTED BY RF-SCORE:    0.00 PKD
ROOT
HETATM    1  O   UNL     1     -13.824  15.531  70.599  1.00  0.00    -0.864 OA 
HETATM    2  C   UNL     1     -12.541  15.101  71.075  1.00  0.00    -0.377 C  
HETATM    3  H   UNL     1     -13.912  16.463  70.756  1.00  0.00     0.000 HD 
ENDROOT
BRANCH   2   4
HETATM    4  C   UNL     1     -12.399  13.590  70.821  1.00  0.00    -0.363 C  
BRANCH   4   5
HETATM    5  N   UNL     1     -11.316  13.317  69.862  1.00  0.00    -0.501 NA 
HETATM    6  H   UNL     1     -10.454  13.033  70.329  1.00  0.00     0.000 HD 
BRANCH   5   7
HETATM    7  C   UNL     1     -11.758  12.328  68.873  1.00  0.00    -0.328 C  
BRANCH   7   8
HETATM    8  C   UNL     1     -11.706  12.903  67.454  1.00  0.00    -0.372 C  
BRANCH   8   9
HETATM    9  N   UNL     1     -11.323  11.876  66.506  1.00  0.00    -0.342 N  
HETATM   10  H   UNL     1     -11.763  10.959  66.577  1.00  0.00     0.000 HD 
BRANCH   9  11
HETATM   11  C   UNL     1     -10.398  12.084  65.523  1.00  0.00    -0.263 C  
HETATM   12  O   UNL     1     -10.500  13.022  64.734  1.00  0.00    -0.328 OA 
BRANCH  11  13
HETATM   13  N   UNL     1      -9.355  11.184  65.485  1.00  0.00    -0.219 N  
HETATM   14  C   UNL     1      -8.259  11.319  66.448  1.00  0.00    -0.150 C  
HETATM   15  C   UNL     1      -8.171  10.074  67.338  1.00  0.00    -0.118 C  
HETATM   16  O   UNL     1      -8.055   8.879  66.547  1.00  0.00    -0.105 OA 
HETATM   17  C   UNL     1      -9.184   8.740  65.671  1.00  0.00    -0.180 C  
HETATM   18  C   UNL     1      -9.288   9.936  64.716  1.00  0.00    -0.278 C  
ENDBRANCH  11  13
ENDBRANCH   9  11
ENDBRANCH   8   9
ENDBRANCH   7   8
ENDBRANCH   5   7
ENDBRANCH   4   5
ENDBRANCH   2   4
BRANCH   2  19
HETATM   19  C   UNL     1     -11.424  15.858  70.346  1.00  0.00    -0.378 C  
BRANCH  19  20
HETATM   20  O   UNL     1     -11.808  16.080  68.981  1.00  0.00    -0.362 OA 
BRANCH  20  21
HETATM   21  C   UNL     1     -10.885  16.758  68.231  1.00  0.00    -0.366 A  
HETATM   22  C   UNL     1     -10.568  16.187  66.997  1.00  0.00    -0.292 A  
HETATM   23  H   UNL     1      -7.732  19.449  66.020  1.00  0.00     0.000 HD 
HETATM   24  O   UNL     1      -8.136  18.632  65.754  1.00  0.00    -0.479 OA 
HETATM   25  C   UNL     1      -9.643  16.801  66.149  1.00  0.00    -0.302 A  
HETATM   26  C   UNL     1      -9.050  17.998  66.539  1.00  0.00    -0.269 A  
HETATM   27  C   UNL     1     -10.299  17.971  68.600  1.00  0.00    -0.328 A  
HETATM   28  C   UNL     1      -9.379  18.591  67.752  1.00  0.00    -0.308 A  
ENDBRANCH  20  21
ENDBRANCH  19  20
ENDBRANCH   2  19
TORSDOF 10
ENDMDL
MODEL      102
REMARK 921   NORMALIZED FREE ENERGY PREDICTED BY IDOCK:   -4.98 KCAL/MOL
REMARK 922        TOTAL FREE ENERGY PREDICTED BY IDOCK:   -9.02 KCAL/MOL
REMARK 923 INTER-LIGAND FREE ENERGY PREDICTED BY IDOCK:   -7.47 KCAL/MOL
REMARK 924 INTRA-LIGAND FREE ENERGY PREDICTED BY IDOCK:   -1.56 KCAL/MOL
REMARK 927      BINDING AFFINITY PREDICTED BY RF-SCORE:    0.00 PKD
ROOT
HETATM    1  O   UNL     1      -6.180  20.968  68.375  1.00  0.00    -0.331 OA 
HETATM    2  C   UNL     1      -7.022  19.920  67.875  1.00  0.00    -0.273 C  
HETATM    3  H   UNL     1      -6.104  20.876  69.318  1.00  0.00     0.000 HD 
ENDROOT
BRANCH   2   4
HETATM    4  C   UNL     1      -7.147  20.071  66.349  1.00  0.00    -0.244 C  
BRANCH   4   5
HETATM    5  N   UNL     1      -8.280  19.285  65.833  1.00  0.00    -0.447 NA 
HETATM    6  H   UNL     1      -8.222  18.304  66.110  1.00  0.00     0.000 HD 
BRANCH   5   7
HETATM    7  C   UNL     1      -9.547  19.899  66.246  1.00  0.00    -0.425 C  
BRANCH   7   8
HETATM    8  C   UNL     1     -10.557  18.837  66.693  1.00  0.00    -0.383 C  
BRANCH   8   9
HETATM    9  N   UNL     1     -10.080  17.511  66.353  1.00  0.00    -0.332 N  
HETATM   10  H   UNL     1      -9.221  17.176  66.787  1.00  0.00     0.000 HD 
BRANCH   9  11
HETATM   11  C   UNL     1     -10.733  16.694  65.475  1.00  0.00    -0.223 C  
HETATM   12  O   UNL     1     -11.233  17.131  64.440  1.00  0.00    -1.143 OA 
BRANCH  11  13
HETATM   13  N   UNL     1     -10.783  15.361  65.826  1.00  0.00    -0.335 N  
HETATM   14  C   UNL     1     -10.857  14.998  67.243  1.00  0.00    -0.310 C  
HETATM   15  C   UNL     1     -12.157  14.239  67.535  1.00  0.00    -0.312 C  
HETATM   16  O   UNL     1     -12.294  13.096  66.672  1.00  0.00    -0.330 OA 
HETATM   17  C   UNL     1     -12.295  13.498  65.295  1.00  0.00    -0.467 C  
HETATM   18  C   UNL     1     -10.989  14.216  64.932  1.00  0.00    -0.397 C  
ENDBRANCH  11  13
ENDBRANCH   9  11
ENDBRANCH   8   9
ENDBRANCH   7   8
ENDBRANCH   5   7
ENDBRANCH   4   5
ENDBRANCH   2   4
BRANCH   2  19
HETATM   19  C   UNL     1      -6.422  18.550  68.215  1.00  0.00    -0.212 C  
BRANCH  19  20
HETATM   20  O   UNL     1      -7.260  17.514  67.682  1.00  0.00    -0.166 OA 
BRANCH  20  21
HETATM   21  C   UNL     1      -7.066  16.279  68.239  1.00  0.00    -0.136 A  
HETATM   22  C   UNL     1      -7.310  15.190  67.400  1.00  0.00    -0.235 A  
HETATM   23  H   UNL     1      -6.228  12.286  70.568  1.00  0.00     0.000 HD 
HETATM   24  O   UNL     1      -6.525  12.426  69.677  1.00  0.00    -0.119 OA 
HETATM   25  C   UNL     1      -7.137  13.884  67.866  1.00  0.00    -0.168 A  
HETATM   26  C   UNL     1      -6.702  13.678  69.171  1.00  0.00    -0.109 A  
HETATM   27  C   UNL     1      -6.608  16.058  69.540  1.00  0.00    -0.201 A  
HETATM   28  C   UNL     1      -6.427  14.755  70.006  1.00  0.00    -0.169 A  
ENDBRANCH  20  21
ENDBRANCH  19  20
ENDBRANCH   2  19
TORSDOF 10
ENDMDL
MODEL      103
REMARK 921   NORMALIZED FREE ENERGY PREDICTED BY IDOCK:   -4.97 KCAL/MOL
REMARK 922        TOTAL FREE ENERGY PREDICTED BY IDOCK:   -9.02 KCAL/MOL
REMARK 923 INTER-LIGAND FREE ENERGY PREDICTED BY IDOCK:   -8.41 KCAL/MOL
REMARK 924 INTRA-LIGAND FREE ENERGY PREDICTED BY IDOCK:   -0.61 KCAL/MOL
REMARK 927      BINDING AFFINITY PREDICTED BY RF-SCORE:    0.00 PKD
ROOT
HETATM    1  O   UNL     1     -12.584  11.346  62.843  1.00  0.00    -0.970 OA 
HETATM    2  C   UNL     1     -11.439  11.965  63.445  1.00  0.00    -0.376 C  
HETATM    3  H   UNL     1     -12.299  10.584  62.353  1.00  0.00     0.000 HD 
ENDROOT
BRANCH   2   4
HETATM    4  C   UNL     1     -11.902  13.199  64.238  1.00  0.00    -0.406 C  
BRANCH   4   5
HETATM    5  N   UNL     1     -12.462  12.807  65.543  1.00  0.00    -0.623 NA 
HETATM    6  H   UNL     1     -11.945  12.035  65.964  1.00  0.00     0.000 HD 
BRANCH   5   7
HETATM    7  C   UNL     1     -12.529  13.973  66.431  1.00  0.00    -0.355 C  
BRANCH   7   8
HETATM    8  C   UNL     1     -11.833  13.691  67.767  1.00  0.00    -0.368 C  
BRANCH   8   9
HETATM    9  N   UNL     1     -12.534  14.350  68.851  1.00  0.00    -0.553 N  
HETATM   10  H   UNL     1     -13.464  14.017  69.103  1.00  0.00     0.000 HD 
BRANCH   9  11
HETATM   11  C   UNL     1     -12.001  15.395  69.549  1.00  0.00    -0.334 C  
HETATM   12  O   UNL     1     -11.084  16.073  69.090  1.00  0.00    -0.273 OA 
BRANCH  11  13
HETATM   13  N   UNL     1     -12.564  15.635  70.785  1.00  0.00    -0.447 N  
HETATM   14  C   UNL     1     -13.877  15.065  71.095  1.00  0.00    -0.395 C  
HETATM   15  C   UNL     1     -13.776  14.101  72.283  1.00  0.00    -0.526 C  
HETATM   16  O   UNL     1     -13.179  14.744  73.423  1.00  0.00    -0.565 OA 
HETATM   17  C   UNL     1     -11.864  15.221  73.104  1.00  0.00    -0.387 C  
HETATM   18  C   UNL     1     -11.912  16.236  71.954  1.00  0.00    -0.441 C  
ENDBRANCH  11  13
ENDBRANCH   9  11
ENDBRANCH   8   9
ENDBRANCH   7   8
ENDBRANCH   5   7
ENDBRANCH   4   5
ENDBRANCH   2   4
BRANCH   2  19
HETATM   19  C   UNL     1     -10.736  10.977  64.386  1.00  0.00    -0.269 C  
BRANCH  19  20
HETATM   20  O   UNL     1      -9.560  10.461  63.746  1.00  0.00    -0.279 OA 
BRANCH  20  21
HETATM   21  C   UNL     1      -8.457  10.384  64.553  1.00  0.00    -0.169 A  
HETATM   22  C   UNL     1      -8.661  10.721  65.893  1.00  0.00    -0.189 A  
HETATM   23  H   UNL     1      -4.423   9.928  66.917  1.00  0.00     0.000 HD 
HETATM   24  O   UNL     1      -5.281  10.205  67.215  1.00  0.00    -0.040 OA 
HETATM   25  C   UNL     1      -7.604  10.670  66.805  1.00  0.00    -0.120 A  
HETATM   26  C   UNL     1      -6.347  10.264  66.369  1.00  0.00    -0.085 A  
HETATM   27  C   UNL     1      -7.196   9.957  64.134  1.00  0.00    -0.134 A  
HETATM   28  C   UNL     1      -6.139   9.898  65.044  1.00  0.00    -0.100 A  
ENDBRANCH  20  21
ENDBRANCH  19  20
ENDBRANCH   2  19
TORSDOF 10
ENDMDL
MODEL      104
REMARK 921   NORMALIZED FREE ENERGY PREDICTED BY IDOCK:   -4.97 KCAL/MOL
REMARK 922        TOTAL FREE ENERGY PREDICTED BY IDOCK:   -9.01 KCAL/MOL
REMARK 923 INTER-LIGAND FREE ENERGY PREDICTED BY IDOCK:   -8.17 KCAL/MOL
REMARK 924 INTRA-LIGAND FREE ENERGY PREDICTED BY IDOCK:   -0.84 KCAL/MOL
REMARK 927      BINDING AFFINITY PREDICTED BY RF-SCORE:    0.00 PKD
ROOT
HETATM    1  O   UNL     1     -12.716  10.598  69.111  1.00  0.00    -0.685 OA 
HETATM    2  C   UNL     1     -11.433  11.189  69.361  1.00  0.00    -0.298 C  
HETATM    3  H   UNL     1     -13.287  11.255  68.731  1.00  0.00     0.000 HD 
ENDROOT
BRANCH   2   4
HETATM    4  C   UNL     1     -10.509  10.125  69.978  1.00  0.00    -0.274 C  
BRANCH   4   5
HETATM    5  N   UNL     1     -10.968   8.768  69.638  1.00  0.00    -0.396 NA 
HETATM    6  H   UNL     1     -11.642   8.773  68.872  1.00  0.00     0.000 HD 
BRANCH   5   7
HETATM    7  C   UNL     1      -9.816   7.905  69.352  1.00  0.00    -0.180 C  
BRANCH   7   8
HETATM    8  C   UNL     1      -9.585   6.898  70.485  1.00  0.00    -0.169 C  
BRANCH   8   9
HETATM    9  N   UNL     1     -10.841   6.301  70.893  1.00  0.00    -0.258 N  
HETATM   10  H   UNL     1     -11.294   5.640  70.263  1.00  0.00     0.000 HD 
BRANCH   9  11
HETATM   11  C   UNL     1     -11.442   6.585  72.086  1.00  0.00    -0.292 C  
HETATM   12  O   UNL     1     -12.303   7.458  72.179  1.00  0.00    -0.277 OA 
BRANCH  11  13
HETATM   13  N   UNL     1     -11.024   5.828  73.160  1.00  0.00    -0.272 N  
HETATM   14  C   UNL     1     -11.212   4.376  73.127  1.00  0.00    -0.216 C  
HETATM   15  C   UNL     1      -9.859   3.658  73.192  1.00  0.00    -0.128 C  
HETATM   16  O   UNL     1      -9.102   4.082  74.339  1.00  0.00    -0.099 OA 
HETATM   17  C   UNL     1      -8.871   5.498  74.298  1.00  0.00    -0.118 C  
HETATM   18  C   UNL     1     -10.196   6.271  74.288  1.00  0.00    -0.335 C  
ENDBRANCH  11  13
ENDBRANCH   9  11
ENDBRANCH   8   9
ENDBRANCH   7   8
ENDBRANCH   5   7
ENDBRANCH   4   5
ENDBRANCH   2   4
BRANCH   2  19
HETATM   19  C   UNL     1     -10.825  11.711  68.052  1.00  0.00    -0.215 C  
BRANCH  19  20
HETATM   20  O   UNL     1     -11.824  11.699  67.022  1.00  0.00    -0.591 OA 
BRANCH  20  21
HETATM   21  C   UNL     1     -11.820  12.801  66.210  1.00  0.00    -0.423 A  
HETATM   22  C   UNL     1     -11.222  13.945  66.742  1.00  0.00    -0.328 A  
HETATM   23  H   UNL     1     -12.011  16.280  63.059  1.00  0.00     0.000 HD 
HETATM   24  O   UNL     1     -11.654  16.267  63.939  1.00  0.00    -0.987 OA 
HETATM   25  C   UNL     1     -11.159  15.123  65.994  1.00  0.00    -0.312 A  
HETATM   26  C   UNL     1     -11.683  15.142  64.706  1.00  0.00    -0.331 A  
HETATM   27  C   UNL     1     -12.322  12.827  64.907  1.00  0.00    -0.551 A  
HETATM   28  C   UNL     1     -12.254  14.001  64.155  1.00  0.00    -0.433 A  
ENDBRANCH  20  21
ENDBRANCH  19  20
ENDBRANCH   2  19
TORSDOF 10
ENDMDL
MODEL      105
REMARK 921   NORMALIZED FREE ENERGY PREDICTED BY IDOCK:   -4.96 KCAL/MOL
REMARK 922        TOTAL FREE ENERGY PREDICTED BY IDOCK:   -9.00 KCAL/MOL
REMARK 923 INTER-LIGAND FREE ENERGY PREDICTED BY IDOCK:   -7.82 KCAL/MOL
REMARK 924 INTRA-LIGAND FREE ENERGY PREDICTED BY IDOCK:   -1.18 KCAL/MOL
REMARK 927      BINDING AFFINITY PREDICTED BY RF-SCORE:    0.00 PKD
ROOT
HETATM    1  O   UNL     1     -11.147  12.789  69.821  1.00  0.00    -0.473 OA 
HETATM    2  C   UNL     1     -11.395  11.502  69.238  1.00  0.00    -0.288 C  
HETATM    3  H   UNL     1     -11.872  13.010  70.394  1.00  0.00     0.000 HD 
ENDROOT
BRANCH   2   4
HETATM    4  C   UNL     1     -10.221  11.145  68.309  1.00  0.00    -0.182 C  
BRANCH   4   5
HETATM    5  N   UNL     1      -9.112  12.099  68.472  1.00  0.00    -0.345 NA 
HETATM    6  H   UNL     1      -8.297  11.668  68.909  1.00  0.00     0.000 HD 
BRANCH   5   7
HETATM    7  C   UNL     1      -8.783  12.712  67.179  1.00  0.00    -0.201 C  
BRANCH   7   8
HETATM    8  C   UNL     1      -8.643  14.233  67.308  1.00  0.00    -0.215 C  
BRANCH   8   9
HETATM    9  N   UNL     1      -9.942  14.868  67.222  1.00  0.00    -0.229 N  
HETATM   10  H   UNL     1     -10.488  14.980  68.076  1.00  0.00     0.000 HD 
BRANCH   9  11
HETATM   11  C   UNL     1     -10.467  15.323  66.046  1.00  0.00    -0.317 C  
HETATM   12  O   UNL     1      -9.933  16.233  65.414  1.00  0.00    -0.514 OA 
BRANCH  11  13
HETATM   13  N   UNL     1     -11.619  14.694  65.623  1.00  0.00    -0.345 N  
HETATM   14  C   UNL     1     -12.076  14.892  64.246  1.00  0.00    -0.353 C  
HETATM   15  C   UNL     1     -12.093  13.559  63.489  1.00  0.00    -0.364 C  
HETATM   16  O   UNL     1     -12.878  12.577  64.187  1.00  0.00    -0.705 OA 
HETATM   17  C   UNL     1     -12.355  12.353  65.504  1.00  0.00    -0.176 C  
HETATM   18  C   UNL     1     -12.367  13.647  66.328  1.00  0.00    -0.412 C  
ENDBRANCH  11  13
ENDBRANCH   9  11
ENDBRANCH   8   9
ENDBRANCH   7   8
ENDBRANCH   5   7
ENDBRANCH   4   5
ENDBRANCH   2   4
BRANCH   2  19
HETATM   19  C   UNL     1     -11.530  10.439  70.336  1.00  0.00    -0.337 C  
BRANCH  19  20
HETATM   20  O   UNL     1     -10.231   9.937  70.680  1.00  0.00    -0.266 OA 
BRANCH  20  21
HETATM   21  C   UNL     1     -10.233   8.942  71.620  1.00  0.00    -0.345 A  
HETATM   22  C   UNL     1     -11.457   8.302  71.824  1.00  0.00    -0.353 A  
HETATM   23  H   UNL     1      -9.732   5.599  74.882  1.00  0.00     0.000 HD 
HETATM   24  O   UNL     1     -10.500   5.871  74.395  1.00  0.00    -0.265 OA 
HETATM   25  C   UNL     1     -11.569   7.267  72.756  1.00  0.00    -0.213 A  
HETATM   26  C   UNL     1     -10.443   6.868  73.470  1.00  0.00    -0.352 A  
HETATM   27  C   UNL     1      -9.106   8.516  72.327  1.00  0.00    -0.318 A  
HETATM   28  C   UNL     1      -9.213   7.478  73.254  1.00  0.00    -0.256 A  
ENDBRANCH  20  21
ENDBRANCH  19  20
ENDBRANCH   2  19
TORSDOF 10
ENDMDL
MODEL      106
REMARK 921   NORMALIZED FREE ENERGY PREDICTED BY IDOCK:   -4.96 KCAL/MOL
REMARK 922        TOTAL FREE ENERGY PREDICTED BY IDOCK:   -8.99 KCAL/MOL
REMARK 923 INTER-LIGAND FREE ENERGY PREDICTED BY IDOCK:   -8.37 KCAL/MOL
REMARK 924 INTRA-LIGAND FREE ENERGY PREDICTED BY IDOCK:   -0.62 KCAL/MOL
REMARK 927      BINDING AFFINITY PREDICTED BY RF-SCORE:    0.00 PKD
ROOT
HETATM    1  O   UNL     1     -12.732  12.243  65.071  1.00  0.00    -0.581 OA 
HETATM    2  C   UNL     1     -11.526  12.945  65.402  1.00  0.00    -0.324 C  
HETATM    3  H   UNL     1     -12.556  11.310  65.080  1.00  0.00     0.000 HD 
ENDROOT
BRANCH   2   4
HETATM    4  C   UNL     1     -11.812  14.457  65.386  1.00  0.00    -0.366 C  
BRANCH   4   5
HETATM    5  N   UNL     1     -10.724  15.192  64.719  1.00  0.00    -0.582 NA 
HETATM    6  H   UNL     1     -11.076  15.827  64.002  1.00  0.00     0.000 HD 
BRANCH   5   7
HETATM    7  C   UNL     1      -9.903  15.888  65.716  1.00  0.00    -0.345 C  
BRANCH   7   8
HETATM    8  C   UNL     1     -10.472  17.276  66.029  1.00  0.00    -0.282 C  
BRANCH   8   9
HETATM    9  N   UNL     1     -10.189  17.640  67.402  1.00  0.00    -0.332 N  
HETATM   10  H   UNL     1     -10.349  16.948  68.133  1.00  0.00     0.000 HD 
BRANCH   9  11
HETATM   11  C   UNL     1      -9.717  18.871  67.759  1.00  0.00    -0.323 C  
HETATM   12  O   UNL     1     -10.474  19.766  68.130  1.00  0.00    -0.435 OA 
BRANCH  11  13
HETATM   13  N   UNL     1      -8.350  19.031  67.681  1.00  0.00    -0.283 N  
HETATM   14  C   UNL     1      -7.789  19.871  66.619  1.00  0.00    -0.309 C  
HETATM   15  C   UNL     1      -7.031  21.061  67.220  1.00  0.00    -0.364 C  
HETATM   16  O   UNL     1      -6.029  20.619  68.152  1.00  0.00    -0.255 OA 
HETATM   17  C   UNL     1      -6.624  19.866  69.218  1.00  0.00    -0.342 C  
HETATM   18  C   UNL     1      -7.351  18.629  68.677  1.00  0.00    -0.304 C  
ENDBRANCH  11  13
ENDBRANCH   9  11
ENDBRANCH   8   9
ENDBRANCH   7   8
ENDBRANCH   5   7
ENDBRANCH   4   5
ENDBRANCH   2   4
BRANCH   2  19
HETATM   19  C   UNL     1     -11.032  12.524  66.792  1.00  0.00    -0.265 C  
BRANCH  19  20
HETATM   20  O   UNL     1     -12.149  12.105  67.590  1.00  0.00    -0.522 OA 
BRANCH  20  21
HETATM   21  C   UNL     1     -11.834  11.244  68.606  1.00  0.00    -0.300 A  
HETATM   22  C   UNL     1     -10.992  10.183  68.264  1.00  0.00    -0.299 A  
HETATM   23  H   UNL     1     -11.009   8.605  72.405  1.00  0.00     0.000 HD 
HETATM   24  O   UNL     1     -10.705   8.506  71.511  1.00  0.00    -0.226 OA 
HETATM   25  C   UNL     1     -10.603   9.249  69.227  1.00  0.00    -0.234 A  
HETATM   26  C   UNL     1     -11.048   9.393  70.537  1.00  0.00    -0.273 A  
HETATM   27  C   UNL     1     -12.255  11.390  69.930  1.00  0.00    -0.346 A  
HETATM   28  C   UNL     1     -11.862  10.461  70.896  1.00  0.00    -0.475 A  
ENDBRANCH  20  21
ENDBRANCH  19  20
ENDBRANCH   2  19
TORSDOF 10
ENDMDL
MODEL      107
REMARK 921   NORMALIZED FREE ENERGY PREDICTED BY IDOCK:   -4.95 KCAL/MOL
REMARK 922        TOTAL FREE ENERGY PREDICTED BY IDOCK:   -8.99 KCAL/MOL
REMARK 923 INTER-LIGAND FREE ENERGY PREDICTED BY IDOCK:   -7.52 KCAL/MOL
REMARK 924 INTRA-LIGAND FREE ENERGY PREDICTED BY IDOCK:   -1.47 KCAL/MOL
REMARK 927      BINDING AFFINITY PREDICTED BY RF-SCORE:    0.00 PKD
ROOT
HETATM    1  O   UNL     1      -9.547  16.083  69.165  1.00  0.00    -0.231 OA 
HETATM    2  C   UNL     1     -10.773  16.737  68.810  1.00  0.00    -0.341 C  
HETATM    3  H   UNL     1      -9.561  15.890  70.095  1.00  0.00     0.000 HD 
ENDROOT
BRANCH   2   4
HETATM    4  C   UNL     1     -10.749  17.050  67.304  1.00  0.00    -0.206 C  
BRANCH   4   5
HETATM    5  N   UNL     1     -10.050  15.991  66.557  1.00  0.00    -0.273 NA 
HETATM    6  H   UNL     1      -9.744  15.232  67.166  1.00  0.00     0.000 HD 
BRANCH   5   7
HETATM    7  C   UNL     1     -10.895  15.509  65.459  1.00  0.00    -0.361 C  
BRANCH   7   8
HETATM    8  C   UNL     1     -10.809  13.984  65.324  1.00  0.00    -0.347 C  
BRANCH   8   9
HETATM    9  N   UNL     1      -9.477  13.522  65.657  1.00  0.00    -0.488 N  
HETATM   10  H   UNL     1      -8.733  13.646  64.971  1.00  0.00     0.000 HD 
BRANCH   9  11
HETATM   11  C   UNL     1      -9.176  12.928  66.849  1.00  0.00    -0.234 C  
HETATM   12  O   UNL     1      -9.057  13.586  67.882  1.00  0.00    -0.186 OA 
BRANCH  11  13
HETATM   13  N   UNL     1      -9.025  11.558  66.813  1.00  0.00    -0.175 N  
HETATM   14  C   UNL     1      -9.594  10.748  67.892  1.00  0.00    -0.160 C  
HETATM   15  C   UNL     1     -10.652   9.786  67.341  1.00  0.00    -0.267 C  
HETATM   16  O   UNL     1     -10.114   8.978  66.279  1.00  0.00    -0.295 OA 
HETATM   17  C   UNL     1      -9.637   9.803  65.207  1.00  0.00    -0.300 C  
HETATM   18  C   UNL     1      -8.533  10.750  65.692  1.00  0.00    -0.163 C  
ENDBRANCH  11  13
ENDBRANCH   9  11
ENDBRANCH   8   9
ENDBRANCH   7   8
ENDBRANCH   5   7
ENDBRANCH   4   5
ENDBRANCH   2   4
BRANCH   2  19
HETATM   19  C   UNL     1     -11.970  15.833  69.134  1.00  0.00    -0.296 C  
BRANCH  19  20
HETATM   20  O   UNL     1     -11.986  15.545  70.539  1.00  0.00    -0.313 OA 
BRANCH  20  21
HETATM   21  C   UNL     1     -12.371  14.270  70.857  1.00  0.00    -0.359 A  
HETATM   22  C   UNL     1     -11.838  13.258  70.055  1.00  0.00    -0.365 A  
HETATM   23  H   UNL     1     -13.932  10.099  72.352  1.00  0.00     0.000 HD 
HETATM   24  O   UNL     1     -13.356  10.316  71.630  1.00  0.00    -0.384 OA 
HETATM   25  C   UNL     1     -12.160  11.920  70.297  1.00  0.00    -0.409 A  
HETATM   26  C   UNL     1     -13.004  11.603  71.356  1.00  0.00    -0.324 A  
HETATM   27  C   UNL     1     -13.199  13.935  71.931  1.00  0.00    -0.480 A  
HETATM   28  C   UNL     1     -13.517  12.599  72.179  1.00  0.00    -0.561 A  
ENDBRANCH  20  21
ENDBRANCH  19  20
ENDBRANCH   2  19
TORSDOF 10
ENDMDL
MODEL      108
REMARK 921   NORMALIZED FREE ENERGY PREDICTED BY IDOCK:   -4.95 KCAL/MOL
REMARK 922        TOTAL FREE ENERGY PREDICTED BY IDOCK:   -8.98 KCAL/MOL
REMARK 923 INTER-LIGAND FREE ENERGY PREDICTED BY IDOCK:   -8.03 KCAL/MOL
REMARK 924 INTRA-LIGAND FREE ENERGY PREDICTED BY IDOCK:   -0.96 KCAL/MOL
REMARK 927      BINDING AFFINITY PREDICTED BY RF-SCORE:    0.00 PKD
ROOT
HETATM    1  O   UNL     1     -10.249   9.355  65.680  1.00  0.00    -0.331 OA 
HETATM    2  C   UNL     1      -9.214  10.262  66.084  1.00  0.00    -0.158 C  
HETATM    3  H   UNL     1     -10.040   8.488  66.007  1.00  0.00     0.000 HD 
ENDROOT
BRANCH   2   4
HETATM    4  C   UNL     1      -9.551  11.666  65.554  1.00  0.00    -0.218 C  
BRANCH   4   5
HETATM    5  N   UNL     1     -11.005  11.832  65.390  1.00  0.00    -0.305 NA 
HETATM    6  H   UNL     1     -11.421  12.344  66.168  1.00  0.00     0.000 HD 
BRANCH   5   7
HETATM    7  C   UNL     1     -11.295  12.464  64.098  1.00  0.00    -0.379 C  
BRANCH   7   8
HETATM    8  C   UNL     1     -11.703  13.931  64.279  1.00  0.00    -0.380 C  
BRANCH   8   9
HETATM    9  N   UNL     1     -10.604  14.696  64.833  1.00  0.00    -0.488 N  
HETATM   10  H   UNL     1      -9.758  14.200  65.115  1.00  0.00     0.000 HD 
BRANCH   9  11
HETATM   11  C   UNL     1     -10.653  16.051  64.994  1.00  0.00    -0.316 C  
HETATM   12  O   UNL     1     -11.281  16.768  64.217  1.00  0.00    -1.163 OA 
BRANCH  11  13
HETATM   13  N   UNL     1      -9.962  16.548  66.079  1.00  0.00    -0.331 N  
HETATM   14  C   UNL     1     -10.539  16.407  67.418  1.00  0.00    -0.306 C  
HETATM   15  C   UNL     1      -9.623  15.561  68.310  1.00  0.00    -0.201 C  
HETATM   16  O   UNL     1      -8.291  16.102  68.345  1.00  0.00    -0.166 OA 
HETATM   17  C   UNL     1      -7.730  16.153  67.026  1.00  0.00    -0.221 C  
HETATM   18  C   UNL     1      -8.579  17.036  66.102  1.00  0.00    -0.217 C  
ENDBRANCH  11  13
ENDBRANCH   9  11
ENDBRANCH   8   9
ENDBRANCH   7   8
ENDBRANCH   5   7
ENDBRANCH   4   5
ENDBRANCH   2   4
BRANCH   2  19
HETATM   19  C   UNL     1      -9.107  10.297  67.615  1.00  0.00    -0.137 C  
BRANCH  19  20
HETATM   20  O   UNL     1     -10.059  11.232  68.141  1.00  0.00    -0.172 OA 
BRANCH  20  21
HETATM   21  C   UNL     1     -10.773  10.776  69.217  1.00  0.00    -0.229 A  
HETATM   22  C   UNL     1     -11.693  11.676  69.759  1.00  0.00    -0.425 A  
HETATM   23  H   UNL     1     -12.994   8.760  72.832  1.00  0.00     0.000 HD 
HETATM   24  O   UNL     1     -13.083   9.631  72.465  1.00  0.00    -0.360 OA 
HETATM   25  C   UNL     1     -12.479  11.310  70.855  1.00  0.00    -0.493 A  
HETATM   26  C   UNL     1     -12.348  10.034  71.393  1.00  0.00    -0.415 A  
HETATM   27  C   UNL     1     -10.668   9.491  69.752  1.00  0.00    -0.259 A  
HETATM   28  C   UNL     1     -11.456   9.120  70.843  1.00  0.00    -0.357 A  
ENDBRANCH  20  21
ENDBRANCH  19  20
ENDBRANCH   2  19
TORSDOF 10
ENDMDL
MODEL      109
REMARK 921   NORMALIZED FREE ENERGY PREDICTED BY IDOCK:   -4.95 KCAL/MOL
REMARK 922        TOTAL FREE ENERGY PREDICTED BY IDOCK:   -8.98 KCAL/MOL
REMARK 923 INTER-LIGAND FREE ENERGY PREDICTED BY IDOCK:   -8.43 KCAL/MOL
REMARK 924 INTRA-LIGAND FREE ENERGY PREDICTED BY IDOCK:   -0.55 KCAL/MOL
REMARK 927      BINDING AFFINITY PREDICTED BY RF-SCORE:    0.00 PKD
ROOT
HETATM    1  O   UNL     1     -12.340  10.907  68.331  1.00  0.00    -0.803 OA 
HETATM    2  C   UNL     1     -11.157  10.274  67.826  1.00  0.00    -0.269 C  
HETATM    3  H   UNL     1     -12.777  10.310  68.926  1.00  0.00     0.000 HD 
ENDROOT
BRANCH   2   4
HETATM    4  C   UNL     1     -10.450  11.241  66.861  1.00  0.00    -0.245 C  
BRANCH   4   5
HETATM    5  N   UNL     1     -11.376  12.282  66.387  1.00  0.00    -0.335 NA 
HETATM    6  H   UNL     1     -12.309  12.175  66.785  1.00  0.00     0.000 HD 
BRANCH   5   7
HETATM    7  C   UNL     1     -10.815  13.612  66.651  1.00  0.00    -0.283 C  
BRANCH   7   8
HETATM    8  C   UNL     1     -10.501  14.349  65.344  1.00  0.00    -0.373 C  
BRANCH   8   9
HETATM    9  N   UNL     1      -9.941  15.656  65.623  1.00  0.00    -0.347 N  
HETATM   10  H   UNL     1      -9.017  15.709  66.051  1.00  0.00     0.000 HD 
BRANCH   9  11
HETATM   11  C   UNL     1     -10.598  16.819  65.336  1.00  0.00    -0.203 C  
HETATM   12  O   UNL     1     -11.261  16.945  64.308  1.00  0.00    -1.204 OA 
BRANCH  11  13
HETATM   13  N   UNL     1     -10.471  17.822  66.273  1.00  0.00    -0.343 N  
HETATM   14  C   UNL     1     -10.105  17.473  67.648  1.00  0.00    -0.328 C  
HETATM   15  C   UNL     1      -8.770  18.124  68.029  1.00  0.00    -0.269 C  
HETATM   16  O   UNL     1      -8.808  19.546  67.821  1.00  0.00    -0.304 OA 
HETATM   17  C   UNL     1      -9.093  19.849  66.447  1.00  0.00    -0.369 C  
HETATM   18  C   UNL     1     -10.449  19.268  66.027  1.00  0.00    -0.487 C  
ENDBRANCH  11  13
ENDBRANCH   9  11
ENDBRANCH   8   9
ENDBRANCH   7   8
ENDBRANCH   5   7
ENDBRANCH   4   5
ENDBRANCH   2   4
BRANCH   2  19
HETATM   19  C   UNL     1     -10.215   9.911  68.982  1.00  0.00    -0.200 C  
BRANCH  19  20
HETATM   20  O   UNL     1     -10.117   8.484  69.090  1.00  0.00    -0.192 OA 
BRANCH  20  21
HETATM   21  C   UNL     1     -10.220   7.999  70.366  1.00  0.00    -0.201 A  
HETATM   22  C   UNL     1     -10.099   8.945  71.386  1.00  0.00    -0.379 A  
HETATM   23  H   UNL     1     -10.685   5.881  74.534  1.00  0.00     0.000 HD 
HETATM   24  O   UNL     1     -10.525   6.793  74.323  1.00  0.00    -0.338 OA 
HETATM   25  C   UNL     1     -10.196   8.559  72.726  1.00  0.00    -0.147 A  
HETATM   26  C   UNL     1     -10.431   7.223  73.035  1.00  0.00    -0.310 A  
HETATM   27  C   UNL     1     -10.478   6.666  70.690  1.00  0.00    -0.253 A  
HETATM   28  C   UNL     1     -10.582   6.278  72.027  1.00  0.00    -0.253 A  
ENDBRANCH  20  21
ENDBRANCH  19  20
ENDBRANCH   2  19
TORSDOF 10
ENDMDL
MODEL      110
REMARK 921   NORMALIZED FREE ENERGY PREDICTED BY IDOCK:   -4.94 KCAL/MOL
REMARK 922        TOTAL FREE ENERGY PREDICTED BY IDOCK:   -8.96 KCAL/MOL
REMARK 923 INTER-LIGAND FREE ENERGY PREDICTED BY IDOCK:   -8.09 KCAL/MOL
REMARK 924 INTRA-LIGAND FREE ENERGY PREDICTED BY IDOCK:   -0.87 KCAL/MOL
REMARK 927      BINDING AFFINITY PREDICTED BY RF-SCORE:    0.00 PKD
ROOT
HETATM    1  O   UNL     1      -7.701   9.695  63.086  1.00  0.00    -0.119 OA 
HETATM    2  C   UNL     1      -8.556  10.199  64.122  1.00  0.00    -0.187 C  
HETATM    3  H   UNL     1      -6.935   9.300  63.486  1.00  0.00     0.000 HD 
ENDROOT
BRANCH   2   4
HETATM    4  C   UNL     1      -9.796  10.838  63.474  1.00  0.00    -0.347 C  
BRANCH   4   5
HETATM    5  N   UNL     1     -10.242  12.014  64.239  1.00  0.00    -0.302 NA 
HETATM    6  H   UNL     1      -9.676  12.838  64.039  1.00  0.00     0.000 HD 
BRANCH   5   7
HETATM    7  C   UNL     1     -11.670  12.256  64.000  1.00  0.00    -0.425 C  
BRANCH   7   8
HETATM    8  C   UNL     1     -12.062  13.684  64.397  1.00  0.00    -0.427 C  
BRANCH   8   9
HETATM    9  N   UNL     1     -10.885  14.523  64.493  1.00  0.00    -0.621 N  
HETATM   10  H   UNL     1      -9.987  14.138  64.201  1.00  0.00     0.000 HD 
BRANCH   9  11
HETATM   11  C   UNL     1     -10.927  15.807  64.956  1.00  0.00    -0.417 C  
HETATM   12  O   UNL     1     -11.482  16.701  64.320  1.00  0.00    -1.075 OA 
BRANCH  11  13
HETATM   13  N   UNL     1     -10.317  16.023  66.174  1.00  0.00    -0.313 N  
HETATM   14  C   UNL     1      -8.898  16.383  66.208  1.00  0.00    -0.332 C  
HETATM   15  C   UNL     1      -8.711  17.768  66.838  1.00  0.00    -0.248 C  
HETATM   16  O   UNL     1      -9.321  17.832  68.139  1.00  0.00    -0.265 OA 
HETATM   17  C   UNL     1     -10.725  17.549  68.055  1.00  0.00    -0.341 C  
HETATM   18  C   UNL     1     -10.970  16.148  67.482  1.00  0.00    -0.238 C  
ENDBRANCH  11  13
ENDBRANCH   9  11
ENDBRANCH   8   9
ENDBRANCH   7   8
ENDBRANCH   5   7
ENDBRANCH   4   5
ENDBRANCH   2   4
BRANCH   2  19
HETATM   19  C   UNL     1      -8.987   9.059  65.054  1.00  0.00    -0.147 C  
BRANCH  19  20
HETATM   20  O   UNL     1      -9.868   9.572  66.063  1.00  0.00    -0.252 OA 
BRANCH  20  21
HETATM   21  C   UNL     1     -10.172   8.686  67.062  1.00  0.00    -0.290 A  
HETATM   22  C   UNL     1     -10.190   9.212  68.355  1.00  0.00    -0.230 A  
HETATM   23  H   UNL     1     -11.300   5.300  70.116  1.00  0.00     0.000 HD 
HETATM   24  O   UNL     1     -11.094   6.215  70.262  1.00  0.00    -0.317 OA 
HETATM   25  C   UNL     1     -10.495   8.396  69.447  1.00  0.00    -0.222 A  
HETATM   26  C   UNL     1     -10.798   7.055  69.233  1.00  0.00    -0.214 A  
HETATM   27  C   UNL     1     -10.499   7.344  66.858  1.00  0.00    -0.379 A  
HETATM   28  C   UNL     1     -10.812   6.527  67.946  1.00  0.00    -0.383 A  
ENDBRANCH  20  21
ENDBRANCH  19  20
ENDBRANCH   2  19
TORSDOF 10
ENDMDL
MODEL      111
REMARK 921   NORMALIZED FREE ENERGY PREDICTED BY IDOCK:   -4.93 KCAL/MOL
REMARK 922        TOTAL FREE ENERGY PREDICTED BY IDOCK:   -8.95 KCAL/MOL
REMARK 923 INTER-LIGAND FREE ENERGY PREDICTED BY IDOCK:   -7.98 KCAL/MOL
REMARK 924 INTRA-LIGAND FREE ENERGY PREDICTED BY IDOCK:   -0.97 KCAL/MOL
REMARK 927      BINDING AFFINITY PREDICTED BY RF-SCORE:    0.00 PKD
ROOT
HETATM    1  O   UNL     1     -10.267  10.539  65.838  1.00  0.00    -0.253 OA 
HETATM    2  C   UNL     1     -10.304  11.721  66.649  1.00  0.00    -0.218 C  
HETATM    3  H   UNL     1     -10.279   9.777  66.405  1.00  0.00     0.000 HD 
ENDROOT
BRANCH   2   4
HETATM    4  C   UNL     1     -10.283  12.954  65.729  1.00  0.00    -0.288 C  
BRANCH   4   5
HETATM    5  N   UNL     1     -10.339  14.198  66.514  1.00  0.00    -0.279 NA 
HETATM    6  H   UNL     1     -11.028  14.146  67.264  1.00  0.00     0.000 HD 
BRANCH   5   7
HETATM    7  C   UNL     1      -9.002  14.534  67.019  1.00  0.00    -0.240 C  
BRANCH   7   8
HETATM    8  C   UNL     1      -9.025  14.767  68.533  1.00  0.00    -0.182 C  
BRANCH   8   9
HETATM    9  N   UNL     1      -9.182  16.178  68.825  1.00  0.00    -0.213 N  
HETATM   10  H   UNL     1     -10.068  16.500  69.213  1.00  0.00     0.000 HD 
BRANCH   9  11
HETATM   11  C   UNL     1      -8.193  17.094  68.602  1.00  0.00    -0.255 C  
HETATM   12  O   UNL     1      -7.050  16.919  69.019  1.00  0.00    -0.214 OA 
BRANCH  11  13
HETATM   13  N   UNL     1      -8.564  18.208  67.880  1.00  0.00    -0.250 N  
HETATM   14  C   UNL     1      -8.986  18.048  66.486  1.00  0.00    -0.265 C  
HETATM   15  C   UNL     1     -10.438  18.508  66.309  1.00  0.00    -0.406 C  
HETATM   16  O   UNL     1     -10.615  19.856  66.780  1.00  0.00    -0.461 OA 
HETATM   17  C   UNL     1     -10.265  19.957  68.168  1.00  0.00    -0.432 C  
HETATM   18  C   UNL     1      -8.801  19.561  68.396  1.00  0.00    -0.342 C  
ENDBRANCH  11  13
ENDBRANCH   9  11
ENDBRANCH   8   9
ENDBRANCH   7   8
ENDBRANCH   5   7
ENDBRANCH   4   5
ENDBRANCH   2   4
BRANCH   2  19
HETATM   19  C   UNL     1     -11.576  11.735  67.507  1.00  0.00    -0.291 C  
BRANCH  19  20
HETATM   20  O   UNL     1     -11.256  11.323  68.844  1.00  0.00    -0.209 OA 
BRANCH  20  21
HETATM   21  C   UNL     1     -11.907  12.018  69.827  1.00  0.00    -0.331 A  
HETATM   22  C   UNL     1     -12.467  11.245  70.847  1.00  0.00    -0.493 A  
HETATM   23  H   UNL     1     -13.981  14.830  72.968  1.00  0.00     0.000 HD 
HETATM   24  O   UNL     1     -13.912  13.883  72.943  1.00  0.00    -0.627 OA 
HETATM   25  C   UNL     1     -13.149  11.854  71.904  1.00  0.00    -0.474 A  
HETATM   26  C   UNL     1     -13.251  13.241  71.940  1.00  0.00    -0.431 A  
HETATM   27  C   UNL     1     -11.998  13.410  69.888  1.00  0.00    -0.408 A  
HETATM   28  C   UNL     1     -12.672  14.022  70.946  1.00  0.00    -0.420 A  
ENDBRANCH  20  21
ENDBRANCH  19  20
ENDBRANCH   2  19
TORSDOF 10
ENDMDL
MODEL      112
REMARK 921   NORMALIZED FREE ENERGY PREDICTED BY IDOCK:   -4.92 KCAL/MOL
REMARK 922        TOTAL FREE ENERGY PREDICTED BY IDOCK:   -8.94 KCAL/MOL
REMARK 923 INTER-LIGAND FREE ENERGY PREDICTED BY IDOCK:   -7.52 KCAL/MOL
REMARK 924 INTRA-LIGAND FREE ENERGY PREDICTED BY IDOCK:   -1.42 KCAL/MOL
REMARK 927      BINDING AFFINITY PREDICTED BY RF-SCORE:    0.00 PKD
ROOT
HETATM    1  O   UNL     1     -10.023  13.224  63.915  1.00  0.00    -0.753 OA 
HETATM    2  C   UNL     1     -11.368  13.616  64.227  1.00  0.00    -0.350 C  
HETATM    3  H   UNL     1      -9.673  13.822  63.266  1.00  0.00     0.000 HD 
ENDROOT
BRANCH   2   4
HETATM    4  C   UNL     1     -11.935  12.648  65.278  1.00  0.00    -0.439 C  
BRANCH   4   5
HETATM    5  N   UNL     1     -12.138  13.329  66.567  1.00  0.00    -0.393 NA 
HETATM    6  H   UNL     1     -13.088  13.690  66.663  1.00  0.00     0.000 HD 
BRANCH   5   7
HETATM    7  C   UNL     1     -11.776  12.434  67.671  1.00  0.00    -0.346 C  
BRANCH   7   8
HETATM    8  C   UNL     1     -10.321  12.650  68.104  1.00  0.00    -0.234 C  
BRANCH   8   9
HETATM    9  N   UNL     1      -9.949  11.689  69.122  1.00  0.00    -0.418 N  
HETATM   10  H   UNL     1      -9.473  12.025  69.959  1.00  0.00     0.000 HD 
BRANCH   9  11
HETATM   11  C   UNL     1     -10.208  10.353  69.008  1.00  0.00    -0.217 C  
HETATM   12  O   UNL     1     -11.034   9.795  69.728  1.00  0.00    -0.237 OA 
BRANCH  11  13
HETATM   13  N   UNL     1      -9.490   9.687  68.037  1.00  0.00    -0.132 N  
HETATM   14  C   UNL     1     -10.199   9.125  66.885  1.00  0.00    -0.266 C  
HETATM   15  C   UNL     1      -9.711   9.775  65.585  1.00  0.00    -0.288 C  
HETATM   16  O   UNL     1      -8.283   9.662  65.454  1.00  0.00    -0.120 OA 
HETATM   17  C   UNL     1      -7.621  10.290  66.561  1.00  0.00    -0.113 C  
HETATM   18  C   UNL     1      -8.032   9.639  67.888  1.00  0.00    -0.098 C  
ENDBRANCH  11  13
ENDBRANCH   9  11
ENDBRANCH   8   9
ENDBRANCH   7   8
ENDBRANCH   5   7
ENDBRANCH   4   5
ENDBRANCH   2   4
BRANCH   2  19
HETATM   19  C   UNL     1     -11.388  15.049  64.776  1.00  0.00    -0.406 C  
BRANCH  19  20
HETATM   20  O   UNL     1     -10.133  15.338  65.407  1.00  0.00    -0.354 OA 
BRANCH  20  21
HETATM   21  C   UNL     1     -10.145  16.433  66.229  1.00  0.00    -0.331 A  
HETATM   22  C   UNL     1     -10.404  17.656  65.606  1.00  0.00    -0.120 A  
HETATM   23  H   UNL     1     -10.128  19.863  69.440  1.00  0.00     0.000 HD 
HETATM   24  O   UNL     1     -10.266  19.901  68.501  1.00  0.00    -0.442 OA 
HETATM   25  C   UNL     1     -10.446  18.836  66.354  1.00  0.00    -0.485 A  
HETATM   26  C   UNL     1     -10.244  18.780  67.729  1.00  0.00    -0.394 A  
HETATM   27  C   UNL     1      -9.966  16.388  67.613  1.00  0.00    -0.252 A  
HETATM   28  C   UNL     1     -10.014  17.565  68.363  1.00  0.00    -0.335 A  
ENDBRANCH  20  21
ENDBRANCH  19  20
ENDBRANCH   2  19
TORSDOF 10
ENDMDL
MODEL      113
REMARK 921   NORMALIZED FREE ENERGY PREDICTED BY IDOCK:   -4.92 KCAL/MOL
REMARK 922        TOTAL FREE ENERGY PREDICTED BY IDOCK:   -8.94 KCAL/MOL
REMARK 923 INTER-LIGAND FREE ENERGY PREDICTED BY IDOCK:   -8.19 KCAL/MOL
REMARK 924 INTRA-LIGAND FREE ENERGY PREDICTED BY IDOCK:   -0.75 KCAL/MOL
REMARK 927      BINDING AFFINITY PREDICTED BY RF-SCORE:    0.00 PKD
ROOT
HETATM    1  O   UNL     1     -13.624  14.726  73.085  1.00  0.00    -0.552 OA 
HETATM    2  C   UNL     1     -13.587  14.026  71.833  1.00  0.00    -0.435 C  
HETATM    3  H   UNL     1     -14.388  14.440  73.573  1.00  0.00     0.000 HD 
ENDROOT
BRANCH   2   4
HETATM    4  C   UNL     1     -12.351  14.490  71.043  1.00  0.00    -0.347 C  
BRANCH   4   5
HETATM    5  N   UNL     1     -12.650  14.580  69.604  1.00  0.00    -0.565 NA 
HETATM    6  H   UNL     1     -13.638  14.764  69.430  1.00  0.00     0.000 HD 
BRANCH   5   7
HETATM    7  C   UNL     1     -11.784  15.584  68.974  1.00  0.00    -0.377 C  
BRANCH   7   8
HETATM    8  C   UNL     1     -11.406  15.170  67.547  1.00  0.00    -0.320 C  
BRANCH   8   9
HETATM    9  N   UNL     1     -10.746  16.262  66.862  1.00  0.00    -0.267 N  
HETATM   10  H   UNL     1     -10.925  16.394  65.867  1.00  0.00     0.000 HD 
BRANCH   9  11
HETATM   11  C   UNL     1      -9.894  17.123  67.493  1.00  0.00    -0.266 C  
HETATM   12  O   UNL     1     -10.277  18.215  67.910  1.00  0.00    -0.342 OA 
BRANCH  11  13
HETATM   13  N   UNL     1      -8.595  16.683  67.632  1.00  0.00    -0.198 N  
HETATM   14  C   UNL     1      -7.731  16.620  66.450  1.00  0.00    -0.293 C  
HETATM   15  C   UNL     1      -6.525  17.552  66.617  1.00  0.00    -0.217 C  
HETATM   16  O   UNL     1      -5.810  17.261  67.830  1.00  0.00    -0.119 OA 
HETATM   17  C   UNL     1      -6.667  17.407  68.971  1.00  0.00    -0.243 C  
HETATM   18  C   UNL     1      -7.865  16.454  68.884  1.00  0.00    -0.234 C  
ENDBRANCH  11  13
ENDBRANCH   9  11
ENDBRANCH   8   9
ENDBRANCH   7   8
ENDBRANCH   5   7
ENDBRANCH   4   5
ENDBRANCH   2   4
BRANCH   2  19
HETATM   19  C   UNL     1     -13.512  12.512  72.074  1.00  0.00    -0.387 C  
BRANCH  19  20
HETATM   20  O   UNL     1     -12.559  11.931  71.173  1.00  0.00    -0.372 OA 
BRANCH  20  21
HETATM   21  C   UNL     1     -12.468  10.566  71.240  1.00  0.00    -0.419 A  
HETATM   22  C   UNL     1     -11.398   9.995  70.548  1.00  0.00    -0.409 A  
HETATM   23  H   UNL     1     -12.550   5.903  71.799  1.00  0.00     0.000 HD 
HETATM   24  O   UNL     1     -11.950   6.452  71.309  1.00  0.00    -0.326 OA 
HETATM   25  C   UNL     1     -11.207   8.611  70.557  1.00  0.00    -0.266 A  
HETATM   26  C   UNL     1     -12.086   7.806  71.275  1.00  0.00    -0.306 A  
HETATM   27  C   UNL     1     -13.329   9.749  71.976  1.00  0.00    -0.547 A  
HETATM   28  C   UNL     1     -13.137   8.366  71.991  1.00  0.00    -0.379 A  
ENDBRANCH  20  21
ENDBRANCH  19  20
ENDBRANCH   2  19
TORSDOF 10
ENDMDL
MODEL      114
REMARK 921   NORMALIZED FREE ENERGY PREDICTED BY IDOCK:   -4.92 KCAL/MOL
REMARK 922        TOTAL FREE ENERGY PREDICTED BY IDOCK:   -8.94 KCAL/MOL
REMARK 923 INTER-LIGAND FREE ENERGY PREDICTED BY IDOCK:   -8.33 KCAL/MOL
REMARK 924 INTRA-LIGAND FREE ENERGY PREDICTED BY IDOCK:   -0.61 KCAL/MOL
REMARK 927      BINDING AFFINITY PREDICTED BY RF-SCORE:    0.00 PKD
ROOT
HETATM    1  O   UNL     1     -13.853   9.635  72.558  1.00  0.00    -0.664 OA 
HETATM    2  C   UNL     1     -13.250  10.413  71.515  1.00  0.00    -0.386 C  
HETATM    3  H   UNL     1     -13.966   8.744  72.249  1.00  0.00     0.000 HD 
ENDROOT
BRANCH   2   4
HETATM    4  C   UNL     1     -13.067  11.856  72.015  1.00  0.00    -0.336 C  
BRANCH   4   5
HETATM    5  N   UNL     1     -12.424  12.692  70.988  1.00  0.00    -0.335 NA 
HETATM    6  H   UNL     1     -12.875  12.594  70.078  1.00  0.00     0.000 HD 
BRANCH   5   7
HETATM    7  C   UNL     1     -12.380  14.090  71.433  1.00  0.00    -0.326 C  
BRANCH   7   8
HETATM    8  C   UNL     1     -12.654  15.049  70.269  1.00  0.00    -0.317 C  
BRANCH   8   9
HETATM    9  N   UNL     1     -12.038  14.557  69.053  1.00  0.00    -0.506 N  
HETATM   10  H   UNL     1     -11.998  13.550  68.900  1.00  0.00     0.000 HD 
BRANCH   9  11
HETATM   11  C   UNL     1     -11.511  15.385  68.104  1.00  0.00    -0.343 C  
HETATM   12  O   UNL     1     -11.237  16.558  68.355  1.00  0.00    -0.359 OA 
BRANCH  11  13
HETATM   13  N   UNL     1     -11.305  14.817  66.864  1.00  0.00    -0.352 N  
HETATM   14  C   UNL     1     -12.058  13.616  66.496  1.00  0.00    -0.423 C  
HETATM   15  C   UNL     1     -12.940  13.889  65.272  1.00  0.00    -0.297 C  
HETATM   16  O   UNL     1     -12.161  14.402  64.177  1.00  0.00    -0.540 OA 
HETATM   17  C   UNL     1     -11.501  15.619  64.550  1.00  0.00    -0.300 C  
HETATM   18  C   UNL     1     -10.559  15.391  65.739  1.00  0.00    -0.348 C  
ENDBRANCH  11  13
ENDBRANCH   9  11
ENDBRANCH   8   9
ENDBRANCH   7   8
ENDBRANCH   5   7
ENDBRANCH   4   5
ENDBRANCH   2   4
BRANCH   2  19
HETATM   19  C   UNL     1     -11.888   9.820  71.130  1.00  0.00    -0.382 C  
BRANCH  19  20
HETATM   20  O   UNL     1     -11.496   8.847  72.109  1.00  0.00    -0.362 OA 
BRANCH  20  21
HETATM   21  C   UNL     1     -11.039   7.665  71.590  1.00  0.00    -0.239 A  
HETATM   22  C   UNL     1     -10.080   6.998  72.353  1.00  0.00    -0.193 A  
HETATM   23  H   UNL     1      -9.823   3.672  69.436  1.00  0.00     0.000 HD 
HETATM   24  O   UNL     1      -9.515   4.048  70.251  1.00  0.00    -0.150 OA 
HETATM   25  C   UNL     1      -9.551   5.779  71.918  1.00  0.00    -0.172 A  
HETATM   26  C   UNL     1     -10.003   5.228  70.724  1.00  0.00    -0.211 A  
HETATM   27  C   UNL     1     -11.500   7.090  70.404  1.00  0.00    -0.355 A  
HETATM   28  C   UNL     1     -10.979   5.869  69.970  1.00  0.00    -0.430 A  
ENDBRANCH  20  21
ENDBRANCH  19  20
ENDBRANCH   2  19
TORSDOF 10
ENDMDL
MODEL      115
REMARK 921   NORMALIZED FREE ENERGY PREDICTED BY IDOCK:   -4.92 KCAL/MOL
REMARK 922        TOTAL FREE ENERGY PREDICTED BY IDOCK:   -8.93 KCAL/MOL
REMARK 923 INTER-LIGAND FREE ENERGY PREDICTED BY IDOCK:   -7.53 KCAL/MOL
REMARK 924 INTRA-LIGAND FREE ENERGY PREDICTED BY IDOCK:   -1.40 KCAL/MOL
REMARK 927      BINDING AFFINITY PREDICTED BY RF-SCORE:    0.00 PKD
ROOT
HETATM    1  O   UNL     1      -8.651   8.699  67.095  1.00  0.00    -0.119 OA 
HETATM    2  C   UNL     1      -8.070   8.547  68.398  1.00  0.00    -0.122 C  
HETATM    3  H   UNL     1      -9.112   7.900  66.870  1.00  0.00     0.000 HD 
ENDROOT
BRANCH   2   4
HETATM    4  C   UNL     1      -7.323   9.842  68.761  1.00  0.00    -0.074 C  
BRANCH   4   5
HETATM    5  N   UNL     1      -8.116  11.028  68.396  1.00  0.00    -0.127 NA 
HETATM    6  H   UNL     1      -8.279  11.639  69.196  1.00  0.00     0.000 HD 
BRANCH   5   7
HETATM    7  C   UNL     1      -7.474  11.737  67.283  1.00  0.00    -0.151 C  
BRANCH   7   8
HETATM    8  C   UNL     1      -8.462  12.681  66.587  1.00  0.00     0.029 C  
BRANCH   8   9
HETATM    9  N   UNL     1      -9.356  11.932  65.727  1.00  0.00    -0.365 N  
HETATM   10  H   UNL     1      -9.044  11.697  64.785  1.00  0.00     0.000 HD 
BRANCH   9  11
HETATM   11  C   UNL     1     -10.598  11.527  66.125  1.00  0.00    -0.266 C  
HETATM   12  O   UNL     1     -10.746  10.661  66.985  1.00  0.00    -0.257 OA 
BRANCH  11  13
HETATM   13  N   UNL     1     -11.657  12.157  65.506  1.00  0.00    -0.360 N  
HETATM   14  C   UNL     1     -12.171  13.409  66.068  1.00  0.00    -0.437 C  
HETATM   15  C   UNL     1     -12.015  14.553  65.061  1.00  0.00    -0.399 C  
HETATM   16  O   UNL     1     -12.635  14.226  63.805  1.00  0.00    -0.821 OA 
HETATM   17  C   UNL     1     -12.053  13.038  63.247  1.00  0.00    -0.422 C  
HETATM   18  C   UNL     1     -12.231  11.844  64.193  1.00  0.00    -0.281 C  
ENDBRANCH  11  13
ENDBRANCH   9  11
ENDBRANCH   8   9
ENDBRANCH   7   8
ENDBRANCH   5   7
ENDBRANCH   4   5
ENDBRANCH   2   4
BRANCH   2  19
HETATM   19  C   UNL     1      -9.164   8.269  69.437  1.00  0.00    -0.155 C  
BRANCH  19  20
HETATM   20  O   UNL     1      -9.617   9.508  69.999  1.00  0.00    -0.206 OA 
BRANCH  20  21
HETATM   21  C   UNL     1     -10.826   9.438  70.638  1.00  0.00    -0.283 A  
HETATM   22  C   UNL     1     -10.920   8.487  71.656  1.00  0.00    -0.362 A  
HETATM   23  H   UNL     1     -15.115   9.603  72.548  1.00  0.00     0.000 HD 
HETATM   24  O   UNL     1     -14.374   9.043  72.749  1.00  0.00    -0.596 OA 
HETATM   25  C   UNL     1     -12.107   8.336  72.377  1.00  0.00    -0.430 A  
HETATM   26  C   UNL     1     -13.192   9.155  72.082  1.00  0.00    -0.458 A  
HETATM   27  C   UNL     1     -11.915  10.269  70.368  1.00  0.00    -0.391 A  
HETATM   28  C   UNL     1     -13.101  10.125  71.091  1.00  0.00    -0.480 A  
ENDBRANCH  20  21
ENDBRANCH  19  20
ENDBRANCH   2  19
TORSDOF 10
ENDMDL
MODEL      116
REMARK 921   NORMALIZED FREE ENERGY PREDICTED BY IDOCK:   -4.91 KCAL/MOL
REMARK 922        TOTAL FREE ENERGY PREDICTED BY IDOCK:   -8.92 KCAL/MOL
REMARK 923 INTER-LIGAND FREE ENERGY PREDICTED BY IDOCK:   -7.99 KCAL/MOL
REMARK 924 INTRA-LIGAND FREE ENERGY PREDICTED BY IDOCK:   -0.93 KCAL/MOL
REMARK 927      BINDING AFFINITY PREDICTED BY RF-SCORE:    0.00 PKD
ROOT
HETATM    1  O   UNL     1     -12.956  14.128  66.057  1.00  0.00    -0.487 OA 
HETATM    2  C   UNL     1     -11.865  13.206  66.192  1.00  0.00    -0.401 C  
HETATM    3  H   UNL     1     -13.772  13.654  66.161  1.00  0.00     0.000 HD 
ENDROOT
BRANCH   2   4
HETATM    4  C   UNL     1     -10.543  13.974  66.023  1.00  0.00    -0.297 C  
BRANCH   4   5
HETATM    5  N   UNL     1      -9.392  13.124  66.373  1.00  0.00    -0.400 NA 
HETATM    6  H   UNL     1      -8.917  12.764  65.545  1.00  0.00     0.000 HD 
BRANCH   5   7
HETATM    7  C   UNL     1      -8.478  13.857  67.257  1.00  0.00    -0.200 C  
BRANCH   7   8
HETATM    8  C   UNL     1      -9.182  15.050  67.913  1.00  0.00    -0.182 C  
BRANCH   8   9
HETATM    9  N   UNL     1      -8.518  16.287  67.554  1.00  0.00    -0.166 N  
HETATM   10  H   UNL     1      -8.395  16.505  66.566  1.00  0.00     0.000 HD 
BRANCH   9  11
HETATM   11  C   UNL     1      -8.052  17.173  68.483  1.00  0.00    -0.260 C  
HETATM   12  O   UNL     1      -7.105  16.895  69.217  1.00  0.00    -0.237 OA 
BRANCH  11  13
HETATM   13  N   UNL     1      -8.706  18.386  68.533  1.00  0.00    -0.319 N  
HETATM   14  C   UNL     1      -7.952  19.615  68.276  1.00  0.00    -0.321 C  
HETATM   15  C   UNL     1      -8.507  20.338  67.044  1.00  0.00    -0.319 C  
HETATM   16  O   UNL     1      -9.918  20.583  67.179  1.00  0.00    -0.452 OA 
HETATM   17  C   UNL     1     -10.632  19.351  67.351  1.00  0.00    -0.488 C  
HETATM   18  C   UNL     1     -10.154  18.610  68.606  1.00  0.00    -0.368 C  
ENDBRANCH  11  13
ENDBRANCH   9  11
ENDBRANCH   8   9
ENDBRANCH   7   8
ENDBRANCH   5   7
ENDBRANCH   4   5
ENDBRANCH   2   4
BRANCH   2  19
HETATM   19  C   UNL     1     -11.904  12.537  67.572  1.00  0.00    -0.323 C  
BRANCH  19  20
HETATM   20  O   UNL     1     -11.509  11.163  67.450  1.00  0.00    -0.466 OA 
BRANCH  20  21
HETATM   21  C   UNL     1     -11.377  10.498  68.640  1.00  0.00    -0.252 A  
HETATM   22  C   UNL     1     -12.156  10.979  69.694  1.00  0.00    -0.411 A  
HETATM   23  H   UNL     1     -10.618   7.887  72.471  1.00  0.00     0.000 HD 
HETATM   24  O   UNL     1     -11.182   8.641  72.343  1.00  0.00    -0.357 OA 
HETATM   25  C   UNL     1     -12.103  10.369  70.950  1.00  0.00    -0.477 A  
HETATM   26  C   UNL     1     -11.277   9.266  71.137  1.00  0.00    -0.343 A  
HETATM   27  C   UNL     1     -10.569   9.376  68.836  1.00  0.00    -0.231 A  
HETATM   28  C   UNL     1     -10.519   8.760  70.088  1.00  0.00    -0.230 A  
ENDBRANCH  20  21
ENDBRANCH  19  20
ENDBRANCH   2  19
TORSDOF 10
ENDMDL
MODEL      117
REMARK 921   NORMALIZED FREE ENERGY PREDICTED BY IDOCK:   -4.91 KCAL/MOL
REMARK 922        TOTAL FREE ENERGY PREDICTED BY IDOCK:   -8.92 KCAL/MOL
REMARK 923 INTER-LIGAND FREE ENERGY PREDICTED BY IDOCK:   -7.95 KCAL/MOL
REMARK 924 INTRA-LIGAND FREE ENERGY PREDICTED BY IDOCK:   -0.96 KCAL/MOL
REMARK 927      BINDING AFFINITY PREDICTED BY RF-SCORE:    0.00 PKD
ROOT
HETATM    1  O   UNL     1     -11.862   7.728  73.228  1.00  0.00    -0.651 OA 
HETATM    2  C   UNL     1     -11.822   8.168  71.863  1.00  0.00    -0.317 C  
HETATM    3  H   UNL     1     -11.646   8.460  73.793  1.00  0.00     0.000 HD 
ENDROOT
BRANCH   2   4
HETATM    4  C   UNL     1     -12.172   6.982  70.949  1.00  0.00    -0.342 C  
BRANCH   4   5
HETATM    5  N   UNL     1     -11.009   6.097  70.766  1.00  0.00    -0.285 NA 
HETATM    6  H   UNL     1     -11.279   5.113  70.735  1.00  0.00     0.000 HD 
BRANCH   5   7
HETATM    7  C   UNL     1     -10.255   6.498  69.573  1.00  0.00    -0.186 C  
BRANCH   7   8
HETATM    8  C   UNL     1     -11.033   6.175  68.293  1.00  0.00    -0.308 C  
BRANCH   8   9
HETATM    9  N   UNL     1     -11.077   7.332  67.422  1.00  0.00    -0.575 N  
HETATM   10  H   UNL     1     -11.983   7.651  67.079  1.00  0.00     0.000 HD 
BRANCH   9  11
HETATM   11  C   UNL     1      -9.957   8.015  67.041  1.00  0.00    -0.254 C  
HETATM   12  O   UNL     1      -9.069   7.475  66.384  1.00  0.00    -0.162 OA 
BRANCH  11  13
HETATM   13  N   UNL     1      -9.899   9.335  67.436  1.00  0.00    -0.167 N  
HETATM   14  C   UNL     1      -8.613   9.901  67.848  1.00  0.00    -0.125 C  
HETATM   15  C   UNL     1      -8.213  11.054  66.920  1.00  0.00    -0.140 C  
HETATM   16  O   UNL     1      -9.250  12.049  66.854  1.00  0.00    -0.185 OA 
HETATM   17  C   UNL     1     -10.473  11.474  66.373  1.00  0.00    -0.250 C  
HETATM   18  C   UNL     1     -10.951  10.348  67.298  1.00  0.00    -0.240 C  
ENDBRANCH  11  13
ENDBRANCH   9  11
ENDBRANCH   8   9
ENDBRANCH   7   8
ENDBRANCH   5   7
ENDBRANCH   4   5
ENDBRANCH   2   4
BRANCH   2  19
HETATM   19  C   UNL     1     -12.827   9.307  71.644  1.00  0.00    -0.372 C  
BRANCH  19  20
HETATM   20  O   UNL     1     -12.271  10.267  70.734  1.00  0.00    -0.299 OA 
BRANCH  20  21
HETATM   21  C   UNL     1     -12.582  11.570  71.017  1.00  0.00    -0.357 A  
HETATM   22  C   UNL     1     -12.061  12.523  70.139  1.00  0.00    -0.368 A  
HETATM   23  H   UNL     1     -13.947  15.858  72.366  1.00  0.00     0.000 HD 
HETATM   24  O   UNL     1     -13.402  15.588  71.638  1.00  0.00    -0.454 OA 
HETATM   25  C   UNL     1     -12.323  13.882  70.333  1.00  0.00    -0.433 A  
HETATM   26  C   UNL     1     -13.123  14.277  71.400  1.00  0.00    -0.351 A  
HETATM   27  C   UNL     1     -13.402  11.979  72.072  1.00  0.00    -0.447 A  
HETATM   28  C   UNL     1     -13.671  13.335  72.263  1.00  0.00    -0.686 A  
ENDBRANCH  20  21
ENDBRANCH  19  20
ENDBRANCH   2  19
TORSDOF 10
ENDMDL
MODEL      118
REMARK 921   NORMALIZED FREE ENERGY PREDICTED BY IDOCK:   -4.90 KCAL/MOL
REMARK 922        TOTAL FREE ENERGY PREDICTED BY IDOCK:   -8.90 KCAL/MOL
REMARK 923 INTER-LIGAND FREE ENERGY PREDICTED BY IDOCK:   -7.77 KCAL/MOL
REMARK 924 INTRA-LIGAND FREE ENERGY PREDICTED BY IDOCK:   -1.13 KCAL/MOL
REMARK 927      BINDING AFFINITY PREDICTED BY RF-SCORE:    0.00 PKD
ROOT
HETATM    1  O   UNL     1     -11.199   7.720  69.207  1.00  0.00    -0.439 OA 
HETATM    2  C   UNL     1     -10.323   8.807  68.877  1.00  0.00    -0.212 C  
HETATM    3  H   UNL     1     -11.011   7.434  70.093  1.00  0.00     0.000 HD 
ENDROOT
BRANCH   2   4
HETATM    4  C   UNL     1     -10.628   9.270  67.442  1.00  0.00    -0.255 C  
BRANCH   4   5
HETATM    5  N   UNL     1      -9.563  10.152  66.936  1.00  0.00    -0.172 NA 
HETATM    6  H   UNL     1      -8.708   9.637  66.725  1.00  0.00     0.000 HD 
BRANCH   5   7
HETATM    7  C   UNL     1     -10.048  10.911  65.777  1.00  0.00    -0.252 C  
BRANCH   7   8
HETATM    8  C   UNL     1     -10.504  12.316  66.188  1.00  0.00    -0.240 C  
BRANCH   8   9
HETATM    9  N   UNL     1      -9.660  13.321  65.574  1.00  0.00    -0.497 N  
HETATM   10  H   UNL     1      -8.930  13.017  64.930  1.00  0.00     0.000 HD 
BRANCH   9  11
HETATM   11  C   UNL     1      -9.800  14.656  65.822  1.00  0.00    -0.328 C  
HETATM   12  O   UNL     1     -10.732  15.303  65.348  1.00  0.00    -0.337 OA 
BRANCH  11  13
HETATM   13  N   UNL     1      -8.838  15.216  66.637  1.00  0.00    -0.277 N  
HETATM   14  C   UNL     1      -8.313  16.544  66.312  1.00  0.00    -0.329 C  
HETATM   15  C   UNL     1      -8.620  17.534  67.442  1.00  0.00    -0.220 C  
HETATM   16  O   UNL     1      -8.129  17.047  68.704  1.00  0.00    -0.237 OA 
HETATM   17  C   UNL     1      -8.724  15.782  69.025  1.00  0.00    -0.237 C  
HETATM   18  C   UNL     1      -8.400  14.735  67.952  1.00  0.00    -0.149 C  
ENDBRANCH  11  13
ENDBRANCH   9  11
ENDBRANCH   8   9
ENDBRANCH   7   8
ENDBRANCH   5   7
ENDBRANCH   4   5
ENDBRANCH   2   4
BRANCH   2  19
HETATM   19  C   UNL     1     -10.530   9.971  69.854  1.00  0.00    -0.274 C  
BRANCH  19  20
HETATM   20  O   UNL     1     -11.417  10.936  69.269  1.00  0.00    -0.252 OA 
BRANCH  20  21
HETATM   21  C   UNL     1     -12.026  11.771  70.167  1.00  0.00    -0.339 A  
HETATM   22  C   UNL     1     -11.984  13.131  69.855  1.00  0.00    -0.387 A  
HETATM   23  H   UNL     1     -14.271  14.211  73.494  1.00  0.00     0.000 HD 
HETATM   24  O   UNL     1     -13.825  14.508  72.711  1.00  0.00    -0.540 OA 
HETATM   25  C   UNL     1     -12.582  14.070  70.701  1.00  0.00    -0.414 A  
HETATM   26  C   UNL     1     -13.235  13.634  71.849  1.00  0.00    -0.411 A  
HETATM   27  C   UNL     1     -12.705  11.346  71.311  1.00  0.00    -0.498 A  
HETATM   28  C   UNL     1     -13.308  12.280  72.154  1.00  0.00    -0.473 A  
ENDBRANCH  20  21
ENDBRANCH  19  20
ENDBRANCH   2  19
TORSDOF 10
ENDMDL
MODEL      119
REMARK 921   NORMALIZED FREE ENERGY PREDICTED BY IDOCK:   -4.87 KCAL/MOL
REMARK 922        TOTAL FREE ENERGY PREDICTED BY IDOCK:   -8.85 KCAL/MOL
REMARK 923 INTER-LIGAND FREE ENERGY PREDICTED BY IDOCK:   -7.36 KCAL/MOL
REMARK 924 INTRA-LIGAND FREE ENERGY PREDICTED BY IDOCK:   -1.49 KCAL/MOL
REMARK 927      BINDING AFFINITY PREDICTED BY RF-SCORE:    0.00 PKD
ROOT
HETATM    1  O   UNL     1     -14.262   8.808  73.517  1.00  0.00    -1.110 OA 
HETATM    2  C   UNL     1     -14.030   8.920  72.106  1.00  0.00    -0.456 C  
HETATM    3  H   UNL     1     -14.735   8.002  73.687  1.00  0.00     0.000 HD 
ENDROOT
BRANCH   2   4
HETATM    4  C   UNL     1     -13.264  10.225  71.832  1.00  0.00    -0.445 C  
BRANCH   4   5
HETATM    5  N   UNL     1     -13.085  10.437  70.385  1.00  0.00    -0.500 NA 
HETATM    6  H   UNL     1     -13.906  10.866  69.958  1.00  0.00     0.000 HD 
BRANCH   5   7
HETATM    7  C   UNL     1     -11.866  11.215  70.139  1.00  0.00    -0.365 C  
BRANCH   7   8
HETATM    8  C   UNL     1     -12.197  12.681  69.838  1.00  0.00    -0.168 C  
BRANCH   8   9
HETATM    9  N   UNL     1     -10.986  13.424  69.552  1.00  0.00    -0.454 N  
HETATM   10  H   UNL     1     -10.349  13.632  70.320  1.00  0.00     0.000 HD 
BRANCH   9  11
HETATM   11  C   UNL     1     -10.663  13.857  68.298  1.00  0.00    -0.251 C  
HETATM   12  O   UNL     1     -11.030  14.955  67.883  1.00  0.00    -0.268 OA 
BRANCH  11  13
HETATM   13  N   UNL     1      -9.900  12.989  67.545  1.00  0.00    -0.205 N  
HETATM   14  C   UNL     1      -8.482  12.818  67.870  1.00  0.00    -0.173 C  
HETATM   15  C   UNL     1      -8.194  11.366  68.270  1.00  0.00    -0.150 C  
HETATM   16  O   UNL     1      -8.633  10.452  67.250  1.00  0.00    -0.125 OA 
HETATM   17  C   UNL     1     -10.041  10.594  67.013  1.00  0.00    -0.211 C  
HETATM   18  C   UNL     1     -10.379  12.018  66.555  1.00  0.00    -0.210 C  
ENDBRANCH  11  13
ENDBRANCH   9  11
ENDBRANCH   8   9
ENDBRANCH   7   8
ENDBRANCH   5   7
ENDBRANCH   4   5
ENDBRANCH   2   4
BRANCH   2  19
HETATM   19  C   UNL     1     -13.211   7.722  71.607  1.00  0.00    -0.343 C  
BRANCH  19  20
HETATM   20  O   UNL     1     -11.812   8.032  71.683  1.00  0.00    -0.268 OA 
BRANCH  20  21
HETATM   21  C   UNL     1     -11.055   7.512  70.668  1.00  0.00    -0.265 A  
HETATM   22  C   UNL     1      -9.862   8.185  70.395  1.00  0.00    -0.188 A  
HETATM   23  H   UNL     1      -8.799   5.345  67.164  1.00  0.00     0.000 HD 
HETATM   24  O   UNL     1      -8.564   6.122  67.658  1.00  0.00    -0.108 OA 
HETATM   25  C   UNL     1      -9.011   7.735  69.383  1.00  0.00    -0.142 A  
HETATM   26  C   UNL     1      -9.354   6.597  68.659  1.00  0.00    -0.129 A  
HETATM   27  C   UNL     1     -11.376   6.359  69.949  1.00  0.00    -0.500 A  
HETATM   28  C   UNL     1     -10.525   5.902  68.942  1.00  0.00    -0.325 A  
ENDBRANCH  20  21
ENDBRANCH  19  20
ENDBRANCH   2  19
TORSDOF 10
ENDMDL
MODEL      120
REMARK 921   NORMALIZED FREE ENERGY PREDICTED BY IDOCK:   -4.83 KCAL/MOL
REMARK 922        TOTAL FREE ENERGY PREDICTED BY IDOCK:   -8.79 KCAL/MOL
REMARK 923 INTER-LIGAND FREE ENERGY PREDICTED BY IDOCK:   -7.35 KCAL/MOL
REMARK 924 INTRA-LIGAND FREE ENERGY PREDICTED BY IDOCK:   -1.44 KCAL/MOL
REMARK 927      BINDING AFFINITY PREDICTED BY RF-SCORE:    0.00 PKD
ROOT
HETATM    1  O   UNL     1      -9.899   7.661  66.058  1.00  0.00    -0.446 OA 
HETATM    2  C   UNL     1      -9.089   7.226  67.160  1.00  0.00    -0.130 C  
HETATM    3  H   UNL     1     -10.032   6.928  65.469  1.00  0.00     0.000 HD 
ENDROOT
BRANCH   2   4
HETATM    4  C   UNL     1      -8.872   8.413  68.114  1.00  0.00    -0.142 C  
BRANCH   4   5
HETATM    5  N   UNL     1     -10.004   9.352  68.052  1.00  0.00    -0.168 NA 
HETATM    6  H   UNL     1     -10.760   9.082  68.682  1.00  0.00     0.000 HD 
BRANCH   5   7
HETATM    7  C   UNL     1      -9.537  10.719  68.308  1.00  0.00    -0.166 C  
BRANCH   7   8
HETATM    8  C   UNL     1      -8.383  11.094  67.371  1.00  0.00    -0.135 C  
BRANCH   8   9
HETATM    9  N   UNL     1      -8.849  11.982  66.326  1.00  0.00    -0.365 N  
HETATM   10  H   UNL     1      -8.625  12.975  66.394  1.00  0.00     0.000 HD 
BRANCH   9  11
HETATM   11  C   UNL     1      -9.574  11.547  65.254  1.00  0.00    -0.218 C  
HETATM   12  O   UNL     1      -9.638  10.354  64.964  1.00  0.00    -0.231 OA 
BRANCH  11  13
HETATM   13  N   UNL     1     -10.226  12.528  64.537  1.00  0.00    -0.319 N  
HETATM   14  C   UNL     1     -10.954  12.159  63.321  1.00  0.00    -0.330 C  
HETATM   15  C   UNL     1     -12.446  12.480  63.470  1.00  0.00    -0.459 C  
HETATM   16  O   UNL     1     -12.645  13.859  63.827  1.00  0.00    -0.721 OA 
HETATM   17  C   UNL     1     -11.982  14.164  65.062  1.00  0.00    -0.408 C  
HETATM   18  C   UNL     1     -10.473  13.914  64.951  1.00  0.00    -0.426 C  
ENDBRANCH  11  13
ENDBRANCH   9  11
ENDBRANCH   8   9
ENDBRANCH   7   8
ENDBRANCH   5   7
ENDBRANCH   4   5
ENDBRANCH   2   4
BRANCH   2  19
HETATM   19  C   UNL     1      -9.782   6.079  67.907  1.00  0.00    -0.119 C  
BRANCH  19  20
HETATM   20  O   UNL     1     -10.943   6.580  68.583  1.00  0.00    -0.278 OA 
BRANCH  20  21
HETATM   21  C   UNL     1     -11.023   6.243  69.908  1.00  0.00    -0.370 A  
HETATM   22  C   UNL     1     -10.171   5.219  70.326  1.00  0.00    -0.345 A  
HETATM   23  H   UNL     1     -11.624   5.479  74.504  1.00  0.00     0.000 HD 
HETATM   24  O   UNL     1     -11.049   5.052  73.881  1.00  0.00    -0.285 OA 
HETATM   25  C   UNL     1     -10.166   4.801  71.659  1.00  0.00    -0.249 A  
HETATM   26  C   UNL     1     -11.008   5.426  72.572  1.00  0.00    -0.256 A  
HETATM   27  C   UNL     1     -11.847   6.877  70.840  1.00  0.00    -0.424 A  
HETATM   28  C   UNL     1     -11.840   6.467  72.174  1.00  0.00    -0.361 A  
ENDBRANCH  20  21
ENDBRANCH  19  20
ENDBRANCH   2  19
TORSDOF 10
ENDMDL
MODEL      121
REMARK 921   NORMALIZED FREE ENERGY PREDICTED BY IDOCK:   -4.83 KCAL/MOL
REMARK 922        TOTAL FREE ENERGY PREDICTED BY IDOCK:   -8.79 KCAL/MOL
REMARK 923 INTER-LIGAND FREE ENERGY PREDICTED BY IDOCK:   -8.03 KCAL/MOL
REMARK 924 INTRA-LIGAND FREE ENERGY PREDICTED BY IDOCK:   -0.76 KCAL/MOL
REMARK 927      BINDING AFFINITY PREDICTED BY RF-SCORE:    0.00 PKD
ROOT
HETATM    1  O   UNL     1      -9.404   8.506  65.454  1.00  0.00    -0.423 OA 
HETATM    2  C   UNL     1      -9.554   9.179  66.712  1.00  0.00    -0.195 C  
HETATM    3  H   UNL     1      -8.973   7.673  65.602  1.00  0.00     0.000 HD 
ENDROOT
BRANCH   2   4
HETATM    4  C   UNL     1     -10.250  10.529  66.472  1.00  0.00    -0.231 C  
BRANCH   4   5
HETATM    5  N   UNL     1     -10.654  10.670  65.063  1.00  0.00    -0.204 NA 
HETATM    6  H   UNL     1     -11.666  10.614  64.948  1.00  0.00     0.000 HD 
BRANCH   5   7
HETATM    7  C   UNL     1     -10.106  11.912  64.505  1.00  0.00    -0.271 C  
BRANCH   7   8
HETATM    8  C   UNL     1     -11.134  12.619  63.614  1.00  0.00    -0.443 C  
BRANCH   8   9
HETATM    9  N   UNL     1     -11.363  13.971  64.083  1.00  0.00    -0.605 N  
HETATM   10  H   UNL     1     -11.051  14.748  63.502  1.00  0.00     0.000 HD 
BRANCH   9  11
HETATM   11  C   UNL     1     -11.980  14.247  65.270  1.00  0.00    -0.389 C  
HETATM   12  O   UNL     1     -13.191  14.091  65.416  1.00  0.00    -0.761 OA 
BRANCH  11  13
HETATM   13  N   UNL     1     -11.157  14.701  66.279  1.00  0.00    -0.331 N  
HETATM   14  C   UNL     1     -10.155  15.726  65.976  1.00  0.00    -0.337 C  
HETATM   15  C   UNL     1     -10.422  16.996  66.792  1.00  0.00    -0.257 C  
HETATM   16  O   UNL     1     -10.493  16.702  68.199  1.00  0.00    -0.290 OA 
HETATM   17  C   UNL     1     -11.536  15.754  68.466  1.00  0.00    -0.379 C  
HETATM   18  C   UNL     1     -11.288  14.439  67.716  1.00  0.00    -0.312 C  
ENDBRANCH  11  13
ENDBRANCH   9  11
ENDBRANCH   8   9
ENDBRANCH   7   8
ENDBRANCH   5   7
ENDBRANCH   4   5
ENDBRANCH   2   4
BRANCH   2  19
HETATM   19  C   UNL     1     -10.391   8.326  67.673  1.00  0.00    -0.248 C  
BRANCH  19  20
HETATM   20  O   UNL     1     -10.656   9.072  68.869  1.00  0.00    -0.222 OA 
BRANCH  20  21
HETATM   21  C   UNL     1     -10.778   8.313  70.002  1.00  0.00    -0.239 A  
HETATM   22  C   UNL     1     -10.811   6.931  69.805  1.00  0.00    -0.295 A  
HETATM   23  H   UNL     1     -11.155   6.146  74.153  1.00  0.00     0.000 HD 
HETATM   24  O   UNL     1     -11.111   5.787  73.275  1.00  0.00    -0.263 OA 
HETATM   25  C   UNL     1     -10.926   6.063  70.894  1.00  0.00    -0.355 A  
HETATM   26  C   UNL     1     -10.990   6.588  72.181  1.00  0.00    -0.249 A  
HETATM   27  C   UNL     1     -10.820   8.826  71.300  1.00  0.00    -0.347 A  
HETATM   28  C   UNL     1     -10.928   7.961  72.391  1.00  0.00    -0.386 A  
ENDBRANCH  20  21
ENDBRANCH  19  20
ENDBRANCH   2  19
TORSDOF 10
ENDMDL
MODEL      122
REMARK 921   NORMALIZED FREE ENERGY PREDICTED BY IDOCK:   -4.82 KCAL/MOL
REMARK 922        TOTAL FREE ENERGY PREDICTED BY IDOCK:   -8.78 KCAL/MOL
REMARK 923 INTER-LIGAND FREE ENERGY PREDICTED BY IDOCK:   -7.92 KCAL/MOL
REMARK 924 INTRA-LIGAND FREE ENERGY PREDICTED BY IDOCK:   -0.86 KCAL/MOL
REMARK 927      BINDING AFFINITY PREDICTED BY RF-SCORE:    0.00 PKD
ROOT
HETATM    1  O   UNL     1     -13.410  12.131  64.316  1.00  0.00    -0.761 OA 
HETATM    2  C   UNL     1     -11.999  12.385  64.304  1.00  0.00    -0.410 C  
HETATM    3  H   UNL     1     -13.553  11.201  64.450  1.00  0.00     0.000 HD 
ENDROOT
BRANCH   2   4
HETATM    4  C   UNL     1     -11.768  13.890  64.085  1.00  0.00    -0.340 C  
BRANCH   4   5
HETATM    5  N   UNL     1     -10.452  14.302  64.603  1.00  0.00    -0.565 NA 
HETATM    6  H   UNL     1      -9.744  14.327  63.869  1.00  0.00     0.000 HD 
BRANCH   5   7
HETATM    7  C   UNL     1     -10.568  15.588  65.300  1.00  0.00    -0.424 C  
BRANCH   7   8
HETATM    8  C   UNL     1     -11.015  15.391  66.752  1.00  0.00    -0.282 C  
BRANCH   8   9
HETATM    9  N   UNL     1     -10.047  15.971  67.662  1.00  0.00    -0.241 N  
HETATM   10  H   UNL     1      -9.095  15.606  67.658  1.00  0.00     0.000 HD 
BRANCH   9  11
HETATM   11  C   UNL     1     -10.356  16.984  68.523  1.00  0.00    -0.359 C  
HETATM   12  O   UNL     1     -10.891  16.765  69.608  1.00  0.00    -0.333 OA 
BRANCH  11  13
HETATM   13  N   UNL     1     -10.023  18.253  68.096  1.00  0.00    -0.340 N  
HETATM   14  C   UNL     1      -8.614  18.651  68.074  1.00  0.00    -0.299 C  
HETATM   15  C   UNL     1      -8.172  18.984  66.644  1.00  0.00    -0.291 C  
HETATM   16  O   UNL     1      -9.029  19.979  66.056  1.00  0.00    -0.346 OA 
HETATM   17  C   UNL     1     -10.389  19.522  66.025  1.00  0.00    -0.511 C  
HETATM   18  C   UNL     1     -10.902  19.227  67.440  1.00  0.00    -0.446 C  
ENDBRANCH  11  13
ENDBRANCH   9  11
ENDBRANCH   8   9
ENDBRANCH   7   8
ENDBRANCH   5   7
ENDBRANCH   4   5
ENDBRANCH   2   4
BRANCH   2  19
HETATM   19  C   UNL     1     -11.371  11.952  65.635  1.00  0.00    -0.284 C  
BRANCH  19  20
HETATM   20  O   UNL     1     -10.345  10.980  65.387  1.00  0.00    -0.261 OA 
BRANCH  20  21
HETATM   21  C   UNL     1     -10.043  10.182  66.458  1.00  0.00    -0.234 A  
HETATM   22  C   UNL     1      -9.651  10.848  67.620  1.00  0.00    -0.177 A  
HETATM   23  H   UNL     1      -9.161   7.045  69.842  1.00  0.00     0.000 HD 
HETATM   24  O   UNL     1      -9.102   7.992  69.852  1.00  0.00    -0.144 OA 
HETATM   25  C   UNL     1      -9.327  10.129  68.774  1.00  0.00    -0.168 A  
HETATM   26  C   UNL     1      -9.414   8.740  68.758  1.00  0.00    -0.142 A  
HETATM   27  C   UNL     1     -10.148   8.789  66.463  1.00  0.00    -0.349 A  
HETATM   28  C   UNL     1      -9.832   8.068  67.616  1.00  0.00    -0.214 A  
ENDBRANCH  20  21
ENDBRANCH  19  20
ENDBRANCH   2  19
TORSDOF 10
ENDMDL
MODEL      123
REMARK 921   NORMALIZED FREE ENERGY PREDICTED BY IDOCK:   -4.82 KCAL/MOL
REMARK 922        TOTAL FREE ENERGY PREDICTED BY IDOCK:   -8.77 KCAL/MOL
REMARK 923 INTER-LIGAND FREE ENERGY PREDICTED BY IDOCK:   -7.45 KCAL/MOL
REMARK 924 INTRA-LIGAND FREE ENERGY PREDICTED BY IDOCK:   -1.32 KCAL/MOL
REMARK 927      BINDING AFFINITY PREDICTED BY RF-SCORE:    0.00 PKD
ROOT
HETATM    1  O   UNL     1      -8.970  11.692  62.808  1.00  0.00    -0.601 OA 
HETATM    2  C   UNL     1     -10.120  11.177  63.494  1.00  0.00    -0.385 C  
HETATM    3  H   UNL     1      -9.254  12.104  62.000  1.00  0.00     0.000 HD 
ENDROOT
BRANCH   2   4
HETATM    4  C   UNL     1      -9.659  10.510  64.801  1.00  0.00    -0.285 C  
BRANCH   4   5
HETATM    5  N   UNL     1      -8.502  11.218  65.374  1.00  0.00    -0.385 NA 
HETATM    6  H   UNL     1      -8.372  12.139  64.956  1.00  0.00     0.000 HD 
BRANCH   5   7
HETATM    7  C   UNL     1      -8.628  11.288  66.834  1.00  0.00    -0.150 C  
BRANCH   7   8
HETATM    8  C   UNL     1      -9.725  10.344  67.340  1.00  0.00    -0.163 C  
BRANCH   8   9
HETATM    9  N   UNL     1      -9.827  10.417  68.783  1.00  0.00    -0.176 N  
HETATM   10  H   UNL     1      -8.995  10.663  69.320  1.00  0.00     0.000 HD 
BRANCH   9  11
HETATM   11  C   UNL     1     -10.990  10.172  69.456  1.00  0.00    -0.256 C  
HETATM   12  O   UNL     1     -11.969  10.907  69.336  1.00  0.00    -0.313 OA 
BRANCH  11  13
HETATM   13  N   UNL     1     -10.989   9.053  70.261  1.00  0.00    -0.241 N  
HETATM   14  C   UNL     1     -10.891   7.728  69.644  1.00  0.00    -0.184 C  
HETATM   15  C   UNL     1      -9.619   7.011  70.109  1.00  0.00    -0.164 C  
HETATM   16  O   UNL     1      -9.556   6.948  71.545  1.00  0.00    -0.163 OA 
HETATM   17  C   UNL     1      -9.576   8.267  72.111  1.00  0.00    -0.268 C  
HETATM   18  C   UNL     1     -10.859   9.012  71.722  1.00  0.00    -0.367 C  
ENDBRANCH  11  13
ENDBRANCH   9  11
ENDBRANCH   8   9
ENDBRANCH   7   8
ENDBRANCH   5   7
ENDBRANCH   4   5
ENDBRANCH   2   4
BRANCH   2  19
HETATM   19  C   UNL     1     -11.103  12.312  63.807  1.00  0.00    -0.442 C  
BRANCH  19  20
HETATM   20  O   UNL     1     -10.374  13.519  64.072  1.00  0.00    -0.298 OA 
BRANCH  20  21
HETATM   21  C   UNL     1     -10.693  14.132  65.253  1.00  0.00    -0.364 A  
HETATM   22  C   UNL     1     -11.608  13.455  66.061  1.00  0.00    -0.375 A  
HETATM   23  H   UNL     1     -11.431  16.589  69.189  1.00  0.00     0.000 HD 
HETATM   24  O   UNL     1     -11.804  15.765  68.900  1.00  0.00    -0.393 OA 
HETATM   25  C   UNL     1     -11.998  13.989  67.292  1.00  0.00    -0.448 A  
HETATM   26  C   UNL     1     -11.451  15.197  67.714  1.00  0.00    -0.318 A  
HETATM   27  C   UNL     1     -10.135  15.332  65.699  1.00  0.00    -0.401 A  
HETATM   28  C   UNL     1     -10.517  15.866  66.932  1.00  0.00    -0.309 A  
ENDBRANCH  20  21
ENDBRANCH  19  20
ENDBRANCH   2  19
TORSDOF 10
ENDMDL
MODEL      124
REMARK 921   NORMALIZED FREE ENERGY PREDICTED BY IDOCK:   -4.82 KCAL/MOL
REMARK 922        TOTAL FREE ENERGY PREDICTED BY IDOCK:   -8.77 KCAL/MOL
REMARK 923 INTER-LIGAND FREE ENERGY PREDICTED BY IDOCK:   -7.42 KCAL/MOL
REMARK 924 INTRA-LIGAND FREE ENERGY PREDICTED BY IDOCK:   -1.35 KCAL/MOL
REMARK 927      BINDING AFFINITY PREDICTED BY RF-SCORE:    0.00 PKD
ROOT
HETATM    1  O   UNL     1      -8.436   7.114  66.320  1.00  0.00    -0.124 OA 
HETATM    2  C   UNL     1      -9.419   7.307  67.346  1.00  0.00    -0.132 C  
HETATM    3  H   UNL     1      -7.827   6.442  66.602  1.00  0.00     0.000 HD 
ENDROOT
BRANCH   2   4
HETATM    4  C   UNL     1     -10.405   8.396  66.890  1.00  0.00    -0.307 C  
BRANCH   4   5
HETATM    5  N   UNL     1     -10.915   9.161  68.040  1.00  0.00    -0.493 NA 
HETATM    6  H   UNL     1     -11.557   8.610  68.610  1.00  0.00     0.000 HD 
BRANCH   5   7
HETATM    7  C   UNL     1      -9.796   9.690  68.828  1.00  0.00    -0.165 C  
BRANCH   7   8
HETATM    8  C   UNL     1      -9.577  11.180  68.545  1.00  0.00    -0.193 C  
BRANCH   8   9
HETATM    9  N   UNL     1     -10.577  11.976  69.228  1.00  0.00    -0.442 N  
HETATM   10  H   UNL     1     -10.497  12.097  70.238  1.00  0.00     0.000 HD 
BRANCH   9  11
HETATM   11  C   UNL     1     -11.619  12.572  68.579  1.00  0.00    -0.321 C  
HETATM   12  O   UNL     1     -12.154  12.045  67.605  1.00  0.00    -0.547 OA 
BRANCH  11  13
HETATM   13  N   UNL     1     -12.027  13.786  69.091  1.00  0.00    -0.350 N  
HETATM   14  C   UNL     1     -12.734  13.818  70.373  1.00  0.00    -0.178 C  
HETATM   15  C   UNL     1     -11.936  14.622  71.406  1.00  0.00    -0.343 C  
HETATM   16  O   UNL     1     -11.636  15.941  70.916  1.00  0.00    -0.359 OA 
HETATM   17  C   UNL     1     -10.876  15.869  69.701  1.00  0.00    -0.314 C  
HETATM   18  C   UNL     1     -11.654  15.121  68.611  1.00  0.00    -0.338 C  
ENDBRANCH  11  13
ENDBRANCH   9  11
ENDBRANCH   8   9
ENDBRANCH   7   8
ENDBRANCH   5   7
ENDBRANCH   4   5
ENDBRANCH   2   4
BRANCH   2  19
HETATM   19  C   UNL     1     -10.176   5.998  67.609  1.00  0.00    -0.181 C  
BRANCH  19  20
HETATM   20  O   UNL     1     -11.303   6.259  68.457  1.00  0.00    -0.324 OA 
BRANCH  20  21
HETATM   21  C   UNL     1     -11.082   6.029  69.789  1.00  0.00    -0.406 A  
HETATM   22  C   UNL     1     -11.852   6.788  70.672  1.00  0.00    -0.442 A  
HETATM   23  H   UNL     1     -10.006   4.861  74.210  1.00  0.00     0.000 HD 
HETATM   24  O   UNL     1     -10.623   5.501  73.877  1.00  0.00    -0.261 OA 
HETATM   25  C   UNL     1     -11.711   6.627  72.053  1.00  0.00    -0.354 A  
HETATM   26  C   UNL     1     -10.806   5.690  72.541  1.00  0.00    -0.251 A  
HETATM   27  C   UNL     1     -10.193   5.076  70.292  1.00  0.00    -0.328 A  
HETATM   28  C   UNL     1     -10.055   4.908  71.671  1.00  0.00    -0.266 A  
ENDBRANCH  20  21
ENDBRANCH  19  20
ENDBRANCH   2  19
TORSDOF 10
ENDMDL
MODEL      125
REMARK 921   NORMALIZED FREE ENERGY PREDICTED BY IDOCK:   -4.80 KCAL/MOL
REMARK 922        TOTAL FREE ENERGY PREDICTED BY IDOCK:   -8.75 KCAL/MOL
REMARK 923 INTER-LIGAND FREE ENERGY PREDICTED BY IDOCK:   -7.69 KCAL/MOL
REMARK 924 INTRA-LIGAND FREE ENERGY PREDICTED BY IDOCK:   -1.06 KCAL/MOL
REMARK 927      BINDING AFFINITY PREDICTED BY RF-SCORE:    0.00 PKD
ROOT
HETATM    1  O   UNL     1     -13.091  13.817  65.296  1.00  0.00    -0.756 OA 
HETATM    2  C   UNL     1     -11.946  13.098  64.819  1.00  0.00    -0.388 C  
HETATM    3  H   UNL     1     -13.772  13.194  65.521  1.00  0.00     0.000 HD 
ENDROOT
BRANCH   2   4
HETATM    4  C   UNL     1     -10.844  14.107  64.454  1.00  0.00    -0.201 C  
BRANCH   4   5
HETATM    5  N   UNL     1     -11.419  15.427  64.147  1.00  0.00    -0.749 NA 
HETATM    6  H   UNL     1     -12.439  15.414  64.171  1.00  0.00     0.000 HD 
BRANCH   5   7
HETATM    7  C   UNL     1     -10.860  16.441  65.048  1.00  0.00    -0.273 C  
BRANCH   7   8
HETATM    8  C   UNL     1      -9.850  15.820  66.021  1.00  0.00    -0.337 C  
BRANCH   8   9
HETATM    9  N   UNL     1     -10.304  15.977  67.388  1.00  0.00    -0.288 N  
HETATM   10  H   UNL     1     -11.053  15.373  67.726  1.00  0.00     0.000 HD 
BRANCH   9  11
HETATM   11  C   UNL     1      -9.769  16.898  68.243  1.00  0.00    -0.256 C  
HETATM   12  O   UNL     1     -10.436  17.839  68.671  1.00  0.00    -0.354 OA 
BRANCH  11  13
HETATM   13  N   UNL     1      -8.451  16.695  68.591  1.00  0.00    -0.243 N  
HETATM   14  C   UNL     1      -8.065  15.429  69.220  1.00  0.00    -0.246 C  
HETATM   15  C   UNL     1      -7.055  14.681  68.343  1.00  0.00    -0.116 C  
HETATM   16  O   UNL     1      -5.917  15.508  68.042  1.00  0.00    -0.117 OA 
HETATM   17  C   UNL     1      -6.325  16.702  67.359  1.00  0.00    -0.169 C  
HETATM   18  C   UNL     1      -7.298  17.521  68.217  1.00  0.00    -0.223 C  
ENDBRANCH  11  13
ENDBRANCH   9  11
ENDBRANCH   8   9
ENDBRANCH   7   8
ENDBRANCH   5   7
ENDBRANCH   4   5
ENDBRANCH   2   4
BRANCH   2  19
HETATM   19  C   UNL     1     -11.434  12.137  65.900  1.00  0.00    -0.363 C  
BRANCH  19  20
HETATM   20  O   UNL     1     -12.127  12.388  67.131  1.00  0.00    -0.532 OA 
BRANCH  20  21
HETATM   21  C   UNL     1     -11.775  11.562  68.164  1.00  0.00    -0.287 A  
HETATM   22  C   UNL     1     -10.887  10.534  67.843  1.00  0.00    -0.333 A  
HETATM   23  H   UNL     1     -10.836   9.041  72.016  1.00  0.00     0.000 HD 
HETATM   24  O   UNL     1     -10.528   8.937  71.124  1.00  0.00    -0.222 OA 
HETATM   25  C   UNL     1     -10.457   9.637  68.825  1.00  0.00    -0.238 A  
HETATM   26  C   UNL     1     -10.909   9.788  70.132  1.00  0.00    -0.291 A  
HETATM   27  C   UNL     1     -12.203  11.716  69.485  1.00  0.00    -0.257 A  
HETATM   28  C   UNL     1     -11.770  10.826  70.469  1.00  0.00    -0.449 A  
ENDBRANCH  20  21
ENDBRANCH  19  20
ENDBRANCH   2  19
TORSDOF 10
ENDMDL
MODEL      126
REMARK 921   NORMALIZED FREE ENERGY PREDICTED BY IDOCK:   -4.78 KCAL/MOL
REMARK 922        TOTAL FREE ENERGY PREDICTED BY IDOCK:   -8.71 KCAL/MOL
REMARK 923 INTER-LIGAND FREE ENERGY PREDICTED BY IDOCK:   -7.42 KCAL/MOL
REMARK 924 INTRA-LIGAND FREE ENERGY PREDICTED BY IDOCK:   -1.29 KCAL/MOL
REMARK 927      BINDING AFFINITY PREDICTED BY RF-SCORE:    0.00 PKD
ROOT
HETATM    1  O   UNL     1      -8.686   8.271  64.557  1.00  0.00    -0.400 OA 
HETATM    2  C   UNL     1      -9.034   9.395  65.377  1.00  0.00    -0.206 C  
HETATM    3  H   UNL     1      -9.478   7.916  64.172  1.00  0.00     0.000 HD 
ENDROOT
BRANCH   2   4
HETATM    4  C   UNL     1      -7.751   9.969  66.002  1.00  0.00    -0.110 C  
BRANCH   4   5
HETATM    5  N   UNL     1      -7.887  11.414  66.253  1.00  0.00    -0.348 NA 
HETATM    6  H   UNL     1      -8.859  11.686  66.402  1.00  0.00     0.000 HD 
BRANCH   5   7
HETATM    7  C   UNL     1      -7.026  11.814  67.371  1.00  0.00    -0.121 C  
BRANCH   7   8
HETATM    8  C   UNL     1      -7.727  11.590  68.716  1.00  0.00    -0.124 C  
BRANCH   8   9
HETATM    9  N   UNL     1      -9.139  11.896  68.607  1.00  0.00    -0.359 N  
HETATM   10  H   UNL     1      -9.413  12.812  68.252  1.00  0.00     0.000 HD 
BRANCH   9  11
HETATM   11  C   UNL     1     -10.118  11.012  68.958  1.00  0.00    -0.180 C  
HETATM   12  O   UNL     1      -9.899   9.803  69.022  1.00  0.00    -0.167 OA 
BRANCH  11  13
HETATM   13  N   UNL     1     -11.349  11.565  69.240  1.00  0.00    -0.264 N  
HETATM   14  C   UNL     1     -12.363  10.747  69.911  1.00  0.00    -0.271 C  
HETATM   15  C   UNL     1     -12.735  11.360  71.266  1.00  0.00    -0.393 C  
HETATM   16  O   UNL     1     -13.151  12.729  71.119  1.00  0.00    -0.214 OA 
HETATM   17  C   UNL     1     -12.105  13.515  70.529  1.00  0.00    -0.335 C  
HETATM   18  C   UNL     1     -11.730  12.978  69.142  1.00  0.00    -0.326 C  
ENDBRANCH  11  13
ENDBRANCH   9  11
ENDBRANCH   8   9
ENDBRANCH   7   8
ENDBRANCH   5   7
ENDBRANCH   4   5
ENDBRANCH   2   4
BRANCH   2  19
HETATM   19  C   UNL     1      -9.728  10.473  64.533  1.00  0.00    -0.314 C  
BRANCH  19  20
HETATM   20  O   UNL     1     -10.766  11.092  65.306  1.00  0.00    -0.267 OA 
BRANCH  20  21
HETATM   21  C   UNL     1     -10.961  12.421  65.040  1.00  0.00    -0.298 A  
HETATM   22  C   UNL     1     -11.903  12.710  64.051  1.00  0.00    -0.507 A  
HETATM   23  H   UNL     1     -11.311  17.077  64.518  1.00  0.00     0.000 HD 
HETATM   24  O   UNL     1     -11.759  16.373  64.065  1.00  0.00    -1.044 OA 
HETATM   25  C   UNL     1     -12.184  14.034  63.706  1.00  0.00    -0.250 A  
HETATM   26  C   UNL     1     -11.528  15.066  64.369  1.00  0.00    -0.233 A  
HETATM   27  C   UNL     1     -10.326  13.466  65.713  1.00  0.00    -0.296 A  
HETATM   28  C   UNL     1     -10.609  14.791  65.376  1.00  0.00    -0.395 A  
ENDBRANCH  20  21
ENDBRANCH  19  20
ENDBRANCH   2  19
TORSDOF 10
ENDMDL
MODEL      127
REMARK 921   NORMALIZED FREE ENERGY PREDICTED BY IDOCK:   -4.75 KCAL/MOL
REMARK 922        TOTAL FREE ENERGY PREDICTED BY IDOCK:   -8.67 KCAL/MOL
REMARK 923 INTER-LIGAND FREE ENERGY PREDICTED BY IDOCK:   -7.78 KCAL/MOL
REMARK 924 INTRA-LIGAND FREE ENERGY PREDICTED BY IDOCK:   -0.89 KCAL/MOL
REMARK 927      BINDING AFFINITY PREDICTED BY RF-SCORE:    0.00 PKD
ROOT
HETATM    1  O   UNL     1     -11.445  10.256  67.994  1.00  0.00    -0.577 OA 
HETATM    2  C   UNL     1     -10.832  11.075  68.999  1.00  0.00    -0.229 C  
HETATM    3  H   UNL     1     -10.794  10.040  67.336  1.00  0.00     0.000 HD 
ENDROOT
BRANCH   2   4
HETATM    4  C   UNL     1     -11.885  11.425  70.063  1.00  0.00    -0.359 C  
BRANCH   4   5
HETATM    5  N   UNL     1     -11.915  12.875  70.318  1.00  0.00    -0.497 NA 
HETATM    6  H   UNL     1     -11.071  13.197  70.793  1.00  0.00     0.000 HD 
BRANCH   5   7
HETATM    7  C   UNL     1     -12.151  13.600  69.064  1.00  0.00    -0.309 C  
BRANCH   7   8
HETATM    8  C   UNL     1     -11.743  15.072  69.192  1.00  0.00    -0.319 C  
BRANCH   8   9
HETATM    9  N   UNL     1     -11.066  15.515  67.989  1.00  0.00    -0.311 N  
HETATM   10  H   UNL     1     -11.293  16.435  67.613  1.00  0.00     0.000 HD 
BRANCH   9  11
HETATM   11  C   UNL     1     -10.138  14.752  67.340  1.00  0.00    -0.231 C  
HETATM   12  O   UNL     1      -9.069  14.452  67.869  1.00  0.00    -0.176 OA 
BRANCH  11  13
HETATM   13  N   UNL     1     -10.484  14.344  66.069  1.00  0.00    -0.291 N  
HETATM   14  C   UNL     1     -10.786  12.931  65.830  1.00  0.00    -0.272 C  
HETATM   15  C   UNL     1     -12.233  12.765  65.350  1.00  0.00    -0.478 C  
HETATM   16  O   UNL     1     -12.491  13.580  64.193  1.00  0.00    -0.624 OA 
HETATM   17  C   UNL     1     -12.259  14.965  64.487  1.00  0.00    -0.382 C  
HETATM   18  C   UNL     1     -10.807  15.199  64.921  1.00  0.00    -0.418 C  
ENDBRANCH  11  13
ENDBRANCH   9  11
ENDBRANCH   8   9
ENDBRANCH   7   8
ENDBRANCH   5   7
ENDBRANCH   4   5
ENDBRANCH   2   4
BRANCH   2  19
HETATM   19  C   UNL     1      -9.662  10.326  69.652  1.00  0.00    -0.185 C  
BRANCH  19  20
HETATM   20  O   UNL     1      -9.807   8.917  69.422  1.00  0.00    -0.175 OA 
BRANCH  20  21
HETATM   21  C   UNL     1     -10.104   8.183  70.539  1.00  0.00    -0.192 A  
HETATM   22  C   UNL     1     -10.114   6.797  70.369  1.00  0.00    -0.200 A  
HETATM   23  H   UNL     1     -11.124   6.110  74.629  1.00  0.00     0.000 HD 
HETATM   24  O   UNL     1     -10.948   5.732  73.776  1.00  0.00    -0.212 OA 
HETATM   25  C   UNL     1     -10.399   5.954  71.447  1.00  0.00    -0.271 A  
HETATM   26  C   UNL     1     -10.657   6.508  72.696  1.00  0.00    -0.221 A  
HETATM   27  C   UNL     1     -10.343   8.725  71.804  1.00  0.00    -0.413 A  
HETATM   28  C   UNL     1     -10.621   7.885  72.884  1.00  0.00    -0.434 A  
ENDBRANCH  20  21
ENDBRANCH  19  20
ENDBRANCH   2  19
TORSDOF 10
ENDMDL
MODEL      128
REMARK 921   NORMALIZED FREE ENERGY PREDICTED BY IDOCK:   -4.74 KCAL/MOL
REMARK 922        TOTAL FREE ENERGY PREDICTED BY IDOCK:   -8.65 KCAL/MOL
REMARK 923 INTER-LIGAND FREE ENERGY PREDICTED BY IDOCK:   -7.42 KCAL/MOL
REMARK 924 INTRA-LIGAND FREE ENERGY PREDICTED BY IDOCK:   -1.22 KCAL/MOL
REMARK 927      BINDING AFFINITY PREDICTED BY RF-SCORE:    0.00 PKD
ROOT
HETATM    1  O   UNL     1     -12.876  10.651  69.556  1.00  0.00    -0.608 OA 
HETATM    2  C   UNL     1     -11.514  11.067  69.725  1.00  0.00    -0.311 C  
HETATM    3  H   UNL     1     -13.415  11.419  69.407  1.00  0.00     0.000 HD 
ENDROOT
BRANCH   2   4
HETATM    4  C   UNL     1     -10.642   9.823  69.967  1.00  0.00    -0.276 C  
BRANCH   4   5
HETATM    5  N   UNL     1      -9.315  10.201  70.479  1.00  0.00    -0.236 NA 
HETATM    6  H   UNL     1      -9.212   9.983  71.471  1.00  0.00     0.000 HD 
BRANCH   5   7
HETATM    7  C   UNL     1      -8.265   9.576  69.666  1.00  0.00    -0.141 C  
BRANCH   7   8
HETATM    8  C   UNL     1      -8.843   8.476  68.768  1.00  0.00    -0.139 C  
BRANCH   8   9
HETATM    9  N   UNL     1      -8.552   8.755  67.376  1.00  0.00    -0.125 N  
HETATM   10  H   UNL     1      -7.585   8.692  67.059  1.00  0.00     0.000 HD 
BRANCH   9  11
HETATM   11  C   UNL     1      -9.517   9.098  66.473  1.00  0.00    -0.208 C  
HETATM   12  O   UNL     1     -10.672   8.690  66.581  1.00  0.00    -0.180 OA 
BRANCH  11  13
HETATM   13  N   UNL     1      -9.109   9.928  65.450  1.00  0.00    -0.180 N  
HETATM   14  C   UNL     1      -8.047   9.479  64.546  1.00  0.00    -0.142 C  
HETATM   15  C   UNL     1      -8.571   9.385  63.108  1.00  0.00    -0.219 C  
HETATM   16  O   UNL     1      -9.153  10.631  62.687  1.00  0.00    -0.234 OA 
HETATM   17  C   UNL     1     -10.239  11.000  63.550  1.00  0.00    -0.365 C  
HETATM   18  C   UNL     1      -9.759  11.163  64.997  1.00  0.00    -0.253 C  
ENDBRANCH  11  13
ENDBRANCH   9  11
ENDBRANCH   8   9
ENDBRANCH   7   8
ENDBRANCH   5   7
ENDBRANCH   4   5
ENDBRANCH   2   4
BRANCH   2  19
HETATM   19  C   UNL     1     -11.026  11.808  68.473  1.00  0.00    -0.227 C  
BRANCH  19  20
HETATM   20  O   UNL     1     -12.152  12.349  67.767  1.00  0.00    -0.447 OA 
BRANCH  20  21
HETATM   21  C   UNL     1     -11.852  13.377  66.915  1.00  0.00    -0.403 A  
HETATM   22  C   UNL     1     -12.493  13.343  65.675  1.00  0.00    -0.519 A  
HETATM   23  H   UNL     1     -10.549  17.108  64.375  1.00  0.00     0.000 HD 
HETATM   24  O   UNL     1     -11.137  16.394  64.160  1.00  0.00    -0.809 OA 
HETATM   25  C   UNL     1     -12.263  14.349  64.731  1.00  0.00    -0.458 A  
HETATM   26  C   UNL     1     -11.401  15.395  65.046  1.00  0.00    -0.333 A  
HETATM   27  C   UNL     1     -11.008  14.445  67.226  1.00  0.00    -0.301 A  
HETATM   28  C   UNL     1     -10.781  15.454  66.289  1.00  0.00    -0.312 A  
ENDBRANCH  20  21
ENDBRANCH  19  20
ENDBRANCH   2  19
TORSDOF 10
ENDMDL
MODEL      129
REMARK 921   NORMALIZED FREE ENERGY PREDICTED BY IDOCK:   -4.74 KCAL/MOL
REMARK 922        TOTAL FREE ENERGY PREDICTED BY IDOCK:   -8.64 KCAL/MOL
REMARK 923 INTER-LIGAND FREE ENERGY PREDICTED BY IDOCK:   -6.99 KCAL/MOL
REMARK 924 INTRA-LIGAND FREE ENERGY PREDICTED BY IDOCK:   -1.66 KCAL/MOL
REMARK 927      BINDING AFFINITY PREDICTED BY RF-SCORE:    0.00 PKD
ROOT
HETATM    1  O   UNL     1     -13.411  11.906  64.414  1.00  0.00    -0.524 OA 
HETATM    2  C   UNL     1     -12.303  12.549  63.768  1.00  0.00    -0.502 C  
HETATM    3  H   UNL     1     -13.482  11.017  64.087  1.00  0.00     0.000 HD 
ENDROOT
BRANCH   2   4
HETATM    4  C   UNL     1     -12.189  13.989  64.296  1.00  0.00    -0.418 C  
BRANCH   4   5
HETATM    5  N   UNL     1     -10.780  14.367  64.496  1.00  0.00    -0.616 NA 
HETATM    6  H   UNL     1     -10.429  14.952  63.738  1.00  0.00     0.000 HD 
BRANCH   5   7
HETATM    7  C   UNL     1     -10.613  15.005  65.807  1.00  0.00    -0.339 C  
BRANCH   7   8
HETATM    8  C   UNL     1     -11.727  14.585  66.772  1.00  0.00    -0.377 C  
BRANCH   8   9
HETATM    9  N   UNL     1     -11.199  13.722  67.809  1.00  0.00    -0.278 N  
HETATM   10  H   UNL     1     -10.802  12.822  67.539  1.00  0.00     0.000 HD 
BRANCH   9  11
HETATM   11  C   UNL     1     -11.210  14.062  69.132  1.00  0.00    -0.269 C  
HETATM   12  O   UNL     1     -11.824  13.394  69.961  1.00  0.00    -0.311 OA 
BRANCH  11  13
HETATM   13  N   UNL     1     -10.488  15.188  69.464  1.00  0.00    -0.254 N  
HETATM   14  C   UNL     1      -9.025  15.114  69.499  1.00  0.00    -0.127 C  
HETATM   15  C   UNL     1      -8.415  16.073  68.470  1.00  0.00    -0.189 C  
HETATM   16  O   UNL     1      -8.897  17.415  68.663  1.00  0.00    -0.271 OA 
HETATM   17  C   UNL     1     -10.326  17.462  68.546  1.00  0.00    -0.378 C  
HETATM   18  C   UNL     1     -10.993  16.560  69.593  1.00  0.00    -0.287 C  
ENDBRANCH  11  13
ENDBRANCH   9  11
ENDBRANCH   8   9
ENDBRANCH   7   8
ENDBRANCH   5   7
ENDBRANCH   4   5
ENDBRANCH   2   4
BRANCH   2  19
HETATM   19  C   UNL     1     -11.004  11.785  64.057  1.00  0.00    -0.384 C  
BRANCH  19  20
HETATM   20  O   UNL     1     -10.911  11.515  65.463  1.00  0.00    -0.282 OA 
BRANCH  20  21
HETATM   21  C   UNL     1      -9.738  10.928  65.855  1.00  0.00    -0.224 A  
HETATM   22  C   UNL     1      -9.548   9.610  65.434  1.00  0.00    -0.361 A  
HETATM   23  H   UNL     1      -5.583   9.371  67.399  1.00  0.00     0.000 HD 
HETATM   24  O   UNL     1      -6.252   8.932  66.887  1.00  0.00    -0.057 OA 
HETATM   25  C   UNL     1      -8.382   8.919  65.773  1.00  0.00    -0.139 A  
HETATM   26  C   UNL     1      -7.402   9.562  66.523  1.00  0.00    -0.090 A  
HETATM   27  C   UNL     1      -8.737  11.569  66.588  1.00  0.00    -0.182 A  
HETATM   28  C   UNL     1      -7.567  10.883  66.923  1.00  0.00    -0.128 A  
ENDBRANCH  20  21
ENDBRANCH  19  20
ENDBRANCH   2  19
TORSDOF 10
ENDMDL
MODEL      130
REMARK 921   NORMALIZED FREE ENERGY PREDICTED BY IDOCK:   -4.73 KCAL/MOL
REMARK 922        TOTAL FREE ENERGY PREDICTED BY IDOCK:   -8.63 KCAL/MOL
REMARK 923 INTER-LIGAND FREE ENERGY PREDICTED BY IDOCK:   -8.30 KCAL/MOL
REMARK 924 INTRA-LIGAND FREE ENERGY PREDICTED BY IDOCK:   -0.33 KCAL/MOL
REMARK 927      BINDING AFFINITY PREDICTED BY RF-SCORE:    0.00 PKD
ROOT
HETATM    1  O   UNL     1     -12.440  13.014  63.631  1.00  0.00    -0.666 OA 
HETATM    2  C   UNL     1     -11.839  13.992  64.490  1.00  0.00    -0.434 C  
HETATM    3  H   UNL     1     -12.043  12.168  63.805  1.00  0.00     0.000 HD 
ENDROOT
BRANCH   2   4
HETATM    4  C   UNL     1     -12.481  15.361  64.206  1.00  0.00     0.066 C  
BRANCH   4   5
HETATM    5  N   UNL     1     -11.451  16.391  63.989  1.00  0.00    -1.573 NA 
HETATM    6  H   UNL     1     -11.860  17.306  63.797  1.00  0.00     0.000 HD 
BRANCH   5   7
HETATM    7  C   UNL     1     -10.531  16.430  65.131  1.00  0.00    -0.192 C  
BRANCH   7   8
HETATM    8  C   UNL     1     -10.659  17.749  65.901  1.00  0.00    -0.205 C  
BRANCH   8   9
HETATM    9  N   UNL     1      -9.549  17.908  66.819  1.00  0.00    -0.293 N  
HETATM   10  H   UNL     1      -9.728  17.820  67.819  1.00  0.00     0.000 HD 
BRANCH   9  11
HETATM   11  C   UNL     1      -8.276  18.170  66.403  1.00  0.00    -0.253 C  
HETATM   12  O   UNL     1      -7.559  17.288  65.934  1.00  0.00    -0.442 OA 
BRANCH  11  13
HETATM   13  N   UNL     1      -7.861  19.478  66.538  1.00  0.00    -0.275 N  
HETATM   14  C   UNL     1      -7.834  20.085  67.871  1.00  0.00    -0.272 C  
HETATM   15  C   UNL     1      -6.404  20.494  68.245  1.00  0.00    -0.317 C  
HETATM   16  O   UNL     1      -5.833  21.355  67.244  1.00  0.00    -0.301 OA 
HETATM   17  C   UNL     1      -5.806  20.699  65.968  1.00  0.00    -0.211 C  
HETATM   18  C   UNL     1      -7.221  20.316  65.517  1.00  0.00    -0.216 C  
ENDBRANCH  11  13
ENDBRANCH   9  11
ENDBRANCH   8   9
ENDBRANCH   7   8
ENDBRANCH   5   7
ENDBRANCH   4   5
ENDBRANCH   2   4
BRANCH   2  19
HETATM   19  C   UNL     1     -12.055  13.612  65.960  1.00  0.00    -0.441 C  
BRANCH  19  20
HETATM   20  O   UNL     1     -12.224  12.191  66.067  1.00  0.00    -0.609 OA 
BRANCH  20  21
HETATM   21  C   UNL     1     -11.296  11.562  66.853  1.00  0.00    -0.253 A  
HETATM   22  C   UNL     1     -11.547  11.588  68.226  1.00  0.00    -0.378 A  
HETATM   23  H   UNL     1      -7.885   9.254  69.112  1.00  0.00     0.000 HD 
HETATM   24  O   UNL     1      -8.651   9.702  69.450  1.00  0.00    -0.134 OA 
HETATM   25  C   UNL     1     -10.666  10.969  69.118  1.00  0.00    -0.274 A  
HETATM   26  C   UNL     1      -9.544  10.313  68.624  1.00  0.00    -0.168 A  
HETATM   27  C   UNL     1     -10.178  10.880  66.368  1.00  0.00    -0.289 A  
HETATM   28  C   UNL     1      -9.301  10.256  67.256  1.00  0.00    -0.169 A  
ENDBRANCH  20  21
ENDBRANCH  19  20
ENDBRANCH   2  19
TORSDOF 10
ENDMDL
MODEL      131
REMARK 921   NORMALIZED FREE ENERGY PREDICTED BY IDOCK:   -4.73 KCAL/MOL
REMARK 922        TOTAL FREE ENERGY PREDICTED BY IDOCK:   -8.63 KCAL/MOL
REMARK 923 INTER-LIGAND FREE ENERGY PREDICTED BY IDOCK:   -7.40 KCAL/MOL
REMARK 924 INTRA-LIGAND FREE ENERGY PREDICTED BY IDOCK:   -1.22 KCAL/MOL
REMARK 927      BINDING AFFINITY PREDICTED BY RF-SCORE:    0.00 PKD
ROOT
HETATM    1  O   UNL     1      -9.276   9.363  63.988  1.00  0.00    -0.426 OA 
HETATM    2  C   UNL     1      -9.578  10.280  65.049  1.00  0.00    -0.285 C  
HETATM    3  H   UNL     1     -10.078   9.161  63.521  1.00  0.00     0.000 HD 
ENDROOT
BRANCH   2   4
HETATM    4  C   UNL     1      -8.279  10.606  65.806  1.00  0.00    -0.161 C  
BRANCH   4   5
HETATM    5  N   UNL     1      -8.188  12.045  66.102  1.00  0.00    -0.366 NA 
HETATM    6  H   UNL     1      -9.035  12.545  65.829  1.00  0.00     0.000 HD 
BRANCH   5   7
HETATM    7  C   UNL     1      -7.862  12.248  67.518  1.00  0.00    -0.166 C  
BRANCH   7   8
HETATM    8  C   UNL     1      -8.284  13.644  67.988  1.00  0.00    -0.162 C  
BRANCH   8   9
HETATM    9  N   UNL     1      -8.111  14.610  66.922  1.00  0.00    -0.368 N  
HETATM   10  H   UNL     1      -8.531  14.413  66.013  1.00  0.00     0.000 HD 
BRANCH   9  11
HETATM   11  C   UNL     1      -7.412  15.772  67.082  1.00  0.00    -0.224 C  
HETATM   12  O   UNL     1      -6.188  15.805  66.967  1.00  0.00    -0.312 OA 
BRANCH  11  13
HETATM   13  N   UNL     1      -8.167  16.889  67.370  1.00  0.00    -0.179 N  
HETATM   14  C   UNL     1      -8.630  17.740  66.272  1.00  0.00    -0.185 C  
HETATM   15  C   UNL     1     -10.162  17.771  66.226  1.00  0.00    -0.364 C  
HETATM   16  O   UNL     1     -10.710  18.172  67.494  1.00  0.00    -0.412 OA 
HETATM   17  C   UNL     1     -10.298  17.271  68.532  1.00  0.00    -0.371 C  
HETATM   18  C   UNL     1      -8.770  17.243  68.660  1.00  0.00    -0.268 C  
ENDBRANCH  11  13
ENDBRANCH   9  11
ENDBRANCH   8   9
ENDBRANCH   7   8
ENDBRANCH   5   7
ENDBRANCH   4   5
ENDBRANCH   2   4
BRANCH   2  19
HETATM   19  C   UNL     1     -10.184  11.569  64.480  1.00  0.00    -0.288 C  
BRANCH  19  20
HETATM   20  O   UNL     1     -11.527  11.721  64.963  1.00  0.00    -0.278 OA 
BRANCH  20  21
HETATM   21  C   UNL     1     -11.642  12.463  66.107  1.00  0.00    -0.396 A  
HETATM   22  C   UNL     1     -11.643  11.739  67.302  1.00  0.00    -0.344 A  
HETATM   23  H   UNL     1     -12.010  15.425  69.735  1.00  0.00     0.000 HD 
HETATM   24  O   UNL     1     -11.950  14.477  69.720  1.00  0.00    -0.294 OA 
HETATM   25  C   UNL     1     -11.749  12.399  68.529  1.00  0.00    -0.373 A  
HETATM   26  C   UNL     1     -11.837  13.787  68.552  1.00  0.00    -0.370 A  
HETATM   27  C   UNL     1     -11.708  13.857  66.146  1.00  0.00    -0.393 A  
HETATM   28  C   UNL     1     -11.807  14.519  67.371  1.00  0.00    -0.416 A  
ENDBRANCH  20  21
ENDBRANCH  19  20
ENDBRANCH   2  19
TORSDOF 10
ENDMDL
MODEL      132
REMARK 921   NORMALIZED FREE ENERGY PREDICTED BY IDOCK:   -4.72 KCAL/MOL
REMARK 922        TOTAL FREE ENERGY PREDICTED BY IDOCK:   -8.62 KCAL/MOL
REMARK 923 INTER-LIGAND FREE ENERGY PREDICTED BY IDOCK:   -7.84 KCAL/MOL
REMARK 924 INTRA-LIGAND FREE ENERGY PREDICTED BY IDOCK:   -0.78 KCAL/MOL
REMARK 927      BINDING AFFINITY PREDICTED BY RF-SCORE:    0.00 PKD
ROOT
HETATM    1  O   UNL     1     -12.989  12.491  64.377  1.00  0.00    -0.748 OA 
HETATM    2  C   UNL     1     -11.854  13.149  63.798  1.00  0.00    -0.486 C  
HETATM    3  H   UNL     1     -12.933  11.561  64.188  1.00  0.00     0.000 HD 
ENDROOT
BRANCH   2   4
HETATM    4  C   UNL     1     -11.944  14.654  64.103  1.00  0.00    -0.292 C  
BRANCH   4   5
HETATM    5  N   UNL     1     -10.610  15.219  64.366  1.00  0.00    -0.492 NA 
HETATM    6  H   UNL     1     -10.210  15.656  63.535  1.00  0.00     0.000 HD 
BRANCH   5   7
HETATM    7  C   UNL     1     -10.672  16.148  65.500  1.00  0.00    -0.342 C  
BRANCH   7   8
HETATM    8  C   UNL     1     -10.664  15.394  66.834  1.00  0.00    -0.314 C  
BRANCH   8   9
HETATM    9  N   UNL     1      -9.827  16.080  67.797  1.00  0.00    -0.229 N  
HETATM   10  H   UNL     1      -8.851  15.797  67.883  1.00  0.00     0.000 HD 
BRANCH   9  11
HETATM   11  C   UNL     1     -10.289  17.088  68.594  1.00  0.00    -0.351 C  
HETATM   12  O   UNL     1     -10.897  16.854  69.638  1.00  0.00    -0.302 OA 
BRANCH  11  13
HETATM   13  N   UNL     1     -10.024  18.367  68.153  1.00  0.00    -0.344 N  
HETATM   14  C   UNL     1      -8.631  18.803  68.025  1.00  0.00    -0.297 C  
HETATM   15  C   UNL     1      -8.311  19.156  66.568  1.00  0.00    -0.315 C  
HETATM   16  O   UNL     1      -9.236  20.131  66.056  1.00  0.00    -0.336 OA 
HETATM   17  C   UNL     1     -10.582  19.638  66.126  1.00  0.00    -0.483 C  
HETATM   18  C   UNL     1     -10.976  19.321  67.574  1.00  0.00    -0.316 C  
ENDBRANCH  11  13
ENDBRANCH   9  11
ENDBRANCH   8   9
ENDBRANCH   7   8
ENDBRANCH   5   7
ENDBRANCH   4   5
ENDBRANCH   2   4
BRANCH   2  19
HETATM   19  C   UNL     1     -10.555  12.577  64.381  1.00  0.00    -0.350 C  
BRANCH  19  20
HETATM   20  O   UNL     1     -10.753  11.202  64.736  1.00  0.00    -0.314 OA 
BRANCH  20  21
HETATM   21  C   UNL     1      -9.783  10.349  64.284  1.00  0.00    -0.326 A  
HETATM   22  C   UNL     1      -9.192   9.534  65.252  1.00  0.00    -0.307 A  
HETATM   23  H   UNL     1      -6.569   7.584  62.260  1.00  0.00     0.000 HD 
HETATM   24  O   UNL     1      -6.834   7.654  63.169  1.00  0.00    -0.065 OA 
HETATM   25  C   UNL     1      -8.195   8.621  64.898  1.00  0.00    -0.159 A  
HETATM   26  C   UNL     1      -7.807   8.520  63.566  1.00  0.00    -0.151 A  
HETATM   27  C   UNL     1      -9.399  10.220  62.948  1.00  0.00    -0.336 A  
HETATM   28  C   UNL     1      -8.408   9.305  62.589  1.00  0.00    -0.185 A  
ENDBRANCH  20  21
ENDBRANCH  19  20
ENDBRANCH   2  19
TORSDOF 10
ENDMDL
MODEL      133
REMARK 921   NORMALIZED FREE ENERGY PREDICTED BY IDOCK:   -4.71 KCAL/MOL
REMARK 922        TOTAL FREE ENERGY PREDICTED BY IDOCK:   -8.60 KCAL/MOL
REMARK 923 INTER-LIGAND FREE ENERGY PREDICTED BY IDOCK:   -7.20 KCAL/MOL
REMARK 924 INTRA-LIGAND FREE ENERGY PREDICTED BY IDOCK:   -1.40 KCAL/MOL
REMARK 927      BINDING AFFINITY PREDICTED BY RF-SCORE:    0.00 PKD
ROOT
HETATM    1  O   UNL     1      -9.610   9.674  67.222  1.00  0.00    -0.155 OA 
HETATM    2  C   UNL     1      -9.455   9.262  68.587  1.00  0.00    -0.146 C  
HETATM    3  H   UNL     1     -10.310   9.169  66.827  1.00  0.00     0.000 HD 
ENDROOT
BRANCH   2   4
HETATM    4  C   UNL     1      -8.320  10.080  69.226  1.00  0.00    -0.154 C  
BRANCH   4   5
HETATM    5  N   UNL     1      -8.454  11.510  68.900  1.00  0.00    -0.357 NA 
HETATM    6  H   UNL     1      -8.837  12.045  69.679  1.00  0.00     0.000 HD 
BRANCH   5   7
HETATM    7  C   UNL     1      -7.164  12.044  68.447  1.00  0.00    -0.092 C  
BRANCH   7   8
HETATM    8  C   UNL     1      -7.195  13.575  68.376  1.00  0.00    -0.109 C  
BRANCH   8   9
HETATM    9  N   UNL     1      -7.731  14.011  67.102  1.00  0.00    -0.356 N  
HETATM   10  H   UNL     1      -7.119  13.998  66.286  1.00  0.00     0.000 HD 
BRANCH   9  11
HETATM   11  C   UNL     1      -9.019  14.438  66.948  1.00  0.00    -0.243 C  
HETATM   12  O   UNL     1      -9.968  13.663  67.047  1.00  0.00    -0.239 OA 
BRANCH  11  13
HETATM   13  N   UNL     1      -9.174  15.783  66.685  1.00  0.00    -0.233 N  
HETATM   14  C   UNL     1     -10.505  16.384  66.800  1.00  0.00    -0.273 C  
HETATM   15  C   UNL     1     -10.512  17.471  67.880  1.00  0.00    -0.384 C  
HETATM   16  O   UNL     1      -9.491  18.453  67.633  1.00  0.00    -0.268 OA 
HETATM   17  C   UNL     1      -8.194  17.840  67.604  1.00  0.00    -0.230 C  
HETATM   18  C   UNL     1      -8.113  16.779  66.500  1.00  0.00    -0.294 C  
ENDBRANCH  11  13
ENDBRANCH   9  11
ENDBRANCH   8   9
ENDBRANCH   7   8
ENDBRANCH   5   7
ENDBRANCH   4   5
ENDBRANCH   2   4
BRANCH   2  19
HETATM   19  C   UNL     1     -10.759   9.489  69.361  1.00  0.00    -0.225 C  
BRANCH  19  20
HETATM   20  O   UNL     1     -11.323  10.755  68.989  1.00  0.00    -0.243 OA 
BRANCH  20  21
HETATM   21  C   UNL     1     -11.960  11.418  70.004  1.00  0.00    -0.363 A  
HETATM   22  C   UNL     1     -11.907  12.812  69.945  1.00  0.00    -0.371 A  
HETATM   23  H   UNL     1     -14.308  13.231  73.647  1.00  0.00     0.000 HD 
HETATM   24  O   UNL     1     -13.837  13.662  72.944  1.00  0.00    -0.659 OA 
HETATM   25  C   UNL     1     -12.530  13.586  70.928  1.00  0.00    -0.448 A  
HETATM   26  C   UNL     1     -13.220  12.954  71.957  1.00  0.00    -0.448 A  
HETATM   27  C   UNL     1     -12.675  10.797  71.030  1.00  0.00    -0.513 A  
HETATM   28  C   UNL     1     -13.305  11.568  72.009  1.00  0.00    -0.397 A  
ENDBRANCH  20  21
ENDBRANCH  19  20
ENDBRANCH   2  19
TORSDOF 10
ENDMDL
MODEL      134
REMARK 921   NORMALIZED FREE ENERGY PREDICTED BY IDOCK:   -4.70 KCAL/MOL
REMARK 922        TOTAL FREE ENERGY PREDICTED BY IDOCK:   -8.59 KCAL/MOL
REMARK 923 INTER-LIGAND FREE ENERGY PREDICTED BY IDOCK:   -7.71 KCAL/MOL
REMARK 924 INTRA-LIGAND FREE ENERGY PREDICTED BY IDOCK:   -0.88 KCAL/MOL
REMARK 927      BINDING AFFINITY PREDICTED BY RF-SCORE:    0.00 PKD
ROOT
HETATM    1  O   UNL     1     -13.116  12.705  64.423  1.00  0.00    -0.752 OA 
HETATM    2  C   UNL     1     -11.905  13.383  64.063  1.00  0.00    -0.445 C  
HETATM    3  H   UNL     1     -13.035  11.788  64.189  1.00  0.00     0.000 HD 
ENDROOT
BRANCH   2   4
HETATM    4  C   UNL     1     -12.037  14.868  64.443  1.00  0.00    -0.401 C  
BRANCH   4   5
HETATM    5  N   UNL     1     -10.718  15.522  64.475  1.00  0.00    -0.694 NA 
HETATM    6  H   UNL     1     -10.506  16.000  63.599  1.00  0.00     0.000 HD 
BRANCH   5   7
HETATM    7  C   UNL     1     -10.634  16.426  65.628  1.00  0.00    -0.323 C  
BRANCH   7   8
HETATM    8  C   UNL     1     -10.715  15.649  66.947  1.00  0.00    -0.307 C  
BRANCH   8   9
HETATM    9  N   UNL     1      -9.678  16.090  67.857  1.00  0.00    -0.220 N  
HETATM   10  H   UNL     1      -8.989  15.409  68.178  1.00  0.00     0.000 HD 
BRANCH   9  11
HETATM   11  C   UNL     1      -9.582  17.377  68.304  1.00  0.00    -0.292 C  
HETATM   12  O   UNL     1     -10.524  17.933  68.866  1.00  0.00    -0.322 OA 
BRANCH  11  13
HETATM   13  N   UNL     1      -8.369  17.995  68.087  1.00  0.00    -0.261 N  
HETATM   14  C   UNL     1      -7.406  17.377  67.173  1.00  0.00    -0.172 C  
HETATM   15  C   UNL     1      -7.119  18.305  65.987  1.00  0.00    -0.271 C  
HETATM   16  O   UNL     1      -6.688  19.602  66.437  1.00  0.00    -0.193 OA 
HETATM   17  C   UNL     1      -7.689  20.209  67.266  1.00  0.00    -0.306 C  
HETATM   18  C   UNL     1      -7.976  19.347  68.501  1.00  0.00    -0.360 C  
ENDBRANCH  11  13
ENDBRANCH   9  11
ENDBRANCH   8   9
ENDBRANCH   7   8
ENDBRANCH   5   7
ENDBRANCH   4   5
ENDBRANCH   2   4
BRANCH   2  19
HETATM   19  C   UNL     1     -10.711  12.763  64.801  1.00  0.00    -0.316 C  
BRANCH  19  20
HETATM   20  O   UNL     1     -11.167  12.130  66.005  1.00  0.00    -0.307 OA 
BRANCH  20  21
HETATM   21  C   UNL     1     -10.600  10.911  66.260  1.00  0.00    -0.214 A  
HETATM   22  C   UNL     1     -10.772  10.421  67.557  1.00  0.00    -0.339 A  
HETATM   23  H   UNL     1      -8.532   6.709  66.638  1.00  0.00     0.000 HD 
HETATM   24  O   UNL     1      -9.003   7.222  67.284  1.00  0.00    -0.122 OA 
HETATM   25  C   UNL     1     -10.240   9.182  67.922  1.00  0.00    -0.266 A  
HETATM   26  C   UNL     1      -9.549   8.431  66.977  1.00  0.00    -0.190 A  
HETATM   27  C   UNL     1      -9.924  10.136  65.315  1.00  0.00    -0.381 A  
HETATM   28  C   UNL     1      -9.397   8.895  65.675  1.00  0.00    -0.259 A  
ENDBRANCH  20  21
ENDBRANCH  19  20
ENDBRANCH   2  19
TORSDOF 10
ENDMDL
MODEL      135
REMARK 921   NORMALIZED FREE ENERGY PREDICTED BY IDOCK:   -4.70 KCAL/MOL
REMARK 922        TOTAL FREE ENERGY PREDICTED BY IDOCK:   -8.59 KCAL/MOL
REMARK 923 INTER-LIGAND FREE ENERGY PREDICTED BY IDOCK:   -7.60 KCAL/MOL
REMARK 924 INTRA-LIGAND FREE ENERGY PREDICTED BY IDOCK:   -0.99 KCAL/MOL
REMARK 927      BINDING AFFINITY PREDICTED BY RF-SCORE:    0.00 PKD
ROOT
HETATM    1  O   UNL     1      -9.731  14.589  69.400  1.00  0.00    -0.416 OA 
HETATM    2  C   UNL     1     -11.131  14.736  69.678  1.00  0.00    -0.272 C  
HETATM    3  H   UNL     1      -9.443  13.742  69.719  1.00  0.00     0.000 HD 
ENDROOT
BRANCH   2   4
HETATM    4  C   UNL     1     -11.597  16.108  69.161  1.00  0.00    -0.285 C  
BRANCH   4   5
HETATM    5  N   UNL     1     -10.448  16.987  68.890  1.00  0.00    -0.336 NA 
HETATM    6  H   UNL     1      -9.559  16.530  69.097  1.00  0.00     0.000 HD 
BRANCH   5   7
HETATM    7  C   UNL     1     -10.505  17.477  67.508  1.00  0.00    -0.355 C  
BRANCH   7   8
HETATM    8  C   UNL     1     -10.182  16.358  66.511  1.00  0.00    -0.304 C  
BRANCH   8   9
HETATM    9  N   UNL     1      -8.803  16.453  66.076  1.00  0.00    -0.317 N  
HETATM   10  H   UNL     1      -8.607  16.466  65.075  1.00  0.00     0.000 HD 
BRANCH   9  11
HETATM   11  C   UNL     1      -7.755  16.524  66.949  1.00  0.00    -0.231 C  
HETATM   12  O   UNL     1      -7.364  15.534  67.565  1.00  0.00    -0.152 OA 
BRANCH  11  13
HETATM   13  N   UNL     1      -7.172  17.767  67.081  1.00  0.00    -0.177 N  
HETATM   14  C   UNL     1      -7.002  18.606  65.893  1.00  0.00    -0.270 C  
HETATM   15  C   UNL     1      -7.794  19.911  66.040  1.00  0.00    -0.323 C  
HETATM   16  O   UNL     1      -7.436  20.601  67.250  1.00  0.00    -0.325 OA 
HETATM   17  C   UNL     1      -7.688  19.777  68.397  1.00  0.00    -0.301 C  
HETATM   18  C   UNL     1      -6.875  18.478  68.330  1.00  0.00    -0.235 C  
ENDBRANCH  11  13
ENDBRANCH   9  11
ENDBRANCH   8   9
ENDBRANCH   7   8
ENDBRANCH   5   7
ENDBRANCH   4   5
ENDBRANCH   2   4
BRANCH   2  19
HETATM   19  C   UNL     1     -11.929  13.622  68.988  1.00  0.00    -0.353 C  
BRANCH  19  20
HETATM   20  O   UNL     1     -11.172  12.404  69.014  1.00  0.00    -0.248 OA 
BRANCH  20  21
HETATM   21  C   UNL     1     -11.598  11.485  69.934  1.00  0.00    -0.308 A  
HETATM   22  C   UNL     1     -10.970  10.239  69.884  1.00  0.00    -0.358 A  
HETATM   23  H   UNL     1     -13.356   8.706  73.290  1.00  0.00     0.000 HD 
HETATM   24  O   UNL     1     -12.690   8.533  72.636  1.00  0.00    -0.341 OA 
HETATM   25  C   UNL     1     -11.326   9.230  70.783  1.00  0.00    -0.349 A  
HETATM   26  C   UNL     1     -12.301   9.484  71.742  1.00  0.00    -0.394 A  
HETATM   27  C   UNL     1     -12.560  11.734  70.916  1.00  0.00    -0.384 A  
HETATM   28  C   UNL     1     -12.912  10.730  71.820  1.00  0.00    -0.568 A  
ENDBRANCH  20  21
ENDBRANCH  19  20
ENDBRANCH   2  19
TORSDOF 10
ENDMDL
MODEL      136
REMARK 921   NORMALIZED FREE ENERGY PREDICTED BY IDOCK:   -4.70 KCAL/MOL
REMARK 922        TOTAL FREE ENERGY PREDICTED BY IDOCK:   -8.59 KCAL/MOL
REMARK 923 INTER-LIGAND FREE ENERGY PREDICTED BY IDOCK:   -7.81 KCAL/MOL
REMARK 924 INTRA-LIGAND FREE ENERGY PREDICTED BY IDOCK:   -0.78 KCAL/MOL
REMARK 927      BINDING AFFINITY PREDICTED BY RF-SCORE:    0.00 PKD
ROOT
HETATM    1  O   UNL     1     -10.625   8.394  72.345  1.00  0.00    -0.316 OA 
HETATM    2  C   UNL     1     -11.890   7.757  72.571  1.00  0.00    -0.302 C  
HETATM    3  H   UNL     1      -9.934   7.753  72.464  1.00  0.00     0.000 HD 
ENDROOT
BRANCH   2   4
HETATM    4  C   UNL     1     -13.008   8.796  72.379  1.00  0.00    -0.383 C  
BRANCH   4   5
HETATM    5  N   UNL     1     -13.142   9.170  70.961  1.00  0.00    -0.537 NA 
HETATM    6  H   UNL     1     -14.044   8.891  70.575  1.00  0.00     0.000 HD 
BRANCH   5   7
HETATM    7  C   UNL     1     -12.893  10.607  70.795  1.00  0.00    -0.352 C  
BRANCH   7   8
HETATM    8  C   UNL     1     -11.598  10.857  70.015  1.00  0.00    -0.341 C  
BRANCH   8   9
HETATM    9  N   UNL     1     -11.487  12.257  69.656  1.00  0.00    -0.453 N  
HETATM   10  H   UNL     1     -11.438  12.949  70.403  1.00  0.00     0.000 HD 
BRANCH   9  11
HETATM   11  C   UNL     1     -11.444  12.687  68.361  1.00  0.00    -0.310 C  
HETATM   12  O   UNL     1     -12.020  12.077  67.462  1.00  0.00    -0.572 OA 
BRANCH  11  13
HETATM   13  N   UNL     1     -10.725  13.842  68.139  1.00  0.00    -0.245 N  
HETATM   14  C   UNL     1     -10.273  14.153  66.781  1.00  0.00    -0.262 C  
HETATM   15  C   UNL     1     -10.894  15.468  66.296  1.00  0.00    -0.283 C  
HETATM   16  O   UNL     1     -10.625  16.539  67.218  1.00  0.00    -0.315 OA 
HETATM   17  C   UNL     1     -11.149  16.233  68.518  1.00  0.00    -0.368 C  
HETATM   18  C   UNL     1     -10.518  14.952  69.077  1.00  0.00    -0.247 C  
ENDBRANCH  11  13
ENDBRANCH   9  11
ENDBRANCH   8   9
ENDBRANCH   7   8
ENDBRANCH   5   7
ENDBRANCH   4   5
ENDBRANCH   2   4
BRANCH   2  19
HETATM   19  C   UNL     1     -12.083   6.597  71.585  1.00  0.00    -0.355 C  
BRANCH  19  20
HETATM   20  O   UNL     1     -10.806   6.038  71.247  1.00  0.00    -0.251 OA 
BRANCH  20  21
HETATM   21  C   UNL     1     -10.630   5.777  69.915  1.00  0.00    -0.318 A  
HETATM   22  C   UNL     1      -9.885   4.635  69.613  1.00  0.00    -0.293 A  
HETATM   23  H   UNL     1     -10.339   5.282  65.252  1.00  0.00     0.000 HD 
HETATM   24  O   UNL     1      -9.977   4.749  65.950  1.00  0.00    -0.191 OA 
HETATM   25  C   UNL     1      -9.651   4.273  68.284  1.00  0.00    -0.197 A  
HETATM   26  C   UNL     1     -10.182   5.053  67.261  1.00  0.00    -0.168 A  
HETATM   27  C   UNL     1     -11.176   6.539  68.879  1.00  0.00    -0.341 A  
HETATM   28  C   UNL     1     -10.950   6.176  67.550  1.00  0.00    -0.404 A  
ENDBRANCH  20  21
ENDBRANCH  19  20
ENDBRANCH   2  19
TORSDOF 10
ENDMDL
MODEL      137
REMARK 921   NORMALIZED FREE ENERGY PREDICTED BY IDOCK:   -4.70 KCAL/MOL
REMARK 922        TOTAL FREE ENERGY PREDICTED BY IDOCK:   -8.59 KCAL/MOL
REMARK 923 INTER-LIGAND FREE ENERGY PREDICTED BY IDOCK:   -8.00 KCAL/MOL
REMARK 924 INTRA-LIGAND FREE ENERGY PREDICTED BY IDOCK:   -0.58 KCAL/MOL
REMARK 927      BINDING AFFINITY PREDICTED BY RF-SCORE:    0.00 PKD
ROOT
HETATM    1  O   UNL     1     -12.153  12.369  69.547  1.00  0.00    -0.268 OA 
HETATM    2  C   UNL     1     -12.213  12.321  70.979  1.00  0.00    -0.108 C  
HETATM    3  H   UNL     1     -11.636  11.635  69.237  1.00  0.00     0.000 HD 
ENDROOT
BRANCH   2   4
HETATM    4  C   UNL     1     -13.049  13.511  71.481  1.00  0.00    -0.344 C  
BRANCH   4   5
HETATM    5  N   UNL     1     -13.009  14.625  70.519  1.00  0.00    -0.522 NA 
HETATM    6  H   UNL     1     -13.904  15.113  70.463  1.00  0.00     0.000 HD 
BRANCH   5   7
HETATM    7  C   UNL     1     -11.906  15.534  70.849  1.00  0.00    -0.371 C  
BRANCH   7   8
HETATM    8  C   UNL     1     -10.875  15.585  69.715  1.00  0.00    -0.296 C  
BRANCH   8   9
HETATM    9  N   UNL     1     -11.406  16.317  68.583  1.00  0.00    -0.361 N  
HETATM   10  H   UNL     1     -12.418  16.392  68.482  1.00  0.00     0.000 HD 
BRANCH   9  11
HETATM   11  C   UNL     1     -10.609  16.910  67.646  1.00  0.00    -0.325 C  
HETATM   12  O   UNL     1     -10.254  16.310  66.632  1.00  0.00    -0.268 OA 
BRANCH  11  13
HETATM   13  N   UNL     1     -10.243  18.212  67.911  1.00  0.00    -0.360 N  
HETATM   14  C   UNL     1      -8.964  18.474  68.574  1.00  0.00    -0.323 C  
HETATM   15  C   UNL     1      -8.050  19.307  67.669  1.00  0.00    -0.277 C  
HETATM   16  O   UNL     1      -8.702  20.518  67.248  1.00  0.00    -0.348 OA 
HETATM   17  C   UNL     1      -9.911  20.221  66.535  1.00  0.00    -0.397 C  
HETATM   18  C   UNL     1     -10.889  19.433  67.416  1.00  0.00    -0.440 C  
ENDBRANCH  11  13
ENDBRANCH   9  11
ENDBRANCH   8   9
ENDBRANCH   7   8
ENDBRANCH   5   7
ENDBRANCH   4   5
ENDBRANCH   2   4
BRANCH   2  19
HETATM   19  C   UNL     1     -12.854  11.005  71.439  1.00  0.00    -0.443 C  
BRANCH  19  20
HETATM   20  O   UNL     1     -12.279   9.911  70.709  1.00  0.00    -0.293 OA 
BRANCH  20  21
HETATM   21  C   UNL     1     -11.414   9.134  71.432  1.00  0.00    -0.350 A  
HETATM   22  C   UNL     1     -10.058   9.311  71.149  1.00  0.00    -0.374 A  
HETATM   23  H   UNL     1      -8.857   6.302  74.173  1.00  0.00     0.000 HD 
HETATM   24  O   UNL     1      -8.585   6.919  73.504  1.00  0.00    -0.125 OA 
HETATM   25  C   UNL     1      -9.090   8.572  71.834  1.00  0.00    -0.314 A  
HETATM   26  C   UNL     1      -9.488   7.669  72.814  1.00  0.00    -0.188 A  
HETATM   27  C   UNL     1     -11.799   8.240  72.434  1.00  0.00    -0.461 A  
HETATM   28  C   UNL     1     -10.833   7.506  73.124  1.00  0.00    -0.448 A  
ENDBRANCH  20  21
ENDBRANCH  19  20
ENDBRANCH   2  19
TORSDOF 10
ENDMDL
MODEL      138
REMARK 921   NORMALIZED FREE ENERGY PREDICTED BY IDOCK:   -4.69 KCAL/MOL
REMARK 922        TOTAL FREE ENERGY PREDICTED BY IDOCK:   -8.57 KCAL/MOL
REMARK 923 INTER-LIGAND FREE ENERGY PREDICTED BY IDOCK:   -7.85 KCAL/MOL
REMARK 924 INTRA-LIGAND FREE ENERGY PREDICTED BY IDOCK:   -0.73 KCAL/MOL
REMARK 927      BINDING AFFINITY PREDICTED BY RF-SCORE:    0.00 PKD
ROOT
HETATM    1  O   UNL     1     -11.859  12.813  62.998  1.00  0.00    -0.780 OA 
HETATM    2  C   UNL     1     -12.354  12.796  64.344  1.00  0.00    -0.424 C  
HETATM    3  H   UNL     1     -12.433  13.353  62.467  1.00  0.00     0.000 HD 
ENDROOT
BRANCH   2   4
HETATM    4  C   UNL     1     -11.424  11.922  65.203  1.00  0.00    -0.243 C  
BRANCH   4   5
HETATM    5  N   UNL     1     -11.949  11.781  66.572  1.00  0.00    -0.476 NA 
HETATM    6  H   UNL     1     -12.707  11.100  66.622  1.00  0.00     0.000 HD 
BRANCH   5   7
HETATM    7  C   UNL     1     -10.857  11.459  67.498  1.00  0.00    -0.244 C  
BRANCH   7   8
HETATM    8  C   UNL     1     -10.910   9.988  67.924  1.00  0.00    -0.271 C  
BRANCH   8   9
HETATM    9  N   UNL     1     -10.478   9.845  69.300  1.00  0.00    -0.208 N  
HETATM   10  H   UNL     1      -9.477   9.831  69.498  1.00  0.00     0.000 HD 
BRANCH   9  11
HETATM   11  C   UNL     1     -11.353   9.729  70.342  1.00  0.00    -0.297 C  
HETATM   12  O   UNL     1     -12.117  10.644  70.644  1.00  0.00    -0.302 OA 
BRANCH  11  13
HETATM   13  N   UNL     1     -11.322   8.526  71.016  1.00  0.00    -0.265 N  
HETATM   14  C   UNL     1     -10.697   7.366  70.377  1.00  0.00    -0.237 C  
HETATM   15  C   UNL     1      -9.501   6.879  71.203  1.00  0.00    -0.166 C  
HETATM   16  O   UNL     1      -9.885   6.610  72.563  1.00  0.00    -0.165 OA 
HETATM   17  C   UNL     1     -10.422   7.789  73.180  1.00  0.00    -0.349 C  
HETATM   18  C   UNL     1     -11.659   8.290  72.424  1.00  0.00    -0.396 C  
ENDBRANCH  11  13
ENDBRANCH   9  11
ENDBRANCH   8   9
ENDBRANCH   7   8
ENDBRANCH   5   7
ENDBRANCH   4   5
ENDBRANCH   2   4
BRANCH   2  19
HETATM   19  C   UNL     1     -12.396  14.221  64.911  1.00  0.00    -0.425 C  
BRANCH  19  20
HETATM   20  O   UNL     1     -11.067  14.757  64.961  1.00  0.00    -0.359 OA 
BRANCH  20  21
HETATM   21  C   UNL     1     -10.840  15.631  65.990  1.00  0.00    -0.275 A  
HETATM   22  C   UNL     1     -10.162  16.804  65.652  1.00  0.00    -0.258 A  
HETATM   23  H   UNL     1     -10.343  18.314  69.815  1.00  0.00     0.000 HD 
HETATM   24  O   UNL     1     -10.056  18.458  68.921  1.00  0.00    -0.388 OA 
HETATM   25  C   UNL     1      -9.886  17.768  66.625  1.00  0.00    -0.322 A  
HETATM   26  C   UNL     1     -10.307  17.556  67.934  1.00  0.00    -0.371 A  
HETATM   27  C   UNL     1     -11.278  15.441  67.302  1.00  0.00    -0.270 A  
HETATM   28  C   UNL     1     -11.009  16.405  68.276  1.00  0.00    -0.355 A  
ENDBRANCH  20  21
ENDBRANCH  19  20
ENDBRANCH   2  19
TORSDOF 10
ENDMDL
MODEL      139
REMARK 921   NORMALIZED FREE ENERGY PREDICTED BY IDOCK:   -4.68 KCAL/MOL
REMARK 922        TOTAL FREE ENERGY PREDICTED BY IDOCK:   -8.56 KCAL/MOL
REMARK 923 INTER-LIGAND FREE ENERGY PREDICTED BY IDOCK:   -7.72 KCAL/MOL
REMARK 924 INTRA-LIGAND FREE ENERGY PREDICTED BY IDOCK:   -0.84 KCAL/MOL
REMARK 927      BINDING AFFINITY PREDICTED BY RF-SCORE:    0.00 PKD
ROOT
HETATM    1  O   UNL     1      -9.760  13.743  65.162  1.00  0.00    -0.567 OA 
HETATM    2  C   UNL     1     -10.862  12.832  65.275  1.00  0.00    -0.291 C  
HETATM    3  H   UNL     1     -10.071  14.553  64.777  1.00  0.00     0.000 HD 
ENDROOT
BRANCH   2   4
HETATM    4  C   UNL     1     -10.358  11.518  65.898  1.00  0.00    -0.247 C  
BRANCH   4   5
HETATM    5  N   UNL     1     -11.234  11.088  67.000  1.00  0.00    -0.356 NA 
HETATM    6  H   UNL     1     -12.219  11.105  66.735  1.00  0.00     0.000 HD 
BRANCH   5   7
HETATM    7  C   UNL     1     -10.818   9.768  67.486  1.00  0.00    -0.220 C  
BRANCH   7   8
HETATM    8  C   UNL     1     -10.549   9.793  68.995  1.00  0.00    -0.219 C  
BRANCH   8   9
HETATM    9  N   UNL     1     -11.706   9.311  69.722  1.00  0.00    -0.419 N  
HETATM   10  H   UNL     1     -12.621   9.367  69.275  1.00  0.00     0.000 HD 
BRANCH   9  11
HETATM   11  C   UNL     1     -11.624   8.785  70.980  1.00  0.00    -0.288 C  
HETATM   12  O   UNL     1     -11.795   9.481  71.979  1.00  0.00    -0.341 OA 
BRANCH  11  13
HETATM   13  N   UNL     1     -11.345   7.436  71.045  1.00  0.00    -0.268 N  
HETATM   14  C   UNL     1     -11.902   6.542  70.028  1.00  0.00    -0.217 C  
HETATM   15  C   UNL     1     -10.779   5.861  69.238  1.00  0.00    -0.331 C  
HETATM   16  O   UNL     1      -9.865   5.183  70.118  1.00  0.00    -0.190 OA 
HETATM   17  C   UNL     1      -9.281   6.104  71.050  1.00  0.00    -0.157 C  
HETATM   18  C   UNL     1     -10.360   6.775  71.908  1.00  0.00    -0.197 C  
ENDBRANCH  11  13
ENDBRANCH   9  11
ENDBRANCH   8   9
ENDBRANCH   7   8
ENDBRANCH   5   7
ENDBRANCH   4   5
ENDBRANCH   2   4
BRANCH   2  19
HETATM   19  C   UNL     1     -11.962  13.436  66.157  1.00  0.00    -0.413 C  
BRANCH  19  20
HETATM   20  O   UNL     1     -11.543  14.724  66.629  1.00  0.00    -0.360 OA 
BRANCH  20  21
HETATM   21  C   UNL     1     -11.533  14.858  67.992  1.00  0.00    -0.337 A  
HETATM   22  C   UNL     1     -11.056  16.077  68.479  1.00  0.00    -0.347 A  
HETATM   23  H   UNL     1     -11.732  14.858  72.686  1.00  0.00     0.000 HD 
HETATM   24  O   UNL     1     -11.426  15.526  72.084  1.00  0.00    -0.432 OA 
HETATM   25  C   UNL     1     -11.009  16.320  69.854  1.00  0.00    -0.365 A  
HETATM   26  C   UNL     1     -11.458  15.342  70.735  1.00  0.00    -0.355 A  
HETATM   27  C   UNL     1     -12.001  13.894  68.887  1.00  0.00    -0.393 A  
HETATM   28  C   UNL     1     -11.962  14.137  70.261  1.00  0.00    -0.404 A  
ENDBRANCH  20  21
ENDBRANCH  19  20
ENDBRANCH   2  19
TORSDOF 10
ENDMDL
MODEL      140
REMARK 921   NORMALIZED FREE ENERGY PREDICTED BY IDOCK:   -4.68 KCAL/MOL
REMARK 922        TOTAL FREE ENERGY PREDICTED BY IDOCK:   -8.56 KCAL/MOL
REMARK 923 INTER-LIGAND FREE ENERGY PREDICTED BY IDOCK:   -7.56 KCAL/MOL
REMARK 924 INTRA-LIGAND FREE ENERGY PREDICTED BY IDOCK:   -1.00 KCAL/MOL
REMARK 927      BINDING AFFINITY PREDICTED BY RF-SCORE:    0.00 PKD
ROOT
HETATM    1  O   UNL     1     -10.453   7.671  66.452  1.00  0.00    -0.483 OA 
HETATM    2  C   UNL     1      -9.206   8.294  66.791  1.00  0.00    -0.169 C  
HETATM    3  H   UNL     1     -10.528   6.854  66.931  1.00  0.00     0.000 HD 
ENDROOT
BRANCH   2   4
HETATM    4  C   UNL     1      -9.085   9.615  66.013  1.00  0.00    -0.171 C  
BRANCH   4   5
HETATM    5  N   UNL     1     -10.168   9.745  65.024  1.00  0.00    -0.226 NA 
HETATM    6  H   UNL     1     -11.086   9.792  65.466  1.00  0.00     0.000 HD 
BRANCH   5   7
HETATM    7  C   UNL     1      -9.917  10.899  64.153  1.00  0.00    -0.344 C  
BRANCH   7   8
HETATM    8  C   UNL     1     -11.197  11.713  63.930  1.00  0.00    -0.397 C  
BRANCH   8   9
HETATM    9  N   UNL     1     -11.845  11.991  65.196  1.00  0.00    -0.279 N  
HETATM   10  H   UNL     1     -12.069  11.209  65.811  1.00  0.00     0.000 HD 
BRANCH   9  11
HETATM   11  C   UNL     1     -12.167  13.255  65.600  1.00  0.00    -0.462 C  
HETATM   12  O   UNL     1     -13.150  13.841  65.152  1.00  0.00    -0.762 OA 
BRANCH  11  13
HETATM   13  N   UNL     1     -11.326  13.814  66.539  1.00  0.00    -0.316 N  
HETATM   14  C   UNL     1     -11.866  14.785  67.493  1.00  0.00    -0.301 C  
HETATM   15  C   UNL     1     -11.721  14.266  68.928  1.00  0.00    -0.328 C  
HETATM   16  O   UNL     1     -10.355  13.919  69.218  1.00  0.00    -0.084 OA 
HETATM   17  C   UNL     1      -9.886  12.910  68.313  1.00  0.00    -0.228 C  
HETATM   18  C   UNL     1      -9.956  13.399  66.861  1.00  0.00    -0.252 C  
ENDBRANCH  11  13
ENDBRANCH   9  11
ENDBRANCH   8   9
ENDBRANCH   7   8
ENDBRANCH   5   7
ENDBRANCH   4   5
ENDBRANCH   2   4
BRANCH   2  19
HETATM   19  C   UNL     1      -9.144   8.570  68.299  1.00  0.00    -0.138 C  
BRANCH  19  20
HETATM   20  O   UNL     1      -9.925   7.591  68.998  1.00  0.00    -0.167 OA 
BRANCH  20  21
HETATM   21  C   UNL     1     -10.780   8.104  69.936  1.00  0.00    -0.241 A  
HETATM   22  C   UNL     1     -11.651   7.188  70.529  1.00  0.00    -0.331 A  
HETATM   23  H   UNL     1     -13.466  10.313  73.094  1.00  0.00     0.000 HD 
HETATM   24  O   UNL     1     -13.453   9.401  72.830  1.00  0.00    -0.338 OA 
HETATM   25  C   UNL     1     -12.561   7.606  71.504  1.00  0.00    -0.369 A  
HETATM   26  C   UNL     1     -12.580   8.942  71.891  1.00  0.00    -0.377 A  
HETATM   27  C   UNL     1     -10.795   9.438  70.350  1.00  0.00    -0.321 A  
HETATM   28  C   UNL     1     -11.698   9.857  71.328  1.00  0.00    -0.472 A  
ENDBRANCH  20  21
ENDBRANCH  19  20
ENDBRANCH   2  19
TORSDOF 10
ENDMDL
MODEL      141
REMARK 921   NORMALIZED FREE ENERGY PREDICTED BY IDOCK:   -4.68 KCAL/MOL
REMARK 922        TOTAL FREE ENERGY PREDICTED BY IDOCK:   -8.55 KCAL/MOL
REMARK 923 INTER-LIGAND FREE ENERGY PREDICTED BY IDOCK:   -7.42 KCAL/MOL
REMARK 924 INTRA-LIGAND FREE ENERGY PREDICTED BY IDOCK:   -1.13 KCAL/MOL
REMARK 927      BINDING AFFINITY PREDICTED BY RF-SCORE:    0.00 PKD
ROOT
HETATM    1  O   UNL     1     -11.477  13.810  70.592  1.00  0.00    -0.512 OA 
HETATM    2  C   UNL     1     -12.006  13.830  69.259  1.00  0.00    -0.352 C  
HETATM    3  H   UNL     1     -11.700  12.981  70.998  1.00  0.00     0.000 HD 
ENDROOT
BRANCH   2   4
HETATM    4  C   UNL     1     -11.645  15.173  68.602  1.00  0.00    -0.338 C  
BRANCH   4   5
HETATM    5  N   UNL     1     -10.473  15.029  67.721  1.00  0.00    -0.246 NA 
HETATM    6  H   UNL     1     -10.608  15.500  66.826  1.00  0.00     0.000 HD 
BRANCH   5   7
HETATM    7  C   UNL     1      -9.266  15.496  68.412  1.00  0.00    -0.191 C  
BRANCH   7   8
HETATM    8  C   UNL     1      -8.282  16.142  67.430  1.00  0.00    -0.163 C  
BRANCH   8   9
HETATM    9  N   UNL     1      -8.985  17.013  66.510  1.00  0.00    -0.254 N  
HETATM   10  H   UNL     1      -9.136  16.693  65.554  1.00  0.00     0.000 HD 
BRANCH   9  11
HETATM   11  C   UNL     1      -9.454  18.245  66.870  1.00  0.00    -0.290 C  
HETATM   12  O   UNL     1     -10.651  18.443  67.069  1.00  0.00    -0.395 OA 
BRANCH  11  13
HETATM   13  N   UNL     1      -8.500  19.232  66.999  1.00  0.00    -0.276 N  
HETATM   14  C   UNL     1      -8.251  19.817  68.318  1.00  0.00    -0.277 C  
HETATM   15  C   UNL     1      -6.805  19.557  68.756  1.00  0.00    -0.322 C  
HETATM   16  O   UNL     1      -5.872  20.027  67.767  1.00  0.00    -0.189 OA 
HETATM   17  C   UNL     1      -6.096  19.376  66.508  1.00  0.00    -0.165 C  
HETATM   18  C   UNL     1      -7.515  19.650  65.994  1.00  0.00    -0.311 C  
ENDBRANCH  11  13
ENDBRANCH   9  11
ENDBRANCH   8   9
ENDBRANCH   7   8
ENDBRANCH   5   7
ENDBRANCH   4   5
ENDBRANCH   2   4
BRANCH   2  19
HETATM   19  C   UNL     1     -11.419  12.674  68.438  1.00  0.00    -0.310 C  
BRANCH  19  20
HETATM   20  O   UNL     1     -12.037  12.643  67.144  1.00  0.00    -0.466 OA 
BRANCH  20  21
HETATM   21  C   UNL     1     -11.313  11.995  66.180  1.00  0.00    -0.351 A  
HETATM   22  C   UNL     1     -10.644  10.842  66.596  1.00  0.00    -0.291 A  
HETATM   23  H   UNL     1      -9.021  10.111  62.537  1.00  0.00     0.000 HD 
HETATM   24  O   UNL     1      -9.072   9.830  63.443  1.00  0.00    -0.248 OA 
HETATM   25  C   UNL     1      -9.882  10.100  65.690  1.00  0.00    -0.347 A  
HETATM   26  C   UNL     1      -9.808  10.512  64.363  1.00  0.00    -0.341 A  
HETATM   27  C   UNL     1     -11.249  12.384  64.840  1.00  0.00    -0.353 A  
HETATM   28  C   UNL     1     -10.493  11.641  63.931  1.00  0.00    -0.433 A  
ENDBRANCH  20  21
ENDBRANCH  19  20
ENDBRANCH   2  19
TORSDOF 10
ENDMDL
MODEL      142
REMARK 921   NORMALIZED FREE ENERGY PREDICTED BY IDOCK:   -4.68 KCAL/MOL
REMARK 922        TOTAL FREE ENERGY PREDICTED BY IDOCK:   -8.55 KCAL/MOL
REMARK 923 INTER-LIGAND FREE ENERGY PREDICTED BY IDOCK:   -7.78 KCAL/MOL
REMARK 924 INTRA-LIGAND FREE ENERGY PREDICTED BY IDOCK:   -0.77 KCAL/MOL
REMARK 927      BINDING AFFINITY PREDICTED BY RF-SCORE:    0.00 PKD
ROOT
HETATM    1  O   UNL     1     -11.569  15.090  68.894  1.00  0.00    -0.294 OA 
HETATM    2  C   UNL     1     -11.151  14.278  67.788  1.00  0.00    -0.280 C  
HETATM    3  H   UNL     1     -12.518  15.110  68.918  1.00  0.00     0.000 HD 
ENDROOT
BRANCH   2   4
HETATM    4  C   UNL     1      -9.614  14.247  67.749  1.00  0.00    -0.221 C  
BRANCH   4   5
HETATM    5  N   UNL     1      -9.092  15.224  66.779  1.00  0.00    -0.237 NA 
HETATM    6  H   UNL     1      -9.734  16.004  66.639  1.00  0.00     0.000 HD 
BRANCH   5   7
HETATM    7  C   UNL     1      -7.757  15.675  67.189  1.00  0.00    -0.223 C  
BRANCH   7   8
HETATM    8  C   UNL     1      -7.826  16.503  68.477  1.00  0.00    -0.210 C  
BRANCH   8   9
HETATM    9  N   UNL     1      -7.017  17.699  68.353  1.00  0.00    -0.213 N  
HETATM   10  H   UNL     1      -6.166  17.656  67.793  1.00  0.00     0.000 HD 
BRANCH   9  11
HETATM   11  C   UNL     1      -7.346  18.880  68.954  1.00  0.00    -0.310 C  
HETATM   12  O   UNL     1      -6.710  19.311  69.914  1.00  0.00    -0.198 OA 
BRANCH  11  13
HETATM   13  N   UNL     1      -8.422  19.548  68.409  1.00  0.00    -0.352 N  
HETATM   14  C   UNL     1      -8.228  20.345  67.195  1.00  0.00    -0.320 C  
HETATM   15  C   UNL     1      -9.084  19.794  66.049  1.00  0.00    -0.265 C  
HETATM   16  O   UNL     1     -10.469  19.712  66.430  1.00  0.00    -0.445 OA 
HETATM   17  C   UNL     1     -10.629  18.862  67.575  1.00  0.00    -0.451 C  
HETATM   18  C   UNL     1      -9.835  19.398  68.773  1.00  0.00    -0.456 C  
ENDBRANCH  11  13
ENDBRANCH   9  11
ENDBRANCH   8   9
ENDBRANCH   7   8
ENDBRANCH   5   7
ENDBRANCH   4   5
ENDBRANCH   2   4
BRANCH   2  19
HETATM   19  C   UNL     1     -11.697  12.852  67.941  1.00  0.00    -0.357 C  
BRANCH  19  20
HETATM   20  O   UNL     1     -10.804  12.084  68.761  1.00  0.00    -0.219 OA 
BRANCH  20  21
HETATM   21  C   UNL     1     -11.413  11.384  69.768  1.00  0.00    -0.300 A  
HETATM   22  C   UNL     1     -10.926  10.095  69.991  1.00  0.00    -0.364 A  
HETATM   23  H   UNL     1     -13.767   9.413  73.323  1.00  0.00     0.000 HD 
HETATM   24  O   UNL     1     -13.068   9.066  72.783  1.00  0.00    -0.386 OA 
HETATM   25  C   UNL     1     -11.472   9.297  71.000  1.00  0.00    -0.387 A  
HETATM   26  C   UNL     1     -12.496   9.805  71.793  1.00  0.00    -0.398 A  
HETATM   27  C   UNL     1     -12.426  11.890  70.585  1.00  0.00    -0.347 A  
HETATM   28  C   UNL     1     -12.969  11.098  71.598  1.00  0.00    -0.548 A  
ENDBRANCH  20  21
ENDBRANCH  19  20
ENDBRANCH   2  19
TORSDOF 10
ENDMDL
MODEL      143
REMARK 921   NORMALIZED FREE ENERGY PREDICTED BY IDOCK:   -4.67 KCAL/MOL
REMARK 922        TOTAL FREE ENERGY PREDICTED BY IDOCK:   -8.55 KCAL/MOL
REMARK 923 INTER-LIGAND FREE ENERGY PREDICTED BY IDOCK:   -7.64 KCAL/MOL
REMARK 924 INTRA-LIGAND FREE ENERGY PREDICTED BY IDOCK:   -0.91 KCAL/MOL
REMARK 927      BINDING AFFINITY PREDICTED BY RF-SCORE:    0.00 PKD
ROOT
HETATM    1  O   UNL     1      -9.103  13.010  65.974  1.00  0.00    -0.451 OA 
HETATM    2  C   UNL     1     -10.396  13.211  65.386  1.00  0.00    -0.301 C  
HETATM    3  H   UNL     1      -8.495  13.635  65.597  1.00  0.00     0.000 HD 
ENDROOT
BRANCH   2   4
HETATM    4  C   UNL     1     -11.380  12.198  65.996  1.00  0.00    -0.358 C  
BRANCH   4   5
HETATM    5  N   UNL     1     -12.137  12.802  67.105  1.00  0.00    -0.433 NA 
HETATM    6  H   UNL     1     -13.143  12.781  66.937  1.00  0.00     0.000 HD 
BRANCH   5   7
HETATM    7  C   UNL     1     -11.777  12.153  68.371  1.00  0.00    -0.332 C  
BRANCH   7   8
HETATM    8  C   UNL     1     -11.063  10.819  68.124  1.00  0.00    -0.280 C  
BRANCH   8   9
HETATM    9  N   UNL     1     -11.565   9.803  69.027  1.00  0.00    -0.455 N  
HETATM   10  H   UNL     1     -12.567   9.769  69.214  1.00  0.00     0.000 HD 
BRANCH   9  11
HETATM   11  C   UNL     1     -10.754   8.890  69.638  1.00  0.00    -0.217 C  
HETATM   12  O   UNL     1      -9.616   8.668  69.229  1.00  0.00    -0.163 OA 
BRANCH  11  13
HETATM   13  N   UNL     1     -11.294   8.251  70.734  1.00  0.00    -0.269 N  
HETATM   14  C   UNL     1     -11.803   6.886  70.585  1.00  0.00    -0.368 C  
HETATM   15  C   UNL     1     -11.021   5.920  71.483  1.00  0.00    -0.262 C  
HETATM   16  O   UNL     1     -11.036   6.361  72.853  1.00  0.00    -0.251 OA 
HETATM   17  C   UNL     1     -10.460   7.669  72.970  1.00  0.00    -0.356 C  
HETATM   18  C   UNL     1     -11.240   8.690  72.133  1.00  0.00    -0.367 C  
ENDBRANCH  11  13
ENDBRANCH   9  11
ENDBRANCH   8   9
ENDBRANCH   7   8
ENDBRANCH   5   7
ENDBRANCH   4   5
ENDBRANCH   2   4
BRANCH   2  19
HETATM   19  C   UNL     1     -10.886  14.639  65.656  1.00  0.00    -0.331 C  
BRANCH  19  20
HETATM   20  O   UNL     1     -10.228  15.159  66.821  1.00  0.00    -0.255 OA 
BRANCH  20  21
HETATM   21  C   UNL     1      -9.602  16.362  66.635  1.00  0.00    -0.256 A  
HETATM   22  C   UNL     1     -10.401  17.495  66.808  1.00  0.00    -0.314 A  
HETATM   23  H   UNL     1      -7.020  20.225  65.939  1.00  0.00     0.000 HD 
HETATM   24  O   UNL     1      -7.940  20.132  66.156  1.00  0.00    -0.294 OA 
HETATM   25  C   UNL     1      -9.861  18.773  66.648  1.00  0.00    -0.387 A  
HETATM   26  C   UNL     1      -8.513  18.910  66.331  1.00  0.00    -0.293 A  
HETATM   27  C   UNL     1      -8.246  16.514  66.338  1.00  0.00    -0.364 A  
HETATM   28  C   UNL     1      -7.702  17.790  66.185  1.00  0.00    -0.280 A  
ENDBRANCH  20  21
ENDBRANCH  19  20
ENDBRANCH   2  19
TORSDOF 10
ENDMDL
MODEL      144
REMARK 921   NORMALIZED FREE ENERGY PREDICTED BY IDOCK:   -4.64 KCAL/MOL
REMARK 922        TOTAL FREE ENERGY PREDICTED BY IDOCK:   -8.49 KCAL/MOL
REMARK 923 INTER-LIGAND FREE ENERGY PREDICTED BY IDOCK:   -6.98 KCAL/MOL
REMARK 924 INTRA-LIGAND FREE ENERGY PREDICTED BY IDOCK:   -1.52 KCAL/MOL
REMARK 927      BINDING AFFINITY PREDICTED BY RF-SCORE:    0.00 PKD
ROOT
HETATM    1  O   UNL     1     -10.414   8.281  73.020  1.00  0.00    -0.271 OA 
HETATM    2  C   UNL     1     -11.578   7.792  72.339  1.00  0.00    -0.356 C  
HETATM    3  H   UNL     1      -9.775   7.580  73.075  1.00  0.00     0.000 HD 
ENDROOT
BRANCH   2   4
HETATM    4  C   UNL     1     -12.614   8.926  72.252  1.00  0.00    -0.385 C  
BRANCH   4   5
HETATM    5  N   UNL     1     -12.149   9.996  71.353  1.00  0.00    -0.394 NA 
HETATM    6  H   UNL     1     -12.067   9.675  70.388  1.00  0.00     0.000 HD 
BRANCH   5   7
HETATM    7  C   UNL     1     -13.024  11.167  71.472  1.00  0.00    -0.437 C  
BRANCH   7   8
HETATM    8  C   UNL     1     -12.314  12.438  70.993  1.00  0.00    -0.210 C  
BRANCH   8   9
HETATM    9  N   UNL     1     -11.336  12.117  69.974  1.00  0.00    -0.512 N  
HETATM   10  H   UNL     1     -10.405  11.822  70.268  1.00  0.00     0.000 HD 
BRANCH   9  11
HETATM   11  C   UNL     1     -11.607  12.192  68.638  1.00  0.00    -0.321 C  
HETATM   12  O   UNL     1     -12.227  11.301  68.057  1.00  0.00    -0.621 OA 
BRANCH  11  13
HETATM   13  N   UNL     1     -11.150  13.324  67.998  1.00  0.00    -0.246 N  
HETATM   14  C   UNL     1     -12.003  14.514  67.955  1.00  0.00    -0.287 C  
HETATM   15  C   UNL     1     -11.325  15.687  68.673  1.00  0.00    -0.357 C  
HETATM   16  O   UNL     1     -10.015  15.936  68.134  1.00  0.00    -0.219 OA 
HETATM   17  C   UNL     1      -9.184  14.774  68.264  1.00  0.00    -0.187 C  
HETATM   18  C   UNL     1      -9.788  13.580  67.514  1.00  0.00    -0.227 C  
ENDBRANCH  11  13
ENDBRANCH   9  11
ENDBRANCH   8   9
ENDBRANCH   7   8
ENDBRANCH   5   7
ENDBRANCH   4   5
ENDBRANCH   2   4
BRANCH   2  19
HETATM   19  C   UNL     1     -11.207   7.317  70.928  1.00  0.00    -0.272 C  
BRANCH  19  20
HETATM   20  O   UNL     1     -10.011   7.982  70.498  1.00  0.00    -0.189 OA 
BRANCH  20  21
HETATM   21  C   UNL     1      -9.991   8.321  69.171  1.00  0.00    -0.196 A  
HETATM   22  C   UNL     1      -9.173   9.400  68.833  1.00  0.00    -0.140 A  
HETATM   23  H   UNL     1     -10.217   9.068  64.539  1.00  0.00     0.000 HD 
HETATM   24  O   UNL     1      -9.731   9.529  65.212  1.00  0.00    -0.293 OA 
HETATM   25  C   UNL     1      -9.074   9.825  67.505  1.00  0.00    -0.142 A  
HETATM   26  C   UNL     1      -9.786   9.150  66.519  1.00  0.00    -0.264 A  
HETATM   27  C   UNL     1     -10.683   7.638  68.168  1.00  0.00    -0.127 A  
HETATM   28  C   UNL     1     -10.581   8.056  66.840  1.00  0.00    -0.324 A  
ENDBRANCH  20  21
ENDBRANCH  19  20
ENDBRANCH   2  19
TORSDOF 10
ENDMDL
MODEL      145
REMARK 921   NORMALIZED FREE ENERGY PREDICTED BY IDOCK:   -4.62 KCAL/MOL
REMARK 922        TOTAL FREE ENERGY PREDICTED BY IDOCK:   -8.46 KCAL/MOL
REMARK 923 INTER-LIGAND FREE ENERGY PREDICTED BY IDOCK:   -7.24 KCAL/MOL
REMARK 924 INTRA-LIGAND FREE ENERGY PREDICTED BY IDOCK:   -1.22 KCAL/MOL
REMARK 927      BINDING AFFINITY PREDICTED BY RF-SCORE:    0.00 PKD
ROOT
HETATM    1  O   UNL     1     -11.362   7.910  72.968  1.00  0.00    -0.491 OA 
HETATM    2  C   UNL     1     -12.427   7.884  72.007  1.00  0.00    -0.304 C  
HETATM    3  H   UNL     1     -11.368   7.095  73.455  1.00  0.00     0.000 HD 
ENDROOT
BRANCH   2   4
HETATM    4  C   UNL     1     -12.417   9.205  71.219  1.00  0.00    -0.300 C  
BRANCH   4   5
HETATM    5  N   UNL     1     -11.043   9.710  71.056  1.00  0.00    -0.342 NA 
HETATM    6  H   UNL     1     -10.370   9.170  71.600  1.00  0.00     0.000 HD 
BRANCH   5   7
HETATM    7  C   UNL     1     -10.691   9.757  69.633  1.00  0.00    -0.242 C  
BRANCH   7   8
HETATM    8  C   UNL     1     -10.344  11.185  69.196  1.00  0.00    -0.161 C  
BRANCH   8   9
HETATM    9  N   UNL     1     -11.551  11.936  68.917  1.00  0.00    -0.285 N  
HETATM   10  H   UNL     1     -12.081  11.713  68.075  1.00  0.00     0.000 HD 
BRANCH   9  11
HETATM   11  C   UNL     1     -12.010  12.929  69.735  1.00  0.00    -0.296 C  
HETATM   12  O   UNL     1     -12.330  12.705  70.901  1.00  0.00    -0.374 OA 
BRANCH  11  13
HETATM   13  N   UNL     1     -12.081  14.184  69.167  1.00  0.00    -0.344 N  
HETATM   14  C   UNL     1     -12.181  15.357  70.039  1.00  0.00    -0.361 C  
HETATM   15  C   UNL     1     -10.971  16.276  69.842  1.00  0.00    -0.365 C  
HETATM   16  O   UNL     1     -10.814  16.638  68.458  1.00  0.00    -0.331 OA 
HETATM   17  C   UNL     1     -10.642  15.468  67.646  1.00  0.00    -0.291 C  
HETATM   18  C   UNL     1     -11.854  14.535  67.761  1.00  0.00    -0.357 C  
ENDBRANCH  11  13
ENDBRANCH   9  11
ENDBRANCH   8   9
ENDBRANCH   7   8
ENDBRANCH   5   7
ENDBRANCH   4   5
ENDBRANCH   2   4
BRANCH   2  19
HETATM   19  C   UNL     1     -12.243   6.703  71.045  1.00  0.00    -0.286 C  
BRANCH  19  20
HETATM   20  O   UNL     1     -10.846   6.408  70.909  1.00  0.00    -0.237 OA 
BRANCH  20  21
HETATM   21  C   UNL     1     -10.504   5.787  69.738  1.00  0.00    -0.292 A  
HETATM   22  C   UNL     1     -10.993   6.378  68.572  1.00  0.00    -0.396 A  
HETATM   23  H   UNL     1      -9.040   3.338  66.006  1.00  0.00     0.000 HD 
HETATM   24  O   UNL     1      -9.587   4.113  66.056  1.00  0.00    -0.166 OA 
HETATM   25  C   UNL     1     -10.698   5.828  67.322  1.00  0.00    -0.345 A  
HETATM   26  C   UNL     1      -9.897   4.693  67.248  1.00  0.00    -0.180 A  
HETATM   27  C   UNL     1      -9.682   4.661  69.649  1.00  0.00    -0.283 A  
HETATM   28  C   UNL     1      -9.380   4.113  68.401  1.00  0.00    -0.213 A  
ENDBRANCH  20  21
ENDBRANCH  19  20
ENDBRANCH   2  19
TORSDOF 10
ENDMDL
MODEL      146
REMARK 921   NORMALIZED FREE ENERGY PREDICTED BY IDOCK:   -4.62 KCAL/MOL
REMARK 922        TOTAL FREE ENERGY PREDICTED BY IDOCK:   -8.46 KCAL/MOL
REMARK 923 INTER-LIGAND FREE ENERGY PREDICTED BY IDOCK:   -7.53 KCAL/MOL
REMARK 924 INTRA-LIGAND FREE ENERGY PREDICTED BY IDOCK:   -0.93 KCAL/MOL
REMARK 927      BINDING AFFINITY PREDICTED BY RF-SCORE:    0.00 PKD
ROOT
HETATM    1  O   UNL     1      -7.400  10.779  65.792  1.00  0.00    -0.244 OA 
HETATM    2  C   UNL     1      -8.639  10.153  65.432  1.00  0.00    -0.155 C  
HETATM    3  H   UNL     1      -7.472  11.713  65.634  1.00  0.00     0.000 HD 
ENDROOT
BRANCH   2   4
HETATM    4  C   UNL     1      -8.523   8.641  65.688  1.00  0.00    -0.156 C  
BRANCH   4   5
HETATM    5  N   UNL     1      -9.774   8.104  66.250  1.00  0.00    -0.409 NA 
HETATM    6  H   UNL     1     -10.541   8.138  65.578  1.00  0.00     0.000 HD 
BRANCH   5   7
HETATM    7  C   UNL     1      -9.552   6.747  66.764  1.00  0.00    -0.166 C  
BRANCH   7   8
HETATM    8  C   UNL     1     -10.877   5.994  66.926  1.00  0.00    -0.318 C  
BRANCH   8   9
HETATM    9  N   UNL     1     -11.543   6.401  68.147  1.00  0.00    -0.466 N  
HETATM   10  H   UNL     1     -12.443   6.876  68.077  1.00  0.00     0.000 HD 
BRANCH   9  11
HETATM   11  C   UNL     1     -11.017   6.176  69.387  1.00  0.00    -0.385 C  
HETATM   12  O   UNL     1     -10.608   5.064  69.719  1.00  0.00    -0.222 OA 
BRANCH  11  13
HETATM   13  N   UNL     1     -10.971   7.270  70.224  1.00  0.00    -0.256 N  
HETATM   14  C   UNL     1     -12.084   7.511  71.146  1.00  0.00    -0.307 C  
HETATM   15  C   UNL     1     -11.598   7.457  72.599  1.00  0.00    -0.250 C  
HETATM   16  O   UNL     1     -10.505   8.368  72.814  1.00  0.00    -0.307 OA 
HETATM   17  C   UNL     1      -9.406   8.054  71.948  1.00  0.00    -0.167 C  
HETATM   18  C   UNL     1      -9.822   8.148  70.475  1.00  0.00    -0.186 C  
ENDBRANCH  11  13
ENDBRANCH   9  11
ENDBRANCH   8   9
ENDBRANCH   7   8
ENDBRANCH   5   7
ENDBRANCH   4   5
ENDBRANCH   2   4
BRANCH   2  19
HETATM   19  C   UNL     1      -9.789  10.734  66.266  1.00  0.00    -0.215 C  
BRANCH  19  20
HETATM   20  O   UNL     1     -10.892  11.051  65.405  1.00  0.00    -0.206 OA 
BRANCH  20  21
HETATM   21  C   UNL     1     -11.014  12.380  65.099  1.00  0.00    -0.302 A  
HETATM   22  C   UNL     1     -12.072  12.712  64.250  1.00  0.00    -0.502 A  
HETATM   23  H   UNL     1     -11.051  17.023  64.381  1.00  0.00     0.000 HD 
HETATM   24  O   UNL     1     -11.621  16.344  64.040  1.00  0.00    -1.071 OA 
HETATM   25  C   UNL     1     -12.292  14.041  63.879  1.00  0.00    -0.280 A  
HETATM   26  C   UNL     1     -11.456  15.035  64.377  1.00  0.00    -0.233 A  
HETATM   27  C   UNL     1     -10.197  13.390  65.610  1.00  0.00    -0.300 A  
HETATM   28  C   UNL     1     -10.418  14.720  65.247  1.00  0.00    -0.427 A  
ENDBRANCH  20  21
ENDBRANCH  19  20
ENDBRANCH   2  19
TORSDOF 10
ENDMDL
MODEL      147
REMARK 921   NORMALIZED FREE ENERGY PREDICTED BY IDOCK:   -4.62 KCAL/MOL
REMARK 922        TOTAL FREE ENERGY PREDICTED BY IDOCK:   -8.45 KCAL/MOL
REMARK 923 INTER-LIGAND FREE ENERGY PREDICTED BY IDOCK:   -7.23 KCAL/MOL
REMARK 924 INTRA-LIGAND FREE ENERGY PREDICTED BY IDOCK:   -1.23 KCAL/MOL
REMARK 927      BINDING AFFINITY PREDICTED BY RF-SCORE:    0.00 PKD
ROOT
HETATM    1  O   UNL     1      -8.692  11.320  69.084  1.00  0.00    -0.369 OA 
HETATM    2  C   UNL     1      -9.094  10.742  67.834  1.00  0.00    -0.150 C  
HETATM    3  H   UNL     1      -8.634  12.263  68.981  1.00  0.00     0.000 HD 
ENDROOT
BRANCH   2   4
HETATM    4  C   UNL     1      -9.188   9.216  68.002  1.00  0.00    -0.134 C  
BRANCH   4   5
HETATM    5  N   UNL     1     -10.586   8.761  67.910  1.00  0.00    -0.400 NA 
HETATM    6  H   UNL     1     -10.899   8.682  66.943  1.00  0.00     0.000 HD 
BRANCH   5   7
HETATM    7  C   UNL     1     -10.754   7.503  68.648  1.00  0.00    -0.077 C  
BRANCH   7   8
HETATM    8  C   UNL     1      -9.522   7.197  69.507  1.00  0.00    -0.151 C  
BRANCH   8   9
HETATM    9  N   UNL     1      -9.848   7.304  70.914  1.00  0.00    -0.184 N  
HETATM   10  H   UNL     1     -10.063   6.451  71.431  1.00  0.00     0.000 HD 
BRANCH   9  11
HETATM   11  C   UNL     1      -9.880   8.497  71.578  1.00  0.00    -0.239 C  
HETATM   12  O   UNL     1      -8.847   9.099  71.866  1.00  0.00    -0.340 OA 
BRANCH  11  13
HETATM   13  N   UNL     1     -11.136   8.973  71.890  1.00  0.00    -0.373 N  
HETATM   14  C   UNL     1     -11.553  10.279  71.375  1.00  0.00    -0.145 C  
HETATM   15  C   UNL     1     -12.775  10.131  70.462  1.00  0.00    -0.197 C  
HETATM   16  O   UNL     1     -13.844   9.445  71.135  1.00  0.00    -0.269 OA 
HETATM   17  C   UNL     1     -13.423   8.140  71.557  1.00  0.00    -0.286 C  
HETATM   18  C   UNL     1     -12.233   8.231  72.521  1.00  0.00    -0.307 C  
ENDBRANCH  11  13
ENDBRANCH   9  11
ENDBRANCH   8   9
ENDBRANCH   7   8
ENDBRANCH   5   7
ENDBRANCH   4   5
ENDBRANCH   2   4
BRANCH   2  19
HETATM   19  C   UNL     1     -10.456  11.302  67.405  1.00  0.00    -0.212 C  
BRANCH  19  20
HETATM   20  O   UNL     1     -10.548  12.683  67.783  1.00  0.00    -0.214 OA 
BRANCH  20  21
HETATM   21  C   UNL     1     -10.922  13.529  66.774  1.00  0.00    -0.292 A  
HETATM   22  C   UNL     1     -10.103  14.643  66.581  1.00  0.00    -0.277 A  
HETATM   23  H   UNL     1     -12.576  16.090  63.200  1.00  0.00     0.000 HD 
HETATM   24  O   UNL     1     -11.823  16.233  63.761  1.00  0.00    -0.955 OA 
HETATM   25  C   UNL     1     -10.391  15.567  65.573  1.00  0.00    -0.419 A  
HETATM   26  C   UNL     1     -11.494  15.358  64.751  1.00  0.00    -0.336 A  
HETATM   27  C   UNL     1     -12.013  13.320  65.927  1.00  0.00    -0.466 A  
HETATM   28  C   UNL     1     -12.299  14.237  64.915  1.00  0.00    -0.435 A  
ENDBRANCH  20  21
ENDBRANCH  19  20
ENDBRANCH   2  19
TORSDOF 10
ENDMDL
MODEL      148
REMARK 921   NORMALIZED FREE ENERGY PREDICTED BY IDOCK:   -4.62 KCAL/MOL
REMARK 922        TOTAL FREE ENERGY PREDICTED BY IDOCK:   -8.45 KCAL/MOL
REMARK 923 INTER-LIGAND FREE ENERGY PREDICTED BY IDOCK:   -7.24 KCAL/MOL
REMARK 924 INTRA-LIGAND FREE ENERGY PREDICTED BY IDOCK:   -1.22 KCAL/MOL
REMARK 927      BINDING AFFINITY PREDICTED BY RF-SCORE:    0.00 PKD
ROOT
HETATM    1  O   UNL     1     -10.771  10.925  64.461  1.00  0.00    -0.327 OA 
HETATM    2  C   UNL     1     -10.493  12.021  65.344  1.00  0.00    -0.275 C  
HETATM    3  H   UNL     1     -10.602  10.111  64.922  1.00  0.00     0.000 HD 
ENDROOT
BRANCH   2   4
HETATM    4  C   UNL     1     -10.766  13.338  64.598  1.00  0.00    -0.400 C  
BRANCH   4   5
HETATM    5  N   UNL     1     -10.983  14.444  65.545  1.00  0.00    -0.314 NA 
HETATM    6  H   UNL     1     -11.152  14.108  66.494  1.00  0.00     0.000 HD 
BRANCH   5   7
HETATM    7  C   UNL     1      -9.858  15.384  65.487  1.00  0.00    -0.324 C  
BRANCH   7   8
HETATM    8  C   UNL     1      -8.886  15.156  66.651  1.00  0.00    -0.286 C  
BRANCH   8   9
HETATM    9  N   UNL     1      -9.263  15.968  67.790  1.00  0.00    -0.204 N  
HETATM   10  H   UNL     1     -10.195  16.383  67.806  1.00  0.00     0.000 HD 
BRANCH   9  11
HETATM   11  C   UNL     1      -8.425  16.201  68.843  1.00  0.00    -0.241 C  
HETATM   12  O   UNL     1      -8.261  15.366  69.730  1.00  0.00    -0.209 OA 
BRANCH  11  13
HETATM   13  N   UNL     1      -7.781  17.420  68.834  1.00  0.00    -0.242 N  
HETATM   14  C   UNL     1      -6.424  17.514  69.378  1.00  0.00    -0.230 C  
HETATM   15  C   UNL     1      -5.438  17.953  68.288  1.00  0.00    -0.152 C  
HETATM   16  O   UNL     1      -5.863  19.180  67.669  1.00  0.00    -0.189 OA 
HETATM   17  C   UNL     1      -7.163  19.027  67.081  1.00  0.00    -0.208 C  
HETATM   18  C   UNL     1      -8.203  18.641  68.140  1.00  0.00    -0.303 C  
ENDBRANCH  11  13
ENDBRANCH   9  11
ENDBRANCH   8   9
ENDBRANCH   7   8
ENDBRANCH   5   7
ENDBRANCH   4   5
ENDBRANCH   2   4
BRANCH   2  19
HETATM   19  C   UNL     1     -11.383  11.936  66.591  1.00  0.00    -0.337 C  
BRANCH  19  20
HETATM   20  O   UNL     1     -10.588  12.165  67.763  1.00  0.00    -0.197 OA 
BRANCH  20  21
HETATM   21  C   UNL     1     -11.305  12.440  68.896  1.00  0.00    -0.294 A  
HETATM   22  C   UNL     1     -11.711  11.330  69.641  1.00  0.00    -0.420 A  
HETATM   23  H   UNL     1     -13.680  13.878  72.686  1.00  0.00     0.000 HD 
HETATM   24  O   UNL     1     -13.470  13.001  72.389  1.00  0.00    -0.567 OA 
HETATM   25  C   UNL     1     -12.443  11.498  70.819  1.00  0.00    -0.444 A  
HETATM   26  C   UNL     1     -12.751  12.783  71.253  1.00  0.00    -0.269 A  
HETATM   27  C   UNL     1     -11.602  13.725  69.355  1.00  0.00    -0.365 A  
HETATM   28  C   UNL     1     -12.328  13.896  70.535  1.00  0.00    -0.439 A  
ENDBRANCH  20  21
ENDBRANCH  19  20
ENDBRANCH   2  19
TORSDOF 10
ENDMDL
MODEL      149
REMARK 921   NORMALIZED FREE ENERGY PREDICTED BY IDOCK:   -4.59 KCAL/MOL
REMARK 922        TOTAL FREE ENERGY PREDICTED BY IDOCK:   -8.41 KCAL/MOL
REMARK 923 INTER-LIGAND FREE ENERGY PREDICTED BY IDOCK:   -7.26 KCAL/MOL
REMARK 924 INTRA-LIGAND FREE ENERGY PREDICTED BY IDOCK:   -1.15 KCAL/MOL
REMARK 927      BINDING AFFINITY PREDICTED BY RF-SCORE:    0.00 PKD
ROOT
HETATM    1  O   UNL     1     -12.728  14.300  65.571  1.00  0.00    -0.472 OA 
HETATM    2  C   UNL     1     -11.475  14.808  65.094  1.00  0.00    -0.371 C  
HETATM    3  H   UNL     1     -13.165  13.845  64.861  1.00  0.00     0.000 HD 
ENDROOT
BRANCH   2   4
HETATM    4  C   UNL     1     -10.769  15.545  66.244  1.00  0.00    -0.307 C  
BRANCH   4   5
HETATM    5  N   UNL     1     -11.588  15.519  67.468  1.00  0.00    -0.188 NA 
HETATM    6  H   UNL     1     -12.501  15.095  67.307  1.00  0.00     0.000 HD 
BRANCH   5   7
HETATM    7  C   UNL     1     -10.853  14.852  68.549  1.00  0.00    -0.247 C  
BRANCH   7   8
HETATM    8  C   UNL     1      -9.341  14.900  68.302  1.00  0.00    -0.195 C  
BRANCH   8   9
HETATM    9  N   UNL     1      -8.751  16.025  69.000  1.00  0.00    -0.233 N  
HETATM   10  H   UNL     1      -8.875  16.091  70.010  1.00  0.00     0.000 HD 
BRANCH   9  11
HETATM   11  C   UNL     1      -8.037  16.998  68.362  1.00  0.00    -0.245 C  
HETATM   12  O   UNL     1      -6.944  16.761  67.849  1.00  0.00    -0.138 OA 
BRANCH  11  13
HETATM   13  N   UNL     1      -8.625  18.245  68.329  1.00  0.00    -0.279 N  
HETATM   14  C   UNL     1      -7.886  19.368  67.747  1.00  0.00    -0.280 C  
HETATM   15  C   UNL     1      -8.633  19.929  66.532  1.00  0.00    -0.341 C  
HETATM   16  O   UNL     1      -9.984  20.286  66.874  1.00  0.00    -0.431 OA 
HETATM   17  C   UNL     1     -10.700  19.144  67.369  1.00  0.00    -0.481 C  
HETATM   18  C   UNL     1     -10.024  18.573  68.622  1.00  0.00    -0.383 C  
ENDBRANCH  11  13
ENDBRANCH   9  11
ENDBRANCH   8   9
ENDBRANCH   7   8
ENDBRANCH   5   7
ENDBRANCH   4   5
ENDBRANCH   2   4
BRANCH   2  19
HETATM   19  C   UNL     1     -10.592  13.656  64.595  1.00  0.00    -0.430 C  
BRANCH  19  20
HETATM   20  O   UNL     1     -11.348  12.438  64.595  1.00  0.00    -0.296 OA 
BRANCH  20  21
HETATM   21  C   UNL     1     -10.801  11.425  65.337  1.00  0.00    -0.229 A  
HETATM   22  C   UNL     1     -11.104  11.440  66.700  1.00  0.00    -0.333 A  
HETATM   23  H   UNL     1      -8.750   7.758  67.439  1.00  0.00     0.000 HD 
HETATM   24  O   UNL     1      -9.290   8.450  67.801  1.00  0.00    -0.134 OA 
HETATM   25  C   UNL     1     -10.602  10.449  67.547  1.00  0.00    -0.312 A  
HETATM   26  C   UNL     1      -9.811   9.435  67.017  1.00  0.00    -0.201 A  
HETATM   27  C   UNL     1     -10.024  10.389  64.814  1.00  0.00    -0.409 A  
HETATM   28  C   UNL     1      -9.527   9.394  65.657  1.00  0.00    -0.328 A  
ENDBRANCH  20  21
ENDBRANCH  19  20
ENDBRANCH   2  19
TORSDOF 10
ENDMDL
MODEL      150
REMARK 921   NORMALIZED FREE ENERGY PREDICTED BY IDOCK:   -4.59 KCAL/MOL
REMARK 922        TOTAL FREE ENERGY PREDICTED BY IDOCK:   -8.41 KCAL/MOL
REMARK 923 INTER-LIGAND FREE ENERGY PREDICTED BY IDOCK:   -7.85 KCAL/MOL
REMARK 924 INTRA-LIGAND FREE ENERGY PREDICTED BY IDOCK:   -0.56 KCAL/MOL
REMARK 927      BINDING AFFINITY PREDICTED BY RF-SCORE:    0.00 PKD
ROOT
HETATM    1  O   UNL     1     -11.472  13.151  67.795  1.00  0.00    -0.276 OA 
HETATM    2  C   UNL     1     -12.133  13.990  68.753  1.00  0.00    -0.303 C  
HETATM    3  H   UNL     1     -11.512  13.569  66.943  1.00  0.00     0.000 HD 
ENDROOT
BRANCH   2   4
HETATM    4  C   UNL     1     -12.070  13.312  70.132  1.00  0.00    -0.333 C  
BRANCH   4   5
HETATM    5  N   UNL     1     -11.484  11.965  70.031  1.00  0.00    -0.516 NA 
HETATM    6  H   UNL     1     -10.522  11.940  70.371  1.00  0.00     0.000 HD 
BRANCH   5   7
HETATM    7  C   UNL     1     -12.338  10.992  70.722  1.00  0.00    -0.398 C  
BRANCH   7   8
HETATM    8  C   UNL     1     -11.545   9.740  71.113  1.00  0.00    -0.392 C  
BRANCH   8   9
HETATM    9  N   UNL     1     -12.261   8.544  70.715  1.00  0.00    -0.495 N  
HETATM   10  H   UNL     1     -12.695   8.520  69.793  1.00  0.00     0.000 HD 
BRANCH   9  11
HETATM   11  C   UNL     1     -12.378   7.450  71.523  1.00  0.00    -0.353 C  
HETATM   12  O   UNL     1     -13.478   7.011  71.855  1.00  0.00    -0.301 OA 
BRANCH  11  13
HETATM   13  N   UNL     1     -11.191   6.876  71.927  1.00  0.00    -0.245 N  
HETATM   14  C   UNL     1     -10.312   6.271  70.924  1.00  0.00    -0.205 C  
HETATM   15  C   UNL     1      -8.960   6.992  70.890  1.00  0.00    -0.152 C  
HETATM   16  O   UNL     1      -8.356   7.021  72.196  1.00  0.00    -0.104 OA 
HETATM   17  C   UNL     1      -9.211   7.689  73.134  1.00  0.00    -0.216 C  
HETATM   18  C   UNL     1     -10.564   6.975  73.250  1.00  0.00    -0.344 C  
ENDBRANCH  11  13
ENDBRANCH   9  11
ENDBRANCH   8   9
ENDBRANCH   7   8
ENDBRANCH   5   7
ENDBRANCH   4   5
ENDBRANCH   2   4
BRANCH   2  19
HETATM   19  C   UNL     1     -11.449  15.362  68.817  1.00  0.00    -0.341 C  
BRANCH  19  20
HETATM   20  O   UNL     1     -10.879  15.673  67.537  1.00  0.00    -0.307 OA 
BRANCH  20  21
HETATM   21  C   UNL     1     -10.577  16.996  67.353  1.00  0.00    -0.289 A  
HETATM   22  C   UNL     1     -10.270  17.715  68.510  1.00  0.00    -0.386 A  
HETATM   23  H   UNL     1      -9.572  21.441  66.214  1.00  0.00     0.000 HD 
HETATM   24  O   UNL     1      -9.597  21.015  67.063  1.00  0.00    -0.292 OA 
HETATM   25  C   UNL     1      -9.940  19.071  68.434  1.00  0.00    -0.473 A  
HETATM   26  C   UNL     1      -9.904  19.695  67.191  1.00  0.00    -0.369 A  
HETATM   27  C   UNL     1     -10.514  17.629  66.110  1.00  0.00    -0.295 A  
HETATM   28  C   UNL     1     -10.178  18.982  66.030  1.00  0.00    -0.462 A  
ENDBRANCH  20  21
ENDBRANCH  19  20
ENDBRANCH   2  19
TORSDOF 10
ENDMDL
MODEL      151
REMARK 921   NORMALIZED FREE ENERGY PREDICTED BY IDOCK:   -4.59 KCAL/MOL
REMARK 922        TOTAL FREE ENERGY PREDICTED BY IDOCK:   -8.41 KCAL/MOL
REMARK 923 INTER-LIGAND FREE ENERGY PREDICTED BY IDOCK:   -7.87 KCAL/MOL
REMARK 924 INTRA-LIGAND FREE ENERGY PREDICTED BY IDOCK:   -0.54 KCAL/MOL
REMARK 927      BINDING AFFINITY PREDICTED BY RF-SCORE:    0.00 PKD
ROOT
HETATM    1  O   UNL     1     -13.144  14.049  65.258  1.00  0.00    -0.782 OA 
HETATM    2  C   UNL     1     -11.973  13.513  64.626  1.00  0.00    -0.400 C  
HETATM    3  H   UNL     1     -13.835  13.397  65.227  1.00  0.00     0.000 HD 
ENDROOT
BRANCH   2   4
HETATM    4  C   UNL     1     -10.856  14.568  64.676  1.00  0.00    -0.332 C  
BRANCH   4   5
HETATM    5  N   UNL     1     -11.320  15.853  64.126  1.00  0.00    -1.024 NA 
HETATM    6  H   UNL     1     -12.337  15.895  64.058  1.00  0.00     0.000 HD 
BRANCH   5   7
HETATM    7  C   UNL     1     -10.774  16.963  64.915  1.00  0.00     0.063 C  
BRANCH   7   8
HETATM    8  C   UNL     1     -10.893  16.684  66.418  1.00  0.00    -0.012 C  
BRANCH   8   9
HETATM    9  N   UNL     1     -10.494  17.849  67.181  1.00  0.00    -0.366 N  
HETATM   10  H   UNL     1     -10.859  18.760  66.907  1.00  0.00     0.000 HD 
BRANCH   9  11
HETATM   11  C   UNL     1      -9.650  17.778  68.253  1.00  0.00    -0.312 C  
HETATM   12  O   UNL     1      -8.842  18.673  68.494  1.00  0.00    -0.322 OA 
BRANCH  11  13
HETATM   13  N   UNL     1      -9.773  16.649  69.035  1.00  0.00    -0.267 N  
HETATM   14  C   UNL     1     -10.932  16.517  69.921  1.00  0.00    -0.270 C  
HETATM   15  C   UNL     1     -11.769  15.293  69.531  1.00  0.00    -0.339 C  
HETATM   16  O   UNL     1     -10.963  14.102  69.508  1.00  0.00    -0.224 OA 
HETATM   17  C   UNL     1      -9.883  14.239  68.573  1.00  0.00    -0.231 C  
HETATM   18  C   UNL     1      -8.978  15.419  68.948  1.00  0.00    -0.208 C  
ENDBRANCH  11  13
ENDBRANCH   9  11
ENDBRANCH   8   9
ENDBRANCH   7   8
ENDBRANCH   5   7
ENDBRANCH   4   5
ENDBRANCH   2   4
BRANCH   2  19
HETATM   19  C   UNL     1     -11.517  12.238  65.349  1.00  0.00    -0.354 C  
BRANCH  19  20
HETATM   20  O   UNL     1     -12.045  12.229  66.683  1.00  0.00    -0.612 OA 
BRANCH  20  21
HETATM   21  C   UNL     1     -11.527  11.257  67.495  1.00  0.00    -0.246 A  
HETATM   22  C   UNL     1     -11.979  11.265  68.816  1.00  0.00    -0.350 A  
HETATM   23  H   UNL     1      -9.517   7.734  69.866  1.00  0.00     0.000 HD 
HETATM   24  O   UNL     1     -10.132   8.396  70.155  1.00  0.00    -0.186 OA 
HETATM   25  C   UNL     1     -11.520  10.312  69.729  1.00  0.00    -0.320 A  
HETATM   26  C   UNL     1     -10.618   9.342  69.304  1.00  0.00    -0.222 A  
HETATM   27  C   UNL     1     -10.638  10.264  67.077  1.00  0.00    -0.302 A  
HETATM   28  C   UNL     1     -10.182   9.306  67.985  1.00  0.00    -0.255 A  
ENDBRANCH  20  21
ENDBRANCH  19  20
ENDBRANCH   2  19
TORSDOF 10
ENDMDL
MODEL      152
REMARK 921   NORMALIZED FREE ENERGY PREDICTED BY IDOCK:   -4.59 KCAL/MOL
REMARK 922        TOTAL FREE ENERGY PREDICTED BY IDOCK:   -8.41 KCAL/MOL
REMARK 923 INTER-LIGAND FREE ENERGY PREDICTED BY IDOCK:   -7.37 KCAL/MOL
REMARK 924 INTRA-LIGAND FREE ENERGY PREDICTED BY IDOCK:   -1.04 KCAL/MOL
REMARK 927      BINDING AFFINITY PREDICTED BY RF-SCORE:    0.00 PKD
ROOT
HETATM    1  O   UNL     1      -9.324  13.867  66.557  1.00  0.00    -0.304 OA 
HETATM    2  C   UNL     1     -10.691  13.517  66.303  1.00  0.00    -0.288 C  
HETATM    3  H   UNL     1      -9.211  14.796  66.398  1.00  0.00     0.000 HD 
ENDROOT
BRANCH   2   4
HETATM    4  C   UNL     1     -10.874  12.011  66.561  1.00  0.00    -0.277 C  
BRANCH   4   5
HETATM    5  N   UNL     1      -9.863  11.226  65.833  1.00  0.00    -0.222 NA 
HETATM    6  H   UNL     1      -9.115  11.814  65.465  1.00  0.00     0.000 HD 
BRANCH   5   7
HETATM    7  C   UNL     1      -9.349  10.151  66.690  1.00  0.00    -0.162 C  
BRANCH   7   8
HETATM    8  C   UNL     1     -10.161   8.864  66.509  1.00  0.00    -0.286 C  
BRANCH   8   9
HETATM    9  N   UNL     1     -10.680   8.411  67.784  1.00  0.00    -0.465 N  
HETATM   10  H   UNL     1     -11.691   8.387  67.917  1.00  0.00     0.000 HD 
BRANCH   9  11
HETATM   11  C   UNL     1      -9.874   8.016  68.813  1.00  0.00    -0.172 C  
HETATM   12  O   UNL     1      -8.979   7.190  68.647  1.00  0.00    -0.132 OA 
BRANCH  11  13
HETATM   13  N   UNL     1     -10.130   8.607  70.032  1.00  0.00    -0.185 N  
HETATM   14  C   UNL     1     -11.398   9.312  70.232  1.00  0.00    -0.203 C  
HETATM   15  C   UNL     1     -12.210   8.649  71.351  1.00  0.00    -0.304 C  
HETATM   16  O   UNL     1     -11.442   8.557  72.563  1.00  0.00    -0.371 OA 
HETATM   17  C   UNL     1     -10.245   7.795  72.348  1.00  0.00    -0.247 C  
HETATM   18  C   UNL     1      -9.365   8.446  71.274  1.00  0.00    -0.187 C  
ENDBRANCH  11  13
ENDBRANCH   9  11
ENDBRANCH   8   9
ENDBRANCH   7   8
ENDBRANCH   5   7
ENDBRANCH   4   5
ENDBRANCH   2   4
BRANCH   2  19
HETATM   19  C   UNL     1     -11.623  14.318  67.222  1.00  0.00    -0.377 C  
BRANCH  19  20
HETATM   20  O   UNL     1     -10.848  14.979  68.232  1.00  0.00    -0.246 OA 
BRANCH  20  21
HETATM   21  C   UNL     1     -11.392  14.941  69.488  1.00  0.00    -0.281 A  
HETATM   22  C   UNL     1     -12.154  13.809  69.784  1.00  0.00    -0.400 A  
HETATM   23  H   UNL     1     -13.002  15.243  73.891  1.00  0.00     0.000 HD 
HETATM   24  O   UNL     1     -13.129  14.568  73.236  1.00  0.00    -0.559 OA 
HETATM   25  C   UNL     1     -12.750  13.665  71.040  1.00  0.00    -0.408 A  
HETATM   26  C   UNL     1     -12.564  14.655  72.000  1.00  0.00    -0.334 A  
HETATM   27  C   UNL     1     -11.195  15.916  70.468  1.00  0.00    -0.395 A  
HETATM   28  C   UNL     1     -11.783  15.772  71.726  1.00  0.00    -0.562 A  
ENDBRANCH  20  21
ENDBRANCH  19  20
ENDBRANCH   2  19
TORSDOF 10
ENDMDL
MODEL      153
REMARK 921   NORMALIZED FREE ENERGY PREDICTED BY IDOCK:   -4.58 KCAL/MOL
REMARK 922        TOTAL FREE ENERGY PREDICTED BY IDOCK:   -8.40 KCAL/MOL
REMARK 923 INTER-LIGAND FREE ENERGY PREDICTED BY IDOCK:   -7.34 KCAL/MOL
REMARK 924 INTRA-LIGAND FREE ENERGY PREDICTED BY IDOCK:   -1.06 KCAL/MOL
REMARK 927      BINDING AFFINITY PREDICTED BY RF-SCORE:    0.00 PKD
ROOT
HETATM    1  O   UNL     1     -12.649  14.167  64.310  1.00  0.00    -0.676 OA 
HETATM    2  C   UNL     1     -12.172  12.884  64.740  1.00  0.00    -0.445 C  
HETATM    3  H   UNL     1     -13.481  14.341  64.734  1.00  0.00     0.000 HD 
ENDROOT
BRANCH   2   4
HETATM    4  C   UNL     1     -10.825  12.601  64.053  1.00  0.00    -0.415 C  
BRANCH   4   5
HETATM    5  N   UNL     1     -10.917  11.418  63.181  1.00  0.00    -0.820 NA 
HETATM    6  H   UNL     1     -11.624  11.533  62.455  1.00  0.00     0.000 HD 
BRANCH   5   7
HETATM    7  C   UNL     1      -9.598  11.105  62.619  1.00  0.00    -0.235 C  
BRANCH   7   8
HETATM    8  C   UNL     1      -9.016   9.834  63.249  1.00  0.00    -0.252 C  
BRANCH   8   9
HETATM    9  N   UNL     1      -8.081  10.175  64.302  1.00  0.00    -0.157 N  
HETATM   10  H   UNL     1      -7.756  11.139  64.372  1.00  0.00     0.000 HD 
BRANCH   9  11
HETATM   11  C   UNL     1      -7.618   9.261  65.205  1.00  0.00    -0.106 C  
HETATM   12  O   UNL     1      -6.730   8.462  64.912  1.00  0.00    -0.066 OA 
BRANCH  11  13
HETATM   13  N   UNL     1      -8.205   9.304  66.452  1.00  0.00    -0.110 N  
HETATM   14  C   UNL     1      -7.731  10.284  67.431  1.00  0.00    -0.095 C  
HETATM   15  C   UNL     1      -8.859  11.250  67.813  1.00  0.00    -0.141 C  
HETATM   16  O   UNL     1     -10.018  10.535  68.276  1.00  0.00    -0.153 OA 
HETATM   17  C   UNL     1     -10.500   9.641  67.262  1.00  0.00    -0.258 C  
HETATM   18  C   UNL     1      -9.427   8.614  66.881  1.00  0.00    -0.180 C  
ENDBRANCH  11  13
ENDBRANCH   9  11
ENDBRANCH   8   9
ENDBRANCH   7   8
ENDBRANCH   5   7
ENDBRANCH   4   5
ENDBRANCH   2   4
BRANCH   2  19
HETATM   19  C   UNL     1     -11.991  12.869  66.264  1.00  0.00    -0.408 C  
BRANCH  19  20
HETATM   20  O   UNL     1     -11.004  13.839  66.639  1.00  0.00    -0.292 OA 
BRANCH  20  21
HETATM   21  C   UNL     1     -11.244  14.468  67.831  1.00  0.00    -0.295 A  
HETATM   22  C   UNL     1     -11.863  13.691  68.813  1.00  0.00    -0.395 A  
HETATM   23  H   UNL     1     -11.816  17.029  71.728  1.00  0.00     0.000 HD 
HETATM   24  O   UNL     1     -12.058  16.129  71.543  1.00  0.00    -0.450 OA 
HETATM   25  C   UNL     1     -12.149  14.233  70.069  1.00  0.00    -0.400 A  
HETATM   26  C   UNL     1     -11.795  15.551  70.339  1.00  0.00    -0.351 A  
HETATM   27  C   UNL     1     -10.874  15.782  68.123  1.00  0.00    -0.307 A  
HETATM   28  C   UNL     1     -11.152  16.324  69.379  1.00  0.00    -0.328 A  
ENDBRANCH  20  21
ENDBRANCH  19  20
ENDBRANCH   2  19
TORSDOF 10
ENDMDL
MODEL      154
REMARK 921   NORMALIZED FREE ENERGY PREDICTED BY IDOCK:   -4.58 KCAL/MOL
REMARK 922        TOTAL FREE ENERGY PREDICTED BY IDOCK:   -8.39 KCAL/MOL
REMARK 923 INTER-LIGAND FREE ENERGY PREDICTED BY IDOCK:   -7.16 KCAL/MOL
REMARK 924 INTRA-LIGAND FREE ENERGY PREDICTED BY IDOCK:   -1.23 KCAL/MOL
REMARK 927      BINDING AFFINITY PREDICTED BY RF-SCORE:    0.00 PKD
ROOT
HETATM    1  O   UNL     1      -6.918  10.848  64.989  1.00  0.00    -0.360 OA 
HETATM    2  C   UNL     1      -7.650   9.695  64.553  1.00  0.00    -0.127 C  
HETATM    3  H   UNL     1      -6.625  11.332  64.225  1.00  0.00     0.000 HD 
ENDROOT
BRANCH   2   4
HETATM    4  C   UNL     1      -8.125   8.912  65.789  1.00  0.00    -0.107 C  
BRANCH   4   5
HETATM    5  N   UNL     1      -8.340   9.815  66.933  1.00  0.00    -0.120 NA 
HETATM    6  H   UNL     1      -9.330   9.909  67.163  1.00  0.00     0.000 HD 
BRANCH   5   7
HETATM    7  C   UNL     1      -7.547   9.366  68.083  1.00  0.00    -0.083 C  
BRANCH   7   8
HETATM    8  C   UNL     1      -7.558  10.412  69.203  1.00  0.00    -0.117 C  
BRANCH   8   9
HETATM    9  N   UNL     1      -8.414   9.979  70.289  1.00  0.00    -0.316 N  
HETATM   10  H   UNL     1      -8.014   9.900  71.224  1.00  0.00     0.000 HD 
BRANCH   9  11
HETATM   11  C   UNL     1      -9.734   9.674  70.115  1.00  0.00    -0.254 C  
HETATM   12  O   UNL     1     -10.473  10.383  69.435  1.00  0.00    -0.211 OA 
BRANCH  11  13
HETATM   13  N   UNL     1     -10.168   8.525  70.742  1.00  0.00    -0.192 N  
HETATM   14  C   UNL     1     -11.171   8.627  71.805  1.00  0.00    -0.326 C  
HETATM   15  C   UNL     1     -12.445   7.870  71.414  1.00  0.00    -0.309 C  
HETATM   16  O   UNL     1     -12.152   6.504  71.072  1.00  0.00    -0.352 OA 
HETATM   17  C   UNL     1     -11.226   6.443  69.977  1.00  0.00    -0.411 C  
HETATM   18  C   UNL     1      -9.907   7.140  70.334  1.00  0.00    -0.176 C  
ENDBRANCH  11  13
ENDBRANCH   9  11
ENDBRANCH   8   9
ENDBRANCH   7   8
ENDBRANCH   5   7
ENDBRANCH   4   5
ENDBRANCH   2   4
BRANCH   2  19
HETATM   19  C   UNL     1      -8.861  10.122  63.712  1.00  0.00    -0.229 C  
BRANCH  19  20
HETATM   20  O   UNL     1     -10.002  10.289  64.565  1.00  0.00    -0.339 OA 
BRANCH  20  21
HETATM   21  C   UNL     1     -10.607  11.513  64.477  1.00  0.00    -0.329 A  
HETATM   22  C   UNL     1     -11.618  11.623  63.520  1.00  0.00    -0.408 A  
HETATM   23  H   UNL     1     -12.401  15.854  64.579  1.00  0.00     0.000 HD 
HETATM   24  O   UNL     1     -12.620  15.112  64.029  1.00  0.00    -0.791 OA 
HETATM   25  C   UNL     1     -12.306  12.827  63.351  1.00  0.00    -0.531 A  
HETATM   26  C   UNL     1     -11.986  13.914  64.158  1.00  0.00    -0.428 A  
HETATM   27  C   UNL     1     -10.311  12.606  65.295  1.00  0.00    -0.309 A  
HETATM   28  C   UNL     1     -11.001  13.808  65.134  1.00  0.00    -0.337 A  
ENDBRANCH  20  21
ENDBRANCH  19  20
ENDBRANCH   2  19
TORSDOF 10
ENDMDL
MODEL      155
REMARK 921   NORMALIZED FREE ENERGY PREDICTED BY IDOCK:   -4.57 KCAL/MOL
REMARK 922        TOTAL FREE ENERGY PREDICTED BY IDOCK:   -8.38 KCAL/MOL
REMARK 923 INTER-LIGAND FREE ENERGY PREDICTED BY IDOCK:   -7.32 KCAL/MOL
REMARK 924 INTRA-LIGAND FREE ENERGY PREDICTED BY IDOCK:   -1.06 KCAL/MOL
REMARK 927      BINDING AFFINITY PREDICTED BY RF-SCORE:    0.00 PKD
ROOT
HETATM    1  O   UNL     1     -12.640  14.529  68.527  1.00  0.00    -0.517 OA 
HETATM    2  C   UNL     1     -11.686  14.919  67.529  1.00  0.00    -0.308 C  
HETATM    3  H   UNL     1     -13.515  14.677  68.188  1.00  0.00     0.000 HD 
ENDROOT
BRANCH   2   4
HETATM    4  C   UNL     1     -10.269  14.681  68.079  1.00  0.00    -0.231 C  
BRANCH   4   5
HETATM    5  N   UNL     1      -9.257  14.865  67.025  1.00  0.00    -0.221 NA 
HETATM    6  H   UNL     1      -9.342  15.774  66.570  1.00  0.00     0.000 HD 
BRANCH   5   7
HETATM    7  C   UNL     1      -7.914  14.648  67.575  1.00  0.00    -0.190 C  
BRANCH   7   8
HETATM    8  C   UNL     1      -7.606  15.648  68.694  1.00  0.00    -0.143 C  
BRANCH   8   9
HETATM    9  N   UNL     1      -7.171  16.913  68.136  1.00  0.00    -0.165 N  
HETATM   10  H   UNL     1      -6.731  16.914  67.216  1.00  0.00     0.000 HD 
BRANCH   9  11
HETATM   11  C   UNL     1      -7.326  18.102  68.788  1.00  0.00    -0.276 C  
HETATM   12  O   UNL     1      -6.563  18.444  69.690  1.00  0.00    -0.210 OA 
BRANCH  11  13
HETATM   13  N   UNL     1      -8.381  18.882  68.364  1.00  0.00    -0.335 N  
HETATM   14  C   UNL     1      -8.125  19.987  67.438  1.00  0.00    -0.323 C  
HETATM   15  C   UNL     1      -8.876  19.767  66.119  1.00  0.00    -0.336 C  
HETATM   16  O   UNL     1     -10.281  19.566  66.351  1.00  0.00    -0.399 OA 
HETATM   17  C   UNL     1     -10.497  18.429  67.200  1.00  0.00    -0.404 C  
HETATM   18  C   UNL     1      -9.812  18.620  68.558  1.00  0.00    -0.386 C  
ENDBRANCH  11  13
ENDBRANCH   9  11
ENDBRANCH   8   9
ENDBRANCH   7   8
ENDBRANCH   5   7
ENDBRANCH   4   5
ENDBRANCH   2   4
BRANCH   2  19
HETATM   19  C   UNL     1     -11.892  14.097  66.250  1.00  0.00    -0.411 C  
BRANCH  19  20
HETATM   20  O   UNL     1     -12.194  12.738  66.597  1.00  0.00    -0.481 OA 
BRANCH  20  21
HETATM   21  C   UNL     1     -11.283  11.818  66.151  1.00  0.00    -0.306 A  
HETATM   22  C   UNL     1     -10.747  12.059  64.884  1.00  0.00    -0.346 A  
HETATM   23  H   UNL     1      -8.196   8.441  65.085  1.00  0.00     0.000 HD 
HETATM   24  O   UNL     1      -8.479   9.195  64.582  1.00  0.00    -0.163 OA 
HETATM   25  C   UNL     1      -9.804  11.186  64.336  1.00  0.00    -0.334 A  
HETATM   26  C   UNL     1      -9.389  10.081  65.073  1.00  0.00    -0.256 A  
HETATM   27  C   UNL     1     -10.841  10.718  66.889  1.00  0.00    -0.288 A  
HETATM   28  C   UNL     1      -9.893   9.847  66.347  1.00  0.00    -0.288 A  
ENDBRANCH  20  21
ENDBRANCH  19  20
ENDBRANCH   2  19
TORSDOF 10
ENDMDL
MODEL      156
REMARK 921   NORMALIZED FREE ENERGY PREDICTED BY IDOCK:   -4.56 KCAL/MOL
REMARK 922        TOTAL FREE ENERGY PREDICTED BY IDOCK:   -8.37 KCAL/MOL
REMARK 923 INTER-LIGAND FREE ENERGY PREDICTED BY IDOCK:   -7.16 KCAL/MOL
REMARK 924 INTRA-LIGAND FREE ENERGY PREDICTED BY IDOCK:   -1.21 KCAL/MOL
REMARK 927      BINDING AFFINITY PREDICTED BY RF-SCORE:    0.00 PKD
ROOT
HETATM    1  O   UNL     1     -11.926   7.933  73.080  1.00  0.00    -0.662 OA 
HETATM    2  C   UNL     1     -12.961   7.927  72.088  1.00  0.00    -0.177 C  
HETATM    3  H   UNL     1     -11.529   7.071  73.114  1.00  0.00     0.000 HD 
ENDROOT
BRANCH   2   4
HETATM    4  C   UNL     1     -13.604   9.324  72.034  1.00  0.00    -0.452 C  
BRANCH   4   5
HETATM    5  N   UNL     1     -12.627  10.337  71.604  1.00  0.00    -0.421 NA 
HETATM    6  H   UNL     1     -12.389  10.243  70.616  1.00  0.00     0.000 HD 
BRANCH   5   7
HETATM    7  C   UNL     1     -13.122  11.681  71.925  1.00  0.00    -0.385 C  
BRANCH   7   8
HETATM    8  C   UNL     1     -12.584  12.720  70.935  1.00  0.00    -0.255 C  
BRANCH   8   9
HETATM    9  N   UNL     1     -11.547  12.139  70.107  1.00  0.00    -0.536 N  
HETATM   10  H   UNL     1     -10.639  11.944  70.528  1.00  0.00     0.000 HD 
BRANCH   9  11
HETATM   11  C   UNL     1     -11.733  11.841  68.787  1.00  0.00    -0.329 C  
HETATM   12  O   UNL     1     -12.189  10.755  68.432  1.00  0.00    -0.470 OA 
BRANCH  11  13
HETATM   13  N   UNL     1     -11.386  12.834  67.897  1.00  0.00    -0.273 N  
HETATM   14  C   UNL     1     -10.162  12.687  67.105  1.00  0.00    -0.225 C  
HETATM   15  C   UNL     1     -10.493  12.648  65.608  1.00  0.00    -0.275 C  
HETATM   16  O   UNL     1     -11.259  13.800  65.217  1.00  0.00    -0.297 OA 
HETATM   17  C   UNL     1     -12.486  13.869  65.959  1.00  0.00    -0.461 C  
HETATM   18  C   UNL     1     -12.212  13.967  67.465  1.00  0.00    -0.231 C  
ENDBRANCH  11  13
ENDBRANCH   9  11
ENDBRANCH   8   9
ENDBRANCH   7   8
ENDBRANCH   5   7
ENDBRANCH   4   5
ENDBRANCH   2   4
BRANCH   2  19
HETATM   19  C   UNL     1     -12.378   7.571  70.714  1.00  0.00    -0.082 C  
BRANCH  19  20
HETATM   20  O   UNL     1     -10.950   7.703  70.752  1.00  0.00    -0.242 OA 
BRANCH  20  21
HETATM   21  C   UNL     1     -10.319   7.425  69.569  1.00  0.00    -0.217 A  
HETATM   22  C   UNL     1     -10.964   6.508  68.738  1.00  0.00    -0.371 A  
HETATM   23  H   UNL     1      -7.812   6.833  65.640  1.00  0.00     0.000 HD 
HETATM   24  O   UNL     1      -8.628   6.432  65.914  1.00  0.00    -0.142 OA 
HETATM   25  C   UNL     1     -10.410   6.158  67.504  1.00  0.00    -0.259 A  
HETATM   26  C   UNL     1      -9.214   6.745  67.102  1.00  0.00    -0.134 A  
HETATM   27  C   UNL     1      -9.131   8.024  69.144  1.00  0.00    -0.145 A  
HETATM   28  C   UNL     1      -8.578   7.681  67.909  1.00  0.00    -0.122 A  
ENDBRANCH  20  21
ENDBRANCH  19  20
ENDBRANCH   2  19
TORSDOF 10
ENDMDL
MODEL      157
REMARK 921   NORMALIZED FREE ENERGY PREDICTED BY IDOCK:   -4.55 KCAL/MOL
REMARK 922        TOTAL FREE ENERGY PREDICTED BY IDOCK:   -8.34 KCAL/MOL
REMARK 923 INTER-LIGAND FREE ENERGY PREDICTED BY IDOCK:   -7.20 KCAL/MOL
REMARK 924 INTRA-LIGAND FREE ENERGY PREDICTED BY IDOCK:   -1.15 KCAL/MOL
REMARK 927      BINDING AFFINITY PREDICTED BY RF-SCORE:    0.00 PKD
ROOT
HETATM    1  O   UNL     1      -8.236   7.644  66.796  1.00  0.00    -0.118 OA 
HETATM    2  C   UNL     1      -9.468   7.812  67.511  1.00  0.00    -0.141 C  
HETATM    3  H   UNL     1      -7.743   6.938  67.196  1.00  0.00     0.000 HD 
ENDROOT
BRANCH   2   4
HETATM    4  C   UNL     1     -10.266   8.956  66.863  1.00  0.00    -0.276 C  
BRANCH   4   5
HETATM    5  N   UNL     1     -11.046   9.692  67.873  1.00  0.00    -0.508 NA 
HETATM    6  H   UNL     1     -11.608   9.067  68.451  1.00  0.00     0.000 HD 
BRANCH   5   7
HETATM    7  C   UNL     1     -10.156  10.536  68.678  1.00  0.00    -0.180 C  
BRANCH   7   8
HETATM    8  C   UNL     1      -9.760  11.806  67.916  1.00  0.00    -0.185 C  
BRANCH   8   9
HETATM    9  N   UNL     1     -10.144  12.985  68.665  1.00  0.00    -0.388 N  
HETATM   10  H   UNL     1      -9.474  13.385  69.322  1.00  0.00     0.000 HD 
BRANCH   9  11
HETATM   11  C   UNL     1     -11.364  13.583  68.529  1.00  0.00    -0.292 C  
HETATM   12  O   UNL     1     -12.243  13.452  69.379  1.00  0.00    -0.288 OA 
BRANCH  11  13
HETATM   13  N   UNL     1     -11.534  14.340  67.388  1.00  0.00    -0.328 N  
HETATM   14  C   UNL     1     -10.631  15.466  67.138  1.00  0.00    -0.305 C  
HETATM   15  C   UNL     1      -9.845  15.245  65.840  1.00  0.00    -0.354 C  
HETATM   16  O   UNL     1     -10.731  15.000  64.733  1.00  0.00    -0.404 OA 
HETATM   17  C   UNL     1     -11.545  13.845  64.982  1.00  0.00    -0.345 C  
HETATM   18  C   UNL     1     -12.398  14.035  66.242  1.00  0.00    -0.448 C  
ENDBRANCH  11  13
ENDBRANCH   9  11
ENDBRANCH   8   9
ENDBRANCH   7   8
ENDBRANCH   5   7
ENDBRANCH   4   5
ENDBRANCH   2   4
BRANCH   2  19
HETATM   19  C   UNL     1     -10.288   6.516  67.465  1.00  0.00    -0.201 C  
BRANCH  19  20
HETATM   20  O   UNL     1     -11.392   6.615  68.377  1.00  0.00    -0.190 OA 
BRANCH  20  21
HETATM   21  C   UNL     1     -11.114   6.214  69.656  1.00  0.00    -0.419 A  
HETATM   22  C   UNL     1     -11.831   6.863  70.664  1.00  0.00    -0.418 A  
HETATM   23  H   UNL     1      -9.857   4.482  73.838  1.00  0.00     0.000 HD 
HETATM   24  O   UNL     1     -10.479   5.165  73.618  1.00  0.00    -0.203 OA 
HETATM   25  C   UNL     1     -11.629   6.526  72.005  1.00  0.00    -0.354 A  
HETATM   26  C   UNL     1     -10.718   5.525  72.327  1.00  0.00    -0.231 A  
HETATM   27  C   UNL     1     -10.219   5.196  69.992  1.00  0.00    -0.354 A  
HETATM   28  C   UNL     1     -10.020   4.853  71.331  1.00  0.00    -0.266 A  
ENDBRANCH  20  21
ENDBRANCH  19  20
ENDBRANCH   2  19
TORSDOF 10
ENDMDL
MODEL      158
REMARK 921   NORMALIZED FREE ENERGY PREDICTED BY IDOCK:   -4.54 KCAL/MOL
REMARK 922        TOTAL FREE ENERGY PREDICTED BY IDOCK:   -8.32 KCAL/MOL
REMARK 923 INTER-LIGAND FREE ENERGY PREDICTED BY IDOCK:   -7.29 KCAL/MOL
REMARK 924 INTRA-LIGAND FREE ENERGY PREDICTED BY IDOCK:   -1.04 KCAL/MOL
REMARK 927      BINDING AFFINITY PREDICTED BY RF-SCORE:    0.00 PKD
ROOT
HETATM    1  O   UNL     1      -9.357   8.203  68.952  1.00  0.00    -0.147 OA 
HETATM    2  C   UNL     1     -10.539   8.839  68.448  1.00  0.00    -0.137 C  
HETATM    3  H   UNL     1      -9.120   7.492  68.369  1.00  0.00     0.000 HD 
ENDROOT
BRANCH   2   4
HETATM    4  C   UNL     1     -10.924   9.991  69.392  1.00  0.00    -0.244 C  
BRANCH   4   5
HETATM    5  N   UNL     1     -10.520   9.694  70.777  1.00  0.00    -0.307 NA 
HETATM    6  H   UNL     1      -9.794  10.329  71.108  1.00  0.00     0.000 HD 
BRANCH   5   7
HETATM    7  C   UNL     1     -11.696   9.698  71.654  1.00  0.00    -0.369 C  
BRANCH   7   8
HETATM    8  C   UNL     1     -12.538   8.432  71.456  1.00  0.00    -0.308 C  
BRANCH   8   9
HETATM    9  N   UNL     1     -12.135   7.405  72.396  1.00  0.00    -0.497 N  
HETATM   10  H   UNL     1     -12.630   7.337  73.285  1.00  0.00     0.000 HD 
BRANCH   9  11
HETATM   11  C   UNL     1     -11.123   6.525  72.140  1.00  0.00    -0.260 C  
HETATM   12  O   UNL     1     -10.719   6.325  70.996  1.00  0.00    -0.237 OA 
BRANCH  11  13
HETATM   13  N   UNL     1     -10.590   5.892  73.244  1.00  0.00    -0.240 N  
HETATM   14  C   UNL     1     -11.143   4.602  73.663  1.00  0.00    -0.300 C  
HETATM   15  C   UNL     1     -10.071   3.509  73.587  1.00  0.00    -0.128 C  
HETATM   16  O   UNL     1      -8.905   3.874  74.346  1.00  0.00    -0.094 OA 
HETATM   17  C   UNL     1      -8.346   5.102  73.857  1.00  0.00    -0.111 C  
HETATM   18  C   UNL     1      -9.361   6.247  73.962  1.00  0.00    -0.147 C  
ENDBRANCH  11  13
ENDBRANCH   9  11
ENDBRANCH   8   9
ENDBRANCH   7   8
ENDBRANCH   5   7
ENDBRANCH   4   5
ENDBRANCH   2   4
BRANCH   2  19
HETATM   19  C   UNL     1     -10.286   9.387  67.037  1.00  0.00    -0.252 C  
BRANCH  19  20
HETATM   20  O   UNL     1     -10.047  10.800  67.107  1.00  0.00    -0.190 OA 
BRANCH  20  21
HETATM   21  C   UNL     1     -10.740  11.543  66.190  1.00  0.00    -0.274 A  
HETATM   22  C   UNL     1     -10.534  11.201  64.852  1.00  0.00    -0.372 A  
HETATM   23  H   UNL     1     -13.346  14.322  63.441  1.00  0.00     0.000 HD 
HETATM   24  O   UNL     1     -12.744  13.624  63.214  1.00  0.00    -0.765 OA 
HETATM   25  C   UNL     1     -11.197  11.892  63.834  1.00  0.00    -0.497 A  
HETATM   26  C   UNL     1     -12.079  12.915  64.167  1.00  0.00    -0.432 A  
HETATM   27  C   UNL     1     -11.645  12.557  66.511  1.00  0.00    -0.447 A  
HETATM   28  C   UNL     1     -12.314  13.244  65.497  1.00  0.00    -0.533 A  
ENDBRANCH  20  21
ENDBRANCH  19  20
ENDBRANCH   2  19
TORSDOF 10
ENDMDL
MODEL      159
REMARK 921   NORMALIZED FREE ENERGY PREDICTED BY IDOCK:   -4.53 KCAL/MOL
REMARK 922        TOTAL FREE ENERGY PREDICTED BY IDOCK:   -8.31 KCAL/MOL
REMARK 923 INTER-LIGAND FREE ENERGY PREDICTED BY IDOCK:   -7.29 KCAL/MOL
REMARK 924 INTRA-LIGAND FREE ENERGY PREDICTED BY IDOCK:   -1.03 KCAL/MOL
REMARK 927      BINDING AFFINITY PREDICTED BY RF-SCORE:    0.00 PKD
ROOT
HETATM    1  O   UNL     1     -10.214  13.839  68.991  1.00  0.00    -0.404 OA 
HETATM    2  C   UNL     1     -10.363  13.973  67.571  1.00  0.00    -0.245 C  
HETATM    3  H   UNL     1      -9.298  13.686  69.190  1.00  0.00     0.000 HD 
ENDROOT
BRANCH   2   4
HETATM    4  C   UNL     1     -11.847  14.221  67.249  1.00  0.00    -0.413 C  
BRANCH   4   5
HETATM    5  N   UNL     1     -12.087  14.163  65.797  1.00  0.00    -0.404 NA 
HETATM    6  H   UNL     1     -11.394  14.697  65.273  1.00  0.00     0.000 HD 
BRANCH   5   7
HETATM    7  C   UNL     1     -12.155  12.765  65.355  1.00  0.00    -0.462 C  
BRANCH   7   8
HETATM    8  C   UNL     1     -11.046  12.450  64.346  1.00  0.00    -0.333 C  
BRANCH   8   9
HETATM    9  N   UNL     1     -10.465  11.152  64.622  1.00  0.00    -0.327 N  
HETATM   10  H   UNL     1     -10.597  10.404  63.941  1.00  0.00     0.000 HD 
BRANCH   9  11
HETATM   11  C   UNL     1      -9.748  10.888  65.754  1.00  0.00    -0.224 C  
HETATM   12  O   UNL     1      -8.606  11.316  65.905  1.00  0.00    -0.167 OA 
BRANCH  11  13
HETATM   13  N   UNL     1     -10.392  10.122  66.703  1.00  0.00    -0.223 N  
HETATM   14  C   UNL     1     -10.053   8.703  66.827  1.00  0.00    -0.296 C  
HETATM   15  C   UNL     1      -9.481   8.407  68.218  1.00  0.00    -0.138 C  
HETATM   16  O   UNL     1     -10.382   8.844  69.251  1.00  0.00    -0.205 OA 
HETATM   17  C   UNL     1     -10.631  10.253  69.145  1.00  0.00    -0.230 C  
HETATM   18  C   UNL     1     -11.257  10.599  67.788  1.00  0.00    -0.313 C  
ENDBRANCH  11  13
ENDBRANCH   9  11
ENDBRANCH   8   9
ENDBRANCH   7   8
ENDBRANCH   5   7
ENDBRANCH   4   5
ENDBRANCH   2   4
BRANCH   2  19
HETATM   19  C   UNL     1      -9.517  15.146  67.057  1.00  0.00    -0.226 C  
BRANCH  19  20
HETATM   20  O   UNL     1     -10.380  16.216  66.648  1.00  0.00    -0.285 OA 
BRANCH  20  21
HETATM   21  C   UNL     1      -9.839  17.467  66.775  1.00  0.00    -0.306 A  
HETATM   22  C   UNL     1      -8.529  17.516  67.256  1.00  0.00    -0.224 A  
HETATM   23  H   UNL     1      -8.414  21.939  66.993  1.00  0.00     0.000 HD 
HETATM   24  O   UNL     1      -7.960  21.137  67.225  1.00  0.00    -0.255 OA 
HETATM   25  C   UNL     1      -7.880  18.743  67.418  1.00  0.00    -0.245 A  
HETATM   26  C   UNL     1      -8.545  19.917  67.078  1.00  0.00    -0.330 A  
HETATM   27  C   UNL     1     -10.487  18.652  66.417  1.00  0.00    -0.463 A  
HETATM   28  C   UNL     1      -9.838  19.878  66.570  1.00  0.00    -0.567 A  
ENDBRANCH  20  21
ENDBRANCH  19  20
ENDBRANCH   2  19
TORSDOF 10
ENDMDL
MODEL      160
REMARK 921   NORMALIZED FREE ENERGY PREDICTED BY IDOCK:   -4.52 KCAL/MOL
REMARK 922        TOTAL FREE ENERGY PREDICTED BY IDOCK:   -8.30 KCAL/MOL
REMARK 923 INTER-LIGAND FREE ENERGY PREDICTED BY IDOCK:   -7.49 KCAL/MOL
REMARK 924 INTRA-LIGAND FREE ENERGY PREDICTED BY IDOCK:   -0.81 KCAL/MOL
REMARK 927      BINDING AFFINITY PREDICTED BY RF-SCORE:    0.00 PKD
ROOT
HETATM    1  O   UNL     1      -9.410   9.278  71.474  1.00  0.00    -0.287 OA 
HETATM    2  C   UNL     1     -10.682   9.519  70.856  1.00  0.00    -0.333 C  
HETATM    3  H   UNL     1      -9.554   8.944  72.351  1.00  0.00     0.000 HD 
ENDROOT
BRANCH   2   4
HETATM    4  C   UNL     1     -10.448  10.060  69.435  1.00  0.00    -0.232 C  
BRANCH   4   5
HETATM    5  N   UNL     1     -10.480  11.532  69.421  1.00  0.00    -0.441 NA 
HETATM    6  H   UNL     1     -10.179  11.912  68.523  1.00  0.00     0.000 HD 
BRANCH   5   7
HETATM    7  C   UNL     1     -11.815  12.009  69.801  1.00  0.00    -0.331 C  
BRANCH   7   8
HETATM    8  C   UNL     1     -11.842  13.537  69.921  1.00  0.00    -0.316 C  
BRANCH   8   9
HETATM    9  N   UNL     1     -12.362  14.130  68.705  1.00  0.00    -0.547 N  
HETATM   10  H   UNL     1     -13.331  13.944  68.448  1.00  0.00     0.000 HD 
BRANCH   9  11
HETATM   11  C   UNL     1     -11.609  14.926  67.891  1.00  0.00    -0.344 C  
HETATM   12  O   UNL     1     -11.212  16.030  68.260  1.00  0.00    -0.343 OA 
BRANCH  11  13
HETATM   13  N   UNL     1     -11.325  14.407  66.645  1.00  0.00    -0.343 N  
HETATM   14  C   UNL     1     -10.019  13.786  66.411  1.00  0.00    -0.297 C  
HETATM   15  C   UNL     1     -10.186  12.308  66.043  1.00  0.00    -0.243 C  
HETATM   16  O   UNL     1     -11.072  12.150  64.921  1.00  0.00    -0.303 OA 
HETATM   17  C   UNL     1     -12.364  12.701  65.215  1.00  0.00    -0.466 C  
HETATM   18  C   UNL     1     -12.263  14.197  65.537  1.00  0.00    -0.432 C  
ENDBRANCH  11  13
ENDBRANCH   9  11
ENDBRANCH   8   9
ENDBRANCH   7   8
ENDBRANCH   5   7
ENDBRANCH   4   5
ENDBRANCH   2   4
BRANCH   2  19
HETATM   19  C   UNL     1     -11.493   8.218  70.790  1.00  0.00    -0.252 C  
BRANCH  19  20
HETATM   20  O   UNL     1     -10.666   7.162  70.281  1.00  0.00    -0.225 OA 
BRANCH  20  21
HETATM   21  C   UNL     1     -10.600   6.052  71.079  1.00  0.00    -0.246 A  
HETATM   22  C   UNL     1     -11.418   6.069  72.211  1.00  0.00    -0.364 A  
HETATM   23  H   UNL     1     -10.064   2.040  73.464  1.00  0.00     0.000 HD 
HETATM   24  O   UNL     1     -10.608   2.796  73.649  1.00  0.00    -0.133 OA 
HETATM   25  C   UNL     1     -11.433   4.984  73.090  1.00  0.00    -0.362 A  
HETATM   26  C   UNL     1     -10.636   3.876  72.820  1.00  0.00    -0.123 A  
HETATM   27  C   UNL     1      -9.822   4.925  70.808  1.00  0.00    -0.285 A  
HETATM   28  C   UNL     1      -9.840   3.836  71.681  1.00  0.00    -0.240 A  
ENDBRANCH  20  21
ENDBRANCH  19  20
ENDBRANCH   2  19
TORSDOF 10
ENDMDL
MODEL      161
REMARK 921   NORMALIZED FREE ENERGY PREDICTED BY IDOCK:   -4.50 KCAL/MOL
REMARK 922        TOTAL FREE ENERGY PREDICTED BY IDOCK:   -8.27 KCAL/MOL
REMARK 923 INTER-LIGAND FREE ENERGY PREDICTED BY IDOCK:   -7.38 KCAL/MOL
REMARK 924 INTRA-LIGAND FREE ENERGY PREDICTED BY IDOCK:   -0.90 KCAL/MOL
REMARK 927      BINDING AFFINITY PREDICTED BY RF-SCORE:    0.00 PKD
ROOT
HETATM    1  O   UNL     1      -9.154   9.674  67.434  1.00  0.00    -0.130 OA 
HETATM    2  C   UNL     1     -10.145   9.814  68.462  1.00  0.00    -0.166 C  
HETATM    3  H   UNL     1      -8.378   9.274  67.809  1.00  0.00     0.000 HD 
ENDROOT
BRANCH   2   4
HETATM    4  C   UNL     1     -11.401  10.462  67.854  1.00  0.00    -0.173 C  
BRANCH   4   5
HETATM    5  N   UNL     1     -12.304  10.950  68.910  1.00  0.00    -0.759 NA 
HETATM    6  H   UNL     1     -12.611  10.199  69.528  1.00  0.00     0.000 HD 
BRANCH   5   7
HETATM    7  C   UNL     1     -11.667  12.046  69.649  1.00  0.00    -0.335 C  
BRANCH   7   8
HETATM    8  C   UNL     1     -11.499  13.286  68.764  1.00  0.00    -0.306 C  
BRANCH   8   9
HETATM    9  N   UNL     1     -10.502  14.176  69.324  1.00  0.00    -0.424 N  
HETATM   10  H   UNL     1      -9.642  13.772  69.695  1.00  0.00     0.000 HD 
BRANCH   9  11
HETATM   11  C   UNL     1     -10.665  15.530  69.376  1.00  0.00    -0.251 C  
HETATM   12  O   UNL     1     -11.379  16.059  70.226  1.00  0.00    -0.339 OA 
BRANCH  11  13
HETATM   13  N   UNL     1      -9.974  16.251  68.425  1.00  0.00    -0.228 N  
HETATM   14  C   UNL     1      -8.729  15.706  67.880  1.00  0.00    -0.166 C  
HETATM   15  C   UNL     1      -8.859  15.474  66.370  1.00  0.00    -0.324 C  
HETATM   16  O   UNL     1      -9.268  16.677  65.695  1.00  0.00    -0.491 OA 
HETATM   17  C   UNL     1     -10.528  17.139  66.202  1.00  0.00    -0.275 C  
HETATM   18  C   UNL     1     -10.440  17.440  67.703  1.00  0.00    -0.368 C  
ENDBRANCH  11  13
ENDBRANCH   9  11
ENDBRANCH   8   9
ENDBRANCH   7   8
ENDBRANCH   5   7
ENDBRANCH   4   5
ENDBRANCH   2   4
BRANCH   2  19
HETATM   19  C   UNL     1     -10.500   8.440  69.046  1.00  0.00    -0.201 C  
BRANCH  19  20
HETATM   20  O   UNL     1     -11.430   8.605  70.125  1.00  0.00    -0.158 OA 
BRANCH  20  21
HETATM   21  C   UNL     1     -11.147   7.865  71.242  1.00  0.00    -0.250 A  
HETATM   22  C   UNL     1     -11.675   6.572  71.263  1.00  0.00    -0.386 A  
HETATM   23  H   UNL     1      -9.880   5.717  75.223  1.00  0.00     0.000 HD 
HETATM   24  O   UNL     1     -10.412   5.407  74.500  1.00  0.00    -0.268 OA 
HETATM   25  C   UNL     1     -11.442   5.729  72.353  1.00  0.00    -0.343 A  
HETATM   26  C   UNL     1     -10.662   6.184  73.411  1.00  0.00    -0.259 A  
HETATM   27  C   UNL     1     -10.349   8.301  72.301  1.00  0.00    -0.386 A  
HETATM   28  C   UNL     1     -10.107   7.459  73.388  1.00  0.00    -0.389 A  
ENDBRANCH  20  21
ENDBRANCH  19  20
ENDBRANCH   2  19
TORSDOF 10
ENDMDL
MODEL      162
REMARK 921   NORMALIZED FREE ENERGY PREDICTED BY IDOCK:   -4.50 KCAL/MOL
REMARK 922        TOTAL FREE ENERGY PREDICTED BY IDOCK:   -8.27 KCAL/MOL
REMARK 923 INTER-LIGAND FREE ENERGY PREDICTED BY IDOCK:   -7.38 KCAL/MOL
REMARK 924 INTRA-LIGAND FREE ENERGY PREDICTED BY IDOCK:   -0.89 KCAL/MOL
REMARK 927      BINDING AFFINITY PREDICTED BY RF-SCORE:    0.00 PKD
ROOT
HETATM    1  O   UNL     1      -8.563   5.818  66.948  1.00  0.00    -0.111 OA 
HETATM    2  C   UNL     1      -8.583   7.199  67.338  1.00  0.00    -0.121 C  
HETATM    3  H   UNL     1      -7.860   5.379  67.413  1.00  0.00     0.000 HD 
ENDROOT
BRANCH   2   4
HETATM    4  C   UNL     1      -9.720   7.909  66.584  1.00  0.00    -0.235 C  
BRANCH   4   5
HETATM    5  N   UNL     1      -9.198   8.670  65.437  1.00  0.00    -0.426 NA 
HETATM    6  H   UNL     1      -9.770   9.488  65.228  1.00  0.00     0.000 HD 
BRANCH   5   7
HETATM    7  C   UNL     1      -7.793   9.025  65.668  1.00  0.00    -0.102 C  
BRANCH   7   8
HETATM    8  C   UNL     1      -7.664  10.464  66.181  1.00  0.00    -0.129 C  
BRANCH   8   9
HETATM    9  N   UNL     1      -8.537  11.347  65.434  1.00  0.00    -0.388 N  
HETATM   10  H   UNL     1      -8.251  11.639  64.500  1.00  0.00     0.000 HD 
BRANCH   9  11
HETATM   11  C   UNL     1      -9.726  11.803  65.928  1.00  0.00    -0.237 C  
HETATM   12  O   UNL     1     -10.164  11.414  67.009  1.00  0.00    -0.203 OA 
BRANCH  11  13
HETATM   13  N   UNL     1     -10.384  12.724  65.141  1.00  0.00    -0.292 N  
HETATM   14  C   UNL     1     -10.669  12.394  63.742  1.00  0.00    -0.451 C  
HETATM   15  C   UNL     1     -12.181  12.378  63.491  1.00  0.00    -0.563 C  
HETATM   16  O   UNL     1     -12.786  13.620  63.891  1.00  0.00    -0.675 OA 
HETATM   17  C   UNL     1     -12.552  13.872  65.284  1.00  0.00    -0.478 C  
HETATM   18  C   UNL     1     -11.050  13.954  65.583  1.00  0.00    -0.298 C  
ENDBRANCH  11  13
ENDBRANCH   9  11
ENDBRANCH   8   9
ENDBRANCH   7   8
ENDBRANCH   5   7
ENDBRANCH   4   5
ENDBRANCH   2   4
BRANCH   2  19
HETATM   19  C   UNL     1      -8.807   7.319  68.851  1.00  0.00    -0.127 C  
BRANCH  19  20
HETATM   20  O   UNL     1     -10.063   6.720  69.198  1.00  0.00    -0.162 OA 
BRANCH  20  21
HETATM   21  C   UNL     1     -10.845   7.475  70.031  1.00  0.00    -0.249 A  
HETATM   22  C   UNL     1     -10.592   8.848  70.023  1.00  0.00    -0.234 A  
HETATM   23  H   UNL     1     -13.787   9.631  72.992  1.00  0.00     0.000 HD 
HETATM   24  O   UNL     1     -13.097   9.986  72.445  1.00  0.00    -0.351 OA 
HETATM   25  C   UNL     1     -11.337   9.710  70.831  1.00  0.00    -0.431 A  
HETATM   26  C   UNL     1     -12.348   9.190  71.633  1.00  0.00    -0.360 A  
HETATM   27  C   UNL     1     -11.878   6.969  70.824  1.00  0.00    -0.401 A  
HETATM   28  C   UNL     1     -12.629   7.829  71.627  1.00  0.00    -0.357 A  
ENDBRANCH  20  21
ENDBRANCH  19  20
ENDBRANCH   2  19
TORSDOF 10
ENDMDL
MODEL      163
REMARK 921   NORMALIZED FREE ENERGY PREDICTED BY IDOCK:   -4.46 KCAL/MOL
REMARK 922        TOTAL FREE ENERGY PREDICTED BY IDOCK:   -8.21 KCAL/MOL
REMARK 923 INTER-LIGAND FREE ENERGY PREDICTED BY IDOCK:   -7.12 KCAL/MOL
REMARK 924 INTRA-LIGAND FREE ENERGY PREDICTED BY IDOCK:   -1.09 KCAL/MOL
REMARK 927      BINDING AFFINITY PREDICTED BY RF-SCORE:    0.00 PKD
ROOT
HETATM    1  O   UNL     1      -8.666  12.412  66.240  1.00  0.00    -0.406 OA 
HETATM    2  C   UNL     1      -9.716  11.598  66.782  1.00  0.00    -0.201 C  
HETATM    3  H   UNL     1      -9.024  13.261  66.010  1.00  0.00     0.000 HD 
ENDROOT
BRANCH   2   4
HETATM    4  C   UNL     1      -9.136  10.223  67.153  1.00  0.00    -0.142 C  
BRANCH   4   5
HETATM    5  N   UNL     1      -8.715  10.192  68.564  1.00  0.00    -0.119 NA 
HETATM    6  H   UNL     1      -8.982  11.042  69.061  1.00  0.00     0.000 HD 
BRANCH   5   7
HETATM    7  C   UNL     1      -9.235   8.986  69.217  1.00  0.00    -0.145 C  
BRANCH   7   8
HETATM    8  C   UNL     1      -8.514   8.721  70.543  1.00  0.00    -0.166 C  
BRANCH   8   9
HETATM    9  N   UNL     1      -9.399   8.984  71.661  1.00  0.00    -0.245 N  
HETATM   10  H   UNL     1     -10.167   9.642  71.529  1.00  0.00     0.000 HD 
BRANCH   9  11
HETATM   11  C   UNL     1      -9.247   8.390  72.880  1.00  0.00    -0.218 C  
HETATM   12  O   UNL     1      -8.212   8.516  73.532  1.00  0.00    -0.381 OA 
BRANCH  11  13
HETATM   13  N   UNL     1     -10.326   7.654  73.324  1.00  0.00    -0.345 N  
HETATM   14  C   UNL     1     -11.635   7.858  72.698  1.00  0.00    -0.377 C  
HETATM   15  C   UNL     1     -12.119   6.564  72.034  1.00  0.00    -0.312 C  
HETATM   16  O   UNL     1     -12.127   5.472  72.970  1.00  0.00    -0.085 OA 
HETATM   17  C   UNL     1     -10.813   5.253  73.504  1.00  0.00    -0.304 C  
HETATM   18  C   UNL     1     -10.300   6.502  74.231  1.00  0.00    -0.287 C  
ENDBRANCH  11  13
ENDBRANCH   9  11
ENDBRANCH   8   9
ENDBRANCH   7   8
ENDBRANCH   5   7
ENDBRANCH   4   5
ENDBRANCH   2   4
BRANCH   2  19
HETATM   19  C   UNL     1     -10.313  12.264  68.028  1.00  0.00    -0.214 C  
BRANCH  19  20
HETATM   20  O   UNL     1     -11.353  11.434  68.563  1.00  0.00    -0.221 OA 
BRANCH  20  21
HETATM   21  C   UNL     1     -11.959  11.930  69.687  1.00  0.00    -0.298 A  
HETATM   22  C   UNL     1     -11.960  13.320  69.813  1.00  0.00    -0.391 A  
HETATM   23  H   UNL     1     -14.174  13.145  73.648  1.00  0.00     0.000 HD 
HETATM   24  O   UNL     1     -13.757  13.684  72.987  1.00  0.00    -0.554 OA 
HETATM   25  C   UNL     1     -12.558  13.931  70.918  1.00  0.00    -0.431 A  
HETATM   26  C   UNL     1     -13.168  13.140  71.886  1.00  0.00    -0.431 A  
HETATM   27  C   UNL     1     -12.595  11.149  70.655  1.00  0.00    -0.408 A  
HETATM   28  C   UNL     1     -13.199  11.756  71.757  1.00  0.00    -0.434 A  
ENDBRANCH  20  21
ENDBRANCH  19  20
ENDBRANCH   2  19
TORSDOF 10
ENDMDL
MODEL      164
REMARK 921   NORMALIZED FREE ENERGY PREDICTED BY IDOCK:   -4.44 KCAL/MOL
REMARK 922        TOTAL FREE ENERGY PREDICTED BY IDOCK:   -8.18 KCAL/MOL
REMARK 923 INTER-LIGAND FREE ENERGY PREDICTED BY IDOCK:   -6.80 KCAL/MOL
REMARK 924 INTRA-LIGAND FREE ENERGY PREDICTED BY IDOCK:   -1.38 KCAL/MOL
REMARK 927      BINDING AFFINITY PREDICTED BY RF-SCORE:    0.00 PKD
ROOT
HETATM    1  O   UNL     1     -10.199  13.366  63.900  1.00  0.00    -0.712 OA 
HETATM    2  C   UNL     1     -11.380  14.101  64.251  1.00  0.00    -0.226 C  
HETATM    3  H   UNL     1      -9.702  13.870  63.267  1.00  0.00     0.000 HD 
ENDROOT
BRANCH   2   4
HETATM    4  C   UNL     1     -12.185  13.285  65.277  1.00  0.00    -0.448 C  
BRANCH   4   5
HETATM    5  N   UNL     1     -11.839  13.679  66.652  1.00  0.00    -0.385 NA 
HETATM    6  H   UNL     1     -12.541  14.297  67.061  1.00  0.00     0.000 HD 
BRANCH   5   7
HETATM    7  C   UNL     1     -11.610  12.486  67.474  1.00  0.00    -0.361 C  
BRANCH   7   8
HETATM    8  C   UNL     1     -10.315  11.775  67.067  1.00  0.00    -0.214 C  
BRANCH   8   9
HETATM    9  N   UNL     1     -10.614  10.524  66.398  1.00  0.00    -0.190 N  
HETATM   10  H   UNL     1     -11.461  10.021  66.661  1.00  0.00     0.000 HD 
BRANCH   9  11
HETATM   11  C   UNL     1      -9.809   9.992  65.431  1.00  0.00    -0.314 C  
HETATM   12  O   UNL     1      -9.942  10.296  64.247  1.00  0.00    -0.328 OA 
BRANCH  11  13
HETATM   13  N   UNL     1      -8.848   9.108  65.875  1.00  0.00    -0.163 N  
HETATM   14  C   UNL     1      -7.438   9.388  65.595  1.00  0.00    -0.095 C  
HETATM   15  C   UNL     1      -6.656   9.560  66.902  1.00  0.00    -0.068 C  
HETATM   16  O   UNL     1      -6.825   8.418  67.761  1.00  0.00    -0.065 OA 
HETATM   17  C   UNL     1      -8.211   8.221  68.075  1.00  0.00    -0.128 C  
HETATM   18  C   UNL     1      -9.035   7.988  66.803  1.00  0.00    -0.144 C  
ENDBRANCH  11  13
ENDBRANCH   9  11
ENDBRANCH   8   9
ENDBRANCH   7   8
ENDBRANCH   5   7
ENDBRANCH   4   5
ENDBRANCH   2   4
BRANCH   2  19
HETATM   19  C   UNL     1     -10.999  15.460  64.853  1.00  0.00    -0.437 C  
BRANCH  19  20
HETATM   20  O   UNL     1      -9.767  15.336  65.577  1.00  0.00    -0.332 OA 
BRANCH  20  21
HETATM   21  C   UNL     1      -9.508  16.361  66.446  1.00  0.00    -0.293 A  
HETATM   22  C   UNL     1      -8.196  16.839  66.448  1.00  0.00    -0.349 A  
HETATM   23  H   UNL     1      -9.124  19.878  69.537  1.00  0.00     0.000 HD 
HETATM   24  O   UNL     1      -8.472  19.484  68.971  1.00  0.00    -0.340 OA 
HETATM   25  C   UNL     1      -7.826  17.888  67.293  1.00  0.00    -0.225 A  
HETATM   26  C   UNL     1      -8.782  18.465  68.123  1.00  0.00    -0.302 A  
HETATM   27  C   UNL     1     -10.463  16.964  67.267  1.00  0.00    -0.301 A  
HETATM   28  C   UNL     1     -10.098  18.017  68.108  1.00  0.00    -0.378 A  
ENDBRANCH  20  21
ENDBRANCH  19  20
ENDBRANCH   2  19
TORSDOF 10
ENDMDL
MODEL      165
REMARK 921   NORMALIZED FREE ENERGY PREDICTED BY IDOCK:   -4.44 KCAL/MOL
REMARK 922        TOTAL FREE ENERGY PREDICTED BY IDOCK:   -8.17 KCAL/MOL
REMARK 923 INTER-LIGAND FREE ENERGY PREDICTED BY IDOCK:   -7.21 KCAL/MOL
REMARK 924 INTRA-LIGAND FREE ENERGY PREDICTED BY IDOCK:   -0.95 KCAL/MOL
REMARK 927      BINDING AFFINITY PREDICTED BY RF-SCORE:    0.00 PKD
ROOT
HETATM    1  O   UNL     1      -9.761  13.728  65.701  1.00  0.00    -0.467 OA 
HETATM    2  C   UNL     1     -10.649  13.025  66.580  1.00  0.00    -0.266 C  
HETATM    3  H   UNL     1     -10.258  14.379  65.220  1.00  0.00     0.000 HD 
ENDROOT
BRANCH   2   4
HETATM    4  C   UNL     1      -9.844  11.971  67.359  1.00  0.00    -0.184 C  
BRANCH   4   5
HETATM    5  N   UNL     1     -10.740  11.043  68.070  1.00  0.00    -0.201 NA 
HETATM    6  H   UNL     1     -11.338  10.523  67.429  1.00  0.00     0.000 HD 
BRANCH   5   7
HETATM    7  C   UNL     1      -9.957  10.154  68.937  1.00  0.00    -0.199 C  
BRANCH   7   8
HETATM    8  C   UNL     1     -10.774   9.710  70.155  1.00  0.00    -0.275 C  
BRANCH   8   9
HETATM    9  N   UNL     1     -11.513   8.500  69.854  1.00  0.00    -0.448 N  
HETATM   10  H   UNL     1     -11.941   8.407  68.933  1.00  0.00     0.000 HD 
BRANCH   9  11
HETATM   11  C   UNL     1     -11.659   7.480  70.750  1.00  0.00    -0.277 C  
HETATM   12  O   UNL     1     -12.720   7.294  71.343  1.00  0.00    -0.362 OA 
BRANCH  11  13
HETATM   13  N   UNL     1     -10.549   6.683  70.933  1.00  0.00    -0.219 N  
HETATM   14  C   UNL     1     -10.140   6.329  72.294  1.00  0.00    -0.177 C  
HETATM   15  C   UNL     1     -10.202   4.811  72.497  1.00  0.00    -0.190 C  
HETATM   16  O   UNL     1      -9.426   4.124  71.499  1.00  0.00    -0.134 OA 
HETATM   17  C   UNL     1      -9.904   4.434  70.183  1.00  0.00    -0.217 C  
HETATM   18  C   UNL     1      -9.812   5.939  69.905  1.00  0.00    -0.174 C  
ENDBRANCH  11  13
ENDBRANCH   9  11
ENDBRANCH   8   9
ENDBRANCH   7   8
ENDBRANCH   5   7
ENDBRANCH   4   5
ENDBRANCH   2   4
BRANCH   2  19
HETATM   19  C   UNL     1     -11.310  14.003  67.560  1.00  0.00    -0.321 C  
BRANCH  19  20
HETATM   20  O   UNL     1     -10.748  13.823  68.868  1.00  0.00    -0.248 OA 
BRANCH  20  21
HETATM   21  C   UNL     1     -11.466  14.398  69.882  1.00  0.00    -0.260 A  
HETATM   22  C   UNL     1     -12.401  13.571  70.508  1.00  0.00    -0.412 A  
HETATM   23  H   UNL     1     -13.632  16.785  73.300  1.00  0.00     0.000 HD 
HETATM   24  O   UNL     1     -13.750  15.890  73.006  1.00  0.00    -0.591 OA 
HETATM   25  C   UNL     1     -13.183  14.056  71.560  1.00  0.00    -0.431 A  
HETATM   26  C   UNL     1     -13.009  15.367  71.991  1.00  0.00    -0.401 A  
HETATM   27  C   UNL     1     -11.286  15.705  70.340  1.00  0.00    -0.374 A  
HETATM   28  C   UNL     1     -12.060  16.190  71.395  1.00  0.00    -0.384 A  
ENDBRANCH  20  21
ENDBRANCH  19  20
ENDBRANCH   2  19
TORSDOF 10
ENDMDL
MODEL      166
REMARK 921   NORMALIZED FREE ENERGY PREDICTED BY IDOCK:   -4.43 KCAL/MOL
REMARK 922        TOTAL FREE ENERGY PREDICTED BY IDOCK:   -8.15 KCAL/MOL
REMARK 923 INTER-LIGAND FREE ENERGY PREDICTED BY IDOCK:   -7.33 KCAL/MOL
REMARK 924 INTRA-LIGAND FREE ENERGY PREDICTED BY IDOCK:   -0.82 KCAL/MOL
REMARK 927      BINDING AFFINITY PREDICTED BY RF-SCORE:    0.00 PKD
ROOT
HETATM    1  O   UNL     1      -8.109   7.648  67.533  1.00  0.00    -0.117 OA 
HETATM    2  C   UNL     1      -9.423   7.297  67.076  1.00  0.00    -0.156 C  
HETATM    3  H   UNL     1      -7.729   8.270  66.925  1.00  0.00     0.000 HD 
ENDROOT
BRANCH   2   4
HETATM    4  C   UNL     1     -10.038   6.288  68.061  1.00  0.00    -0.152 C  
BRANCH   4   5
HETATM    5  N   UNL     1     -11.284   6.813  68.644  1.00  0.00    -0.540 NA 
HETATM    6  H   UNL     1     -12.091   6.631  68.047  1.00  0.00     0.000 HD 
BRANCH   5   7
HETATM    7  C   UNL     1     -11.469   6.279  69.998  1.00  0.00    -0.390 C  
BRANCH   7   8
HETATM    8  C   UNL     1     -12.783   6.774  70.613  1.00  0.00     0.148 C  
BRANCH   8   9
HETATM    9  N   UNL     1     -12.600   7.080  72.017  1.00  0.00    -0.504 N  
HETATM   10  H   UNL     1     -13.403   7.004  72.641  1.00  0.00     0.000 HD 
BRANCH   9  11
HETATM   11  C   UNL     1     -11.399   7.463  72.541  1.00  0.00    -0.313 C  
HETATM   12  O   UNL     1     -10.787   6.750  73.335  1.00  0.00    -0.291 OA 
BRANCH  11  13
HETATM   13  N   UNL     1     -10.925   8.686  72.115  1.00  0.00    -0.364 N  
HETATM   14  C   UNL     1      -9.479   8.907  72.044  1.00  0.00    -0.179 C  
HETATM   15  C   UNL     1      -9.051   9.203  70.602  1.00  0.00    -0.257 C  
HETATM   16  O   UNL     1      -9.797  10.306  70.057  1.00  0.00    -0.191 OA 
HETATM   17  C   UNL     1     -11.204  10.022  70.071  1.00  0.00    -0.288 C  
HETATM   18  C   UNL     1     -11.699   9.771  71.501  1.00  0.00    -0.375 C  
ENDBRANCH  11  13
ENDBRANCH   9  11
ENDBRANCH   8   9
ENDBRANCH   7   8
ENDBRANCH   5   7
ENDBRANCH   4   5
ENDBRANCH   2   4
BRANCH   2  19
HETATM   19  C   UNL     1     -10.307   8.548  66.994  1.00  0.00    -0.309 C  
BRANCH  19  20
HETATM   20  O   UNL     1      -9.582   9.606  66.351  1.00  0.00    -0.179 OA 
BRANCH  20  21
HETATM   21  C   UNL     1     -10.352  10.667  65.954  1.00  0.00    -0.224 A  
HETATM   22  C   UNL     1     -10.378  10.916  64.580  1.00  0.00    -0.407 A  
HETATM   23  H   UNL     1     -13.138  14.347  65.081  1.00  0.00     0.000 HD 
HETATM   24  O   UNL     1     -12.630  13.807  64.488  1.00  0.00    -0.620 OA 
HETATM   25  C   UNL     1     -11.137  11.971  64.067  1.00  0.00    -0.452 A  
HETATM   26  C   UNL     1     -11.881  12.762  64.936  1.00  0.00    -0.379 A  
HETATM   27  C   UNL     1     -11.121  11.455  66.813  1.00  0.00    -0.343 A  
HETATM   28  C   UNL     1     -11.885  12.505  66.302  1.00  0.00    -0.453 A  
ENDBRANCH  20  21
ENDBRANCH  19  20
ENDBRANCH   2  19
TORSDOF 10
ENDMDL
MODEL      167
REMARK 921   NORMALIZED FREE ENERGY PREDICTED BY IDOCK:   -4.40 KCAL/MOL
REMARK 922        TOTAL FREE ENERGY PREDICTED BY IDOCK:   -8.11 KCAL/MOL
REMARK 923 INTER-LIGAND FREE ENERGY PREDICTED BY IDOCK:   -7.41 KCAL/MOL
REMARK 924 INTRA-LIGAND FREE ENERGY PREDICTED BY IDOCK:   -0.70 KCAL/MOL
REMARK 927      BINDING AFFINITY PREDICTED BY RF-SCORE:    0.00 PKD
ROOT
HETATM    1  O   UNL     1      -9.627  11.294  66.643  1.00  0.00    -0.189 OA 
HETATM    2  C   UNL     1      -9.931  11.558  68.020  1.00  0.00    -0.189 C  
HETATM    3  H   UNL     1      -8.939  10.640  66.601  1.00  0.00     0.000 HD 
ENDROOT
BRANCH   2   4
HETATM    4  C   UNL     1     -11.045  12.616  68.088  1.00  0.00    -0.249 C  
BRANCH   4   5
HETATM    5  N   UNL     1     -11.940  12.515  66.922  1.00  0.00    -0.543 NA 
HETATM    6  H   UNL     1     -12.885  12.241  67.190  1.00  0.00     0.000 HD 
BRANCH   5   7
HETATM    7  C   UNL     1     -11.924  13.772  66.166  1.00  0.00    -0.418 C  
BRANCH   7   8
HETATM    8  C   UNL     1     -11.389  14.925  67.022  1.00  0.00    -0.342 C  
BRANCH   8   9
HETATM    9  N   UNL     1     -10.780  15.938  66.183  1.00  0.00    -0.301 N  
HETATM   10  H   UNL     1     -11.346  16.369  65.452  1.00  0.00     0.000 HD 
BRANCH   9  11
HETATM   11  C   UNL     1      -9.483  16.338  66.329  1.00  0.00    -0.316 C  
HETATM   12  O   UNL     1      -8.546  15.603  66.023  1.00  0.00    -0.242 OA 
BRANCH  11  13
HETATM   13  N   UNL     1      -9.304  17.610  66.831  1.00  0.00    -0.256 N  
HETATM   14  C   UNL     1      -9.862  18.750  66.101  1.00  0.00    -0.299 C  
HETATM   15  C   UNL     1     -10.897  19.484  66.962  1.00  0.00    -0.427 C  
HETATM   16  O   UNL     1     -10.337  19.870  68.229  1.00  0.00    -0.441 OA 
HETATM   17  C   UNL     1      -9.871  18.719  68.949  1.00  0.00    -0.365 C  
HETATM   18  C   UNL     1      -8.789  17.976  68.155  1.00  0.00    -0.273 C  
ENDBRANCH  11  13
ENDBRANCH   9  11
ENDBRANCH   8   9
ENDBRANCH   7   8
ENDBRANCH   5   7
ENDBRANCH   4   5
ENDBRANCH   2   4
BRANCH   2  19
HETATM   19  C   UNL     1     -10.394  10.271  68.717  1.00  0.00    -0.195 C  
BRANCH  19  20
HETATM   20  O   UNL     1     -10.811  10.575  70.055  1.00  0.00    -0.279 OA 
BRANCH  20  21
HETATM   21  C   UNL     1     -11.714   9.694  70.586  1.00  0.00    -0.280 A  
HETATM   22  C   UNL     1     -11.481   8.345  70.311  1.00  0.00    -0.063 A  
HETATM   23  H   UNL     1     -15.030   7.077  72.642  1.00  0.00     0.000 HD 
HETATM   24  O   UNL     1     -14.291   6.820  72.103  1.00  0.00    -0.228 OA 
HETATM   25  C   UNL     1     -12.339   7.362  70.810  1.00  0.00    -0.167 A  
HETATM   26  C   UNL     1     -13.421   7.738  71.600  1.00  0.00    -0.349 A  
HETATM   27  C   UNL     1     -12.791  10.056  71.399  1.00  0.00    -0.519 A  
HETATM   28  C   UNL     1     -13.646   9.075  71.904  1.00  0.00    -0.486 A  
ENDBRANCH  20  21
ENDBRANCH  19  20
ENDBRANCH   2  19
TORSDOF 10
ENDMDL
MODEL      168
REMARK 921   NORMALIZED FREE ENERGY PREDICTED BY IDOCK:   -4.40 KCAL/MOL
REMARK 922        TOTAL FREE ENERGY PREDICTED BY IDOCK:   -8.11 KCAL/MOL
REMARK 923 INTER-LIGAND FREE ENERGY PREDICTED BY IDOCK:   -6.94 KCAL/MOL
REMARK 924 INTRA-LIGAND FREE ENERGY PREDICTED BY IDOCK:   -1.17 KCAL/MOL
REMARK 927      BINDING AFFINITY PREDICTED BY RF-SCORE:    0.00 PKD
ROOT
HETATM    1  O   UNL     1      -9.719  11.940  68.634  1.00  0.00    -0.292 OA 
HETATM    2  C   UNL     1     -11.086  12.095  69.038  1.00  0.00    -0.237 C  
HETATM    3  H   UNL     1      -9.218  11.606  69.369  1.00  0.00     0.000 HD 
ENDROOT
BRANCH   2   4
HETATM    4  C   UNL     1     -11.897  12.638  67.849  1.00  0.00    -0.332 C  
BRANCH   4   5
HETATM    5  N   UNL     1     -11.667  11.826  66.641  1.00  0.00    -0.554 NA 
HETATM    6  H   UNL     1     -12.518  11.358  66.329  1.00  0.00     0.000 HD 
BRANCH   5   7
HETATM    7  C   UNL     1     -11.076  12.655  65.584  1.00  0.00    -0.292 C  
BRANCH   7   8
HETATM    8  C   UNL     1     -11.054  14.133  65.988  1.00  0.00    -0.314 C  
BRANCH   8   9
HETATM    9  N   UNL     1      -9.696  14.639  65.980  1.00  0.00    -0.329 N  
HETATM   10  H   UNL     1      -9.333  15.048  65.119  1.00  0.00     0.000 HD 
BRANCH   9  11
HETATM   11  C   UNL     1      -8.884  14.593  67.077  1.00  0.00    -0.241 C  
HETATM   12  O   UNL     1      -8.123  13.646  67.272  1.00  0.00    -0.176 OA 
BRANCH  11  13
HETATM   13  N   UNL     1      -8.972  15.671  67.931  1.00  0.00    -0.179 N  
HETATM   14  C   UNL     1      -8.994  17.025  67.373  1.00  0.00    -0.211 C  
HETATM   15  C   UNL     1     -10.308  17.730  67.727  1.00  0.00    -0.380 C  
HETATM   16  O   UNL     1     -10.533  17.724  69.148  1.00  0.00    -0.312 OA 
HETATM   17  C   UNL     1     -10.582  16.379  69.647  1.00  0.00    -0.307 C  
HETATM   18  C   UNL     1      -9.266  15.642  69.368  1.00  0.00    -0.279 C  
ENDBRANCH  11  13
ENDBRANCH   9  11
ENDBRANCH   8   9
ENDBRANCH   7   8
ENDBRANCH   5   7
ENDBRANCH   4   5
ENDBRANCH   2   4
BRANCH   2  19
HETATM   19  C   UNL     1     -11.663  10.746  69.487  1.00  0.00    -0.312 C  
BRANCH  19  20
HETATM   20  O   UNL     1     -10.593   9.812  69.692  1.00  0.00    -0.210 OA 
BRANCH  20  21
HETATM   21  C   UNL     1     -10.634   8.709  68.882  1.00  0.00    -0.144 A  
HETATM   22  C   UNL     1     -10.972   7.508  69.509  1.00  0.00    -0.127 A  
HETATM   23  H   UNL     1     -10.688   5.243  65.711  1.00  0.00     0.000 HD 
HETATM   24  O   UNL     1     -10.856   5.224  66.645  1.00  0.00    -0.258 OA 
HETATM   25  C   UNL     1     -11.049   6.323  68.774  1.00  0.00    -0.424 A  
HETATM   26  C   UNL     1     -10.803   6.352  67.405  1.00  0.00    -0.375 A  
HETATM   27  C   UNL     1     -10.411   8.728  67.504  1.00  0.00    -0.334 A  
HETATM   28  C   UNL     1     -10.494   7.546  66.765  1.00  0.00    -0.319 A  
ENDBRANCH  20  21
ENDBRANCH  19  20
ENDBRANCH   2  19
TORSDOF 10
ENDMDL
MODEL      169
REMARK 921   NORMALIZED FREE ENERGY PREDICTED BY IDOCK:   -4.39 KCAL/MOL
REMARK 922        TOTAL FREE ENERGY PREDICTED BY IDOCK:   -8.10 KCAL/MOL
REMARK 923 INTER-LIGAND FREE ENERGY PREDICTED BY IDOCK:   -6.88 KCAL/MOL
REMARK 924 INTRA-LIGAND FREE ENERGY PREDICTED BY IDOCK:   -1.23 KCAL/MOL
REMARK 927      BINDING AFFINITY PREDICTED BY RF-SCORE:    0.00 PKD
ROOT
HETATM    1  O   UNL     1     -12.588   6.164  72.562  1.00  0.00    -0.548 OA 
HETATM    2  C   UNL     1     -12.989   7.010  71.476  1.00  0.00    -0.359 C  
HETATM    3  H   UNL     1     -12.681   5.257  72.295  1.00  0.00     0.000 HD 
ENDROOT
BRANCH   2   4
HETATM    4  C   UNL     1     -12.840   8.478  71.910  1.00  0.00    -0.363 C  
BRANCH   4   5
HETATM    5  N   UNL     1     -12.838   9.375  70.742  1.00  0.00    -0.523 NA 
HETATM    6  H   UNL     1     -13.777   9.696  70.506  1.00  0.00     0.000 HD 
BRANCH   5   7
HETATM    7  C   UNL     1     -11.914  10.492  70.968  1.00  0.00    -0.364 C  
BRANCH   7   8
HETATM    8  C   UNL     1     -11.990  11.512  69.827  1.00  0.00    -0.346 C  
BRANCH   8   9
HETATM    9  N   UNL     1     -11.931  10.840  68.544  1.00  0.00    -0.439 N  
HETATM   10  H   UNL     1     -12.458   9.976  68.422  1.00  0.00     0.000 HD 
BRANCH   9  11
HETATM   11  C   UNL     1     -11.200  11.315  67.493  1.00  0.00    -0.291 C  
HETATM   12  O   UNL     1     -10.493  10.572  66.815  1.00  0.00    -0.239 OA 
BRANCH  11  13
HETATM   13  N   UNL     1     -11.318  12.666  67.247  1.00  0.00    -0.299 N  
HETATM   14  C   UNL     1     -10.127  13.515  67.337  1.00  0.00    -0.237 C  
HETATM   15  C   UNL     1      -9.828  14.166  65.982  1.00  0.00    -0.309 C  
HETATM   16  O   UNL     1     -10.973  14.885  65.489  1.00  0.00    -0.319 OA 
HETATM   17  C   UNL     1     -12.097  14.006  65.340  1.00  0.00    -0.401 C  
HETATM   18  C   UNL     1     -12.476  13.367  66.682  1.00  0.00    -0.153 C  
ENDBRANCH  11  13
ENDBRANCH   9  11
ENDBRANCH   8   9
ENDBRANCH   7   8
ENDBRANCH   5   7
ENDBRANCH   4   5
ENDBRANCH   2   4
BRANCH   2  19
HETATM   19  C   UNL     1     -12.114   6.741  70.244  1.00  0.00    -0.152 C  
BRANCH  19  20
HETATM   20  O   UNL     1     -10.832   6.253  70.665  1.00  0.00    -0.245 OA 
BRANCH  20  21
HETATM   21  C   UNL     1      -9.848   7.203  70.717  1.00  0.00    -0.178 A  
HETATM   22  C   UNL     1      -9.662   7.949  69.551  1.00  0.00    -0.173 A  
HETATM   23  H   UNL     1      -6.419  10.343  71.393  1.00  0.00     0.000 HD 
HETATM   24  O   UNL     1      -6.947  10.166  70.624  1.00  0.00    -0.298 OA 
HETATM   25  C   UNL     1      -8.688   8.950  69.498  1.00  0.00    -0.142 A  
HETATM   26  C   UNL     1      -7.915   9.208  70.625  1.00  0.00    -0.154 A  
HETATM   27  C   UNL     1      -9.080   7.489  71.848  1.00  0.00    -0.153 A  
HETATM   28  C   UNL     1      -8.111   8.492  71.801  1.00  0.00    -0.191 A  
ENDBRANCH  20  21
ENDBRANCH  19  20
ENDBRANCH   2  19
TORSDOF 10
ENDMDL
MODEL      170
REMARK 921   NORMALIZED FREE ENERGY PREDICTED BY IDOCK:   -4.38 KCAL/MOL
REMARK 922        TOTAL FREE ENERGY PREDICTED BY IDOCK:   -8.09 KCAL/MOL
REMARK 923 INTER-LIGAND FREE ENERGY PREDICTED BY IDOCK:   -6.80 KCAL/MOL
REMARK 924 INTRA-LIGAND FREE ENERGY PREDICTED BY IDOCK:   -1.29 KCAL/MOL
REMARK 927      BINDING AFFINITY PREDICTED BY RF-SCORE:    0.00 PKD
ROOT
HETATM    1  O   UNL     1     -10.381   4.775  70.296  1.00  0.00    -0.234 OA 
HETATM    2  C   UNL     1      -9.925   6.118  70.085  1.00  0.00    -0.175 C  
HETATM    3  H   UNL     1     -10.849   4.737  71.122  1.00  0.00     0.000 HD 
ENDROOT
BRANCH   2   4
HETATM    4  C   UNL     1      -9.166   6.179  68.748  1.00  0.00    -0.124 C  
BRANCH   4   5
HETATM    5  N   UNL     1      -8.049   7.136  68.819  1.00  0.00    -0.120 NA 
HETATM    6  H   UNL     1      -7.202   6.707  69.192  1.00  0.00     0.000 HD 
BRANCH   5   7
HETATM    7  C   UNL     1      -7.825   7.745  67.503  1.00  0.00    -0.122 C  
BRANCH   7   8
HETATM    8  C   UNL     1      -8.754   7.137  66.447  1.00  0.00    -0.139 C  
BRANCH   8   9
HETATM    9  N   UNL     1      -9.283   8.173  65.583  1.00  0.00    -0.412 N  
HETATM   10  H   UNL     1      -9.098   8.113  64.581  1.00  0.00     0.000 HD 
BRANCH   9  11
HETATM   11  C   UNL     1     -10.017   9.224  66.051  1.00  0.00    -0.255 C  
HETATM   12  O   UNL     1     -10.910   9.064  66.882  1.00  0.00    -0.155 OA 
BRANCH  11  13
HETATM   13  N   UNL     1      -9.685  10.460  65.538  1.00  0.00    -0.229 N  
HETATM   14  C   UNL     1     -10.111  10.808  64.181  1.00  0.00    -0.353 C  
HETATM   15  C   UNL     1     -11.045  12.023  64.206  1.00  0.00    -0.351 C  
HETATM   16  O   UNL     1     -10.432  13.133  64.885  1.00  0.00    -0.318 OA 
HETATM   17  C   UNL     1     -10.098  12.780  66.235  1.00  0.00    -0.259 C  
HETATM   18  C   UNL     1      -9.119  11.600  66.268  1.00  0.00    -0.214 C  
ENDBRANCH  11  13
ENDBRANCH   9  11
ENDBRANCH   8   9
ENDBRANCH   7   8
ENDBRANCH   5   7
ENDBRANCH   4   5
ENDBRANCH   2   4
BRANCH   2  19
HETATM   19  C   UNL     1     -11.117   7.083  70.050  1.00  0.00    -0.278 C  
BRANCH  19  20
HETATM   20  O   UNL     1     -10.639   8.429  69.915  1.00  0.00    -0.224 OA 
BRANCH  20  21
HETATM   21  C   UNL     1     -11.421   9.377  70.519  1.00  0.00    -0.262 A  
HETATM   22  C   UNL     1     -11.356  10.659  69.969  1.00  0.00    -0.400 A  
HETATM   23  H   UNL     1     -14.289  12.247  72.887  1.00  0.00     0.000 HD 
HETATM   24  O   UNL     1     -13.716  12.422  72.150  1.00  0.00    -0.405 OA 
HETATM   25  C   UNL     1     -12.119  11.699  70.506  1.00  0.00    -0.458 A  
HETATM   26  C   UNL     1     -12.958  11.442  71.585  1.00  0.00    -0.418 A  
HETATM   27  C   UNL     1     -12.285   9.128  71.588  1.00  0.00    -0.433 A  
HETATM   28  C   UNL     1     -13.054  10.164  72.122  1.00  0.00    -0.463 A  
ENDBRANCH  20  21
ENDBRANCH  19  20
ENDBRANCH   2  19
TORSDOF 10
ENDMDL
MODEL      171
REMARK 921   NORMALIZED FREE ENERGY PREDICTED BY IDOCK:   -4.38 KCAL/MOL
REMARK 922        TOTAL FREE ENERGY PREDICTED BY IDOCK:   -8.08 KCAL/MOL
REMARK 923 INTER-LIGAND FREE ENERGY PREDICTED BY IDOCK:   -7.26 KCAL/MOL
REMARK 924 INTRA-LIGAND FREE ENERGY PREDICTED BY IDOCK:   -0.83 KCAL/MOL
REMARK 927      BINDING AFFINITY PREDICTED BY RF-SCORE:    0.00 PKD
ROOT
HETATM    1  O   UNL     1      -8.585   6.826  66.137  1.00  0.00    -0.132 OA 
HETATM    2  C   UNL     1      -8.545   8.211  66.507  1.00  0.00    -0.138 C  
HETATM    3  H   UNL     1      -8.610   6.298  66.927  1.00  0.00     0.000 HD 
ENDROOT
BRANCH   2   4
HETATM    4  C   UNL     1      -8.503   9.064  65.228  1.00  0.00    -0.166 C  
BRANCH   4   5
HETATM    5  N   UNL     1      -9.805   9.707  64.981  1.00  0.00    -0.434 NA 
HETATM    6  H   UNL     1     -10.057  10.357  65.725  1.00  0.00     0.000 HD 
BRANCH   5   7
HETATM    7  C   UNL     1      -9.804  10.352  63.663  1.00  0.00    -0.223 C  
BRANCH   7   8
HETATM    8  C   UNL     1      -9.880  11.877  63.794  1.00  0.00    -0.285 C  
BRANCH   8   9
HETATM    9  N   UNL     1     -11.058  12.384  63.120  1.00  0.00    -0.699 N  
HETATM   10  H   UNL     1     -11.008  12.558  62.116  1.00  0.00     0.000 HD 
BRANCH   9  11
HETATM   11  C   UNL     1     -12.230  12.640  63.771  1.00  0.00    -0.514 C  
HETATM   12  O   UNL     1     -13.265  12.038  63.490  1.00  0.00    -0.724 OA 
BRANCH  11  13
HETATM   13  N   UNL     1     -12.168  13.602  64.757  1.00  0.00    -0.395 N  
HETATM   14  C   UNL     1     -12.243  13.191  66.161  1.00  0.00    -0.385 C  
HETATM   15  C   UNL     1     -10.957  13.574  66.902  1.00  0.00    -0.288 C  
HETATM   16  O   UNL     1     -10.676  14.978  66.759  1.00  0.00    -0.296 OA 
HETATM   17  C   UNL     1     -10.533  15.328  65.375  1.00  0.00    -0.398 C  
HETATM   18  C   UNL     1     -11.816  15.017  64.595  1.00  0.00    -0.375 C  
ENDBRANCH  11  13
ENDBRANCH   9  11
ENDBRANCH   8   9
ENDBRANCH   7   8
ENDBRANCH   5   7
ENDBRANCH   4   5
ENDBRANCH   2   4
BRANCH   2  19
HETATM   19  C   UNL     1      -9.785   8.575  67.334  1.00  0.00    -0.170 C  
BRANCH  19  20
HETATM   20  O   UNL     1      -9.407   8.767  68.705  1.00  0.00    -0.141 OA 
BRANCH  20  21
HETATM   21  C   UNL     1      -9.655   7.696  69.522  1.00  0.00    -0.163 A  
HETATM   22  C   UNL     1      -8.663   7.406  70.461  1.00  0.00    -0.147 A  
HETATM   23  H   UNL     1     -10.972   3.998  72.103  1.00  0.00     0.000 HD 
HETATM   24  O   UNL     1     -10.179   4.519  72.136  1.00  0.00    -0.188 OA 
HETATM   25  C   UNL     1      -8.819   6.338  71.348  1.00  0.00    -0.139 A  
HETATM   26  C   UNL     1      -9.981   5.575  71.300  1.00  0.00    -0.192 A  
HETATM   27  C   UNL     1     -10.827   6.936  69.499  1.00  0.00    -0.287 A  
HETATM   28  C   UNL     1     -10.988   5.873  70.389  1.00  0.00    -0.376 A  
ENDBRANCH  20  21
ENDBRANCH  19  20
ENDBRANCH   2  19
TORSDOF 10
ENDMDL
MODEL      172
REMARK 921   NORMALIZED FREE ENERGY PREDICTED BY IDOCK:   -4.38 KCAL/MOL
REMARK 922        TOTAL FREE ENERGY PREDICTED BY IDOCK:   -8.08 KCAL/MOL
REMARK 923 INTER-LIGAND FREE ENERGY PREDICTED BY IDOCK:   -7.22 KCAL/MOL
REMARK 924 INTRA-LIGAND FREE ENERGY PREDICTED BY IDOCK:   -0.86 KCAL/MOL
REMARK 927      BINDING AFFINITY PREDICTED BY RF-SCORE:    0.00 PKD
ROOT
HETATM    1  O   UNL     1     -13.109  10.425  69.787  1.00  0.00    -0.577 OA 
HETATM    2  C   UNL     1     -11.829  10.928  70.193  1.00  0.00    -0.353 C  
HETATM    3  H   UNL     1     -13.751  11.121  69.867  1.00  0.00     0.000 HD 
ENDROOT
BRANCH   2   4
HETATM    4  C   UNL     1     -10.790   9.801  70.064  1.00  0.00    -0.278 C  
BRANCH   4   5
HETATM    5  N   UNL     1     -11.447   8.485  69.994  1.00  0.00    -0.459 NA 
HETATM    6  H   UNL     1     -12.279   8.504  69.404  1.00  0.00     0.000 HD 
BRANCH   5   7
HETATM    7  C   UNL     1     -10.485   7.466  69.558  1.00  0.00    -0.232 C  
BRANCH   7   8
HETATM    8  C   UNL     1     -11.190   6.143  69.236  1.00  0.00    -0.367 C  
BRANCH   8   9
HETATM    9  N   UNL     1     -10.216   5.091  69.026  1.00  0.00    -0.175 N  
HETATM   10  H   UNL     1     -10.305   4.229  69.564  1.00  0.00     0.000 HD 
BRANCH   9  11
HETATM   11  C   UNL     1      -9.185   5.203  68.137  1.00  0.00    -0.116 C  
HETATM   12  O   UNL     1      -8.013   5.110  68.497  1.00  0.00    -0.086 OA 
BRANCH  11  13
HETATM   13  N   UNL     1      -9.550   5.419  66.825  1.00  0.00    -0.137 N  
HETATM   14  C   UNL     1      -8.946   6.533  66.089  1.00  0.00    -0.146 C  
HETATM   15  C   UNL     1      -8.153   6.013  64.885  1.00  0.00    -0.133 C  
HETATM   16  O   UNL     1      -8.975   5.186  64.042  1.00  0.00    -0.060 OA 
HETATM   17  C   UNL     1      -9.486   4.065  64.776  1.00  0.00    -0.170 C  
HETATM   18  C   UNL     1     -10.337   4.528  65.965  1.00  0.00    -0.243 C  
ENDBRANCH  11  13
ENDBRANCH   9  11
ENDBRANCH   8   9
ENDBRANCH   7   8
ENDBRANCH   5   7
ENDBRANCH   4   5
ENDBRANCH   2   4
BRANCH   2  19
HETATM   19  C   UNL     1     -11.421  12.114  69.309  1.00  0.00    -0.302 C  
BRANCH  19  20
HETATM   20  O   UNL     1     -10.832  11.626  68.095  1.00  0.00    -0.196 OA 
BRANCH  20  21
HETATM   21  C   UNL     1     -11.312  12.208  66.952  1.00  0.00    -0.343 A  
HETATM   22  C   UNL     1     -11.005  11.549  65.760  1.00  0.00    -0.305 A  
HETATM   23  H   UNL     1     -13.200  14.541  63.338  1.00  0.00     0.000 HD 
HETATM   24  O   UNL     1     -12.675  13.750  63.351  1.00  0.00    -0.795 OA 
HETATM   25  C   UNL     1     -11.452  12.053  64.537  1.00  0.00    -0.385 A  
HETATM   26  C   UNL     1     -12.222  13.212  64.517  1.00  0.00    -0.406 A  
HETATM   27  C   UNL     1     -12.105  13.358  66.920  1.00  0.00    -0.406 A  
HETATM   28  C   UNL     1     -12.558  13.860  65.700  1.00  0.00    -0.553 A  
ENDBRANCH  20  21
ENDBRANCH  19  20
ENDBRANCH   2  19
TORSDOF 10
ENDMDL
MODEL      173
REMARK 921   NORMALIZED FREE ENERGY PREDICTED BY IDOCK:   -4.38 KCAL/MOL
REMARK 922        TOTAL FREE ENERGY PREDICTED BY IDOCK:   -8.08 KCAL/MOL
REMARK 923 INTER-LIGAND FREE ENERGY PREDICTED BY IDOCK:   -7.28 KCAL/MOL
REMARK 924 INTRA-LIGAND FREE ENERGY PREDICTED BY IDOCK:   -0.80 KCAL/MOL
REMARK 927      BINDING AFFINITY PREDICTED BY RF-SCORE:    0.00 PKD
ROOT
HETATM    1  O   UNL     1      -9.285   9.257  64.793  1.00  0.00    -0.388 OA 
HETATM    2  C   UNL     1      -9.700   9.880  66.017  1.00  0.00    -0.247 C  
HETATM    3  H   UNL     1      -8.667   8.565  64.996  1.00  0.00     0.000 HD 
ENDROOT
BRANCH   2   4
HETATM    4  C   UNL     1     -10.701  11.001  65.687  1.00  0.00    -0.148 C  
BRANCH   4   5
HETATM    5  N   UNL     1     -10.595  12.103  66.659  1.00  0.00    -0.230 NA 
HETATM    6  H   UNL     1     -10.064  11.833  67.486  1.00  0.00     0.000 HD 
BRANCH   5   7
HETATM    7  C   UNL     1     -10.036  13.294  66.008  1.00  0.00    -0.292 C  
BRANCH   7   8
HETATM    8  C   UNL     1     -11.146  14.230  65.519  1.00  0.00    -0.323 C  
BRANCH   8   9
HETATM    9  N   UNL     1     -11.018  15.533  66.140  1.00  0.00    -0.290 N  
HETATM   10  H   UNL     1     -11.154  15.608  67.148  1.00  0.00     0.000 HD 
BRANCH   9  11
HETATM   11  C   UNL     1     -10.724  16.664  65.434  1.00  0.00    -0.215 C  
HETATM   12  O   UNL     1     -11.193  16.862  64.314  1.00  0.00    -1.204 OA 
BRANCH  11  13
HETATM   13  N   UNL     1      -9.880  17.556  66.061  1.00  0.00    -0.227 N  
HETATM   14  C   UNL     1     -10.437  18.785  66.631  1.00  0.00    -0.426 C  
HETATM   15  C   UNL     1     -10.208  18.825  68.146  1.00  0.00    -0.381 C  
HETATM   16  O   UNL     1      -8.815  18.660  68.464  1.00  0.00    -0.322 OA 
HETATM   17  C   UNL     1      -8.324  17.411  67.956  1.00  0.00    -0.231 C  
HETATM   18  C   UNL     1      -8.478  17.340  66.432  1.00  0.00    -0.269 C  
ENDBRANCH  11  13
ENDBRANCH   9  11
ENDBRANCH   8   9
ENDBRANCH   7   8
ENDBRANCH   5   7
ENDBRANCH   4   5
ENDBRANCH   2   4
BRANCH   2  19
HETATM   19  C   UNL     1     -10.362   8.848  66.939  1.00  0.00    -0.262 C  
BRANCH  19  20
HETATM   20  O   UNL     1     -11.076   9.526  67.982  1.00  0.00    -0.157 OA 
BRANCH  20  21
HETATM   21  C   UNL     1     -10.622   9.267  69.248  1.00  0.00    -0.222 A  
HETATM   22  C   UNL     1     -11.607   9.014  70.206  1.00  0.00    -0.082 A  
HETATM   23  H   UNL     1      -8.591   8.396  73.393  1.00  0.00     0.000 HD 
HETATM   24  O   UNL     1      -9.509   8.426  73.154  1.00  0.00    -0.230 OA 
HETATM   25  C   UNL     1     -11.253   8.732  71.528  1.00  0.00    -0.377 A  
HETATM   26  C   UNL     1      -9.907   8.688  71.878  1.00  0.00    -0.314 A  
HETATM   27  C   UNL     1      -9.275   9.197  69.609  1.00  0.00    -0.172 A  
HETATM   28  C   UNL     1      -8.918   8.909  70.927  1.00  0.00    -0.273 A  
ENDBRANCH  20  21
ENDBRANCH  19  20
ENDBRANCH   2  19
TORSDOF 10
ENDMDL
MODEL      174
REMARK 921   NORMALIZED FREE ENERGY PREDICTED BY IDOCK:   -4.38 KCAL/MOL
REMARK 922        TOTAL FREE ENERGY PREDICTED BY IDOCK:   -8.07 KCAL/MOL
REMARK 923 INTER-LIGAND FREE ENERGY PREDICTED BY IDOCK:   -7.10 KCAL/MOL
REMARK 924 INTRA-LIGAND FREE ENERGY PREDICTED BY IDOCK:   -0.98 KCAL/MOL
REMARK 927      BINDING AFFINITY PREDICTED BY RF-SCORE:    0.00 PKD
ROOT
HETATM    1  O   UNL     1     -12.602  13.363  70.869  1.00  0.00    -0.352 OA 
HETATM    2  C   UNL     1     -11.708  12.904  69.846  1.00  0.00    -0.254 C  
HETATM    3  H   UNL     1     -12.540  14.309  70.928  1.00  0.00     0.000 HD 
ENDROOT
BRANCH   2   4
HETATM    4  C   UNL     1     -11.808  11.372  69.752  1.00  0.00    -0.364 C  
BRANCH   4   5
HETATM    5  N   UNL     1     -12.155  10.949  68.385  1.00  0.00    -0.818 NA 
HETATM    6  H   UNL     1     -12.469  11.732  67.811  1.00  0.00     0.000 HD 
BRANCH   5   7
HETATM    7  C   UNL     1     -11.023  10.241  67.776  1.00  0.00    -0.300 C  
BRANCH   7   8
HETATM    8  C   UNL     1      -9.752  10.402  68.618  1.00  0.00    -0.175 C  
BRANCH   8   9
HETATM    9  N   UNL     1      -9.102   9.120  68.801  1.00  0.00    -0.136 N  
HETATM   10  H   UNL     1      -8.721   8.645  67.983  1.00  0.00     0.000 HD 
BRANCH   9  11
HETATM   11  C   UNL     1      -8.978   8.521  70.022  1.00  0.00    -0.142 C  
HETATM   12  O   UNL     1      -7.876   8.324  70.531  1.00  0.00    -0.081 OA 
BRANCH  11  13
HETATM   13  N   UNL     1     -10.160   8.165  70.635  1.00  0.00    -0.193 N  
HETATM   14  C   UNL     1     -10.962   7.079  70.065  1.00  0.00    -0.270 C  
HETATM   15  C   UNL     1     -11.092   5.926  71.067  1.00  0.00    -0.245 C  
HETATM   16  O   UNL     1     -11.617   6.388  72.324  1.00  0.00    -0.285 OA 
HETATM   17  C   UNL     1     -10.766   7.395  72.889  1.00  0.00    -0.339 C  
HETATM   18  C   UNL     1     -10.644   8.602  71.949  1.00  0.00    -0.340 C  
ENDBRANCH  11  13
ENDBRANCH   9  11
ENDBRANCH   8   9
ENDBRANCH   7   8
ENDBRANCH   5   7
ENDBRANCH   4   5
ENDBRANCH   2   4
BRANCH   2  19
HETATM   19  C   UNL     1     -12.078  13.532  68.496  1.00  0.00    -0.268 C  
BRANCH  19  20
HETATM   20  O   UNL     1     -10.888  13.745  67.724  1.00  0.00    -0.245 OA 
BRANCH  20  21
HETATM   21  C   UNL     1     -10.848  14.937  67.053  1.00  0.00    -0.315 A  
HETATM   22  C   UNL     1     -10.700  16.076  67.847  1.00  0.00    -0.316 A  
HETATM   23  H   UNL     1     -10.718  18.753  64.315  1.00  0.00     0.000 HD 
HETATM   24  O   UNL     1     -10.669  18.673  65.259  1.00  0.00    -0.559 OA 
HETATM   25  C   UNL     1     -10.640  17.344  67.262  1.00  0.00    -0.284 A  
HETATM   26  C   UNL     1     -10.713  17.461  65.878  1.00  0.00    -0.123 A  
HETATM   27  C   UNL     1     -10.897  15.067  65.663  1.00  0.00    -0.356 A  
HETATM   28  C   UNL     1     -10.831  16.332  65.076  1.00  0.00    -0.337 A  
ENDBRANCH  20  21
ENDBRANCH  19  20
ENDBRANCH   2  19
TORSDOF 10
ENDMDL
MODEL      175
REMARK 921   NORMALIZED FREE ENERGY PREDICTED BY IDOCK:   -4.38 KCAL/MOL
REMARK 922        TOTAL FREE ENERGY PREDICTED BY IDOCK:   -8.07 KCAL/MOL
REMARK 923 INTER-LIGAND FREE ENERGY PREDICTED BY IDOCK:   -7.24 KCAL/MOL
REMARK 924 INTRA-LIGAND FREE ENERGY PREDICTED BY IDOCK:   -0.83 KCAL/MOL
REMARK 927      BINDING AFFINITY PREDICTED BY RF-SCORE:    0.00 PKD
ROOT
HETATM    1  O   UNL     1     -11.967  10.625  68.303  1.00  0.00    -0.793 OA 
HETATM    2  C   UNL     1     -11.081  11.700  68.643  1.00  0.00    -0.234 C  
HETATM    3  H   UNL     1     -12.719  10.653  68.883  1.00  0.00     0.000 HD 
ENDROOT
BRANCH   2   4
HETATM    4  C   UNL     1      -9.863  11.654  67.704  1.00  0.00    -0.186 C  
BRANCH   4   5
HETATM    5  N   UNL     1      -9.194  10.344  67.773  1.00  0.00    -0.141 NA 
HETATM    6  H   UNL     1      -8.897  10.018  66.853  1.00  0.00     0.000 HD 
BRANCH   5   7
HETATM    7  C   UNL     1      -8.078  10.399  68.723  1.00  0.00    -0.125 C  
BRANCH   7   8
HETATM    8  C   UNL     1      -8.346   9.511  69.944  1.00  0.00    -0.170 C  
BRANCH   8   9
HETATM    9  N   UNL     1      -9.526   8.699  69.727  1.00  0.00    -0.164 N  
HETATM   10  H   UNL     1     -10.417   9.167  69.560  1.00  0.00     0.000 HD 
BRANCH   9  11
HETATM   11  C   UNL     1      -9.496   7.333  69.736  1.00  0.00    -0.149 C  
HETATM   12  O   UNL     1      -9.157   6.692  68.743  1.00  0.00    -0.132 OA 
BRANCH  11  13
HETATM   13  N   UNL     1      -9.861   6.736  70.924  1.00  0.00    -0.186 N  
HETATM   14  C   UNL     1      -8.961   6.830  72.076  1.00  0.00    -0.138 C  
HETATM   15  C   UNL     1      -9.645   7.571  73.231  1.00  0.00    -0.254 C  
HETATM   16  O   UNL     1     -10.901   6.957  73.570  1.00  0.00    -0.315 OA 
HETATM   17  C   UNL     1     -11.783   6.952  72.439  1.00  0.00    -0.214 C  
HETATM   18  C   UNL     1     -11.171   6.173  71.268  1.00  0.00    -0.287 C  
ENDBRANCH  11  13
ENDBRANCH   9  11
ENDBRANCH   8   9
ENDBRANCH   7   8
ENDBRANCH   5   7
ENDBRANCH   4   5
ENDBRANCH   2   4
BRANCH   2  19
HETATM   19  C   UNL     1     -11.800  13.047  68.497  1.00  0.00    -0.325 C  
BRANCH  19  20
HETATM   20  O   UNL     1     -11.112  14.043  69.266  1.00  0.00    -0.248 OA 
BRANCH  20  21
HETATM   21  C   UNL     1     -11.826  14.543  70.323  1.00  0.00    -0.308 A  
HETATM   22  C   UNL     1     -11.166  15.492  71.106  1.00  0.00    -0.423 A  
HETATM   23  H   UNL     1     -14.672  15.982  73.772  1.00  0.00     0.000 HD 
HETATM   24  O   UNL     1     -13.779  16.232  73.568  1.00  0.00    -0.595 OA 
HETATM   25  C   UNL     1     -11.805  16.071  72.205  1.00  0.00    -0.628 A  
HETATM   26  C   UNL     1     -13.114  15.705  72.504  1.00  0.00    -0.472 A  
HETATM   27  C   UNL     1     -13.146  14.201  70.620  1.00  0.00    -0.211 A  
HETATM   28  C   UNL     1     -13.790  14.782  71.714  1.00  0.00    -0.540 A  
ENDBRANCH  20  21
ENDBRANCH  19  20
ENDBRANCH   2  19
TORSDOF 10
ENDMDL
MODEL      176
REMARK 921   NORMALIZED FREE ENERGY PREDICTED BY IDOCK:   -4.37 KCAL/MOL
REMARK 922        TOTAL FREE ENERGY PREDICTED BY IDOCK:   -8.07 KCAL/MOL
REMARK 923 INTER-LIGAND FREE ENERGY PREDICTED BY IDOCK:   -7.20 KCAL/MOL
REMARK 924 INTRA-LIGAND FREE ENERGY PREDICTED BY IDOCK:   -0.87 KCAL/MOL
REMARK 927      BINDING AFFINITY PREDICTED BY RF-SCORE:    0.00 PKD
ROOT
HETATM    1  O   UNL     1     -12.748   7.206  70.525  1.00  0.00    -0.611 OA 
HETATM    2  C   UNL     1     -11.411   7.509  70.946  1.00  0.00    -0.281 C  
HETATM    3  H   UNL     1     -13.353   7.474  71.207  1.00  0.00     0.000 HD 
ENDROOT
BRANCH   2   4
HETATM    4  C   UNL     1     -10.433   7.074  69.842  1.00  0.00    -0.217 C  
BRANCH   4   5
HETATM    5  N   UNL     1     -11.057   6.088  68.943  1.00  0.00    -0.335 NA 
HETATM    6  H   UNL     1     -12.002   5.844  69.241  1.00  0.00     0.000 HD 
BRANCH   5   7
HETATM    7  C   UNL     1     -11.025   6.579  67.561  1.00  0.00    -0.359 C  
BRANCH   7   8
HETATM    8  C   UNL     1     -10.012   7.717  67.401  1.00  0.00    -0.195 C  
BRANCH   8   9
HETATM    9  N   UNL     1     -10.388   8.578  66.298  1.00  0.00    -0.351 N  
HETATM   10  H   UNL     1     -11.025   8.213  65.590  1.00  0.00     0.000 HD 
BRANCH   9  11
HETATM   11  C   UNL     1      -9.928   9.857  66.167  1.00  0.00    -0.263 C  
HETATM   12  O   UNL     1     -10.418  10.785  66.807  1.00  0.00    -0.234 OA 
BRANCH  11  13
HETATM   13  N   UNL     1      -8.884  10.027  65.282  1.00  0.00    -0.166 N  
HETATM   14  C   UNL     1      -7.584  10.475  65.788  1.00  0.00    -0.142 C  
HETATM   15  C   UNL     1      -6.510   9.415  65.519  1.00  0.00    -0.070 C  
HETATM   16  O   UNL     1      -6.461   9.070  64.123  1.00  0.00    -0.081 OA 
HETATM   17  C   UNL     1      -7.729   8.564  63.682  1.00  0.00    -0.142 C  
HETATM   18  C   UNL     1      -8.835   9.608  63.877  1.00  0.00    -0.228 C  
ENDBRANCH  11  13
ENDBRANCH   9  11
ENDBRANCH   8   9
ENDBRANCH   7   8
ENDBRANCH   5   7
ENDBRANCH   4   5
ENDBRANCH   2   4
BRANCH   2  19
HETATM   19  C   UNL     1     -11.265   9.014  71.206  1.00  0.00    -0.315 C  
BRANCH  19  20
HETATM   20  O   UNL     1     -12.560   9.631  71.186  1.00  0.00    -0.312 OA 
BRANCH  20  21
HETATM   21  C   UNL     1     -12.545  10.986  70.990  1.00  0.00    -0.411 A  
HETATM   22  C   UNL     1     -13.225  11.745  71.944  1.00  0.00    -0.468 A  
HETATM   23  H   UNL     1     -12.175  15.546  69.922  1.00  0.00     0.000 HD 
HETATM   24  O   UNL     1     -12.625  15.118  70.641  1.00  0.00    -0.345 OA 
HETATM   25  C   UNL     1     -13.267  13.138  71.843  1.00  0.00    -0.526 A  
HETATM   26  C   UNL     1     -12.608  13.765  70.790  1.00  0.00    -0.340 A  
HETATM   27  C   UNL     1     -11.870  11.629  69.951  1.00  0.00    -0.434 A  
HETATM   28  C   UNL     1     -11.903  13.021  69.850  1.00  0.00    -0.377 A  
ENDBRANCH  20  21
ENDBRANCH  19  20
ENDBRANCH   2  19
TORSDOF 10
ENDMDL
MODEL      177
REMARK 921   NORMALIZED FREE ENERGY PREDICTED BY IDOCK:   -4.36 KCAL/MOL
REMARK 922        TOTAL FREE ENERGY PREDICTED BY IDOCK:   -8.05 KCAL/MOL
REMARK 923 INTER-LIGAND FREE ENERGY PREDICTED BY IDOCK:   -6.92 KCAL/MOL
REMARK 924 INTRA-LIGAND FREE ENERGY PREDICTED BY IDOCK:   -1.13 KCAL/MOL
REMARK 927      BINDING AFFINITY PREDICTED BY RF-SCORE:    0.00 PKD
ROOT
HETATM    1  O   UNL     1     -13.318  10.402  69.652  1.00  0.00    -0.372 OA 
HETATM    2  C   UNL     1     -12.140  11.004  70.207  1.00  0.00    -0.362 C  
HETATM    3  H   UNL     1     -13.721  11.016  69.049  1.00  0.00     0.000 HD 
ENDROOT
BRANCH   2   4
HETATM    4  C   UNL     1     -11.489  10.010  71.184  1.00  0.00    -0.354 C  
BRANCH   4   5
HETATM    5  N   UNL     1     -10.220   9.496  70.643  1.00  0.00    -0.285 NA 
HETATM    6  H   UNL     1      -9.436  10.116  70.851  1.00  0.00     0.000 HD 
BRANCH   5   7
HETATM    7  C   UNL     1      -9.984   8.131  71.127  1.00  0.00    -0.180 C  
BRANCH   7   8
HETATM    8  C   UNL     1     -11.192   7.229  70.848  1.00  0.00    -0.272 C  
BRANCH   8   9
HETATM    9  N   UNL     1     -11.382   7.066  69.421  1.00  0.00    -0.512 N  
HETATM   10  H   UNL     1     -12.022   7.696  68.938  1.00  0.00     0.000 HD 
BRANCH   9  11
HETATM   11  C   UNL     1     -10.739   6.104  68.695  1.00  0.00    -0.307 C  
HETATM   12  O   UNL     1     -10.752   4.924  69.040  1.00  0.00     0.081 OA 
BRANCH  11  13
HETATM   13  N   UNL     1     -10.092   6.545  67.560  1.00  0.00    -0.141 N  
HETATM   14  C   UNL     1     -10.459   7.842  66.988  1.00  0.00    -0.349 C  
HETATM   15  C   UNL     1      -9.258   8.796  67.004  1.00  0.00    -0.142 C  
HETATM   16  O   UNL     1      -8.123   8.210  66.343  1.00  0.00    -0.101 OA 
HETATM   17  C   UNL     1      -7.745   6.981  66.979  1.00  0.00    -0.107 C  
HETATM   18  C   UNL     1      -8.894   5.966  66.941  1.00  0.00    -0.115 C  
ENDBRANCH  11  13
ENDBRANCH   9  11
ENDBRANCH   8   9
ENDBRANCH   7   8
ENDBRANCH   5   7
ENDBRANCH   4   5
ENDBRANCH   2   4
BRANCH   2  19
HETATM   19  C   UNL     1     -11.150  11.360  69.090  1.00  0.00    -0.258 C  
BRANCH  19  20
HETATM   20  O   UNL     1     -11.353  12.721  68.685  1.00  0.00    -0.252 OA 
BRANCH  20  21
HETATM   21  C   UNL     1     -11.527  12.898  67.339  1.00  0.00    -0.336 A  
HETATM   22  C   UNL     1     -11.058  11.864  66.526  1.00  0.00    -0.357 A  
HETATM   23  H   UNL     1     -12.386  13.932  62.837  1.00  0.00     0.000 HD 
HETATM   24  O   UNL     1     -11.961  13.175  63.224  1.00  0.00    -0.545 OA 
HETATM   25  C   UNL     1     -11.192  11.940  65.137  1.00  0.00    -0.346 A  
HETATM   26  C   UNL     1     -11.813  13.048  64.571  1.00  0.00    -0.377 A  
HETATM   27  C   UNL     1     -12.169  13.994  66.760  1.00  0.00    -0.439 A  
HETATM   28  C   UNL     1     -12.311  14.069  65.373  1.00  0.00    -0.495 A  
ENDBRANCH  20  21
ENDBRANCH  19  20
ENDBRANCH   2  19
TORSDOF 10
ENDMDL
MODEL      178
REMARK 921   NORMALIZED FREE ENERGY PREDICTED BY IDOCK:   -4.35 KCAL/MOL
REMARK 922        TOTAL FREE ENERGY PREDICTED BY IDOCK:   -8.03 KCAL/MOL
REMARK 923 INTER-LIGAND FREE ENERGY PREDICTED BY IDOCK:   -7.31 KCAL/MOL
REMARK 924 INTRA-LIGAND FREE ENERGY PREDICTED BY IDOCK:   -0.72 KCAL/MOL
REMARK 927      BINDING AFFINITY PREDICTED BY RF-SCORE:    0.00 PKD
ROOT
HETATM    1  O   UNL     1     -11.051   5.703  66.219  1.00  0.00    -0.734 OA 
HETATM    2  C   UNL     1     -10.484   6.532  67.243  1.00  0.00    -0.272 C  
HETATM    3  H   UNL     1     -10.921   4.792  66.455  1.00  0.00     0.000 HD 
ENDROOT
BRANCH   2   4
HETATM    4  C   UNL     1     -10.695   8.007  66.861  1.00  0.00    -0.131 C  
BRANCH   4   5
HETATM    5  N   UNL     1      -9.406   8.700  66.705  1.00  0.00    -0.166 NA 
HETATM    6  H   UNL     1      -8.617   8.055  66.748  1.00  0.00     0.000 HD 
BRANCH   5   7
HETATM    7  C   UNL     1      -9.406   9.489  65.467  1.00  0.00    -0.255 C  
BRANCH   7   8
HETATM    8  C   UNL     1      -8.473  10.699  65.583  1.00  0.00    -0.178 C  
BRANCH   8   9
HETATM    9  N   UNL     1      -9.237  11.930  65.561  1.00  0.00    -0.425 N  
HETATM   10  H   UNL     1      -9.001  12.638  64.866  1.00  0.00     0.000 HD 
BRANCH   9  11
HETATM   11  C   UNL     1     -10.259  12.182  66.431  1.00  0.00    -0.220 C  
HETATM   12  O   UNL     1     -10.208  11.818  67.605  1.00  0.00    -0.195 OA 
BRANCH  11  13
HETATM   13  N   UNL     1     -11.333  12.868  65.906  1.00  0.00    -0.301 N  
HETATM   14  C   UNL     1     -11.417  14.318  66.098  1.00  0.00    -0.355 C  
HETATM   15  C   UNL     1     -11.392  15.040  64.746  1.00  0.00    -0.406 C  
HETATM   16  O   UNL     1     -12.425  14.546  63.876  1.00  0.00    -0.814 OA 
HETATM   17  C   UNL     1     -12.266  13.138  63.649  1.00  0.00    -0.479 C  
HETATM   18  C   UNL     1     -12.339  12.358  64.968  1.00  0.00    -0.369 C  
ENDBRANCH  11  13
ENDBRANCH   9  11
ENDBRANCH   8   9
ENDBRANCH   7   8
ENDBRANCH   5   7
ENDBRANCH   4   5
ENDBRANCH   2   4
BRANCH   2  19
HETATM   19  C   UNL     1     -11.156   6.243  68.592  1.00  0.00    -0.325 C  
BRANCH  19  20
HETATM   20  O   UNL     1     -10.340   5.340  69.351  1.00  0.00    -0.247 OA 
BRANCH  20  21
HETATM   21  C   UNL     1     -10.070   5.749  70.629  1.00  0.00    -0.203 A  
HETATM   22  C   UNL     1     -11.180   5.916  71.460  1.00  0.00    -0.290 A  
HETATM   23  H   UNL     1      -8.647   7.110  74.894  1.00  0.00     0.000 HD 
HETATM   24  O   UNL     1      -9.521   6.957  74.559  1.00  0.00    -0.230 OA 
HETATM   25  C   UNL     1     -11.017   6.324  72.786  1.00  0.00    -0.291 A  
HETATM   26  C   UNL     1      -9.735   6.549  73.277  1.00  0.00    -0.166 A  
HETATM   27  C   UNL     1      -8.787   5.956  71.141  1.00  0.00    -0.138 A  
HETATM   28  C   UNL     1      -8.621   6.358  72.468  1.00  0.00    -0.123 A  
ENDBRANCH  20  21
ENDBRANCH  19  20
ENDBRANCH   2  19
TORSDOF 10
ENDMDL
MODEL      179
REMARK 921   NORMALIZED FREE ENERGY PREDICTED BY IDOCK:   -4.34 KCAL/MOL
REMARK 922        TOTAL FREE ENERGY PREDICTED BY IDOCK:   -8.02 KCAL/MOL
REMARK 923 INTER-LIGAND FREE ENERGY PREDICTED BY IDOCK:   -7.44 KCAL/MOL
REMARK 924 INTRA-LIGAND FREE ENERGY PREDICTED BY IDOCK:   -0.58 KCAL/MOL
REMARK 927      BINDING AFFINITY PREDICTED BY RF-SCORE:    0.00 PKD
ROOT
HETATM    1  O   UNL     1      -9.784  12.234  68.615  1.00  0.00    -0.347 OA 
HETATM    2  C   UNL     1     -11.170  12.556  68.796  1.00  0.00    -0.273 C  
HETATM    3  H   UNL     1      -9.452  11.850  69.419  1.00  0.00     0.000 HD 
ENDROOT
BRANCH   2   4
HETATM    4  C   UNL     1     -11.707  13.178  67.496  1.00  0.00    -0.366 C  
BRANCH   4   5
HETATM    5  N   UNL     1     -12.262  14.519  67.743  1.00  0.00    -0.623 NA 
HETATM    6  H   UNL     1     -13.235  14.480  68.049  1.00  0.00     0.000 HD 
BRANCH   5   7
HETATM    7  C   UNL     1     -11.415  15.246  68.696  1.00  0.00    -0.337 C  
BRANCH   7   8
HETATM    8  C   UNL     1     -11.165  16.684  68.228  1.00  0.00    -0.220 C  
BRANCH   8   9
HETATM    9  N   UNL     1     -10.350  16.691  67.030  1.00  0.00    -0.301 N  
HETATM   10  H   UNL     1     -10.737  16.292  66.175  1.00  0.00     0.000 HD 
BRANCH   9  11
HETATM   11  C   UNL     1      -9.087  17.210  66.997  1.00  0.00    -0.230 C  
HETATM   12  O   UNL     1      -8.436  17.250  65.955  1.00  0.00    -0.533 OA 
BRANCH  11  13
HETATM   13  N   UNL     1      -8.606  17.684  68.199  1.00  0.00    -0.253 N  
HETATM   14  C   UNL     1      -7.756  16.818  69.020  1.00  0.00    -0.213 C  
HETATM   15  C   UNL     1      -6.367  17.441  69.199  1.00  0.00    -0.234 C  
HETATM   16  O   UNL     1      -6.463  18.774  69.732  1.00  0.00    -0.228 OA 
HETATM   17  C   UNL     1      -7.237  19.613  68.863  1.00  0.00    -0.346 C  
HETATM   18  C   UNL     1      -8.659  19.065  68.693  1.00  0.00    -0.354 C  
ENDBRANCH  11  13
ENDBRANCH   9  11
ENDBRANCH   8   9
ENDBRANCH   7   8
ENDBRANCH   5   7
ENDBRANCH   4   5
ENDBRANCH   2   4
BRANCH   2  19
HETATM   19  C   UNL     1     -11.969  11.291  69.136  1.00  0.00    -0.336 C  
BRANCH  19  20
HETATM   20  O   UNL     1     -11.436  10.693  70.326  1.00  0.00    -0.295 OA 
BRANCH  20  21
HETATM   21  C   UNL     1     -11.319   9.330  70.278  1.00  0.00    -0.203 A  
HETATM   22  C   UNL     1     -10.506   8.826  69.261  1.00  0.00    -0.228 A  
HETATM   23  H   UNL     1     -11.195   4.641  70.546  1.00  0.00     0.000 HD 
HETATM   24  O   UNL     1     -10.776   5.233  69.932  1.00  0.00    -0.291 OA 
HETATM   25  C   UNL     1     -10.312   7.449  69.125  1.00  0.00    -0.208 A  
HETATM   26  C   UNL     1     -10.925   6.583  70.025  1.00  0.00    -0.332 A  
HETATM   27  C   UNL     1     -11.910   8.451  71.188  1.00  0.00    -0.314 A  
HETATM   28  C   UNL     1     -11.713   7.075  71.059  1.00  0.00    -0.375 A  
ENDBRANCH  20  21
ENDBRANCH  19  20
ENDBRANCH   2  19
TORSDOF 10
ENDMDL
MODEL      180
REMARK 921   NORMALIZED FREE ENERGY PREDICTED BY IDOCK:   -4.34 KCAL/MOL
REMARK 922        TOTAL FREE ENERGY PREDICTED BY IDOCK:   -8.02 KCAL/MOL
REMARK 923 INTER-LIGAND FREE ENERGY PREDICTED BY IDOCK:   -7.21 KCAL/MOL
REMARK 924 INTRA-LIGAND FREE ENERGY PREDICTED BY IDOCK:   -0.81 KCAL/MOL
REMARK 927      BINDING AFFINITY PREDICTED BY RF-SCORE:    0.00 PKD
ROOT
HETATM    1  O   UNL     1      -9.671  10.850  69.334  1.00  0.00    -0.402 OA 
HETATM    2  C   UNL     1     -10.989  11.276  69.707  1.00  0.00    -0.103 C  
HETATM    3  H   UNL     1      -9.234  10.497  70.100  1.00  0.00     0.000 HD 
ENDROOT
BRANCH   2   4
HETATM    4  C   UNL     1     -11.695  11.847  68.466  1.00  0.00    -0.330 C  
BRANCH   4   5
HETATM    5  N   UNL     1     -11.637  10.896  67.343  1.00  0.00    -0.486 NA 
HETATM    6  H   UNL     1     -12.488  10.337  67.271  1.00  0.00     0.000 HD 
BRANCH   5   7
HETATM    7  C   UNL     1     -11.342  11.610  66.095  1.00  0.00    -0.209 C  
BRANCH   7   8
HETATM    8  C   UNL     1     -12.017  12.986  66.073  1.00  0.00    -0.440 C  
BRANCH   8   9
HETATM    9  N   UNL     1     -11.085  13.999  65.620  1.00  0.00    -0.298 N  
HETATM   10  H   UNL     1     -11.110  14.281  64.640  1.00  0.00     0.000 HD 
BRANCH   9  11
HETATM   11  C   UNL     1     -10.175  14.590  66.448  1.00  0.00    -0.287 C  
HETATM   12  O   UNL     1      -9.073  14.086  66.657  1.00  0.00    -0.250 OA 
BRANCH  11  13
HETATM   13  N   UNL     1     -10.574  15.781  67.019  1.00  0.00    -0.314 N  
HETATM   14  C   UNL     1     -11.510  15.754  68.145  1.00  0.00    -0.302 C  
HETATM   15  C   UNL     1     -10.864  16.362  69.395  1.00  0.00    -0.327 C  
HETATM   16  O   UNL     1     -10.368  17.686  69.130  1.00  0.00    -0.353 OA 
HETATM   17  C   UNL     1      -9.397  17.662  68.074  1.00  0.00    -0.274 C  
HETATM   18  C   UNL     1     -10.008  17.113  66.779  1.00  0.00    -0.291 C  
ENDBRANCH  11  13
ENDBRANCH   9  11
ENDBRANCH   8   9
ENDBRANCH   7   8
ENDBRANCH   5   7
ENDBRANCH   4   5
ENDBRANCH   2   4
BRANCH   2  19
HETATM   19  C   UNL     1     -11.791  10.092  70.263  1.00  0.00    -0.216 C  
BRANCH  19  20
HETATM   20  O   UNL     1     -11.089   8.870  69.996  1.00  0.00    -0.237 OA 
BRANCH  20  21
HETATM   21  C   UNL     1     -11.066   7.984  71.040  1.00  0.00    -0.253 A  
HETATM   22  C   UNL     1     -11.419   6.669  70.728  1.00  0.00    -0.407 A  
HETATM   23  H   UNL     1     -10.797   5.328  74.906  1.00  0.00     0.000 HD 
HETATM   24  O   UNL     1     -11.048   5.099  74.020  1.00  0.00    -0.250 OA 
HETATM   25  C   UNL     1     -11.422   5.683  71.718  1.00  0.00    -0.118 A  
HETATM   26  C   UNL     1     -11.054   6.019  73.017  1.00  0.00    -0.237 A  
HETATM   27  C   UNL     1     -10.676   8.303  72.343  1.00  0.00    -0.411 A  
HETATM   28  C   UNL     1     -10.672   7.318  73.332  1.00  0.00    -0.415 A  
ENDBRANCH  20  21
ENDBRANCH  19  20
ENDBRANCH   2  19
TORSDOF 10
ENDMDL
MODEL      181
REMARK 921   NORMALIZED FREE ENERGY PREDICTED BY IDOCK:   -4.34 KCAL/MOL
REMARK 922        TOTAL FREE ENERGY PREDICTED BY IDOCK:   -8.01 KCAL/MOL
REMARK 923 INTER-LIGAND FREE ENERGY PREDICTED BY IDOCK:   -6.86 KCAL/MOL
REMARK 924 INTRA-LIGAND FREE ENERGY PREDICTED BY IDOCK:   -1.15 KCAL/MOL
REMARK 927      BINDING AFFINITY PREDICTED BY RF-SCORE:    0.00 PKD
ROOT
HETATM    1  O   UNL     1      -9.006   8.256  64.346  1.00  0.00    -0.366 OA 
HETATM    2  C   UNL     1      -8.954   9.000  65.571  1.00  0.00    -0.204 C  
HETATM    3  H   UNL     1      -9.861   7.849  64.271  1.00  0.00     0.000 HD 
ENDROOT
BRANCH   2   4
HETATM    4  C   UNL     1      -7.570   9.659  65.692  1.00  0.00    -0.107 C  
BRANCH   4   5
HETATM    5  N   UNL     1      -7.686  11.126  65.733  1.00  0.00    -0.369 NA 
HETATM    6  H   UNL     1      -8.659  11.433  65.715  1.00  0.00     0.000 HD 
BRANCH   5   7
HETATM    7  C   UNL     1      -6.964  11.654  66.897  1.00  0.00    -0.123 C  
BRANCH   7   8
HETATM    8  C   UNL     1      -7.902  12.442  67.818  1.00  0.00    -0.154 C  
BRANCH   8   9
HETATM    9  N   UNL     1      -7.851  13.855  67.503  1.00  0.00    -0.173 N  
HETATM   10  H   UNL     1      -7.078  14.200  66.933  1.00  0.00     0.000 HD 
BRANCH   9  11
HETATM   11  C   UNL     1      -8.792  14.745  67.936  1.00  0.00    -0.167 C  
HETATM   12  O   UNL     1      -9.459  14.533  68.947  1.00  0.00    -0.203 OA 
BRANCH  11  13
HETATM   13  N   UNL     1      -8.934  15.883  67.171  1.00  0.00    -0.200 N  
HETATM   14  C   UNL     1     -10.111  16.732  67.365  1.00  0.00    -0.276 C  
HETATM   15  C   UNL     1      -9.693  18.132  67.830  1.00  0.00    -0.293 C  
HETATM   16  O   UNL     1      -8.744  18.717  66.921  1.00  0.00    -0.276 OA 
HETATM   17  C   UNL     1      -7.572  17.897  66.816  1.00  0.00    -0.217 C  
HETATM   18  C   UNL     1      -7.926  16.497  66.299  1.00  0.00    -0.272 C  
ENDBRANCH  11  13
ENDBRANCH   9  11
ENDBRANCH   8   9
ENDBRANCH   7   8
ENDBRANCH   5   7
ENDBRANCH   4   5
ENDBRANCH   2   4
BRANCH   2  19
HETATM   19  C   UNL     1     -10.046  10.079  65.582  1.00  0.00    -0.251 C  
BRANCH  19  20
HETATM   20  O   UNL     1     -10.150  10.669  64.278  1.00  0.00    -0.328 OA 
BRANCH  20  21
HETATM   21  C   UNL     1     -10.742  11.903  64.255  1.00  0.00    -0.338 A  
HETATM   22  C   UNL     1     -11.947  11.984  63.553  1.00  0.00    -0.605 A  
HETATM   23  H   UNL     1     -12.403  16.291  64.493  1.00  0.00     0.000 HD 
HETATM   24  O   UNL     1     -12.754  15.525  64.057  1.00  0.00    -0.611 OA 
HETATM   25  C   UNL     1     -12.639  13.196  63.472  1.00  0.00    -0.214 A  
HETATM   26  C   UNL     1     -12.124  14.319  64.112  1.00  0.00    -0.393 A  
HETATM   27  C   UNL     1     -10.248  13.033  64.911  1.00  0.00    -0.304 A  
HETATM   28  C   UNL     1     -10.941  14.243  64.837  1.00  0.00    -0.413 A  
ENDBRANCH  20  21
ENDBRANCH  19  20
ENDBRANCH   2  19
TORSDOF 10
ENDMDL
MODEL      182
REMARK 921   NORMALIZED FREE ENERGY PREDICTED BY IDOCK:   -4.33 KCAL/MOL
REMARK 922        TOTAL FREE ENERGY PREDICTED BY IDOCK:   -8.00 KCAL/MOL
REMARK 923 INTER-LIGAND FREE ENERGY PREDICTED BY IDOCK:   -6.72 KCAL/MOL
REMARK 924 INTRA-LIGAND FREE ENERGY PREDICTED BY IDOCK:   -1.29 KCAL/MOL
REMARK 927      BINDING AFFINITY PREDICTED BY RF-SCORE:    0.00 PKD
ROOT
HETATM    1  O   UNL     1      -7.689  19.206  68.884  1.00  0.00    -0.339 OA 
HETATM    2  C   UNL     1      -7.813  18.137  67.936  1.00  0.00    -0.244 C  
HETATM    3  H   UNL     1      -7.281  18.870  69.673  1.00  0.00     0.000 HD 
ENDROOT
BRANCH   2   4
HETATM    4  C   UNL     1      -8.474  18.681  66.658  1.00  0.00    -0.292 C  
BRANCH   4   5
HETATM    5  N   UNL     1      -9.024  17.586  65.842  1.00  0.00    -0.520 NA 
HETATM    6  H   UNL     1      -8.313  16.897  65.597  1.00  0.00     0.000 HD 
BRANCH   5   7
HETATM    7  C   UNL     1     -10.169  16.976  66.528  1.00  0.00    -0.320 C  
BRANCH   7   8
HETATM    8  C   UNL     1     -10.199  15.459  66.310  1.00  0.00    -0.290 C  
BRANCH   8   9
HETATM    9  N   UNL     1     -11.547  14.952  66.468  1.00  0.00    -0.304 N  
HETATM   10  H   UNL     1     -12.329  15.564  66.233  1.00  0.00     0.000 HD 
BRANCH   9  11
HETATM   11  C   UNL     1     -11.816  13.691  66.917  1.00  0.00    -0.411 C  
HETATM   12  O   UNL     1     -12.027  13.464  68.107  1.00  0.00    -0.349 OA 
BRANCH  11  13
HETATM   13  N   UNL     1     -11.840  12.706  65.952  1.00  0.00    -0.429 N  
HETATM   14  C   UNL     1     -12.621  12.922  64.732  1.00  0.00    -0.425 C  
HETATM   15  C   UNL     1     -11.708  12.908  63.500  1.00  0.00    -0.512 C  
HETATM   16  O   UNL     1     -10.933  11.698  63.444  1.00  0.00    -0.397 OA 
HETATM   17  C   UNL     1     -10.123  11.560  64.620  1.00  0.00    -0.271 C  
HETATM   18  C   UNL     1     -10.992  11.511  65.883  1.00  0.00    -0.243 C  
ENDBRANCH  11  13
ENDBRANCH   9  11
ENDBRANCH   8   9
ENDBRANCH   7   8
ENDBRANCH   5   7
ENDBRANCH   4   5
ENDBRANCH   2   4
BRANCH   2  19
HETATM   19  C   UNL     1      -6.430  17.562  67.601  1.00  0.00    -0.150 C  
BRANCH  19  20
HETATM   20  O   UNL     1      -6.582  16.272  66.992  1.00  0.00    -0.188 OA 
BRANCH  20  21
HETATM   21  C   UNL     1      -6.506  15.217  67.860  1.00  0.00    -0.159 A  
HETATM   22  C   UNL     1      -5.717  15.420  68.995  1.00  0.00    -0.098 A  
HETATM   23  H   UNL     1      -6.587  11.359  70.540  1.00  0.00     0.000 HD 
HETATM   24  O   UNL     1      -6.132  12.183  70.664  1.00  0.00    -0.269 OA 
HETATM   25  C   UNL     1      -5.576  14.410  69.950  1.00  0.00    -0.103 A  
HETATM   26  C   UNL     1      -6.243  13.202  69.768  1.00  0.00    -0.108 A  
HETATM   27  C   UNL     1      -7.187  14.008  67.702  1.00  0.00    -0.190 A  
HETATM   28  C   UNL     1      -7.053  12.999  68.657  1.00  0.00    -0.103 A  
ENDBRANCH  20  21
ENDBRANCH  19  20
ENDBRANCH   2  19
TORSDOF 10
ENDMDL
MODEL      183
REMARK 921   NORMALIZED FREE ENERGY PREDICTED BY IDOCK:   -4.32 KCAL/MOL
REMARK 922        TOTAL FREE ENERGY PREDICTED BY IDOCK:   -7.98 KCAL/MOL
REMARK 923 INTER-LIGAND FREE ENERGY PREDICTED BY IDOCK:   -7.23 KCAL/MOL
REMARK 924 INTRA-LIGAND FREE ENERGY PREDICTED BY IDOCK:   -0.75 KCAL/MOL
REMARK 927      BINDING AFFINITY PREDICTED BY RF-SCORE:    0.00 PKD
ROOT
HETATM    1  O   UNL     1     -12.472  14.390  68.412  1.00  0.00    -0.583 OA 
HETATM    2  C   UNL     1     -11.501  14.222  67.370  1.00  0.00    -0.347 C  
HETATM    3  H   UNL     1     -13.340  14.368  68.028  1.00  0.00     0.000 HD 
ENDROOT
BRANCH   2   4
HETATM    4  C   UNL     1     -10.095  14.258  67.992  1.00  0.00    -0.227 C  
BRANCH   4   5
HETATM    5  N   UNL     1      -9.060  14.376  66.950  1.00  0.00    -0.241 NA 
HETATM    6  H   UNL     1      -9.267  15.126  66.290  1.00  0.00     0.000 HD 
BRANCH   5   7
HETATM    7  C   UNL     1      -7.740  14.535  67.570  1.00  0.00    -0.188 C  
BRANCH   7   8
HETATM    8  C   UNL     1      -7.755  15.646  68.626  1.00  0.00    -0.150 C  
BRANCH   8   9
HETATM    9  N   UNL     1      -7.313  16.899  68.048  1.00  0.00    -0.166 N  
HETATM   10  H   UNL     1      -6.904  16.887  67.114  1.00  0.00     0.000 HD 
BRANCH   9  11
HETATM   11  C   UNL     1      -7.423  18.094  68.701  1.00  0.00    -0.290 C  
HETATM   12  O   UNL     1      -6.555  18.481  69.482  1.00  0.00    -0.252 OA 
BRANCH  11  13
HETATM   13  N   UNL     1      -8.556  18.826  68.418  1.00  0.00    -0.332 N  
HETATM   14  C   UNL     1      -8.428  20.081  67.674  1.00  0.00    -0.326 C  
HETATM   15  C   UNL     1      -9.191  19.998  66.347  1.00  0.00    -0.356 C  
HETATM   16  O   UNL     1     -10.565  19.630  66.562  1.00  0.00    -0.451 OA 
HETATM   17  C   UNL     1     -10.652  18.360  67.224  1.00  0.00    -0.402 C  
HETATM   18  C   UNL     1      -9.951  18.402  68.587  1.00  0.00    -0.387 C  
ENDBRANCH  11  13
ENDBRANCH   9  11
ENDBRANCH   8   9
ENDBRANCH   7   8
ENDBRANCH   5   7
ENDBRANCH   4   5
ENDBRANCH   2   4
BRANCH   2  19
HETATM   19  C   UNL     1     -11.718  12.882  66.655  1.00  0.00    -0.390 C  
BRANCH  19  20
HETATM   20  O   UNL     1     -12.075  11.878  67.615  1.00  0.00    -0.568 OA 
BRANCH  20  21
HETATM   21  C   UNL     1     -11.173  10.856  67.737  1.00  0.00    -0.317 A  
HETATM   22  C   UNL     1     -11.073  10.282  69.006  1.00  0.00    -0.277 A  
HETATM   23  H   UNL     1      -8.005   7.388  67.646  1.00  0.00     0.000 HD 
HETATM   24  O   UNL     1      -8.531   7.720  68.363  1.00  0.00    -0.124 OA 
HETATM   25  C   UNL     1     -10.187   9.227  69.238  1.00  0.00    -0.211 A  
HETATM   26  C   UNL     1      -9.415   8.741  68.188  1.00  0.00    -0.140 A  
HETATM   27  C   UNL     1     -10.409  10.343  66.686  1.00  0.00    -0.292 A  
HETATM   28  C   UNL     1      -9.528   9.284  66.913  1.00  0.00    -0.211 A  
ENDBRANCH  20  21
ENDBRANCH  19  20
ENDBRANCH   2  19
TORSDOF 10
ENDMDL
MODEL      184
REMARK 921   NORMALIZED FREE ENERGY PREDICTED BY IDOCK:   -4.32 KCAL/MOL
REMARK 922        TOTAL FREE ENERGY PREDICTED BY IDOCK:   -7.98 KCAL/MOL
REMARK 923 INTER-LIGAND FREE ENERGY PREDICTED BY IDOCK:   -6.46 KCAL/MOL
REMARK 924 INTRA-LIGAND FREE ENERGY PREDICTED BY IDOCK:   -1.51 KCAL/MOL
REMARK 927      BINDING AFFINITY PREDICTED BY RF-SCORE:    0.00 PKD
ROOT
HETATM    1  O   UNL     1     -11.486   6.382  72.809  1.00  0.00    -0.402 OA 
HETATM    2  C   UNL     1     -12.193   7.004  71.727  1.00  0.00    -0.351 C  
HETATM    3  H   UNL     1     -11.537   5.439  72.706  1.00  0.00     0.000 HD 
ENDROOT
BRANCH   2   4
HETATM    4  C   UNL     1     -12.110   8.531  71.894  1.00  0.00    -0.349 C  
BRANCH   4   5
HETATM    5  N   UNL     1     -12.283   9.213  70.600  1.00  0.00    -0.486 NA 
HETATM    6  H   UNL     1     -13.266   9.370  70.379  1.00  0.00     0.000 HD 
BRANCH   5   7
HETATM    7  C   UNL     1     -11.509  10.459  70.582  1.00  0.00    -0.349 C  
BRANCH   7   8
HETATM    8  C   UNL     1     -11.919  11.348  69.403  1.00  0.00    -0.339 C  
BRANCH   8   9
HETATM    9  N   UNL     1     -11.388  10.819  68.163  1.00  0.00    -0.310 N  
HETATM   10  H   UNL     1     -11.561   9.840  67.937  1.00  0.00     0.000 HD 
BRANCH   9  11
HETATM   11  C   UNL     1     -10.666  11.576  67.285  1.00  0.00    -0.244 C  
HETATM   12  O   UNL     1      -9.779  12.336  67.671  1.00  0.00    -0.186 OA 
BRANCH  11  13
HETATM   13  N   UNL     1     -10.994  11.422  65.955  1.00  0.00    -0.249 N  
HETATM   14  C   UNL     1     -11.930  12.364  65.337  1.00  0.00    -0.398 C  
HETATM   15  C   UNL     1     -11.249  13.127  64.195  1.00  0.00    -0.397 C  
HETATM   16  O   UNL     1     -10.677  12.220  63.236  1.00  0.00    -0.427 OA 
HETATM   17  C   UNL     1      -9.709  11.366  63.861  1.00  0.00    -0.270 C  
HETATM   18  C   UNL     1     -10.350  10.535  64.979  1.00  0.00    -0.240 C  
ENDBRANCH  11  13
ENDBRANCH   9  11
ENDBRANCH   8   9
ENDBRANCH   7   8
ENDBRANCH   5   7
ENDBRANCH   4   5
ENDBRANCH   2   4
BRANCH   2  19
HETATM   19  C   UNL     1     -11.573   6.594  70.384  1.00  0.00    -0.398 C  
BRANCH  19  20
HETATM   20  O   UNL     1     -10.143   6.611  70.492  1.00  0.00    -0.186 OA 
BRANCH  20  21
HETATM   21  C   UNL     1      -9.509   7.394  69.565  1.00  0.00    -0.155 A  
HETATM   22  C   UNL     1      -8.617   8.338  70.077  1.00  0.00    -0.128 A  
HETATM   23  H   UNL     1      -7.561   9.792  66.025  1.00  0.00     0.000 HD 
HETATM   24  O   UNL     1      -7.437   9.872  66.963  1.00  0.00    -0.091 OA 
HETATM   25  C   UNL     1      -7.912   9.185  69.217  1.00  0.00    -0.097 A  
HETATM   26  C   UNL     1      -8.093   9.067  67.843  1.00  0.00    -0.106 A  
HETATM   27  C   UNL     1      -9.665   7.271  68.183  1.00  0.00    -0.155 A  
HETATM   28  C   UNL     1      -8.956   8.110  67.321  1.00  0.00    -0.149 A  
ENDBRANCH  20  21
ENDBRANCH  19  20
ENDBRANCH   2  19
TORSDOF 10
ENDMDL
MODEL      185
REMARK 921   NORMALIZED FREE ENERGY PREDICTED BY IDOCK:   -4.30 KCAL/MOL
REMARK 922        TOTAL FREE ENERGY PREDICTED BY IDOCK:   -7.96 KCAL/MOL
REMARK 923 INTER-LIGAND FREE ENERGY PREDICTED BY IDOCK:   -7.23 KCAL/MOL
REMARK 924 INTRA-LIGAND FREE ENERGY PREDICTED BY IDOCK:   -0.72 KCAL/MOL
REMARK 927      BINDING AFFINITY PREDICTED BY RF-SCORE:    0.00 PKD
ROOT
HETATM    1  O   UNL     1     -10.573  10.748  62.682  1.00  0.00    -0.742 OA 
HETATM    2  C   UNL     1      -9.872  11.279  63.815  1.00  0.00    -0.322 C  
HETATM    3  H   UNL     1     -10.116   9.974  62.374  1.00  0.00     0.000 HD 
ENDROOT
BRANCH   2   4
HETATM    4  C   UNL     1     -10.611  12.532  64.313  1.00  0.00    -0.369 C  
BRANCH   4   5
HETATM    5  N   UNL     1     -12.064  12.297  64.376  1.00  0.00    -0.402 NA 
HETATM    6  H   UNL     1     -12.286  11.386  64.779  1.00  0.00     0.000 HD 
BRANCH   5   7
HETATM    7  C   UNL     1     -12.719  13.393  65.098  1.00  0.00    -0.399 C  
BRANCH   7   8
HETATM    8  C   UNL     1     -11.714  14.168  65.958  1.00  0.00    -0.382 C  
BRANCH   8   9
HETATM    9  N   UNL     1     -12.204  14.296  67.316  1.00  0.00    -0.597 N  
HETATM   10  H   UNL     1     -12.963  13.686  67.620  1.00  0.00     0.000 HD 
BRANCH   9  11
HETATM   11  C   UNL     1     -11.694  15.198  68.204  1.00  0.00    -0.302 C  
HETATM   12  O   UNL     1     -11.388  16.338  67.858  1.00  0.00    -0.269 OA 
BRANCH  11  13
HETATM   13  N   UNL     1     -11.555  14.747  69.500  1.00  0.00    -0.286 N  
HETATM   14  C   UNL     1     -10.997  15.645  70.513  1.00  0.00    -0.350 C  
HETATM   15  C   UNL     1     -12.022  15.904  71.624  1.00  0.00    -0.480 C  
HETATM   16  O   UNL     1     -12.493  14.669  72.191  1.00  0.00    -0.324 OA 
HETATM   17  C   UNL     1     -13.102  13.848  71.184  1.00  0.00    -0.281 C  
HETATM   18  C   UNL     1     -12.101  13.511  70.071  1.00  0.00    -0.341 C  
ENDBRANCH  11  13
ENDBRANCH   9  11
ENDBRANCH   8   9
ENDBRANCH   7   8
ENDBRANCH   5   7
ENDBRANCH   4   5
ENDBRANCH   2   4
BRANCH   2  19
HETATM   19  C   UNL     1      -9.808  10.233  64.936  1.00  0.00    -0.336 C  
BRANCH  19  20
HETATM   20  O   UNL     1      -8.627  10.446  65.723  1.00  0.00    -0.152 OA 
BRANCH  20  21
HETATM   21  C   UNL     1      -8.422   9.518  66.708  1.00  0.00    -0.127 A  
HETATM   22  C   UNL     1      -9.574   8.995  67.299  1.00  0.00    -0.206 A  
HETATM   23  H   UNL     1      -7.218   6.366  69.977  1.00  0.00     0.000 HD 
HETATM   24  O   UNL     1      -8.075   6.668  69.701  1.00  0.00    -0.121 OA 
HETATM   25  C   UNL     1      -9.479   8.036  68.310  1.00  0.00    -0.147 A  
HETATM   26  C   UNL     1      -8.223   7.594  68.714  1.00  0.00    -0.128 A  
HETATM   27  C   UNL     1      -7.169   9.049  67.108  1.00  0.00    -0.083 A  
HETATM   28  C   UNL     1      -7.070   8.086  68.114  1.00  0.00    -0.089 A  
ENDBRANCH  20  21
ENDBRANCH  19  20
ENDBRANCH   2  19
TORSDOF 10
ENDMDL
MODEL      186
REMARK 921   NORMALIZED FREE ENERGY PREDICTED BY IDOCK:   -4.27 KCAL/MOL
REMARK 922        TOTAL FREE ENERGY PREDICTED BY IDOCK:   -7.90 KCAL/MOL
REMARK 923 INTER-LIGAND FREE ENERGY PREDICTED BY IDOCK:   -6.89 KCAL/MOL
REMARK 924 INTRA-LIGAND FREE ENERGY PREDICTED BY IDOCK:   -1.01 KCAL/MOL
REMARK 927      BINDING AFFINITY PREDICTED BY RF-SCORE:    0.00 PKD
ROOT
HETATM    1  O   UNL     1      -6.897  14.210  68.459  1.00  0.00    -0.088 OA 
HETATM    2  C   UNL     1      -8.278  14.499  68.203  1.00  0.00    -0.146 C  
HETATM    3  H   UNL     1      -6.587  13.592  67.806  1.00  0.00     0.000 HD 
ENDROOT
BRANCH   2   4
HETATM    4  C   UNL     1      -8.779  15.497  69.260  1.00  0.00    -0.260 C  
BRANCH   4   5
HETATM    5  N   UNL     1     -10.001  15.002  69.915  1.00  0.00    -0.477 NA 
HETATM    6  H   UNL     1      -9.950  15.085  70.931  1.00  0.00     0.000 HD 
BRANCH   5   7
HETATM    7  C   UNL     1     -11.178  15.684  69.366  1.00  0.00    -0.313 C  
BRANCH   7   8
HETATM    8  C   UNL     1     -12.281  14.682  69.006  1.00  0.00    -0.164 C  
BRANCH   8   9
HETATM    9  N   UNL     1     -11.769  13.327  69.062  1.00  0.00    -0.302 N  
HETATM   10  H   UNL     1     -11.308  12.946  68.236  1.00  0.00     0.000 HD 
BRANCH   9  11
HETATM   11  C   UNL     1     -11.879  12.541  70.173  1.00  0.00    -0.258 C  
HETATM   12  O   UNL     1     -12.060  13.026  71.288  1.00  0.00    -0.093 OA 
BRANCH  11  13
HETATM   13  N   UNL     1     -11.779  11.183  69.954  1.00  0.00    -0.323 N  
HETATM   14  C   UNL     1     -11.905  10.668  68.589  1.00  0.00    -0.064 C  
HETATM   15  C   UNL     1     -10.613   9.963  68.159  1.00  0.00    -0.227 C  
HETATM   16  O   UNL     1     -10.248   8.936  69.097  1.00  0.00    -0.196 OA 
HETATM   17  C   UNL     1     -10.057   9.489  70.407  1.00  0.00    -0.271 C  
HETATM   18  C   UNL     1     -11.341  10.161  70.911  1.00  0.00    -0.340 C  
ENDBRANCH  11  13
ENDBRANCH   9  11
ENDBRANCH   8   9
ENDBRANCH   7   8
ENDBRANCH   5   7
ENDBRANCH   4   5
ENDBRANCH   2   4
BRANCH   2  19
HETATM   19  C   UNL     1      -8.443  15.099  66.801  1.00  0.00    -0.237 C  
BRANCH  19  20
HETATM   20  O   UNL     1      -9.820  15.442  66.585  1.00  0.00    -0.239 OA 
BRANCH  20  21
HETATM   21  C   UNL     1     -10.521  14.542  65.829  1.00  0.00    -0.323 A  
HETATM   22  C   UNL     1     -11.491  15.084  64.984  1.00  0.00    -0.364 A  
HETATM   23  H   UNL     1     -12.614  11.092  63.422  1.00  0.00     0.000 HD 
HETATM   24  O   UNL     1     -12.765  12.029  63.409  1.00  0.00    -0.706 OA 
HETATM   25  C   UNL     1     -12.260  14.255  64.163  1.00  0.00    -0.410 A  
HETATM   26  C   UNL     1     -12.038  12.882  64.182  1.00  0.00    -0.432 A  
HETATM   27  C   UNL     1     -10.293  13.164  65.821  1.00  0.00    -0.294 A  
HETATM   28  C   UNL     1     -11.055  12.333  64.997  1.00  0.00    -0.359 A  
ENDBRANCH  20  21
ENDBRANCH  19  20
ENDBRANCH   2  19
TORSDOF 10
ENDMDL
MODEL      187
REMARK 921   NORMALIZED FREE ENERGY PREDICTED BY IDOCK:   -4.27 KCAL/MOL
REMARK 922        TOTAL FREE ENERGY PREDICTED BY IDOCK:   -7.90 KCAL/MOL
REMARK 923 INTER-LIGAND FREE ENERGY PREDICTED BY IDOCK:   -6.85 KCAL/MOL
REMARK 924 INTRA-LIGAND FREE ENERGY PREDICTED BY IDOCK:   -1.05 KCAL/MOL
REMARK 927      BINDING AFFINITY PREDICTED BY RF-SCORE:    0.00 PKD
ROOT
HETATM    1  O   UNL     1      -6.841  17.883  69.165  1.00  0.00    -0.248 OA 
HETATM    2  C   UNL     1      -6.865  17.037  68.007  1.00  0.00    -0.160 C  
HETATM    3  H   UNL     1      -6.889  17.339  69.942  1.00  0.00     0.000 HD 
ENDROOT
BRANCH   2   4
HETATM    4  C   UNL     1      -6.789  17.918  66.748  1.00  0.00    -0.185 C  
BRANCH   4   5
HETATM    5  N   UNL     1      -8.028  17.818  65.959  1.00  0.00    -0.520 NA 
HETATM    6  H   UNL     1      -8.376  16.860  65.914  1.00  0.00     0.000 HD 
BRANCH   5   7
HETATM    7  C   UNL     1      -9.036  18.745  66.486  1.00  0.00    -0.319 C  
BRANCH   7   8
HETATM    8  C   UNL     1     -10.451  18.305  66.094  1.00  0.00    -0.383 C  
BRANCH   8   9
HETATM    9  N   UNL     1     -10.553  16.860  66.113  1.00  0.00    -0.248 N  
HETATM   10  H   UNL     1     -10.333  16.367  66.977  1.00  0.00     0.000 HD 
BRANCH   9  11
HETATM   11  C   UNL     1     -10.934  16.132  65.022  1.00  0.00    -0.344 C  
HETATM   12  O   UNL     1     -11.519  16.652  64.074  1.00  0.00    -1.192 OA 
BRANCH  11  13
HETATM   13  N   UNL     1     -10.611  14.791  65.058  1.00  0.00    -0.414 N  
HETATM   14  C   UNL     1      -9.753  14.292  66.134  1.00  0.00    -0.303 C  
HETATM   15  C   UNL     1     -10.501  13.255  66.980  1.00  0.00    -0.249 C  
HETATM   16  O   UNL     1     -11.018  12.193  66.159  1.00  0.00    -0.274 OA 
HETATM   17  C   UNL     1     -11.914  12.711  65.166  1.00  0.00    -0.428 C  
HETATM   18  C   UNL     1     -11.201  13.716  64.253  1.00  0.00    -0.336 C  
ENDBRANCH  11  13
ENDBRANCH   9  11
ENDBRANCH   8   9
ENDBRANCH   7   8
ENDBRANCH   5   7
ENDBRANCH   4   5
ENDBRANCH   2   4
BRANCH   2  19
HETATM   19  C   UNL     1      -5.677  16.066  68.034  1.00  0.00    -0.122 C  
BRANCH  19  20
HETATM   20  O   UNL     1      -5.974  14.924  67.219  1.00  0.00    -0.312 OA 
BRANCH  20  21
HETATM   21  C   UNL     1      -6.158  13.758  67.914  1.00  0.00    -0.150 A  
HETATM   22  C   UNL     1      -5.964  13.838  69.294  1.00  0.00    -0.091 A  
HETATM   23  H   UNL     1      -6.945   9.552  69.853  1.00  0.00     0.000 HD 
HETATM   24  O   UNL     1      -6.685  10.374  70.252  1.00  0.00    -0.141 OA 
HETATM   25  C   UNL     1      -6.134  12.708  70.100  1.00  0.00    -0.093 A  
HETATM   26  C   UNL     1      -6.514  11.505  69.515  1.00  0.00    -0.124 A  
HETATM   27  C   UNL     1      -6.562  12.550  67.343  1.00  0.00    -0.152 A  
HETATM   28  C   UNL     1      -6.739  11.421  68.145  1.00  0.00    -0.059 A  
ENDBRANCH  20  21
ENDBRANCH  19  20
ENDBRANCH   2  19
TORSDOF 10
ENDMDL
MODEL      188
REMARK 921   NORMALIZED FREE ENERGY PREDICTED BY IDOCK:   -4.24 KCAL/MOL
REMARK 922        TOTAL FREE ENERGY PREDICTED BY IDOCK:   -7.86 KCAL/MOL
REMARK 923 INTER-LIGAND FREE ENERGY PREDICTED BY IDOCK:   -7.21 KCAL/MOL
REMARK 924 INTRA-LIGAND FREE ENERGY PREDICTED BY IDOCK:   -0.65 KCAL/MOL
REMARK 927      BINDING AFFINITY PREDICTED BY RF-SCORE:    0.00 PKD
ROOT
HETATM    1  O   UNL     1     -12.504  11.661  69.721  1.00  0.00    -0.158 OA 
HETATM    2  C   UNL     1     -12.485  11.868  71.140  1.00  0.00    -0.261 C  
HETATM    3  H   UNL     1     -12.023  10.866  69.521  1.00  0.00     0.000 HD 
ENDROOT
BRANCH   2   4
HETATM    4  C   UNL     1     -13.264  13.155  71.463  1.00  0.00    -0.282 C  
BRANCH   4   5
HETATM    5  N   UNL     1     -13.341  14.034  70.284  1.00  0.00    -0.089 NA 
HETATM    6  H   UNL     1     -14.269  14.024  69.860  1.00  0.00     0.000 HD 
BRANCH   5   7
HETATM    7  C   UNL     1     -12.913  15.392  70.641  1.00  0.00    -0.398 C  
BRANCH   7   8
HETATM    8  C   UNL     1     -11.616  15.771  69.918  1.00  0.00    -0.351 C  
BRANCH   8   9
HETATM    9  N   UNL     1     -11.868  15.983  68.507  1.00  0.00    -0.378 N  
HETATM   10  H   UNL     1     -12.788  16.319  68.221  1.00  0.00     0.000 HD 
BRANCH   9  11
HETATM   11  C   UNL     1     -10.927  15.754  67.545  1.00  0.00    -0.293 C  
HETATM   12  O   UNL     1      -9.803  16.248  67.615  1.00  0.00    -0.233 OA 
BRANCH  11  13
HETATM   13  N   UNL     1     -11.321  14.935  66.508  1.00  0.00    -0.342 N  
HETATM   14  C   UNL     1     -10.392  14.682  65.404  1.00  0.00    -0.383 C  
HETATM   15  C   UNL     1     -10.053  13.190  65.318  1.00  0.00    -0.235 C  
HETATM   16  O   UNL     1     -11.247  12.393  65.217  1.00  0.00    -0.299 OA 
HETATM   17  C   UNL     1     -12.097  12.608  66.353  1.00  0.00    -0.260 C  
HETATM   18  C   UNL     1     -12.513  14.081  66.456  1.00  0.00    -0.311 C  
ENDBRANCH  11  13
ENDBRANCH   9  11
ENDBRANCH   8   9
ENDBRANCH   7   8
ENDBRANCH   5   7
ENDBRANCH   4   5
ENDBRANCH   2   4
BRANCH   2  19
HETATM   19  C   UNL     1     -13.131  10.676  71.858  1.00  0.00    -0.458 C  
BRANCH  19  20
HETATM   20  O   UNL     1     -13.124   9.533  70.991  1.00  0.00    -0.295 OA 
BRANCH  20  21
HETATM   21  C   UNL     1     -12.326   8.502  71.411  1.00  0.00    -0.297 A  
HETATM   22  C   UNL     1     -11.094   8.871  71.954  1.00  0.00    -0.442 A  
HETATM   23  H   UNL     1      -9.982   4.653  72.737  1.00  0.00     0.000 HD 
HETATM   24  O   UNL     1      -9.735   5.569  72.783  1.00  0.00    -0.149 OA 
HETATM   25  C   UNL     1     -10.206   7.898  72.419  1.00  0.00    -0.327 A  
HETATM   26  C   UNL     1     -10.567   6.556  72.352  1.00  0.00    -0.215 A  
HETATM   27  C   UNL     1     -12.686   7.154  71.369  1.00  0.00    -0.433 A  
HETATM   28  C   UNL     1     -11.804   6.179  71.839  1.00  0.00    -0.316 A  
ENDBRANCH  20  21
ENDBRANCH  19  20
ENDBRANCH   2  19
TORSDOF 10
ENDMDL
MODEL      189
REMARK 921   NORMALIZED FREE ENERGY PREDICTED BY IDOCK:   -4.23 KCAL/MOL
REMARK 922        TOTAL FREE ENERGY PREDICTED BY IDOCK:   -7.84 KCAL/MOL
REMARK 923 INTER-LIGAND FREE ENERGY PREDICTED BY IDOCK:   -6.35 KCAL/MOL
REMARK 924 INTRA-LIGAND FREE ENERGY PREDICTED BY IDOCK:   -1.49 KCAL/MOL
REMARK 927      BINDING AFFINITY PREDICTED BY RF-SCORE:    0.00 PKD
ROOT
HETATM    1  O   UNL     1      -9.500   7.629  65.642  1.00  0.00    -0.392 OA 
HETATM    2  C   UNL     1      -9.273   7.614  67.058  1.00  0.00    -0.138 C  
HETATM    3  H   UNL     1     -10.348   7.238  65.464  1.00  0.00     0.000 HD 
ENDROOT
BRANCH   2   4
HETATM    4  C   UNL     1      -7.900   8.246  67.347  1.00  0.00    -0.106 C  
BRANCH   4   5
HETATM    5  N   UNL     1      -7.456   9.078  66.216  1.00  0.00    -0.091 NA 
HETATM    6  H   UNL     1      -8.237   9.378  65.632  1.00  0.00     0.000 HD 
BRANCH   5   7
HETATM    7  C   UNL     1      -6.668  10.214  66.707  1.00  0.00    -0.077 C  
BRANCH   7   8
HETATM    8  C   UNL     1      -7.571  11.284  67.331  1.00  0.00    -0.120 C  
BRANCH   8   9
HETATM    9  N   UNL     1      -8.152  12.119  66.299  1.00  0.00    -0.363 N  
HETATM   10  H   UNL     1      -7.540  12.746  65.777  1.00  0.00     0.000 HD 
BRANCH   9  11
HETATM   11  C   UNL     1      -9.484  12.101  65.995  1.00  0.00    -0.207 C  
HETATM   12  O   UNL     1     -10.029  11.089  65.559  1.00  0.00    -0.230 OA 
BRANCH  11  13
HETATM   13  N   UNL     1     -10.162  13.281  66.217  1.00  0.00    -0.289 N  
HETATM   14  C   UNL     1      -9.714  14.172  67.290  1.00  0.00    -0.236 C  
HETATM   15  C   UNL     1      -9.283  15.527  66.717  1.00  0.00    -0.248 C  
HETATM   16  O   UNL     1     -10.332  16.112  65.926  1.00  0.00    -0.330 OA 
HETATM   17  C   UNL     1     -10.691  15.246  64.840  1.00  0.00    -0.400 C  
HETATM   18  C   UNL     1     -11.185  13.889  65.359  1.00  0.00    -0.306 C  
ENDBRANCH  11  13
ENDBRANCH   9  11
ENDBRANCH   8   9
ENDBRANCH   7   8
ENDBRANCH   5   7
ENDBRANCH   4   5
ENDBRANCH   2   4
BRANCH   2  19
HETATM   19  C   UNL     1     -10.371   8.406  67.780  1.00  0.00    -0.235 C  
BRANCH  19  20
HETATM   20  O   UNL     1      -9.876   8.869  69.044  1.00  0.00    -0.171 OA 
BRANCH  20  21
HETATM   21  C   UNL     1     -10.716   9.722  69.709  1.00  0.00    -0.256 A  
HETATM   22  C   UNL     1     -10.763  11.030  69.222  1.00  0.00    -0.263 A  
HETATM   23  H   UNL     1     -13.745  12.242  72.268  1.00  0.00     0.000 HD 
HETATM   24  O   UNL     1     -13.204  12.496  71.531  1.00  0.00    -0.345 OA 
HETATM   25  C   UNL     1     -11.592  11.980  69.823  1.00  0.00    -0.348 A  
HETATM   26  C   UNL     1     -12.385  11.607  70.904  1.00  0.00    -0.336 A  
HETATM   27  C   UNL     1     -11.533   9.355  70.780  1.00  0.00    -0.364 A  
HETATM   28  C   UNL     1     -12.368  10.301  71.379  1.00  0.00    -0.502 A  
ENDBRANCH  20  21
ENDBRANCH  19  20
ENDBRANCH   2  19
TORSDOF 10
ENDMDL
MODEL      190
REMARK 921   NORMALIZED FREE ENERGY PREDICTED BY IDOCK:   -4.22 KCAL/MOL
REMARK 922        TOTAL FREE ENERGY PREDICTED BY IDOCK:   -7.83 KCAL/MOL
REMARK 923 INTER-LIGAND FREE ENERGY PREDICTED BY IDOCK:   -6.88 KCAL/MOL
REMARK 924 INTRA-LIGAND FREE ENERGY PREDICTED BY IDOCK:   -0.95 KCAL/MOL
REMARK 927      BINDING AFFINITY PREDICTED BY RF-SCORE:    0.00 PKD
ROOT
HETATM    1  O   UNL     1     -13.634  15.576  70.449  1.00  0.00    -0.806 OA 
HETATM    2  C   UNL     1     -12.701  14.762  69.725  1.00  0.00    -0.026 C  
HETATM    3  H   UNL     1     -14.275  15.011  70.865  1.00  0.00     0.000 HD 
ENDROOT
BRANCH   2   4
HETATM    4  C   UNL     1     -11.665  15.678  69.051  1.00  0.00    -0.395 C  
BRANCH   4   5
HETATM    5  N   UNL     1     -10.301  15.154  69.235  1.00  0.00    -0.248 NA 
HETATM    6  H   UNL     1     -10.256  14.145  69.095  1.00  0.00     0.000 HD 
BRANCH   5   7
HETATM    7  C   UNL     1      -9.365  15.873  68.362  1.00  0.00    -0.201 C  
BRANCH   7   8
HETATM    8  C   UNL     1      -9.434  15.345  66.924  1.00  0.00    -0.230 C  
BRANCH   8   9
HETATM    9  N   UNL     1      -8.586  14.180  66.773  1.00  0.00    -0.425 N  
HETATM   10  H   UNL     1      -7.715  14.275  66.251  1.00  0.00     0.000 HD 
BRANCH   9  11
HETATM   11  C   UNL     1      -8.902  12.960  67.300  1.00  0.00    -0.206 C  
HETATM   12  O   UNL     1      -8.488  12.611  68.404  1.00  0.00    -0.168 OA 
BRANCH  11  13
HETATM   13  N   UNL     1      -9.714  12.165  66.519  1.00  0.00    -0.218 N  
HETATM   14  C   UNL     1      -9.322  11.886  65.135  1.00  0.00     0.045 C  
HETATM   15  C   UNL     1      -9.106  10.382  64.932  1.00  0.00    -0.208 C  
HETATM   16  O   UNL     1     -10.268   9.633  65.331  1.00  0.00    -0.192 OA 
HETATM   17  C   UNL     1     -10.575   9.872  66.712  1.00  0.00    -0.144 C  
HETATM   18  C   UNL     1     -10.857  11.359  66.962  1.00  0.00    -0.282 C  
ENDBRANCH  11  13
ENDBRANCH   9  11
ENDBRANCH   8   9
ENDBRANCH   7   8
ENDBRANCH   5   7
ENDBRANCH   4   5
ENDBRANCH   2   4
BRANCH   2  19
HETATM   19  C   UNL     1     -11.993  13.791  70.679  1.00  0.00    -0.266 C  
BRANCH  19  20
HETATM   20  O   UNL     1     -12.954  12.886  71.241  1.00  0.00    -0.321 OA 
BRANCH  20  21
HETATM   21  C   UNL     1     -12.610  11.563  71.156  1.00  0.00    -0.359 A  
HETATM   22  C   UNL     1     -13.365  10.689  71.941  1.00  0.00    -0.454 A  
HETATM   23  H   UNL     1     -11.100   7.164  70.497  1.00  0.00     0.000 HD 
HETATM   24  O   UNL     1     -11.790   7.499  71.057  1.00  0.00    -0.292 OA 
HETATM   25  C   UNL     1     -13.102   9.316  71.924  1.00  0.00    -0.490 A  
HETATM   26  C   UNL     1     -12.091   8.826  71.104  1.00  0.00    -0.267 A  
HETATM   27  C   UNL     1     -11.614  11.054  70.320  1.00  0.00    -0.414 A  
HETATM   28  C   UNL     1     -11.354   9.683  70.296  1.00  0.00    -0.311 A  
ENDBRANCH  20  21
ENDBRANCH  19  20
ENDBRANCH   2  19
TORSDOF 10
ENDMDL
MODEL      191
REMARK 921   NORMALIZED FREE ENERGY PREDICTED BY IDOCK:   -4.22 KCAL/MOL
REMARK 922        TOTAL FREE ENERGY PREDICTED BY IDOCK:   -7.82 KCAL/MOL
REMARK 923 INTER-LIGAND FREE ENERGY PREDICTED BY IDOCK:   -6.67 KCAL/MOL
REMARK 924 INTRA-LIGAND FREE ENERGY PREDICTED BY IDOCK:   -1.15 KCAL/MOL
REMARK 927      BINDING AFFINITY PREDICTED BY RF-SCORE:    0.00 PKD
ROOT
HETATM    1  O   UNL     1      -7.812  10.878  64.779  1.00  0.00    -0.351 OA 
HETATM    2  C   UNL     1      -8.794  10.043  64.151  1.00  0.00    -0.221 C  
HETATM    3  H   UNL     1      -7.430  11.449  64.122  1.00  0.00     0.000 HD 
ENDROOT
BRANCH   2   4
HETATM    4  C   UNL     1      -9.411   9.118  65.215  1.00  0.00    -0.156 C  
BRANCH   4   5
HETATM    5  N   UNL     1      -8.703   9.248  66.500  1.00  0.00    -0.129 NA 
HETATM    6  H   UNL     1      -7.835   9.775  66.406  1.00  0.00     0.000 HD 
BRANCH   5   7
HETATM    7  C   UNL     1      -9.596   9.832  67.508  1.00  0.00    -0.150 C  
BRANCH   7   8
HETATM    8  C   UNL     1      -8.896   9.943  68.867  1.00  0.00    -0.145 C  
BRANCH   8   9
HETATM    9  N   UNL     1      -8.440  11.300  69.091  1.00  0.00    -0.378 N  
HETATM   10  H   UNL     1      -7.874  11.493  69.918  1.00  0.00     0.000 HD 
BRANCH   9  11
HETATM   11  C   UNL     1      -8.734  12.329  68.243  1.00  0.00    -0.178 C  
HETATM   12  O   UNL     1      -8.185  12.435  67.148  1.00  0.00    -0.178 OA 
BRANCH  11  13
HETATM   13  N   UNL     1      -9.681  13.222  68.696  1.00  0.00    -0.132 N  
HETATM   14  C   UNL     1      -9.286  14.607  68.966  1.00  0.00    -0.118 C  
HETATM   15  C   UNL     1     -10.055  15.572  68.056  1.00  0.00    -0.223 C  
HETATM   16  O   UNL     1     -11.475  15.377  68.177  1.00  0.00    -0.335 OA 
HETATM   17  C   UNL     1     -11.834  14.032  67.831  1.00  0.00    -0.376 C  
HETATM   18  C   UNL     1     -11.134  13.023  68.749  1.00  0.00    -0.270 C  
ENDBRANCH  11  13
ENDBRANCH   9  11
ENDBRANCH   8   9
ENDBRANCH   7   8
ENDBRANCH   5   7
ENDBRANCH   4   5
ENDBRANCH   2   4
BRANCH   2  19
HETATM   19  C   UNL     1      -9.892  10.904  63.513  1.00  0.00    -0.359 C  
BRANCH  19  20
HETATM   20  O   UNL     1     -10.794  11.363  64.530  1.00  0.00    -0.325 OA 
BRANCH  20  21
HETATM   21  C   UNL     1     -11.025  12.712  64.522  1.00  0.00    -0.332 A  
HETATM   22  C   UNL     1      -9.928  13.518  64.834  1.00  0.00    -0.176 A  
HETATM   23  H   UNL     1     -12.292  17.232  64.324  1.00  0.00     0.000 HD 
HETATM   24  O   UNL     1     -11.455  16.837  64.540  1.00  0.00    -0.866 OA 
HETATM   25  C   UNL     1     -10.053  14.909  64.848  1.00  0.00    -0.200 A  
HETATM   26  C   UNL     1     -11.278  15.487  64.532  1.00  0.00    -0.315 A  
HETATM   27  C   UNL     1     -12.243  13.306  64.185  1.00  0.00    -0.465 A  
HETATM   28  C   UNL     1     -12.370  14.696  64.192  1.00  0.00    -0.294 A  
ENDBRANCH  20  21
ENDBRANCH  19  20
ENDBRANCH   2  19
TORSDOF 10
ENDMDL
MODEL      192
REMARK 921   NORMALIZED FREE ENERGY PREDICTED BY IDOCK:   -4.22 KCAL/MOL
REMARK 922        TOTAL FREE ENERGY PREDICTED BY IDOCK:   -7.82 KCAL/MOL
REMARK 923 INTER-LIGAND FREE ENERGY PREDICTED BY IDOCK:   -6.65 KCAL/MOL
REMARK 924 INTRA-LIGAND FREE ENERGY PREDICTED BY IDOCK:   -1.17 KCAL/MOL
REMARK 927      BINDING AFFINITY PREDICTED BY RF-SCORE:    0.00 PKD
ROOT
HETATM    1  O   UNL     1      -9.098   8.934  64.442  1.00  0.00    -0.423 OA 
HETATM    2  C   UNL     1      -9.410   9.750  65.580  1.00  0.00    -0.240 C  
HETATM    3  H   UNL     1      -8.547   8.213  64.724  1.00  0.00     0.000 HD 
ENDROOT
BRANCH   2   4
HETATM    4  C   UNL     1     -10.301  10.918  65.123  1.00  0.00    -0.278 C  
BRANCH   4   5
HETATM    5  N   UNL     1     -10.874  11.627  66.280  1.00  0.00    -0.277 NA 
HETATM    6  H   UNL     1     -10.799  11.080  67.138  1.00  0.00     0.000 HD 
BRANCH   5   7
HETATM    7  C   UNL     1     -10.256  12.951  66.414  1.00  0.00    -0.267 C  
BRANCH   7   8
HETATM    8  C   UNL     1     -11.314  14.059  66.402  1.00  0.00    -0.333 C  
BRANCH   8   9
HETATM    9  N   UNL     1     -12.163  13.960  67.572  1.00  0.00    -0.494 N  
HETATM   10  H   UNL     1     -12.924  13.282  67.566  1.00  0.00     0.000 HD 
BRANCH   9  11
HETATM   11  C   UNL     1     -11.986  14.736  68.682  1.00  0.00    -0.257 C  
HETATM   12  O   UNL     1     -12.007  15.964  68.617  1.00  0.00    -0.338 OA 
BRANCH  11  13
HETATM   13  N   UNL     1     -11.793  14.052  69.863  1.00  0.00    -0.310 N  
HETATM   14  C   UNL     1     -11.974  14.756  71.135  1.00  0.00    -0.335 C  
HETATM   15  C   UNL     1     -13.105  14.116  71.947  1.00  0.00    -0.375 C  
HETATM   16  O   UNL     1     -12.876  12.708  72.133  1.00  0.00    -0.233 OA 
HETATM   17  C   UNL     1     -12.780  12.039  70.867  1.00  0.00    -0.199 C  
HETATM   18  C   UNL     1     -11.625  12.604  70.032  1.00  0.00    -0.123 C  
ENDBRANCH  11  13
ENDBRANCH   9  11
ENDBRANCH   8   9
ENDBRANCH   7   8
ENDBRANCH   5   7
ENDBRANCH   4   5
ENDBRANCH   2   4
BRANCH   2  19
HETATM   19  C   UNL     1     -10.144   8.921  66.642  1.00  0.00    -0.287 C  
BRANCH  19  20
HETATM   20  O   UNL     1      -9.690   9.305  67.947  1.00  0.00    -0.146 OA 
BRANCH  20  21
HETATM   21  C   UNL     1     -10.184   8.542  68.971  1.00  0.00    -0.207 A  
HETATM   22  C   UNL     1      -9.917   7.174  68.893  1.00  0.00    -0.163 A  
HETATM   23  H   UNL     1     -12.031   6.367  72.704  1.00  0.00     0.000 HD 
HETATM   24  O   UNL     1     -11.548   6.017  71.965  1.00  0.00    -0.300 OA 
HETATM   25  C   UNL     1     -10.370   6.306  69.890  1.00  0.00    -0.249 A  
HETATM   26  C   UNL     1     -11.077   6.820  70.972  1.00  0.00    -0.273 A  
HETATM   27  C   UNL     1     -10.876   9.048  70.074  1.00  0.00    -0.247 A  
HETATM   28  C   UNL     1     -11.324   8.184  71.075  1.00  0.00    -0.293 A  
ENDBRANCH  20  21
ENDBRANCH  19  20
ENDBRANCH   2  19
TORSDOF 10
ENDMDL
MODEL      193
REMARK 921   NORMALIZED FREE ENERGY PREDICTED BY IDOCK:   -4.21 KCAL/MOL
REMARK 922        TOTAL FREE ENERGY PREDICTED BY IDOCK:   -7.81 KCAL/MOL
REMARK 923 INTER-LIGAND FREE ENERGY PREDICTED BY IDOCK:   -6.62 KCAL/MOL
REMARK 924 INTRA-LIGAND FREE ENERGY PREDICTED BY IDOCK:   -1.19 KCAL/MOL
REMARK 927      BINDING AFFINITY PREDICTED BY RF-SCORE:    0.00 PKD
ROOT
HETATM    1  O   UNL     1      -6.955  12.066  66.702  1.00  0.00    -0.373 OA 
HETATM    2  C   UNL     1      -8.190  11.648  67.301  1.00  0.00    -0.159 C  
HETATM    3  H   UNL     1      -7.138  12.754  66.073  1.00  0.00     0.000 HD 
ENDROOT
BRANCH   2   4
HETATM    4  C   UNL     1      -7.894  10.534  68.320  1.00  0.00    -0.111 C  
BRANCH   4   5
HETATM    5  N   UNL     1      -8.688  10.718  69.547  1.00  0.00    -0.388 NA 
HETATM    6  H   UNL     1      -9.361  11.479  69.455  1.00  0.00     0.000 HD 
BRANCH   5   7
HETATM    7  C   UNL     1      -9.333   9.455  69.922  1.00  0.00    -0.214 C  
BRANCH   7   8
HETATM    8  C   UNL     1     -10.691   9.300  69.229  1.00  0.00    -0.196 C  
BRANCH   8   9
HETATM    9  N   UNL     1     -11.317   8.052  69.617  1.00  0.00    -0.441 N  
HETATM   10  H   UNL     1     -11.456   7.335  68.906  1.00  0.00     0.000 HD 
BRANCH   9  11
HETATM   11  C   UNL     1     -11.728   7.797  70.894  1.00  0.00    -0.265 C  
HETATM   12  O   UNL     1     -12.323   8.643  71.559  1.00  0.00    -0.304 OA 
BRANCH  11  13
HETATM   13  N   UNL     1     -11.437   6.538  71.374  1.00  0.00    -0.295 N  
HETATM   14  C   UNL     1     -10.406   5.739  70.706  1.00  0.00    -0.237 C  
HETATM   15  C   UNL     1      -9.253   5.437  71.669  1.00  0.00    -0.146 C  
HETATM   16  O   UNL     1      -9.733   4.809  72.872  1.00  0.00    -0.136 OA 
HETATM   17  C   UNL     1     -10.682   5.653  73.539  1.00  0.00    -0.275 C  
HETATM   18  C   UNL     1     -11.889   5.944  72.637  1.00  0.00    -0.141 C  
ENDBRANCH  11  13
ENDBRANCH   9  11
ENDBRANCH   8   9
ENDBRANCH   7   8
ENDBRANCH   5   7
ENDBRANCH   4   5
ENDBRANCH   2   4
BRANCH   2  19
HETATM   19  C   UNL     1      -8.865  12.832  68.006  1.00  0.00    -0.195 C  
BRANCH  19  20
HETATM   20  O   UNL     1     -10.289  12.668  67.960  1.00  0.00    -0.215 OA 
BRANCH  20  21
HETATM   21  C   UNL     1     -10.986  13.488  68.807  1.00  0.00    -0.261 A  
HETATM   22  C   UNL     1     -11.726  12.845  69.801  1.00  0.00    -0.351 A  
HETATM   23  H   UNL     1     -13.154  16.695  71.468  1.00  0.00     0.000 HD 
HETATM   24  O   UNL     1     -13.166  15.747  71.518  1.00  0.00    -0.490 OA 
HETATM   25  C   UNL     1     -12.469  13.588  70.722  1.00  0.00    -0.428 A  
HETATM   26  C   UNL     1     -12.453  14.977  70.650  1.00  0.00    -0.365 A  
HETATM   27  C   UNL     1     -10.960  14.883  68.759  1.00  0.00    -0.259 A  
HETATM   28  C   UNL     1     -11.696  15.628  69.682  1.00  0.00    -0.373 A  
ENDBRANCH  20  21
ENDBRANCH  19  20
ENDBRANCH   2  19
TORSDOF 10
ENDMDL
MODEL      194
REMARK 921   NORMALIZED FREE ENERGY PREDICTED BY IDOCK:   -4.20 KCAL/MOL
REMARK 922        TOTAL FREE ENERGY PREDICTED BY IDOCK:   -7.79 KCAL/MOL
REMARK 923 INTER-LIGAND FREE ENERGY PREDICTED BY IDOCK:   -7.26 KCAL/MOL
REMARK 924 INTRA-LIGAND FREE ENERGY PREDICTED BY IDOCK:   -0.53 KCAL/MOL
REMARK 927      BINDING AFFINITY PREDICTED BY RF-SCORE:    0.00 PKD
ROOT
HETATM    1  O   UNL     1     -12.112  11.716  68.153  1.00  0.00    -0.577 OA 
HETATM    2  C   UNL     1     -11.640  11.976  69.482  1.00  0.00    -0.321 C  
HETATM    3  H   UNL     1     -11.639  10.972  67.800  1.00  0.00     0.000 HD 
ENDROOT
BRANCH   2   4
HETATM    4  C   UNL     1     -12.407  13.182  70.053  1.00  0.00    -0.172 C  
BRANCH   4   5
HETATM    5  N   UNL     1     -12.235  14.368  69.198  1.00  0.00    -0.526 NA 
HETATM    6  H   UNL     1     -12.961  15.065  69.361  1.00  0.00     0.000 HD 
BRANCH   5   7
HETATM    7  C   UNL     1     -10.888  14.924  69.375  1.00  0.00    -0.264 C  
BRANCH   7   8
HETATM    8  C   UNL     1     -10.355  15.509  68.063  1.00  0.00    -0.247 C  
BRANCH   8   9
HETATM    9  N   UNL     1      -9.870  16.859  68.271  1.00  0.00    -0.256 N  
HETATM   10  H   UNL     1     -10.544  17.624  68.267  1.00  0.00     0.000 HD 
BRANCH   9  11
HETATM   11  C   UNL     1      -8.551  17.148  68.473  1.00  0.00    -0.258 C  
HETATM   12  O   UNL     1      -7.868  16.508  69.270  1.00  0.00    -0.229 OA 
BRANCH  11  13
HETATM   13  N   UNL     1      -8.047  18.190  67.724  1.00  0.00    -0.235 N  
HETATM   14  C   UNL     1      -8.937  18.905  66.806  1.00  0.00    -0.313 C  
HETATM   15  C   UNL     1      -9.050  20.380  67.208  1.00  0.00    -0.373 C  
HETATM   16  O   UNL     1      -7.752  20.994  67.296  1.00  0.00    -0.313 OA 
HETATM   17  C   UNL     1      -6.936  20.315  68.261  1.00  0.00    -0.260 C  
HETATM   18  C   UNL     1      -6.742  18.842  67.877  1.00  0.00    -0.215 C  
ENDBRANCH  11  13
ENDBRANCH   9  11
ENDBRANCH   8   9
ENDBRANCH   7   8
ENDBRANCH   5   7
ENDBRANCH   4   5
ENDBRANCH   2   4
BRANCH   2  19
HETATM   19  C   UNL     1     -11.865  10.748  70.375  1.00  0.00    -0.358 C  
BRANCH  19  20
HETATM   20  O   UNL     1     -11.184   9.617  69.813  1.00  0.00    -0.233 OA 
BRANCH  20  21
HETATM   21  C   UNL     1     -11.059   8.548  70.659  1.00  0.00    -0.252 A  
HETATM   22  C   UNL     1     -10.657   8.849  71.962  1.00  0.00    -0.388 A  
HETATM   23  H   UNL     1     -10.815   4.590  73.177  1.00  0.00     0.000 HD 
HETATM   24  O   UNL     1     -10.632   5.488  73.426  1.00  0.00    -0.220 OA 
HETATM   25  C   UNL     1     -10.505   7.832  72.908  1.00  0.00    -0.412 A  
HETATM   26  C   UNL     1     -10.773   6.516  72.545  1.00  0.00    -0.226 A  
HETATM   27  C   UNL     1     -11.346   7.226  70.313  1.00  0.00    -0.266 A  
HETATM   28  C   UNL     1     -11.201   6.208  71.258  1.00  0.00    -0.348 A  
ENDBRANCH  20  21
ENDBRANCH  19  20
ENDBRANCH   2  19
TORSDOF 10
ENDMDL
MODEL      195
REMARK 921   NORMALIZED FREE ENERGY PREDICTED BY IDOCK:   -4.20 KCAL/MOL
REMARK 922        TOTAL FREE ENERGY PREDICTED BY IDOCK:   -7.79 KCAL/MOL
REMARK 923 INTER-LIGAND FREE ENERGY PREDICTED BY IDOCK:   -6.65 KCAL/MOL
REMARK 924 INTRA-LIGAND FREE ENERGY PREDICTED BY IDOCK:   -1.14 KCAL/MOL
REMARK 927      BINDING AFFINITY PREDICTED BY RF-SCORE:    0.00 PKD
ROOT
HETATM    1  O   UNL     1     -10.272   9.254  68.667  1.00  0.00    -0.187 OA 
HETATM    2  C   UNL     1      -9.437   8.906  67.553  1.00  0.00    -0.141 C  
HETATM    3  H   UNL     1      -9.854   9.953  69.156  1.00  0.00     0.000 HD 
ENDROOT
BRANCH   2   4
HETATM    4  C   UNL     1     -10.113   7.773  66.762  1.00  0.00    -0.270 C  
BRANCH   4   5
HETATM    5  N   UNL     1      -9.239   6.591  66.683  1.00  0.00    -0.149 NA 
HETATM    6  H   UNL     1      -8.625   6.624  65.869  1.00  0.00     0.000 HD 
BRANCH   5   7
HETATM    7  C   UNL     1      -8.488   6.438  67.934  1.00  0.00    -0.118 C  
BRANCH   7   8
HETATM    8  C   UNL     1      -8.758   5.073  68.577  1.00  0.00    -0.097 C  
BRANCH   8   9
HETATM    9  N   UNL     1     -10.158   4.948  68.928  1.00  0.00    -0.151 N  
HETATM   10  H   UNL     1     -10.693   4.174  68.533  1.00  0.00     0.000 HD 
BRANCH   9  11
HETATM   11  C   UNL     1     -10.792   5.822  69.764  1.00  0.00    -0.349 C  
HETATM   12  O   UNL     1     -11.709   6.539  69.368  1.00  0.00    -0.295 OA 
BRANCH  11  13
HETATM   13  N   UNL     1     -10.341   5.835  71.067  1.00  0.00    -0.219 N  
HETATM   14  C   UNL     1     -10.189   7.118  71.757  1.00  0.00    -0.195 C  
HETATM   15  C   UNL     1     -11.110   7.182  72.981  1.00  0.00    -0.283 C  
HETATM   16  O   UNL     1     -10.886   6.063  73.857  1.00  0.00    -0.194 OA 
HETATM   17  C   UNL     1     -11.119   4.826  73.168  1.00  0.00    -0.310 C  
HETATM   18  C   UNL     1     -10.181   4.684  71.962  1.00  0.00    -0.190 C  
ENDBRANCH  11  13
ENDBRANCH   9  11
ENDBRANCH   8   9
ENDBRANCH   7   8
ENDBRANCH   5   7
ENDBRANCH   4   5
ENDBRANCH   2   4
BRANCH   2  19
HETATM   19  C   UNL     1      -9.231  10.124  66.643  1.00  0.00    -0.155 C  
BRANCH  19  20
HETATM   20  O   UNL     1     -10.023  11.220  67.124  1.00  0.00    -0.188 OA 
BRANCH  20  21
HETATM   21  C   UNL     1     -10.721  11.889  66.154  1.00  0.00    -0.278 A  
HETATM   22  C   UNL     1     -10.650  11.344  64.870  1.00  0.00    -0.368 A  
HETATM   23  H   UNL     1     -13.290  14.489  63.203  1.00  0.00     0.000 HD 
HETATM   24  O   UNL     1     -12.769  13.712  63.042  1.00  0.00    -0.681 OA 
HETATM   25  C   UNL     1     -11.331  11.945  63.808  1.00  0.00    -0.532 A  
HETATM   26  C   UNL     1     -12.094  13.084  64.044  1.00  0.00    -0.450 A  
HETATM   27  C   UNL     1     -11.509  13.020  66.381  1.00  0.00    -0.384 A  
HETATM   28  C   UNL     1     -12.195  13.618  65.323  1.00  0.00    -0.466 A  
ENDBRANCH  20  21
ENDBRANCH  19  20
ENDBRANCH   2  19
TORSDOF 10
ENDMDL
MODEL      196
REMARK 921   NORMALIZED FREE ENERGY PREDICTED BY IDOCK:   -4.19 KCAL/MOL
REMARK 922        TOTAL FREE ENERGY PREDICTED BY IDOCK:   -7.78 KCAL/MOL
REMARK 923 INTER-LIGAND FREE ENERGY PREDICTED BY IDOCK:   -6.48 KCAL/MOL
REMARK 924 INTRA-LIGAND FREE ENERGY PREDICTED BY IDOCK:   -1.30 KCAL/MOL
REMARK 927      BINDING AFFINITY PREDICTED BY RF-SCORE:    0.00 PKD
ROOT
HETATM    1  O   UNL     1     -11.976   7.600  73.043  1.00  0.00    -0.594 OA 
HETATM    2  C   UNL     1     -12.624   7.884  71.795  1.00  0.00    -0.328 C  
HETATM    3  H   UNL     1     -11.552   6.752  72.982  1.00  0.00     0.000 HD 
ENDROOT
BRANCH   2   4
HETATM    4  C   UNL     1     -13.311   9.256  71.894  1.00  0.00    -0.429 C  
BRANCH   4   5
HETATM    5  N   UNL     1     -12.367  10.342  71.579  1.00  0.00    -0.391 NA 
HETATM    6  H   UNL     1     -11.883  10.182  70.695  1.00  0.00     0.000 HD 
BRANCH   5   7
HETATM    7  C   UNL     1     -13.063  11.634  71.600  1.00  0.00    -0.351 C  
BRANCH   7   8
HETATM    8  C   UNL     1     -12.378  12.645  70.675  1.00  0.00    -0.290 C  
BRANCH   8   9
HETATM    9  N   UNL     1     -11.274  12.022  69.973  1.00  0.00    -0.475 N  
HETATM   10  H   UNL     1     -10.409  11.846  70.484  1.00  0.00     0.000 HD 
BRANCH   9  11
HETATM   11  C   UNL     1     -11.343  11.659  68.659  1.00  0.00    -0.267 C  
HETATM   12  O   UNL     1     -12.142  12.187  67.888  1.00  0.00    -0.502 OA 
BRANCH  11  13
HETATM   13  N   UNL     1     -10.461  10.675  68.264  1.00  0.00    -0.176 N  
HETATM   14  C   UNL     1     -10.892   9.683  67.277  1.00  0.00    -0.142 C  
HETATM   15  C   UNL     1     -10.026   9.769  66.015  1.00  0.00    -0.272 C  
HETATM   16  O   UNL     1      -8.629   9.645  66.337  1.00  0.00    -0.125 OA 
HETATM   17  C   UNL     1      -8.225  10.679  67.246  1.00  0.00    -0.116 C  
HETATM   18  C   UNL     1      -9.024  10.606  68.552  1.00  0.00    -0.156 C  
ENDBRANCH  11  13
ENDBRANCH   9  11
ENDBRANCH   8   9
ENDBRANCH   7   8
ENDBRANCH   5   7
ENDBRANCH   4   5
ENDBRANCH   2   4
BRANCH   2  19
HETATM   19  C   UNL     1     -11.597   7.898  70.655  1.00  0.00    -0.204 C  
BRANCH  19  20
HETATM   20  O   UNL     1     -11.647   6.649  69.951  1.00  0.00    -0.371 OA 
BRANCH  20  21
HETATM   21  C   UNL     1     -10.754   6.540  68.918  1.00  0.00    -0.273 A  
HETATM   22  C   UNL     1      -9.426   6.838  69.230  1.00  0.00    -0.142 A  
HETATM   23  H   UNL     1      -8.083   5.982  65.094  1.00  0.00     0.000 HD 
HETATM   24  O   UNL     1      -7.848   6.257  65.972  1.00  0.00    -0.100 OA 
HETATM   25  C   UNL     1      -8.433   6.751  68.251  1.00  0.00    -0.125 A  
HETATM   26  C   UNL     1      -8.776   6.349  66.964  1.00  0.00    -0.115 A  
HETATM   27  C   UNL     1     -11.082   6.115  67.628  1.00  0.00    -0.311 A  
HETATM   28  C   UNL     1     -10.090   6.022  66.650  1.00  0.00    -0.226 A  
ENDBRANCH  20  21
ENDBRANCH  19  20
ENDBRANCH   2  19
TORSDOF 10
ENDMDL
MODEL      197
REMARK 921   NORMALIZED FREE ENERGY PREDICTED BY IDOCK:   -4.18 KCAL/MOL
REMARK 922        TOTAL FREE ENERGY PREDICTED BY IDOCK:   -7.75 KCAL/MOL
REMARK 923 INTER-LIGAND FREE ENERGY PREDICTED BY IDOCK:   -7.05 KCAL/MOL
REMARK 924 INTRA-LIGAND FREE ENERGY PREDICTED BY IDOCK:   -0.70 KCAL/MOL
REMARK 927      BINDING AFFINITY PREDICTED BY RF-SCORE:    0.00 PKD
ROOT
HETATM    1  O   UNL     1     -10.764  14.355  69.348  1.00  0.00    -0.321 OA 
HETATM    2  C   UNL     1     -10.576  13.147  68.599  1.00  0.00    -0.239 C  
HETATM    3  H   UNL     1      -9.943  14.833  69.370  1.00  0.00     0.000 HD 
ENDROOT
BRANCH   2   4
HETATM    4  C   UNL     1     -11.905  12.373  68.565  1.00  0.00    -0.304 C  
BRANCH   4   5
HETATM    5  N   UNL     1     -11.668  10.919  68.579  1.00  0.00    -0.560 NA 
HETATM    6  H   UNL     1     -11.002  10.633  67.862  1.00  0.00     0.000 HD 
BRANCH   5   7
HETATM    7  C   UNL     1     -11.251  10.492  69.920  1.00  0.00    -0.307 C  
BRANCH   7   8
HETATM    8  C   UNL     1      -9.833   9.911  69.898  1.00  0.00    -0.245 C  
BRANCH   8   9
HETATM    9  N   UNL     1      -9.794   8.646  70.603  1.00  0.00    -0.175 N  
HETATM   10  H   UNL     1      -9.930   7.787  70.070  1.00  0.00     0.000 HD 
BRANCH   9  11
HETATM   11  C   UNL     1      -9.583   8.554  71.949  1.00  0.00    -0.283 C  
HETATM   12  O   UNL     1      -8.613   9.087  72.484  1.00  0.00    -0.328 OA 
BRANCH  11  13
HETATM   13  N   UNL     1     -10.527   7.838  72.653  1.00  0.00    -0.274 N  
HETATM   14  C   UNL     1     -11.934   7.925  72.255  1.00  0.00    -0.337 C  
HETATM   15  C   UNL     1     -12.457   6.548  71.828  1.00  0.00    -0.240 C  
HETATM   16  O   UNL     1     -12.243   5.570  72.861  1.00  0.00    -0.091 OA 
HETATM   17  C   UNL     1     -10.847   5.457  73.170  1.00  0.00    -0.285 C  
HETATM   18  C   UNL     1     -10.282   6.797  73.658  1.00  0.00    -0.326 C  
ENDBRANCH  11  13
ENDBRANCH   9  11
ENDBRANCH   8   9
ENDBRANCH   7   8
ENDBRANCH   5   7
ENDBRANCH   4   5
ENDBRANCH   2   4
BRANCH   2  19
HETATM   19  C   UNL     1     -10.128  13.474  67.168  1.00  0.00    -0.245 C  
BRANCH  19  20
HETATM   20  O   UNL     1     -11.086  12.954  66.236  1.00  0.00    -0.277 OA 
BRANCH  20  21
HETATM   21  C   UNL     1     -10.559  12.146  65.265  1.00  0.00    -0.281 A  
HETATM   22  C   UNL     1     -10.219  10.853  65.670  1.00  0.00    -0.323 A  
HETATM   23  H   UNL     1      -8.844   9.754  61.603  1.00  0.00     0.000 HD 
HETATM   24  O   UNL     1      -8.968   9.488  62.506  1.00  0.00    -0.246 OA 
HETATM   25  C   UNL     1      -9.679   9.944  64.757  1.00  0.00    -0.305 A  
HETATM   26  C   UNL     1      -9.498  10.333  63.434  1.00  0.00    -0.295 A  
HETATM   27  C   UNL     1     -10.392  12.515  63.929  1.00  0.00    -0.436 A  
HETATM   28  C   UNL     1      -9.860  11.607  63.012  1.00  0.00    -0.331 A  
ENDBRANCH  20  21
ENDBRANCH  19  20
ENDBRANCH   2  19
TORSDOF 10
ENDMDL
MODEL      198
REMARK 921   NORMALIZED FREE ENERGY PREDICTED BY IDOCK:   -4.17 KCAL/MOL
REMARK 922        TOTAL FREE ENERGY PREDICTED BY IDOCK:   -7.75 KCAL/MOL
REMARK 923 INTER-LIGAND FREE ENERGY PREDICTED BY IDOCK:   -6.13 KCAL/MOL
REMARK 924 INTRA-LIGAND FREE ENERGY PREDICTED BY IDOCK:   -1.63 KCAL/MOL
REMARK 927      BINDING AFFINITY PREDICTED BY RF-SCORE:    0.00 PKD
ROOT
HETATM    1  O   UNL     1      -8.699   6.254  68.753  1.00  0.00    -0.121 OA 
HETATM    2  C   UNL     1     -10.062   6.286  68.305  1.00  0.00    -0.153 C  
HETATM    3  H   UNL     1      -8.192   5.723  68.150  1.00  0.00     0.000 HD 
ENDROOT
BRANCH   2   4
HETATM    4  C   UNL     1     -10.884   7.145  69.282  1.00  0.00    -0.183 C  
BRANCH   4   5
HETATM    5  N   UNL     1     -11.010   8.527  68.790  1.00  0.00    -0.433 NA 
HETATM    6  H   UNL     1     -11.979   8.770  68.579  1.00  0.00     0.000 HD 
BRANCH   5   7
HETATM    7  C   UNL     1     -10.404   9.459  69.747  1.00  0.00    -0.223 C  
BRANCH   7   8
HETATM    8  C   UNL     1      -9.096  10.040  69.200  1.00  0.00    -0.184 C  
BRANCH   8   9
HETATM    9  N   UNL     1      -9.147  11.488  69.202  1.00  0.00    -0.378 N  
HETATM   10  H   UNL     1      -9.157  11.975  70.099  1.00  0.00     0.000 HD 
BRANCH   9  11
HETATM   11  C   UNL     1      -9.182  12.229  68.055  1.00  0.00    -0.195 C  
HETATM   12  O   UNL     1      -8.244  12.226  67.260  1.00  0.00    -0.167 OA 
BRANCH  11  13
HETATM   13  N   UNL     1     -10.331  12.963  67.854  1.00  0.00    -0.225 N  
HETATM   14  C   UNL     1     -10.248  14.425  67.821  1.00  0.00    -0.230 C  
HETATM   15  C   UNL     1     -10.695  14.957  66.454  1.00  0.00    -0.316 C  
HETATM   16  O   UNL     1     -12.008  14.479  66.116  1.00  0.00    -0.372 OA 
HETATM   17  C   UNL     1     -12.032  13.045  66.083  1.00  0.00    -0.427 C  
HETATM   18  C   UNL     1     -11.647  12.457  67.446  1.00  0.00    -0.365 C  
ENDBRANCH  11  13
ENDBRANCH   9  11
ENDBRANCH   8   9
ENDBRANCH   7   8
ENDBRANCH   5   7
ENDBRANCH   4   5
ENDBRANCH   2   4
BRANCH   2  19
HETATM   19  C   UNL     1     -10.142   6.883  66.894  1.00  0.00    -0.218 C  
BRANCH  19  20
HETATM   20  O   UNL     1      -8.952   7.638  66.625  1.00  0.00    -0.141 OA 
BRANCH  20  21
HETATM   21  C   UNL     1      -9.073   8.555  65.615  1.00  0.00    -0.132 A  
HETATM   22  C   UNL     1      -8.279   8.325  64.489  1.00  0.00    -0.138 A  
HETATM   23  H   UNL     1      -9.861  11.915  62.428  1.00  0.00     0.000 HD 
HETATM   24  O   UNL     1      -9.273  11.170  62.402  1.00  0.00    -0.309 OA 
HETATM   25  C   UNL     1      -8.330   9.196  63.397  1.00  0.00    -0.192 A  
HETATM   26  C   UNL     1      -9.192  10.287  63.435  1.00  0.00    -0.292 A  
HETATM   27  C   UNL     1      -9.950   9.641  65.630  1.00  0.00    -0.321 A  
HETATM   28  C   UNL     1     -10.008  10.509  64.539  1.00  0.00    -0.413 A  
ENDBRANCH  20  21
ENDBRANCH  19  20
ENDBRANCH   2  19
TORSDOF 10
ENDMDL
MODEL      199
REMARK 921   NORMALIZED FREE ENERGY PREDICTED BY IDOCK:   -4.17 KCAL/MOL
REMARK 922        TOTAL FREE ENERGY PREDICTED BY IDOCK:   -7.74 KCAL/MOL
REMARK 923 INTER-LIGAND FREE ENERGY PREDICTED BY IDOCK:   -6.76 KCAL/MOL
REMARK 924 INTRA-LIGAND FREE ENERGY PREDICTED BY IDOCK:   -0.99 KCAL/MOL
REMARK 927      BINDING AFFINITY PREDICTED BY RF-SCORE:    0.00 PKD
ROOT
HETATM    1  O   UNL     1     -11.280  13.154  68.020  1.00  0.00    -0.251 OA 
HETATM    2  C   UNL     1     -12.046  13.980  68.908  1.00  0.00    -0.316 C  
HETATM    3  H   UNL     1     -11.159  13.617  67.199  1.00  0.00     0.000 HD 
ENDROOT
BRANCH   2   4
HETATM    4  C   UNL     1     -12.243  13.231  70.237  1.00  0.00    -0.321 C  
BRANCH   4   5
HETATM    5  N   UNL     1     -11.525  11.945  70.227  1.00  0.00    -0.506 NA 
HETATM    6  H   UNL     1     -10.804  11.904  70.948  1.00  0.00     0.000 HD 
BRANCH   5   7
HETATM    7  C   UNL     1     -12.480  10.836  70.341  1.00  0.00    -0.347 C  
BRANCH   7   8
HETATM    8  C   UNL     1     -11.918   9.711  71.217  1.00  0.00    -0.380 C  
BRANCH   8   9
HETATM    9  N   UNL     1     -12.128   8.425  70.583  1.00  0.00    -0.493 N  
HETATM   10  H   UNL     1     -13.082   8.142  70.359  1.00  0.00     0.000 HD 
BRANCH   9  11
HETATM   11  C   UNL     1     -11.104   7.576  70.273  1.00  0.00    -0.248 C  
HETATM   12  O   UNL     1     -10.955   6.507  70.862  1.00  0.00    -0.246 OA 
BRANCH  11  13
HETATM   13  N   UNL     1     -10.266   7.997  69.261  1.00  0.00    -0.209 N  
HETATM   14  C   UNL     1     -10.784   8.082  67.894  1.00  0.00    -0.071 C  
HETATM   15  C   UNL     1     -10.718   9.526  67.383  1.00  0.00    -0.227 C  
HETATM   16  O   UNL     1      -9.385  10.053  67.493  1.00  0.00    -0.143 OA 
HETATM   17  C   UNL     1      -8.941  10.026  68.857  1.00  0.00    -0.152 C  
HETATM   18  C   UNL     1      -8.933   8.593  69.404  1.00  0.00    -0.145 C  
ENDBRANCH  11  13
ENDBRANCH   9  11
ENDBRANCH   8   9
ENDBRANCH   7   8
ENDBRANCH   5   7
ENDBRANCH   4   5
ENDBRANCH   2   4
BRANCH   2  19
HETATM   19  C   UNL     1     -11.314  15.305  69.163  1.00  0.00    -0.297 C  
BRANCH  19  20
HETATM   20  O   UNL     1     -10.029  15.272  68.527  1.00  0.00    -0.213 OA 
BRANCH  20  21
HETATM   21  C   UNL     1      -9.721  16.393  67.803  1.00  0.00    -0.235 A  
HETATM   22  C   UNL     1     -10.621  17.454  67.915  1.00  0.00    -0.383 A  
HETATM   23  H   UNL     1      -8.224  20.001  65.194  1.00  0.00     0.000 HD 
HETATM   24  O   UNL     1      -9.000  19.914  65.733  1.00  0.00    -0.329 OA 
HETATM   25  C   UNL     1     -10.398  18.648  67.224  1.00  0.00    -0.440 A  
HETATM   26  C   UNL     1      -9.260  18.776  66.434  1.00  0.00    -0.307 A  
HETATM   27  C   UNL     1      -8.571  16.543  67.024  1.00  0.00    -0.219 A  
HETATM   28  C   UNL     1      -8.342  17.736  66.338  1.00  0.00    -0.281 A  
ENDBRANCH  20  21
ENDBRANCH  19  20
ENDBRANCH   2  19
TORSDOF 10
ENDMDL
MODEL      200
REMARK 921   NORMALIZED FREE ENERGY PREDICTED BY IDOCK:   -4.16 KCAL/MOL
REMARK 922        TOTAL FREE ENERGY PREDICTED BY IDOCK:   -7.74 KCAL/MOL
REMARK 923 INTER-LIGAND FREE ENERGY PREDICTED BY IDOCK:   -6.67 KCAL/MOL
REMARK 924 INTRA-LIGAND FREE ENERGY PREDICTED BY IDOCK:   -1.06 KCAL/MOL
REMARK 927      BINDING AFFINITY PREDICTED BY RF-SCORE:    0.00 PKD
ROOT
HETATM    1  O   UNL     1      -8.698  11.258  63.952  1.00  0.00    -0.387 OA 
HETATM    2  C   UNL     1      -9.902  10.692  64.488  1.00  0.00    -0.327 C  
HETATM    3  H   UNL     1      -8.928  11.904  63.296  1.00  0.00     0.000 HD 
ENDROOT
BRANCH   2   4
HETATM    4  C   UNL     1      -9.528   9.645  65.551  1.00  0.00    -0.266 C  
BRANCH   4   5
HETATM    5  N   UNL     1      -8.639  10.225  66.571  1.00  0.00    -0.130 NA 
HETATM    6  H   UNL     1      -9.160  10.588  67.370  1.00  0.00     0.000 HD 
BRANCH   5   7
HETATM    7  C   UNL     1      -7.628   9.240  66.975  1.00  0.00    -0.091 C  
BRANCH   7   8
HETATM    8  C   UNL     1      -8.231   8.178  67.901  1.00  0.00    -0.129 C  
BRANCH   8   9
HETATM    9  N   UNL     1      -9.007   8.805  68.952  1.00  0.00    -0.134 N  
HETATM   10  H   UNL     1      -9.227   9.798  68.869  1.00  0.00     0.000 HD 
BRANCH   9  11
HETATM   11  C   UNL     1      -9.457   8.125  70.047  1.00  0.00    -0.167 C  
HETATM   12  O   UNL     1      -8.681   7.560  70.815  1.00  0.00    -0.137 OA 
BRANCH  11  13
HETATM   13  N   UNL     1     -10.824   8.123  70.228  1.00  0.00    -0.243 N  
HETATM   14  C   UNL     1     -11.541   6.846  70.243  1.00  0.00    -0.311 C  
HETATM   15  C   UNL     1     -12.223   6.630  71.599  1.00  0.00    -0.352 C  
HETATM   16  O   UNL     1     -13.078   7.738  71.931  1.00  0.00    -0.313 OA 
HETATM   17  C   UNL     1     -12.327   8.959  71.982  1.00  0.00    -0.390 C  
HETATM   18  C   UNL     1     -11.666   9.255  70.630  1.00  0.00    -0.222 C  
ENDBRANCH  11  13
ENDBRANCH   9  11
ENDBRANCH   8   9
ENDBRANCH   7   8
ENDBRANCH   5   7
ENDBRANCH   4   5
ENDBRANCH   2   4
BRANCH   2  19
HETATM   19  C   UNL     1     -10.767  11.790  65.122  1.00  0.00    -0.291 C  
BRANCH  19  20
HETATM   20  O   UNL     1     -11.276  11.330  66.382  1.00  0.00    -0.253 OA 
BRANCH  20  21
HETATM   21  C   UNL     1     -11.463  12.314  67.316  1.00  0.00    -0.357 A  
HETATM   22  C   UNL     1     -11.697  13.594  66.810  1.00  0.00    -0.426 A  
HETATM   23  H   UNL     1     -12.082  15.317  70.875  1.00  0.00     0.000 HD 
HETATM   24  O   UNL     1     -12.089  15.466  69.937  1.00  0.00    -0.330 OA 
HETATM   25  C   UNL     1     -11.908  14.670  67.676  1.00  0.00    -0.366 A  
HETATM   26  C   UNL     1     -11.898  14.451  69.050  1.00  0.00    -0.323 A  
HETATM   27  C   UNL     1     -11.478  12.104  68.696  1.00  0.00    -0.347 A  
HETATM   28  C   UNL     1     -11.694  13.176  69.564  1.00  0.00    -0.382 A  
ENDBRANCH  20  21
ENDBRANCH  19  20
ENDBRANCH   2  19
TORSDOF 10
ENDMDL
MODEL      201
REMARK 921   NORMALIZED FREE ENERGY PREDICTED BY IDOCK:   -4.16 KCAL/MOL
REMARK 922        TOTAL FREE ENERGY PREDICTED BY IDOCK:   -7.72 KCAL/MOL
REMARK 923 INTER-LIGAND FREE ENERGY PREDICTED BY IDOCK:   -6.91 KCAL/MOL
REMARK 924 INTRA-LIGAND FREE ENERGY PREDICTED BY IDOCK:   -0.82 KCAL/MOL
REMARK 927      BINDING AFFINITY PREDICTED BY RF-SCORE:    0.00 PKD
ROOT
HETATM    1  O   UNL     1     -11.505  13.707  70.478  1.00  0.00    -0.511 OA 
HETATM    2  C   UNL     1     -12.123  13.879  69.195  1.00  0.00    -0.338 C  
HETATM    3  H   UNL     1     -11.729  12.847  70.813  1.00  0.00     0.000 HD 
ENDROOT
BRANCH   2   4
HETATM    4  C   UNL     1     -11.760  15.271  68.652  1.00  0.00    -0.346 C  
BRANCH   4   5
HETATM    5  N   UNL     1     -11.036  15.166  67.374  1.00  0.00    -0.307 NA 
HETATM    6  H   UNL     1     -11.532  15.632  66.614  1.00  0.00     0.000 HD 
BRANCH   5   7
HETATM    7  C   UNL     1      -9.667  15.673  67.530  1.00  0.00    -0.222 C  
BRANCH   7   8
HETATM    8  C   UNL     1      -9.155  16.290  66.224  1.00  0.00    -0.331 C  
BRANCH   8   9
HETATM    9  N   UNL     1      -9.894  17.497  65.912  1.00  0.00    -0.160 N  
HETATM   10  H   UNL     1     -10.390  17.549  65.022  1.00  0.00     0.000 HD 
BRANCH   9  11
HETATM   11  C   UNL     1      -9.956  18.566  66.758  1.00  0.00    -0.360 C  
HETATM   12  O   UNL     1     -11.021  18.932  67.255  1.00  0.00    -0.436 OA 
BRANCH  11  13
HETATM   13  N   UNL     1      -8.756  19.193  67.018  1.00  0.00    -0.287 N  
HETATM   14  C   UNL     1      -8.363  19.438  68.407  1.00  0.00    -0.350 C  
HETATM   15  C   UNL     1      -7.064  18.693  68.737  1.00  0.00    -0.303 C  
HETATM   16  O   UNL     1      -6.021  19.036  67.808  1.00  0.00    -0.197 OA 
HETATM   17  C   UNL     1      -6.410  18.711  66.466  1.00  0.00    -0.183 C  
HETATM   18  C   UNL     1      -7.678  19.474  66.062  1.00  0.00    -0.312 C  
ENDBRANCH  11  13
ENDBRANCH   9  11
ENDBRANCH   8   9
ENDBRANCH   7   8
ENDBRANCH   5   7
ENDBRANCH   4   5
ENDBRANCH   2   4
BRANCH   2  19
HETATM   19  C   UNL     1     -11.634  12.798  68.222  1.00  0.00    -0.334 C  
BRANCH  19  20
HETATM   20  O   UNL     1     -10.626  12.000  68.858  1.00  0.00    -0.215 OA 
BRANCH  20  21
HETATM   21  C   UNL     1     -10.538  10.715  68.397  1.00  0.00    -0.199 A  
HETATM   22  C   UNL     1     -10.474  10.571  67.010  1.00  0.00    -0.304 A  
HETATM   23  H   UNL     1     -10.204   6.157  67.306  1.00  0.00     0.000 HD 
HETATM   24  O   UNL     1     -10.239   6.922  66.744  1.00  0.00    -0.219 OA 
HETATM   25  C   UNL     1     -10.375   9.302  66.433  1.00  0.00    -0.238 A  
HETATM   26  C   UNL     1     -10.326   8.181  67.255  1.00  0.00    -0.303 A  
HETATM   27  C   UNL     1     -10.465   9.583  69.212  1.00  0.00    -0.226 A  
HETATM   28  C   UNL     1     -10.359   8.314  68.639  1.00  0.00    -0.225 A  
ENDBRANCH  20  21
ENDBRANCH  19  20
ENDBRANCH   2  19
TORSDOF 10
ENDMDL
MODEL      202
REMARK 921   NORMALIZED FREE ENERGY PREDICTED BY IDOCK:   -4.15 KCAL/MOL
REMARK 922        TOTAL FREE ENERGY PREDICTED BY IDOCK:   -7.72 KCAL/MOL
REMARK 923 INTER-LIGAND FREE ENERGY PREDICTED BY IDOCK:   -6.87 KCAL/MOL
REMARK 924 INTRA-LIGAND FREE ENERGY PREDICTED BY IDOCK:   -0.85 KCAL/MOL
REMARK 927      BINDING AFFINITY PREDICTED BY RF-SCORE:    0.00 PKD
ROOT
HETATM    1  O   UNL     1     -11.025   7.074  66.632  1.00  0.00    -0.513 OA 
HETATM    2  C   UNL     1     -10.557   8.259  67.291  1.00  0.00    -0.265 C  
HETATM    3  H   UNL     1     -11.687   7.319  65.996  1.00  0.00     0.000 HD 
ENDROOT
BRANCH   2   4
HETATM    4  C   UNL     1      -9.487   7.862  68.323  1.00  0.00    -0.144 C  
BRANCH   4   5
HETATM    5  N   UNL     1      -9.914   8.216  69.687  1.00  0.00    -0.189 NA 
HETATM    6  H   UNL     1      -9.995   9.225  69.812  1.00  0.00     0.000 HD 
BRANCH   5   7
HETATM    7  C   UNL     1     -11.161   7.518  70.020  1.00  0.00    -0.204 C  
BRANCH   7   8
HETATM    8  C   UNL     1     -10.910   6.026  70.267  1.00  0.00    -0.329 C  
BRANCH   8   9
HETATM    9  N   UNL     1     -10.273   5.827  71.553  1.00  0.00    -0.196 N  
HETATM   10  H   UNL     1     -10.814   6.009  72.398  1.00  0.00     0.000 HD 
BRANCH   9  11
HETATM   11  C   UNL     1      -8.980   5.406  71.682  1.00  0.00    -0.136 C  
HETATM   12  O   UNL     1      -8.570   4.404  71.099  1.00  0.00    -0.094 OA 
BRANCH  11  13
HETATM   13  N   UNL     1      -8.179   6.179  72.495  1.00  0.00    -0.108 N  
HETATM   14  C   UNL     1      -7.002   6.836  71.923  1.00  0.00    -0.070 C  
HETATM   15  C   UNL     1      -7.124   8.359  72.045  1.00  0.00    -0.093 C  
HETATM   16  O   UNL     1      -7.357   8.752  73.409  1.00  0.00    -0.365 OA 
HETATM   17  C   UNL     1      -8.559   8.151  73.911  1.00  0.00    -0.222 C  
HETATM   18  C   UNL     1      -8.469   6.621  73.864  1.00  0.00    -0.124 C  
ENDBRANCH  11  13
ENDBRANCH   9  11
ENDBRANCH   8   9
ENDBRANCH   7   8
ENDBRANCH   5   7
ENDBRANCH   4   5
ENDBRANCH   2   4
BRANCH   2  19
HETATM   19  C   UNL     1      -9.957   9.232  66.268  1.00  0.00    -0.286 C  
BRANCH  19  20
HETATM   20  O   UNL     1     -10.099  10.577  66.746  1.00  0.00    -0.202 OA 
BRANCH  20  21
HETATM   21  C   UNL     1     -10.775  11.416  65.900  1.00  0.00    -0.255 A  
HETATM   22  C   UNL     1     -10.638  11.142  64.537  1.00  0.00    -0.397 A  
HETATM   23  H   UNL     1     -13.292  14.511  63.419  1.00  0.00     0.000 HD 
HETATM   24  O   UNL     1     -12.745  13.791  63.129  1.00  0.00    -0.743 OA 
HETATM   25  C   UNL     1     -11.291  11.932  63.588  1.00  0.00    -0.536 A  
HETATM   26  C   UNL     1     -12.094  12.986  64.013  1.00  0.00    -0.450 A  
HETATM   27  C   UNL     1     -11.601  12.463  66.314  1.00  0.00    -0.449 A  
HETATM   28  C   UNL     1     -12.260  13.250  65.368  1.00  0.00    -0.501 A  
ENDBRANCH  20  21
ENDBRANCH  19  20
ENDBRANCH   2  19
TORSDOF 10
ENDMDL
MODEL      203
REMARK 921   NORMALIZED FREE ENERGY PREDICTED BY IDOCK:   -4.15 KCAL/MOL
REMARK 922        TOTAL FREE ENERGY PREDICTED BY IDOCK:   -7.72 KCAL/MOL
REMARK 923 INTER-LIGAND FREE ENERGY PREDICTED BY IDOCK:   -6.80 KCAL/MOL
REMARK 924 INTRA-LIGAND FREE ENERGY PREDICTED BY IDOCK:   -0.92 KCAL/MOL
REMARK 927      BINDING AFFINITY PREDICTED BY RF-SCORE:    0.00 PKD
ROOT
HETATM    1  O   UNL     1      -9.699  11.691  64.478  1.00  0.00    -0.302 OA 
HETATM    2  C   UNL     1      -8.866  11.028  65.439  1.00  0.00    -0.147 C  
HETATM    3  H   UNL     1      -9.615  11.247  63.642  1.00  0.00     0.000 HD 
ENDROOT
BRANCH   2   4
HETATM    4  C   UNL     1      -9.002  11.748  66.792  1.00  0.00    -0.196 C  
BRANCH   4   5
HETATM    5  N   UNL     1     -10.365  12.273  66.975  1.00  0.00    -0.218 NA 
HETATM    6  H   UNL     1     -10.904  11.715  67.638  1.00  0.00     0.000 HD 
BRANCH   5   7
HETATM    7  C   UNL     1     -10.311  13.687  67.363  1.00  0.00    -0.244 C  
BRANCH   7   8
HETATM    8  C   UNL     1      -9.008  14.341  66.888  1.00  0.00    -0.236 C  
BRANCH   8   9
HETATM    9  N   UNL     1      -9.292  15.541  66.128  1.00  0.00    -0.322 N  
HETATM   10  H   UNL     1      -9.944  15.479  65.346  1.00  0.00     0.000 HD 
BRANCH   9  11
HETATM   11  C   UNL     1      -8.726  16.750  66.414  1.00  0.00    -0.302 C  
HETATM   12  O   UNL     1      -7.840  17.227  65.707  1.00  0.00    -0.495 OA 
BRANCH  11  13
HETATM   13  N   UNL     1      -9.217  17.389  67.533  1.00  0.00    -0.232 N  
HETATM   14  C   UNL     1      -8.277  17.890  68.539  1.00  0.00    -0.295 C  
HETATM   15  C   UNL     1      -8.394  19.413  68.671  1.00  0.00    -0.362 C  
HETATM   16  O   UNL     1      -9.750  19.806  68.949  1.00  0.00    -0.375 OA 
HETATM   17  C   UNL     1     -10.629  19.365  67.904  1.00  0.00    -0.385 C  
HETATM   18  C   UNL     1     -10.594  17.838  67.765  1.00  0.00    -0.386 C  
ENDBRANCH  11  13
ENDBRANCH   9  11
ENDBRANCH   8   9
ENDBRANCH   7   8
ENDBRANCH   5   7
ENDBRANCH   4   5
ENDBRANCH   2   4
BRANCH   2  19
HETATM   19  C   UNL     1      -9.292   9.561  65.587  1.00  0.00    -0.241 C  
BRANCH  19  20
HETATM   20  O   UNL     1     -10.509   9.488  66.342  1.00  0.00    -0.199 OA 
BRANCH  20  21
HETATM   21  C   UNL     1     -10.503   8.559  67.347  1.00  0.00    -0.280 A  
HETATM   22  C   UNL     1     -10.984   7.293  67.006  1.00  0.00    -0.243 A  
HETATM   23  H   UNL     1     -10.246   5.724  71.085  1.00  0.00     0.000 HD 
HETATM   24  O   UNL     1     -10.565   5.555  70.207  1.00  0.00    -0.279 OA 
HETATM   25  C   UNL     1     -11.016   6.268  67.956  1.00  0.00    -0.418 A  
HETATM   26  C   UNL     1     -10.548   6.516  69.242  1.00  0.00    -0.247 A  
HETATM   27  C   UNL     1     -10.016   8.788  68.636  1.00  0.00    -0.197 A  
HETATM   28  C   UNL     1     -10.040   7.764  69.585  1.00  0.00    -0.196 A  
ENDBRANCH  20  21
ENDBRANCH  19  20
ENDBRANCH   2  19
TORSDOF 10
ENDMDL
MODEL      204
REMARK 921   NORMALIZED FREE ENERGY PREDICTED BY IDOCK:   -4.15 KCAL/MOL
REMARK 922        TOTAL FREE ENERGY PREDICTED BY IDOCK:   -7.71 KCAL/MOL
REMARK 923 INTER-LIGAND FREE ENERGY PREDICTED BY IDOCK:   -6.97 KCAL/MOL
REMARK 924 INTRA-LIGAND FREE ENERGY PREDICTED BY IDOCK:   -0.74 KCAL/MOL
REMARK 927      BINDING AFFINITY PREDICTED BY RF-SCORE:    0.00 PKD
ROOT
HETATM    1  O   UNL     1     -11.674  13.184  70.244  1.00  0.00    -0.508 OA 
HETATM    2  C   UNL     1     -11.860  12.847  68.862  1.00  0.00    -0.309 C  
HETATM    3  H   UNL     1     -12.263  12.655  70.769  1.00  0.00     0.000 HD 
ENDROOT
BRANCH   2   4
HETATM    4  C   UNL     1     -10.907  13.704  68.011  1.00  0.00    -0.246 C  
BRANCH   4   5
HETATM    5  N   UNL     1      -9.592  13.053  67.877  1.00  0.00    -0.208 NA 
HETATM    6  H   UNL     1      -9.456  12.656  66.947  1.00  0.00     0.000 HD 
BRANCH   5   7
HETATM    7  C   UNL     1      -8.527  13.996  68.235  1.00  0.00    -0.171 C  
BRANCH   7   8
HETATM    8  C   UNL     1      -9.061  15.122  69.127  1.00  0.00    -0.215 C  
BRANCH   8   9
HETATM    9  N   UNL     1      -8.103  16.206  69.202  1.00  0.00    -0.237 N  
HETATM   10  H   UNL     1      -7.834  16.556  70.122  1.00  0.00     0.000 HD 
BRANCH   9  11
HETATM   11  C   UNL     1      -7.544  16.777  68.095  1.00  0.00    -0.177 C  
HETATM   12  O   UNL     1      -6.603  16.248  67.505  1.00  0.00    -0.133 OA 
BRANCH  11  13
HETATM   13  N   UNL     1      -8.108  17.968  67.689  1.00  0.00    -0.230 N  
HETATM   14  C   UNL     1      -8.455  18.149  66.278  1.00  0.00    -0.185 C  
HETATM   15  C   UNL     1      -9.964  18.372  66.121  1.00  0.00    -0.319 C  
HETATM   16  O   UNL     1     -10.413  19.467  66.937  1.00  0.00    -0.415 OA 
HETATM   17  C   UNL     1     -10.125  19.220  68.321  1.00  0.00    -0.425 C  
HETATM   18  C   UNL     1      -8.618  19.044  68.545  1.00  0.00    -0.358 C  
ENDBRANCH  11  13
ENDBRANCH   9  11
ENDBRANCH   8   9
ENDBRANCH   7   8
ENDBRANCH   5   7
ENDBRANCH   4   5
ENDBRANCH   2   4
BRANCH   2  19
HETATM   19  C   UNL     1     -11.565  11.359  68.634  1.00  0.00    -0.320 C  
BRANCH  19  20
HETATM   20  O   UNL     1     -10.720  10.872  69.685  1.00  0.00    -0.238 OA 
BRANCH  20  21
HETATM   21  C   UNL     1     -11.177   9.742  70.310  1.00  0.00    -0.288 A  
HETATM   22  C   UNL     1     -10.572   8.546  69.919  1.00  0.00    -0.228 A  
HETATM   23  H   UNL     1     -13.035   6.178  72.742  1.00  0.00     0.000 HD 
HETATM   24  O   UNL     1     -12.363   6.179  72.071  1.00  0.00    -0.290 OA 
HETATM   25  C   UNL     1     -10.960   7.334  70.498  1.00  0.00    -0.282 A  
HETATM   26  C   UNL     1     -11.943   7.333  71.481  1.00  0.00    -0.316 A  
HETATM   27  C   UNL     1     -12.147   9.729  71.314  1.00  0.00    -0.470 A  
HETATM   28  C   UNL     1     -12.532   8.521  71.899  1.00  0.00    -0.402 A  
ENDBRANCH  20  21
ENDBRANCH  19  20
ENDBRANCH   2  19
TORSDOF 10
ENDMDL
MODEL      205
REMARK 921   NORMALIZED FREE ENERGY PREDICTED BY IDOCK:   -4.12 KCAL/MOL
REMARK 922        TOTAL FREE ENERGY PREDICTED BY IDOCK:   -7.67 KCAL/MOL
REMARK 923 INTER-LIGAND FREE ENERGY PREDICTED BY IDOCK:   -6.74 KCAL/MOL
REMARK 924 INTRA-LIGAND FREE ENERGY PREDICTED BY IDOCK:   -0.93 KCAL/MOL
REMARK 927      BINDING AFFINITY PREDICTED BY RF-SCORE:    0.00 PKD
ROOT
HETATM    1  O   UNL     1      -6.658   8.324  70.632  1.00  0.00    -0.036 OA 
HETATM    2  C   UNL     1      -7.467   9.508  70.617  1.00  0.00    -0.118 C  
HETATM    3  H   UNL     1      -6.808   7.861  71.447  1.00  0.00     0.000 HD 
ENDROOT
BRANCH   2   4
HETATM    4  C   UNL     1      -7.223  10.259  69.297  1.00  0.00    -0.093 C  
BRANCH   4   5
HETATM    5  N   UNL     1      -7.622  11.672  69.413  1.00  0.00    -0.347 NA 
HETATM    6  H   UNL     1      -7.313  12.085  70.293  1.00  0.00     0.000 HD 
BRANCH   5   7
HETATM    7  C   UNL     1      -7.140  12.427  68.251  1.00  0.00    -0.098 C  
BRANCH   7   8
HETATM    8  C   UNL     1      -8.072  13.601  67.929  1.00  0.00    -0.164 C  
BRANCH   8   9
HETATM    9  N   UNL     1      -8.512  13.533  66.550  1.00  0.00    -0.391 N  
HETATM   10  H   UNL     1      -7.902  13.909  65.824  1.00  0.00     0.000 HD 
BRANCH   9  11
HETATM   11  C   UNL     1      -9.708  12.988  66.181  1.00  0.00    -0.251 C  
HETATM   12  O   UNL     1     -10.264  12.132  66.869  1.00  0.00    -0.207 OA 
BRANCH  11  13
HETATM   13  N   UNL     1     -10.244  13.464  65.003  1.00  0.00    -0.326 N  
HETATM   14  C   UNL     1     -10.357  12.562  63.854  1.00  0.00    -0.409 C  
HETATM   15  C   UNL     1     -11.826  12.389  63.451  1.00  0.00    -0.484 C  
HETATM   16  O   UNL     1     -12.449  13.663  63.207  1.00  0.00    -0.801 OA 
HETATM   17  C   UNL     1     -12.387  14.489  64.378  1.00  0.00    -0.413 C  
HETATM   18  C   UNL     1     -10.933  14.742  64.795  1.00  0.00    -0.379 C  
ENDBRANCH  11  13
ENDBRANCH   9  11
ENDBRANCH   8   9
ENDBRANCH   7   8
ENDBRANCH   5   7
ENDBRANCH   4   5
ENDBRANCH   2   4
BRANCH   2  19
HETATM   19  C   UNL     1      -8.951   9.138  70.738  1.00  0.00    -0.242 C  
BRANCH  19  20
HETATM   20  O   UNL     1      -9.644   9.540  69.548  1.00  0.00    -0.167 OA 
BRANCH  20  21
HETATM   21  C   UNL     1      -9.944   8.517  68.688  1.00  0.00    -0.184 A  
HETATM   22  C   UNL     1     -10.554   7.401  69.263  1.00  0.00    -0.220 A  
HETATM   23  H   UNL     1     -10.812   5.318  65.359  1.00  0.00     0.000 HD 
HETATM   24  O   UNL     1     -10.980   5.293  66.294  1.00  0.00    -0.237 OA 
HETATM   25  C   UNL     1     -10.908   6.303  68.474  1.00  0.00    -0.394 A  
HETATM   26  C   UNL     1     -10.662   6.339  67.105  1.00  0.00    -0.359 A  
HETATM   27  C   UNL     1      -9.723   8.550  67.310  1.00  0.00    -0.239 A  
HETATM   28  C   UNL     1     -10.082   7.458  66.518  1.00  0.00    -0.176 A  
ENDBRANCH  20  21
ENDBRANCH  19  20
ENDBRANCH   2  19
TORSDOF 10
ENDMDL
MODEL      206
REMARK 921   NORMALIZED FREE ENERGY PREDICTED BY IDOCK:   -4.09 KCAL/MOL
REMARK 922        TOTAL FREE ENERGY PREDICTED BY IDOCK:   -7.62 KCAL/MOL
REMARK 923 INTER-LIGAND FREE ENERGY PREDICTED BY IDOCK:   -6.96 KCAL/MOL
REMARK 924 INTRA-LIGAND FREE ENERGY PREDICTED BY IDOCK:   -0.66 KCAL/MOL
REMARK 927      BINDING AFFINITY PREDICTED BY RF-SCORE:    0.00 PKD
ROOT
HETATM    1  O   UNL     1     -11.546   6.328  66.659  1.00  0.00    -0.613 OA 
HETATM    2  C   UNL     1     -10.452   6.673  67.521  1.00  0.00    -0.239 C  
HETATM    3  H   UNL     1     -11.737   5.403  66.763  1.00  0.00     0.000 HD 
ENDROOT
BRANCH   2   4
HETATM    4  C   UNL     1     -10.142   8.171  67.353  1.00  0.00    -0.233 C  
BRANCH   4   5
HETATM    5  N   UNL     1      -9.724   8.471  65.973  1.00  0.00    -0.451 NA 
HETATM    6  H   UNL     1     -10.305   7.991  65.285  1.00  0.00     0.000 HD 
BRANCH   5   7
HETATM    7  C   UNL     1      -9.702   9.922  65.759  1.00  0.00    -0.266 C  
BRANCH   7   8
HETATM    8  C   UNL     1     -10.651  10.638  66.728  1.00  0.00    -0.237 C  
BRANCH   8   9
HETATM    9  N   UNL     1     -10.934  11.979  66.259  1.00  0.00    -0.286 N  
HETATM   10  H   UNL     1     -11.415  12.092  65.366  1.00  0.00     0.000 HD 
BRANCH   9  11
HETATM   11  C   UNL     1     -10.586  13.097  66.960  1.00  0.00    -0.258 C  
HETATM   12  O   UNL     1     -10.699  13.149  68.184  1.00  0.00    -0.229 OA 
BRANCH  11  13
HETATM   13  N   UNL     1     -10.100  14.146  66.209  1.00  0.00    -0.290 N  
HETATM   14  C   UNL     1     -10.707  14.433  64.907  1.00  0.00    -0.426 C  
HETATM   15  C   UNL     1     -11.322  15.838  64.900  1.00  0.00    -0.280 C  
HETATM   16  O   UNL     1     -10.352  16.830  65.279  1.00  0.00    -0.622 OA 
HETATM   17  C   UNL     1      -9.837  16.559  66.590  1.00  0.00    -0.268 C  
HETATM   18  C   UNL     1      -9.158  15.185  66.640  1.00  0.00    -0.280 C  
ENDBRANCH  11  13
ENDBRANCH   9  11
ENDBRANCH   8   9
ENDBRANCH   7   8
ENDBRANCH   5   7
ENDBRANCH   4   5
ENDBRANCH   2   4
BRANCH   2  19
HETATM   19  C   UNL     1     -10.815   6.378  68.982  1.00  0.00    -0.327 C  
BRANCH  19  20
HETATM   20  O   UNL     1      -9.660   5.879  69.671  1.00  0.00    -0.143 OA 
BRANCH  20  21
HETATM   21  C   UNL     1      -9.279   6.619  70.759  1.00  0.00    -0.155 A  
HETATM   22  C   UNL     1      -8.165   6.145  71.455  1.00  0.00    -0.123 A  
HETATM   23  H   UNL     1      -8.338   9.491  74.355  1.00  0.00     0.000 HD 
HETATM   24  O   UNL     1      -7.904   8.694  74.076  1.00  0.00    -0.404 OA 
HETATM   25  C   UNL     1      -7.688   6.828  72.576  1.00  0.00    -0.096 A  
HETATM   26  C   UNL     1      -8.324   7.996  72.985  1.00  0.00    -0.185 A  
HETATM   27  C   UNL     1      -9.894   7.804  71.167  1.00  0.00    -0.187 A  
HETATM   28  C   UNL     1      -9.416   8.493  72.283  1.00  0.00    -0.365 A  
ENDBRANCH  20  21
ENDBRANCH  19  20
ENDBRANCH   2  19
TORSDOF 10
ENDMDL
MODEL      207
REMARK 921   NORMALIZED FREE ENERGY PREDICTED BY IDOCK:   -4.07 KCAL/MOL
REMARK 922        TOTAL FREE ENERGY PREDICTED BY IDOCK:   -7.59 KCAL/MOL
REMARK 923 INTER-LIGAND FREE ENERGY PREDICTED BY IDOCK:   -6.31 KCAL/MOL
REMARK 924 INTRA-LIGAND FREE ENERGY PREDICTED BY IDOCK:   -1.29 KCAL/MOL
REMARK 927      BINDING AFFINITY PREDICTED BY RF-SCORE:    0.00 PKD
ROOT
HETATM    1  O   UNL     1      -9.962   6.958  65.967  1.00  0.00    -0.408 OA 
HETATM    2  C   UNL     1      -9.182   6.189  66.893  1.00  0.00    -0.128 C  
HETATM    3  H   UNL     1     -10.486   6.365  65.442  1.00  0.00     0.000 HD 
ENDROOT
BRANCH   2   4
HETATM    4  C   UNL     1      -8.332   7.149  67.743  1.00  0.00    -0.118 C  
BRANCH   4   5
HETATM    5  N   UNL     1      -9.023   8.435  67.935  1.00  0.00    -0.137 NA 
HETATM    6  H   UNL     1     -10.021   8.367  67.731  1.00  0.00     0.000 HD 
BRANCH   5   7
HETATM    7  C   UNL     1      -8.772   8.943  69.288  1.00  0.00    -0.138 C  
BRANCH   7   8
HETATM    8  C   UNL     1      -7.630   9.966  69.291  1.00  0.00    -0.101 C  
BRANCH   8   9
HETATM    9  N   UNL     1      -8.157  11.312  69.199  1.00  0.00    -0.363 N  
HETATM   10  H   UNL     1      -8.621  11.711  70.015  1.00  0.00     0.000 HD 
BRANCH   9  11
HETATM   11  C   UNL     1      -8.060  12.069  68.066  1.00  0.00    -0.153 C  
HETATM   12  O   UNL     1      -6.973  12.294  67.536  1.00  0.00    -0.114 OA 
BRANCH  11  13
HETATM   13  N   UNL     1      -9.251  12.549  67.564  1.00  0.00    -0.181 N  
HETATM   14  C   UNL     1      -9.691  12.118  66.235  1.00  0.00    -0.238 C  
HETATM   15  C   UNL     1     -11.023  11.365  66.328  1.00  0.00    -0.247 C  
HETATM   16  O   UNL     1     -12.018  12.156  67.002  1.00  0.00    -0.593 OA 
HETATM   17  C   UNL     1     -11.586  12.493  68.327  1.00  0.00    -0.328 C  
HETATM   18  C   UNL     1     -10.281  13.299  68.291  1.00  0.00    -0.250 C  
ENDBRANCH  11  13
ENDBRANCH   9  11
ENDBRANCH   8   9
ENDBRANCH   7   8
ENDBRANCH   5   7
ENDBRANCH   4   5
ENDBRANCH   2   4
BRANCH   2  19
HETATM   19  C   UNL     1     -10.102   5.364  67.804  1.00  0.00    -0.171 C  
BRANCH  19  20
HETATM   20  O   UNL     1     -10.970   6.245  68.531  1.00  0.00    -0.302 OA 
BRANCH  20  21
HETATM   21  C   UNL     1     -11.006   6.025  69.882  1.00  0.00    -0.388 A  
HETATM   22  C   UNL     1     -10.125   5.054  70.362  1.00  0.00    -0.330 A  
HETATM   23  H   UNL     1     -11.462   5.662  74.544  1.00  0.00     0.000 HD 
HETATM   24  O   UNL     1     -10.898   5.190  73.943  1.00  0.00    -0.289 OA 
HETATM   25  C   UNL     1     -10.075   4.756  71.727  1.00  0.00    -0.261 A  
HETATM   26  C   UNL     1     -10.901   5.448  72.606  1.00  0.00    -0.256 A  
HETATM   27  C   UNL     1     -11.814   6.728  70.779  1.00  0.00    -0.446 A  
HETATM   28  C   UNL     1     -11.761   6.437  72.143  1.00  0.00    -0.366 A  
ENDBRANCH  20  21
ENDBRANCH  19  20
ENDBRANCH   2  19
TORSDOF 10
ENDMDL
MODEL      208
REMARK 921   NORMALIZED FREE ENERGY PREDICTED BY IDOCK:   -4.07 KCAL/MOL
REMARK 922        TOTAL FREE ENERGY PREDICTED BY IDOCK:   -7.59 KCAL/MOL
REMARK 923 INTER-LIGAND FREE ENERGY PREDICTED BY IDOCK:   -6.61 KCAL/MOL
REMARK 924 INTRA-LIGAND FREE ENERGY PREDICTED BY IDOCK:   -0.98 KCAL/MOL
REMARK 927      BINDING AFFINITY PREDICTED BY RF-SCORE:    0.00 PKD
ROOT
HETATM    1  O   UNL     1      -9.466   8.829  72.327  1.00  0.00    -0.293 OA 
HETATM    2  C   UNL     1     -10.098   8.733  71.043  1.00  0.00    -0.237 C  
HETATM    3  H   UNL     1      -8.683   8.291  72.323  1.00  0.00     0.000 HD 
ENDROOT
BRANCH   2   4
HETATM    4  C   UNL     1     -11.367   9.603  71.049  1.00  0.00    -0.374 C  
BRANCH   4   5
HETATM    5  N   UNL     1     -11.090  10.942  70.503  1.00  0.00    -0.402 NA 
HETATM    6  H   UNL     1     -10.526  10.899  69.654  1.00  0.00     0.000 HD 
BRANCH   5   7
HETATM    7  C   UNL     1     -12.348  11.668  70.292  1.00  0.00    -0.258 C  
BRANCH   7   8
HETATM    8  C   UNL     1     -12.085  13.133  69.927  1.00  0.00    -0.287 C  
BRANCH   8   9
HETATM    9  N   UNL     1     -11.002  13.229  68.970  1.00  0.00    -0.350 N  
HETATM   10  H   UNL     1     -10.046  13.290  69.319  1.00  0.00     0.000 HD 
BRANCH   9  11
HETATM   11  C   UNL     1     -11.207  13.242  67.620  1.00  0.00    -0.280 C  
HETATM   12  O   UNL     1     -12.055  12.523  67.092  1.00  0.00    -0.504 OA 
BRANCH  11  13
HETATM   13  N   UNL     1     -10.412  14.110  66.903  1.00  0.00    -0.271 N  
HETATM   14  C   UNL     1     -10.363  13.995  65.444  1.00  0.00    -0.359 C  
HETATM   15  C   UNL     1     -10.877  15.282  64.787  1.00  0.00    -0.358 C  
HETATM   16  O   UNL     1     -10.157  16.431  65.266  1.00  0.00    -0.545 OA 
HETATM   17  C   UNL     1     -10.291  16.555  66.690  1.00  0.00    -0.298 C  
HETATM   18  C   UNL     1      -9.739  15.314  67.403  1.00  0.00    -0.208 C  
ENDBRANCH  11  13
ENDBRANCH   9  11
ENDBRANCH   8   9
ENDBRANCH   7   8
ENDBRANCH   5   7
ENDBRANCH   4   5
ENDBRANCH   2   4
BRANCH   2  19
HETATM   19  C   UNL     1      -9.142   9.216  69.944  1.00  0.00    -0.178 C  
BRANCH  19  20
HETATM   20  O   UNL     1      -9.801   9.144  68.671  1.00  0.00    -0.156 OA 
BRANCH  20  21
HETATM   21  C   UNL     1      -9.802   7.901  68.098  1.00  0.00    -0.169 A  
HETATM   22  C   UNL     1     -10.988   7.526  67.464  1.00  0.00    -0.133 A  
HETATM   23  H   UNL     1      -9.309   3.606  66.257  1.00  0.00     0.000 HD 
HETATM   24  O   UNL     1     -10.056   4.193  66.257  1.00  0.00    -0.206 OA 
HETATM   25  C   UNL     1     -11.095   6.280  66.841  1.00  0.00    -0.329 A  
HETATM   26  C   UNL     1     -10.001   5.421  66.842  1.00  0.00    -0.184 A  
HETATM   27  C   UNL     1      -8.704   7.038  68.072  1.00  0.00    -0.126 A  
HETATM   28  C   UNL     1      -8.806   5.795  67.444  1.00  0.00    -0.106 A  
ENDBRANCH  20  21
ENDBRANCH  19  20
ENDBRANCH   2  19
TORSDOF 10
ENDMDL
MODEL      209
REMARK 921   NORMALIZED FREE ENERGY PREDICTED BY IDOCK:   -4.07 KCAL/MOL
REMARK 922        TOTAL FREE ENERGY PREDICTED BY IDOCK:   -7.59 KCAL/MOL
REMARK 923 INTER-LIGAND FREE ENERGY PREDICTED BY IDOCK:   -6.80 KCAL/MOL
REMARK 924 INTRA-LIGAND FREE ENERGY PREDICTED BY IDOCK:   -0.79 KCAL/MOL
REMARK 927      BINDING AFFINITY PREDICTED BY RF-SCORE:    0.00 PKD
ROOT
HETATM    1  O   UNL     1     -11.423  14.671  66.639  1.00  0.00    -0.351 OA 
HETATM    2  C   UNL     1     -11.246  15.342  67.895  1.00  0.00    -0.331 C  
HETATM    3  H   UNL     1     -11.958  15.216  66.074  1.00  0.00     0.000 HD 
ENDROOT
BRANCH   2   4
HETATM    4  C   UNL     1     -10.379  14.460  68.809  1.00  0.00    -0.241 C  
BRANCH   4   5
HETATM    5  N   UNL     1     -10.757  13.042  68.686  1.00  0.00    -0.252 NA 
HETATM    6  H   UNL     1      -9.956  12.421  68.809  1.00  0.00     0.000 HD 
BRANCH   5   7
HETATM    7  C   UNL     1     -11.844  12.728  69.619  1.00  0.00    -0.317 C  
BRANCH   7   8
HETATM    8  C   UNL     1     -12.154  11.227  69.624  1.00  0.00    -0.322 C  
BRANCH   8   9
HETATM    9  N   UNL     1     -11.264  10.530  70.531  1.00  0.00    -0.402 N  
HETATM   10  H   UNL     1     -11.423  10.621  71.534  1.00  0.00     0.000 HD 
BRANCH   9  11
HETATM   11  C   UNL     1     -10.224   9.758  70.100  1.00  0.00    -0.275 C  
HETATM   12  O   UNL     1      -9.422  10.169  69.263  1.00  0.00    -0.195 OA 
BRANCH  11  13
HETATM   13  N   UNL     1     -10.136   8.504  70.668  1.00  0.00    -0.188 N  
HETATM   14  C   UNL     1      -9.783   8.386  72.085  1.00  0.00    -0.300 C  
HETATM   15  C   UNL     1     -10.921   7.720  72.868  1.00  0.00    -0.407 C  
HETATM   16  O   UNL     1     -11.277   6.453  72.287  1.00  0.00    -0.250 OA 
HETATM   17  C   UNL     1     -11.691   6.619  70.924  1.00  0.00    -0.375 C  
HETATM   18  C   UNL     1     -10.567   7.232  70.079  1.00  0.00    -0.233 C  
ENDBRANCH  11  13
ENDBRANCH   9  11
ENDBRANCH   8   9
ENDBRANCH   7   8
ENDBRANCH   5   7
ENDBRANCH   4   5
ENDBRANCH   2   4
BRANCH   2  19
HETATM   19  C   UNL     1     -10.562  16.698  67.680  1.00  0.00    -0.321 C  
BRANCH  19  20
HETATM   20  O   UNL     1      -9.157  16.498  67.471  1.00  0.00    -0.197 OA 
BRANCH  20  21
HETATM   21  C   UNL     1      -8.379  17.593  67.736  1.00  0.00    -0.226 A  
HETATM   22  C   UNL     1      -7.200  17.693  66.994  1.00  0.00    -0.212 A  
HETATM   23  H   UNL     1      -6.083  21.506  68.958  1.00  0.00     0.000 HD 
HETATM   24  O   UNL     1      -5.857  20.832  68.329  1.00  0.00    -0.277 OA 
HETATM   25  C   UNL     1      -6.336  18.775  67.180  1.00  0.00    -0.193 A  
HETATM   26  C   UNL     1      -6.668  19.762  68.103  1.00  0.00    -0.273 A  
HETATM   27  C   UNL     1      -8.711  18.602  68.642  1.00  0.00    -0.333 A  
HETATM   28  C   UNL     1      -7.853  19.688  68.826  1.00  0.00    -0.332 A  
ENDBRANCH  20  21
ENDBRANCH  19  20
ENDBRANCH   2  19
TORSDOF 10
ENDMDL
MODEL      210
REMARK 921   NORMALIZED FREE ENERGY PREDICTED BY IDOCK:   -4.07 KCAL/MOL
REMARK 922        TOTAL FREE ENERGY PREDICTED BY IDOCK:   -7.59 KCAL/MOL
REMARK 923 INTER-LIGAND FREE ENERGY PREDICTED BY IDOCK:   -6.68 KCAL/MOL
REMARK 924 INTRA-LIGAND FREE ENERGY PREDICTED BY IDOCK:   -0.91 KCAL/MOL
REMARK 927      BINDING AFFINITY PREDICTED BY RF-SCORE:    0.00 PKD
ROOT
HETATM    1  O   UNL     1      -9.487  11.956  63.182  1.00  0.00    -0.581 OA 
HETATM    2  C   UNL     1     -10.084  11.525  64.414  1.00  0.00    -0.282 C  
HETATM    3  H   UNL     1     -10.107  12.506  62.718  1.00  0.00     0.000 HD 
ENDROOT
BRANCH   2   4
HETATM    4  C   UNL     1      -9.081  10.633  65.165  1.00  0.00    -0.201 C  
BRANCH   4   5
HETATM    5  N   UNL     1      -9.581  10.292  66.507  1.00  0.00    -0.175 NA 
HETATM    6  H   UNL     1     -10.186  11.021  66.886  1.00  0.00     0.000 HD 
BRANCH   5   7
HETATM    7  C   UNL     1     -10.247   8.985  66.477  1.00  0.00    -0.248 C  
BRANCH   7   8
HETATM    8  C   UNL     1     -10.733   8.580  67.873  1.00  0.00    -0.082 C  
BRANCH   8   9
HETATM    9  N   UNL     1     -11.108   7.180  67.891  1.00  0.00    -0.518 N  
HETATM   10  H   UNL     1     -11.359   6.731  67.010  1.00  0.00     0.000 HD 
BRANCH   9  11
HETATM   11  C   UNL     1     -11.141   6.438  69.037  1.00  0.00    -0.358 C  
HETATM   12  O   UNL     1     -11.978   6.646  69.913  1.00  0.00    -0.301 OA 
BRANCH  11  13
HETATM   13  N   UNL     1     -10.186   5.448  69.133  1.00  0.00    -0.223 N  
HETATM   14  C   UNL     1      -9.195   5.304  68.064  1.00  0.00    -0.113 C  
HETATM   15  C   UNL     1      -7.780   5.532  68.608  1.00  0.00    -0.088 C  
HETATM   16  O   UNL     1      -7.508   4.663  69.722  1.00  0.00    -0.053 OA 
HETATM   17  C   UNL     1      -8.451   4.887  70.781  1.00  0.00    -0.110 C  
HETATM   18  C   UNL     1      -9.884   4.618  70.305  1.00  0.00    -0.243 C  
ENDBRANCH  11  13
ENDBRANCH   9  11
ENDBRANCH   8   9
ENDBRANCH   7   8
ENDBRANCH   5   7
ENDBRANCH   4   5
ENDBRANCH   2   4
BRANCH   2  19
HETATM   19  C   UNL     1     -10.449  12.739  65.279  1.00  0.00    -0.292 C  
BRANCH  19  20
HETATM   20  O   UNL     1     -11.482  12.373  66.205  1.00  0.00    -0.339 OA 
BRANCH  20  21
HETATM   21  C   UNL     1     -11.556  13.165  67.319  1.00  0.00    -0.355 A  
HETATM   22  C   UNL     1     -11.576  14.541  67.086  1.00  0.00    -0.406 A  
HETATM   23  H   UNL     1     -11.861  15.446  71.415  1.00  0.00     0.000 HD 
HETATM   24  O   UNL     1     -11.808  15.781  70.528  1.00  0.00    -0.330 OA 
HETATM   25  C   UNL     1     -11.658  15.440  68.153  1.00  0.00    -0.331 A  
HETATM   26  C   UNL     1     -11.735  14.949  69.453  1.00  0.00    -0.319 A  
HETATM   27  C   UNL     1     -11.658  12.686  68.627  1.00  0.00    -0.356 A  
HETATM   28  C   UNL     1     -11.746  13.580  69.695  1.00  0.00    -0.378 A  
ENDBRANCH  20  21
ENDBRANCH  19  20
ENDBRANCH   2  19
TORSDOF 10
ENDMDL
MODEL      211
REMARK 921   NORMALIZED FREE ENERGY PREDICTED BY IDOCK:   -4.06 KCAL/MOL
REMARK 922        TOTAL FREE ENERGY PREDICTED BY IDOCK:   -7.56 KCAL/MOL
REMARK 923 INTER-LIGAND FREE ENERGY PREDICTED BY IDOCK:   -6.80 KCAL/MOL
REMARK 924 INTRA-LIGAND FREE ENERGY PREDICTED BY IDOCK:   -0.77 KCAL/MOL
REMARK 927      BINDING AFFINITY PREDICTED BY RF-SCORE:    0.00 PKD
ROOT
HETATM    1  O   UNL     1      -6.681  12.275  66.714  1.00  0.00    -0.364 OA 
HETATM    2  C   UNL     1      -7.943  11.619  66.896  1.00  0.00    -0.161 C  
HETATM    3  H   UNL     1      -6.818  13.069  66.209  1.00  0.00     0.000 HD 
ENDROOT
BRANCH   2   4
HETATM    4  C   UNL     1      -7.721  10.335  67.712  1.00  0.00    -0.090 C  
BRANCH   4   5
HETATM    5  N   UNL     1      -8.880  10.052  68.575  1.00  0.00    -0.117 NA 
HETATM    6  H   UNL     1      -9.762  10.288  68.120  1.00  0.00     0.000 HD 
BRANCH   5   7
HETATM    7  C   UNL     1      -8.846   8.654  69.020  1.00  0.00    -0.138 C  
BRANCH   7   8
HETATM    8  C   UNL     1      -9.983   7.845  68.384  1.00  0.00    -0.180 C  
BRANCH   8   9
HETATM    9  N   UNL     1     -11.066   7.666  69.330  1.00  0.00    -0.450 N  
HETATM   10  H   UNL     1     -11.667   6.848  69.234  1.00  0.00     0.000 HD 
BRANCH   9  11
HETATM   11  C   UNL     1     -11.315   8.546  70.344  1.00  0.00    -0.182 C  
HETATM   12  O   UNL     1     -11.468   9.747  70.129  1.00  0.00    -0.245 OA 
BRANCH  11  13
HETATM   13  N   UNL     1     -11.388   7.996  71.607  1.00  0.00    -0.253 N  
HETATM   14  C   UNL     1     -12.252   6.835  71.831  1.00  0.00    -0.335 C  
HETATM   15  C   UNL     1     -11.422   5.629  72.288  1.00  0.00    -0.217 C  
HETATM   16  O   UNL     1     -10.634   5.953  73.447  1.00  0.00    -0.229 OA 
HETATM   17  C   UNL     1      -9.746   7.045  73.167  1.00  0.00    -0.184 C  
HETATM   18  C   UNL     1     -10.529   8.298  72.757  1.00  0.00    -0.258 C  
ENDBRANCH  11  13
ENDBRANCH   9  11
ENDBRANCH   8   9
ENDBRANCH   7   8
ENDBRANCH   5   7
ENDBRANCH   4   5
ENDBRANCH   2   4
BRANCH   2  19
HETATM   19  C   UNL     1      -8.919  12.543  67.637  1.00  0.00    -0.185 C  
BRANCH  19  20
HETATM   20  O   UNL     1     -10.266  12.207  67.274  1.00  0.00    -0.201 OA 
BRANCH  20  21
HETATM   21  C   UNL     1     -10.871  13.100  66.432  1.00  0.00    -0.287 A  
HETATM   22  C   UNL     1     -10.199  14.310  66.246  1.00  0.00    -0.307 A  
HETATM   23  H   UNL     1     -13.297  15.799  63.448  1.00  0.00     0.000 HD 
HETATM   24  O   UNL     1     -12.481  15.968  63.904  1.00  0.00    -0.806 OA 
HETATM   25  C   UNL     1     -10.726  15.290  65.401  1.00  0.00    -0.407 A  
HETATM   26  C   UNL     1     -11.921  15.043  64.732  1.00  0.00    -0.311 A  
HETATM   27  C   UNL     1     -12.058  12.857  65.737  1.00  0.00    -0.513 A  
HETATM   28  C   UNL     1     -12.583  13.831  64.887  1.00  0.00    -0.380 A  
ENDBRANCH  20  21
ENDBRANCH  19  20
ENDBRANCH   2  19
TORSDOF 10
ENDMDL
MODEL      212
REMARK 921   NORMALIZED FREE ENERGY PREDICTED BY IDOCK:   -4.05 KCAL/MOL
REMARK 922        TOTAL FREE ENERGY PREDICTED BY IDOCK:   -7.55 KCAL/MOL
REMARK 923 INTER-LIGAND FREE ENERGY PREDICTED BY IDOCK:   -6.58 KCAL/MOL
REMARK 924 INTRA-LIGAND FREE ENERGY PREDICTED BY IDOCK:   -0.97 KCAL/MOL
REMARK 927      BINDING AFFINITY PREDICTED BY RF-SCORE:    0.00 PKD
ROOT
HETATM    1  O   UNL     1     -10.989   6.953  66.766  1.00  0.00    -0.513 OA 
HETATM    2  C   UNL     1     -10.400   8.206  67.137  1.00  0.00    -0.321 C  
HETATM    3  H   UNL     1     -11.679   7.114  66.133  1.00  0.00     0.000 HD 
ENDROOT
BRANCH   2   4
HETATM    4  C   UNL     1      -9.283   7.944  68.162  1.00  0.00    -0.136 C  
BRANCH   4   5
HETATM    5  N   UNL     1      -9.145   9.078  69.092  1.00  0.00    -0.139 NA 
HETATM    6  H   UNL     1      -8.690   9.879  68.653  1.00  0.00     0.000 HD 
BRANCH   5   7
HETATM    7  C   UNL     1     -10.454   9.428  69.654  1.00  0.00    -0.223 C  
BRANCH   7   8
HETATM    8  C   UNL     1     -10.995   8.300  70.540  1.00  0.00    -0.242 C  
BRANCH   8   9
HETATM    9  N   UNL     1      -9.999   7.900  71.512  1.00  0.00    -0.170 N  
HETATM   10  H   UNL     1      -9.029   8.174  71.358  1.00  0.00     0.000 HD 
BRANCH   9  11
HETATM   11  C   UNL     1     -10.303   7.171  72.627  1.00  0.00    -0.215 C  
HETATM   12  O   UNL     1     -11.064   7.606  73.490  1.00  0.00    -0.315 OA 
BRANCH  11  13
HETATM   13  N   UNL     1      -9.711   5.929  72.708  1.00  0.00    -0.156 N  
HETATM   14  C   UNL     1     -10.046   5.050  73.830  1.00  0.00    -0.198 C  
HETATM   15  C   UNL     1     -10.696   3.757  73.324  1.00  0.00    -0.197 C  
HETATM   16  O   UNL     1      -9.861   3.104  72.352  1.00  0.00    -0.138 OA 
HETATM   17  C   UNL     1      -9.618   3.967  71.232  1.00  0.00    -0.175 C  
HETATM   18  C   UNL     1      -8.915   5.257  71.675  1.00  0.00    -0.135 C  
ENDBRANCH  11  13
ENDBRANCH   9  11
ENDBRANCH   8   9
ENDBRANCH   7   8
ENDBRANCH   5   7
ENDBRANCH   4   5
ENDBRANCH   2   4
BRANCH   2  19
HETATM   19  C   UNL     1      -9.818   8.906  65.902  1.00  0.00    -0.129 C  
BRANCH  19  20
HETATM   20  O   UNL     1      -9.443  10.248  66.243  1.00  0.00    -0.165 OA 
BRANCH  20  21
HETATM   21  C   UNL     1     -10.380  11.198  65.939  1.00  0.00    -0.259 A  
HETATM   22  C   UNL     1     -10.783  12.013  66.999  1.00  0.00    -0.280 A  
HETATM   23  H   UNL     1     -13.549  14.309  64.407  1.00  0.00     0.000 HD 
HETATM   24  O   UNL     1     -13.190  14.176  65.276  1.00  0.00    -0.760 OA 
HETATM   25  C   UNL     1     -11.731  13.020  66.797  1.00  0.00    -0.440 A  
HETATM   26  C   UNL     1     -12.258  13.215  65.524  1.00  0.00    -0.461 A  
HETATM   27  C   UNL     1     -10.900  11.419  64.662  1.00  0.00    -0.359 A  
HETATM   28  C   UNL     1     -11.842  12.429  64.456  1.00  0.00    -0.452 A  
ENDBRANCH  20  21
ENDBRANCH  19  20
ENDBRANCH   2  19
TORSDOF 10
ENDMDL
MODEL      213
REMARK 921   NORMALIZED FREE ENERGY PREDICTED BY IDOCK:   -4.04 KCAL/MOL
REMARK 922        TOTAL FREE ENERGY PREDICTED BY IDOCK:   -7.54 KCAL/MOL
REMARK 923 INTER-LIGAND FREE ENERGY PREDICTED BY IDOCK:   -7.00 KCAL/MOL
REMARK 924 INTRA-LIGAND FREE ENERGY PREDICTED BY IDOCK:   -0.55 KCAL/MOL
REMARK 927      BINDING AFFINITY PREDICTED BY RF-SCORE:    0.00 PKD
ROOT
HETATM    1  O   UNL     1     -12.391  10.956  68.347  1.00  0.00    -0.803 OA 
HETATM    2  C   UNL     1     -11.060  11.296  68.759  1.00  0.00    -0.233 C  
HETATM    3  H   UNL     1     -12.924  11.743  68.352  1.00  0.00     0.000 HD 
ENDROOT
BRANCH   2   4
HETATM    4  C   UNL     1     -10.198  10.023  68.751  1.00  0.00    -0.186 C  
BRANCH   4   5
HETATM    5  N   UNL     1     -10.914   8.898  69.377  1.00  0.00    -0.418 NA 
HETATM    6  H   UNL     1     -11.287   8.249  68.684  1.00  0.00     0.000 HD 
BRANCH   5   7
HETATM    7  C   UNL     1     -10.042   8.227  70.348  1.00  0.00    -0.190 C  
BRANCH   7   8
HETATM    8  C   UNL     1     -10.224   8.812  71.752  1.00  0.00    -0.338 C  
BRANCH   8   9
HETATM    9  N   UNL     1     -11.228   8.067  72.484  1.00  0.00    -0.362 N  
HETATM   10  H   UNL     1     -11.624   8.480  73.328  1.00  0.00     0.000 HD 
BRANCH   9  11
HETATM   11  C   UNL     1     -11.667   6.835  72.091  1.00  0.00    -0.297 C  
HETATM   12  O   UNL     1     -12.653   6.705  71.367  1.00  0.00    -0.325 OA 
BRANCH  11  13
HETATM   13  N   UNL     1     -10.932   5.764  72.554  1.00  0.00    -0.247 N  
HETATM   14  C   UNL     1     -10.274   4.880  71.589  1.00  0.00    -0.197 C  
HETATM   15  C   UNL     1      -8.754   4.907  71.786  1.00  0.00    -0.128 C  
HETATM   16  O   UNL     1      -8.402   4.590  73.145  1.00  0.00    -0.098 OA 
HETATM   17  C   UNL     1      -9.002   5.522  74.055  1.00  0.00    -0.119 C  
HETATM   18  C   UNL     1     -10.531   5.496  73.939  1.00  0.00    -0.279 C  
ENDBRANCH  11  13
ENDBRANCH   9  11
ENDBRANCH   8   9
ENDBRANCH   7   8
ENDBRANCH   5   7
ENDBRANCH   4   5
ENDBRANCH   2   4
BRANCH   2  19
HETATM   19  C   UNL     1     -10.459  12.337  67.804  1.00  0.00    -0.209 C  
BRANCH  19  20
HETATM   20  O   UNL     1     -11.491  13.227  67.354  1.00  0.00    -0.297 OA 
BRANCH  20  21
HETATM   21  C   UNL     1     -11.207  14.557  67.513  1.00  0.00    -0.321 A  
HETATM   22  C   UNL     1     -11.400  15.069  68.797  1.00  0.00    -0.306 A  
HETATM   23  H   UNL     1     -10.068  19.114  67.570  1.00  0.00     0.000 HD 
HETATM   24  O   UNL     1     -10.393  18.553  68.264  1.00  0.00    -0.369 OA 
HETATM   25  C   UNL     1     -11.135  16.414  69.070  1.00  0.00    -0.315 A  
HETATM   26  C   UNL     1     -10.659  17.235  68.053  1.00  0.00    -0.394 A  
HETATM   27  C   UNL     1     -10.708  15.387  66.507  1.00  0.00    -0.308 A  
HETATM   28  C   UNL     1     -10.435  16.728  66.778  1.00  0.00    -0.258 A  
ENDBRANCH  20  21
ENDBRANCH  19  20
ENDBRANCH   2  19
TORSDOF 10
ENDMDL
MODEL      214
REMARK 921   NORMALIZED FREE ENERGY PREDICTED BY IDOCK:   -4.04 KCAL/MOL
REMARK 922        TOTAL FREE ENERGY PREDICTED BY IDOCK:   -7.54 KCAL/MOL
REMARK 923 INTER-LIGAND FREE ENERGY PREDICTED BY IDOCK:   -6.10 KCAL/MOL
REMARK 924 INTRA-LIGAND FREE ENERGY PREDICTED BY IDOCK:   -1.44 KCAL/MOL
REMARK 927      BINDING AFFINITY PREDICTED BY RF-SCORE:    0.00 PKD
ROOT
HETATM    1  O   UNL     1     -10.264   7.146  67.182  1.00  0.00    -0.204 OA 
HETATM    2  C   UNL     1      -9.132   7.883  66.701  1.00  0.00    -0.163 C  
HETATM    3  H   UNL     1      -9.967   6.511  67.822  1.00  0.00     0.000 HD 
ENDROOT
BRANCH   2   4
HETATM    4  C   UNL     1      -9.614   8.911  65.663  1.00  0.00    -0.105 C  
BRANCH   4   5
HETATM    5  N   UNL     1      -8.495   9.739  65.183  1.00  0.00    -0.140 NA 
HETATM    6  H   UNL     1      -7.902   9.235  64.523  1.00  0.00     0.000 HD 
BRANCH   5   7
HETATM    7  C   UNL     1      -9.004  10.994  64.618  1.00  0.00    -0.072 C  
BRANCH   7   8
HETATM    8  C   UNL     1     -10.280  10.754  63.802  1.00  0.00    -0.288 C  
BRANCH   8   9
HETATM    9  N   UNL     1     -10.790  12.007  63.284  1.00  0.00    -0.657 N  
HETATM   10  H   UNL     1     -10.234  12.512  62.594  1.00  0.00     0.000 HD 
BRANCH   9  11
HETATM   11  C   UNL     1     -11.984  12.540  63.679  1.00  0.00    -0.537 C  
HETATM   12  O   UNL     1     -13.054  12.030  63.352  1.00  0.00    -0.747 OA 
BRANCH  11  13
HETATM   13  N   UNL     1     -11.902  13.670  64.465  1.00  0.00    -0.394 N  
HETATM   14  C   UNL     1     -12.855  13.846  65.563  1.00  0.00    -0.431 C  
HETATM   15  C   UNL     1     -12.121  13.902  66.907  1.00  0.00    -0.430 C  
HETATM   16  O   UNL     1     -11.104  14.919  66.900  1.00  0.00    -0.325 OA 
HETATM   17  C   UNL     1     -10.146  14.671  65.861  1.00  0.00    -0.320 C  
HETATM   18  C   UNL     1     -10.820  14.660  64.484  1.00  0.00    -0.188 C  
ENDBRANCH  11  13
ENDBRANCH   9  11
ENDBRANCH   8   9
ENDBRANCH   7   8
ENDBRANCH   5   7
ENDBRANCH   4   5
ENDBRANCH   2   4
BRANCH   2  19
HETATM   19  C   UNL     1      -8.436   8.604  67.863  1.00  0.00    -0.129 C  
BRANCH  19  20
HETATM   20  O   UNL     1      -9.180   9.781  68.211  1.00  0.00    -0.129 OA 
BRANCH  20  21
HETATM   21  C   UNL     1      -8.414  10.885  68.470  1.00  0.00    -0.147 A  
HETATM   22  C   UNL     1      -7.168  10.637  69.048  1.00  0.00    -0.095 A  
HETATM   23  H   UNL     1      -6.153  14.951  69.126  1.00  0.00     0.000 HD 
HETATM   24  O   UNL     1      -5.889  14.062  69.329  1.00  0.00    -0.082 OA 
HETATM   25  C   UNL     1      -6.303  11.694  69.348  1.00  0.00    -0.106 A  
HETATM   26  C   UNL     1      -6.690  12.996  69.050  1.00  0.00    -0.099 A  
HETATM   27  C   UNL     1      -8.780  12.196  68.155  1.00  0.00    -0.185 A  
HETATM   28  C   UNL     1      -7.916  13.253  68.447  1.00  0.00    -0.132 A  
ENDBRANCH  20  21
ENDBRANCH  19  20
ENDBRANCH   2  19
TORSDOF 10
ENDMDL
MODEL      215
REMARK 921   NORMALIZED FREE ENERGY PREDICTED BY IDOCK:   -4.03 KCAL/MOL
REMARK 922        TOTAL FREE ENERGY PREDICTED BY IDOCK:   -7.52 KCAL/MOL
REMARK 923 INTER-LIGAND FREE ENERGY PREDICTED BY IDOCK:   -5.94 KCAL/MOL
REMARK 924 INTRA-LIGAND FREE ENERGY PREDICTED BY IDOCK:   -1.57 KCAL/MOL
REMARK 927      BINDING AFFINITY PREDICTED BY RF-SCORE:    0.00 PKD
ROOT
HETATM    1  O   UNL     1      -8.946   4.762  71.534  1.00  0.00    -0.129 OA 
HETATM    2  C   UNL     1      -9.241   5.774  70.561  1.00  0.00    -0.147 C  
HETATM    3  H   UNL     1      -8.460   5.156  72.248  1.00  0.00     0.000 HD 
ENDROOT
BRANCH   2   4
HETATM    4  C   UNL     1     -10.028   5.135  69.404  1.00  0.00    -0.222 C  
BRANCH   4   5
HETATM    5  N   UNL     1      -9.346   5.357  68.118  1.00  0.00    -0.111 NA 
HETATM    6  H   UNL     1      -8.605   4.675  67.955  1.00  0.00     0.000 HD 
BRANCH   5   7
HETATM    7  C   UNL     1     -10.327   5.375  67.026  1.00  0.00    -0.248 C  
BRANCH   7   8
HETATM    8  C   UNL     1     -10.930   6.773  66.848  1.00  0.00    -0.300 C  
BRANCH   8   9
HETATM    9  N   UNL     1      -9.918   7.706  66.397  1.00  0.00    -0.457 N  
HETATM   10  H   UNL     1      -9.245   7.394  65.696  1.00  0.00     0.000 HD 
BRANCH   9  11
HETATM   11  C   UNL     1      -9.826   8.984  66.868  1.00  0.00    -0.224 C  
HETATM   12  O   UNL     1     -10.774   9.765  66.796  1.00  0.00    -0.170 OA 
BRANCH  11  13
HETATM   13  N   UNL     1      -8.615   9.328  67.430  1.00  0.00    -0.122 N  
HETATM   14  C   UNL     1      -8.112  10.694  67.263  1.00  0.00    -0.116 C  
HETATM   15  C   UNL     1      -7.965  11.382  68.625  1.00  0.00    -0.141 C  
HETATM   16  O   UNL     1      -7.143  10.604  69.512  1.00  0.00    -0.099 OA 
HETATM   17  C   UNL     1      -7.707   9.300  69.713  1.00  0.00    -0.096 C  
HETATM   18  C   UNL     1      -7.825   8.542  68.385  1.00  0.00    -0.106 C  
ENDBRANCH  11  13
ENDBRANCH   9  11
ENDBRANCH   8   9
ENDBRANCH   7   8
ENDBRANCH   5   7
ENDBRANCH   4   5
ENDBRANCH   2   4
BRANCH   2  19
HETATM   19  C   UNL     1     -10.073   6.895  71.198  1.00  0.00    -0.191 C  
BRANCH  19  20
HETATM   20  O   UNL     1     -10.817   7.578  70.179  1.00  0.00    -0.243 OA 
BRANCH  20  21
HETATM   21  C   UNL     1     -11.493   8.686  70.611  1.00  0.00    -0.228 A  
HETATM   22  C   UNL     1     -12.431   8.469  71.623  1.00  0.00    -0.370 A  
HETATM   23  H   UNL     1     -13.510  12.764  71.783  1.00  0.00     0.000 HD 
HETATM   24  O   UNL     1     -13.658  11.888  72.117  1.00  0.00    -0.377 OA 
HETATM   25  C   UNL     1     -13.173   9.534  72.142  1.00  0.00    -0.539 A  
HETATM   26  C   UNL     1     -12.956  10.818  71.652  1.00  0.00    -0.476 A  
HETATM   27  C   UNL     1     -11.270   9.984  70.145  1.00  0.00    -0.367 A  
HETATM   28  C   UNL     1     -12.005  11.050  70.666  1.00  0.00    -0.464 A  
ENDBRANCH  20  21
ENDBRANCH  19  20
ENDBRANCH   2  19
TORSDOF 10
ENDMDL
MODEL      216
REMARK 921   NORMALIZED FREE ENERGY PREDICTED BY IDOCK:   -4.01 KCAL/MOL
REMARK 922        TOTAL FREE ENERGY PREDICTED BY IDOCK:   -7.50 KCAL/MOL
REMARK 923 INTER-LIGAND FREE ENERGY PREDICTED BY IDOCK:   -6.87 KCAL/MOL
REMARK 924 INTRA-LIGAND FREE ENERGY PREDICTED BY IDOCK:   -0.63 KCAL/MOL
REMARK 927      BINDING AFFINITY PREDICTED BY RF-SCORE:    0.00 PKD
ROOT
HETATM    1  O   UNL     1     -11.338   9.663  68.640  1.00  0.00    -0.480 OA 
HETATM    2  C   UNL     1     -10.904  10.430  69.771  1.00  0.00    -0.292 C  
HETATM    3  H   UNL     1     -10.583   9.235  68.253  1.00  0.00     0.000 HD 
ENDROOT
BRANCH   2   4
HETATM    4  C   UNL     1     -12.126  11.124  70.398  1.00  0.00    -0.385 C  
BRANCH   4   5
HETATM    5  N   UNL     1     -11.880  12.565  70.575  1.00  0.00    -0.529 NA 
HETATM    6  H   UNL     1     -11.197  12.748  71.310  1.00  0.00     0.000 HD 
BRANCH   5   7
HETATM    7  C   UNL     1     -11.488  13.169  69.296  1.00  0.00    -0.291 C  
BRANCH   7   8
HETATM    8  C   UNL     1     -11.325  14.687  69.429  1.00  0.00    -0.284 C  
BRANCH   8   9
HETATM    9  N   UNL     1      -9.933  15.060  69.276  1.00  0.00    -0.279 N  
HETATM   10  H   UNL     1      -9.280  14.825  70.024  1.00  0.00     0.000 HD 
BRANCH   9  11
HETATM   11  C   UNL     1      -9.459  15.712  68.174  1.00  0.00    -0.195 C  
HETATM   12  O   UNL     1      -9.071  15.098  67.182  1.00  0.00    -0.192 OA 
BRANCH  11  13
HETATM   13  N   UNL     1      -9.453  17.089  68.252  1.00  0.00    -0.257 N  
HETATM   14  C   UNL     1      -8.185  17.787  68.474  1.00  0.00    -0.296 C  
HETATM   15  C   UNL     1      -7.865  18.709  67.291  1.00  0.00    -0.232 C  
HETATM   16  O   UNL     1      -8.950  19.619  67.037  1.00  0.00    -0.293 OA 
HETATM   17  C   UNL     1     -10.157  18.900  66.748  1.00  0.00    -0.375 C  
HETATM   18  C   UNL     1     -10.556  18.000  67.924  1.00  0.00    -0.372 C  
ENDBRANCH  11  13
ENDBRANCH   9  11
ENDBRANCH   8   9
ENDBRANCH   7   8
ENDBRANCH   5   7
ENDBRANCH   4   5
ENDBRANCH   2   4
BRANCH   2  19
HETATM   19  C   UNL     1     -10.237   9.516  70.808  1.00  0.00    -0.293 C  
BRANCH  19  20
HETATM   20  O   UNL     1      -9.922   8.255  70.202  1.00  0.00    -0.184 OA 
BRANCH  20  21
HETATM   21  C   UNL     1     -10.171   7.164  70.991  1.00  0.00    -0.196 A  
HETATM   22  C   UNL     1     -10.762   7.432  72.228  1.00  0.00    -0.275 A  
HETATM   23  H   UNL     1     -10.863   3.134  73.304  1.00  0.00     0.000 HD 
HETATM   24  O   UNL     1     -11.053   4.029  73.559  1.00  0.00    -0.240 OA 
HETATM   25  C   UNL     1     -11.065   6.390  73.108  1.00  0.00    -0.194 A  
HETATM   26  C   UNL     1     -10.786   5.079  72.735  1.00  0.00    -0.244 A  
HETATM   27  C   UNL     1      -9.917   5.842  70.620  1.00  0.00    -0.251 A  
HETATM   28  C   UNL     1     -10.225   4.798  71.495  1.00  0.00    -0.246 A  
ENDBRANCH  20  21
ENDBRANCH  19  20
ENDBRANCH   2  19
TORSDOF 10
ENDMDL
MODEL      217
REMARK 921   NORMALIZED FREE ENERGY PREDICTED BY IDOCK:   -4.01 KCAL/MOL
REMARK 922        TOTAL FREE ENERGY PREDICTED BY IDOCK:   -7.50 KCAL/MOL
REMARK 923 INTER-LIGAND FREE ENERGY PREDICTED BY IDOCK:   -6.71 KCAL/MOL
REMARK 924 INTRA-LIGAND FREE ENERGY PREDICTED BY IDOCK:   -0.78 KCAL/MOL
REMARK 927      BINDING AFFINITY PREDICTED BY RF-SCORE:    0.00 PKD
ROOT
HETATM    1  O   UNL     1     -12.805   7.529  71.027  1.00  0.00    -0.530 OA 
HETATM    2  C   UNL     1     -11.727   8.074  71.801  1.00  0.00    -0.291 C  
HETATM    3  H   UNL     1     -13.605   7.991  71.249  1.00  0.00     0.000 HD 
ENDROOT
BRANCH   2   4
HETATM    4  C   UNL     1     -10.432   7.325  71.442  1.00  0.00    -0.203 C  
BRANCH   4   5
HETATM    5  N   UNL     1     -10.480   5.932  71.916  1.00  0.00    -0.213 NA 
HETATM    6  H   UNL     1     -11.375   5.707  72.351  1.00  0.00     0.000 HD 
BRANCH   5   7
HETATM    7  C   UNL     1     -10.157   5.016  70.816  1.00  0.00    -0.237 C  
BRANCH   7   8
HETATM    8  C   UNL     1     -10.211   5.736  69.463  1.00  0.00    -0.239 C  
BRANCH   8   9
HETATM    9  N   UNL     1      -9.635   4.904  68.425  1.00  0.00    -0.139 N  
HETATM   10  H   UNL     1      -9.237   4.003  68.688  1.00  0.00     0.000 HD 
BRANCH   9  11
HETATM   11  C   UNL     1      -9.603   5.277  67.112  1.00  0.00    -0.141 C  
HETATM   12  O   UNL     1     -10.234   4.661  66.254  1.00  0.00    -0.245 OA 
BRANCH  11  13
HETATM   13  N   UNL     1      -8.829   6.381  66.823  1.00  0.00    -0.121 N  
HETATM   14  C   UNL     1      -9.486   7.635  66.449  1.00  0.00    -0.161 C  
HETATM   15  C   UNL     1      -9.156   8.737  67.463  1.00  0.00    -0.133 C  
HETATM   16  O   UNL     1      -7.734   8.892  67.616  1.00  0.00    -0.099 OA 
HETATM   17  C   UNL     1      -7.136   7.665  68.057  1.00  0.00    -0.085 C  
HETATM   18  C   UNL     1      -7.388   6.537  67.049  1.00  0.00    -0.079 C  
ENDBRANCH  11  13
ENDBRANCH   9  11
ENDBRANCH   8   9
ENDBRANCH   7   8
ENDBRANCH   5   7
ENDBRANCH   4   5
ENDBRANCH   2   4
BRANCH   2  19
HETATM   19  C   UNL     1     -11.562   9.570  71.501  1.00  0.00    -0.395 C  
BRANCH  19  20
HETATM   20  O   UNL     1     -12.844  10.212  71.554  1.00  0.00    -0.370 OA 
BRANCH  20  21
HETATM   21  C   UNL     1     -12.810  11.570  71.378  1.00  0.00    -0.384 A  
HETATM   22  C   UNL     1     -13.525  12.321  72.314  1.00  0.00    -0.365 A  
HETATM   23  H   UNL     1     -12.363  16.141  70.391  1.00  0.00     0.000 HD 
HETATM   24  O   UNL     1     -12.845  15.707  71.084  1.00  0.00    -0.462 OA 
HETATM   25  C   UNL     1     -13.551  13.715  72.231  1.00  0.00    -0.669 A  
HETATM   26  C   UNL     1     -12.845  14.351  71.215  1.00  0.00    -0.342 A  
HETATM   27  C   UNL     1     -12.088  12.222  70.377  1.00  0.00    -0.385 A  
HETATM   28  C   UNL     1     -12.107  13.615  70.295  1.00  0.00    -0.427 A  
ENDBRANCH  20  21
ENDBRANCH  19  20
ENDBRANCH   2  19
TORSDOF 10
ENDMDL
MODEL      218
REMARK 921   NORMALIZED FREE ENERGY PREDICTED BY IDOCK:   -4.01 KCAL/MOL
REMARK 922        TOTAL FREE ENERGY PREDICTED BY IDOCK:   -7.49 KCAL/MOL
REMARK 923 INTER-LIGAND FREE ENERGY PREDICTED BY IDOCK:   -6.66 KCAL/MOL
REMARK 924 INTRA-LIGAND FREE ENERGY PREDICTED BY IDOCK:   -0.83 KCAL/MOL
REMARK 927      BINDING AFFINITY PREDICTED BY RF-SCORE:    0.00 PKD
ROOT
HETATM    1  O   UNL     1     -10.218  15.729  68.927  1.00  0.00    -0.202 OA 
HETATM    2  C   UNL     1     -10.345  14.832  67.815  1.00  0.00    -0.244 C  
HETATM    3  H   UNL     1     -11.034  16.204  69.032  1.00  0.00     0.000 HD 
ENDROOT
BRANCH   2   4
HETATM    4  C   UNL     1      -9.023  14.063  67.646  1.00  0.00    -0.194 C  
BRANCH   4   5
HETATM    5  N   UNL     1      -8.434  13.733  68.954  1.00  0.00    -0.357 NA 
HETATM    6  H   UNL     1      -9.149  13.580  69.667  1.00  0.00     0.000 HD 
BRANCH   5   7
HETATM    7  C   UNL     1      -7.532  12.583  68.823  1.00  0.00    -0.049 C  
BRANCH   7   8
HETATM    8  C   UNL     1      -8.227  11.413  68.118  1.00  0.00    -0.143 C  
BRANCH   8   9
HETATM    9  N   UNL     1      -7.874  10.159  68.752  1.00  0.00    -0.092 N  
HETATM   10  H   UNL     1      -7.165   9.572  68.311  1.00  0.00     0.000 HD 
BRANCH   9  11
HETATM   11  C   UNL     1      -8.449   9.729  69.914  1.00  0.00    -0.201 C  
HETATM   12  O   UNL     1      -7.802   9.640  70.956  1.00  0.00    -0.310 OA 
BRANCH  11  13
HETATM   13  N   UNL     1      -9.789   9.414  69.836  1.00  0.00    -0.196 N  
HETATM   14  C   UNL     1     -10.188   8.129  69.258  1.00  0.00    -0.214 C  
HETATM   15  C   UNL     1     -10.929   7.280  70.297  1.00  0.00    -0.260 C  
HETATM   16  O   UNL     1     -12.045   7.998  70.851  1.00  0.00    -0.263 OA 
HETATM   17  C   UNL     1     -11.607   9.213  71.476  1.00  0.00    -0.368 C  
HETATM   18  C   UNL     1     -10.905  10.128  70.465  1.00  0.00    -0.273 C  
ENDBRANCH  11  13
ENDBRANCH   9  11
ENDBRANCH   8   9
ENDBRANCH   7   8
ENDBRANCH   5   7
ENDBRANCH   4   5
ENDBRANCH   2   4
BRANCH   2  19
HETATM   19  C   UNL     1     -11.493  13.844  68.059  1.00  0.00    -0.307 C  
BRANCH  19  20
HETATM   20  O   UNL     1     -12.268  13.704  66.859  1.00  0.00    -0.399 OA 
BRANCH  20  21
HETATM   21  C   UNL     1     -11.696  12.914  65.898  1.00  0.00    -0.399 A  
HETATM   22  C   UNL     1     -11.700  13.436  64.603  1.00  0.00    -0.406 A  
HETATM   23  H   UNL     1      -9.602   9.885  62.981  1.00  0.00     0.000 HD 
HETATM   24  O   UNL     1      -9.999  10.730  62.808  1.00  0.00    -0.274 OA 
HETATM   25  C   UNL     1     -11.136  12.714  63.547  1.00  0.00    -0.449 A  
HETATM   26  C   UNL     1     -10.554  11.476  63.802  1.00  0.00    -0.406 A  
HETATM   27  C   UNL     1     -11.089  11.681  66.143  1.00  0.00    -0.335 A  
HETATM   28  C   UNL     1     -10.518  10.961  65.092  1.00  0.00    -0.316 A  
ENDBRANCH  20  21
ENDBRANCH  19  20
ENDBRANCH   2  19
TORSDOF 10
ENDMDL
MODEL      219
REMARK 921   NORMALIZED FREE ENERGY PREDICTED BY IDOCK:   -4.01 KCAL/MOL
REMARK 922        TOTAL FREE ENERGY PREDICTED BY IDOCK:   -7.49 KCAL/MOL
REMARK 923 INTER-LIGAND FREE ENERGY PREDICTED BY IDOCK:   -6.15 KCAL/MOL
REMARK 924 INTRA-LIGAND FREE ENERGY PREDICTED BY IDOCK:   -1.34 KCAL/MOL
REMARK 927      BINDING AFFINITY PREDICTED BY RF-SCORE:    0.00 PKD
ROOT
HETATM    1  O   UNL     1      -7.513  10.824  64.362  1.00  0.00    -0.347 OA 
HETATM    2  C   UNL     1      -8.417  10.552  65.442  1.00  0.00    -0.170 C  
HETATM    3  H   UNL     1      -6.636  10.918  64.713  1.00  0.00     0.000 HD 
ENDROOT
BRANCH   2   4
HETATM    4  C   UNL     1      -9.838  10.399  64.873  1.00  0.00    -0.334 C  
BRANCH   4   5
HETATM    5  N   UNL     1     -10.845  10.479  65.944  1.00  0.00     0.008 NA 
HETATM    6  H   UNL     1     -10.739   9.727  66.625  1.00  0.00     0.000 HD 
BRANCH   5   7
HETATM    7  C   UNL     1     -10.805  11.803  66.574  1.00  0.00    -0.282 C  
BRANCH   7   8
HETATM    8  C   UNL     1     -11.688  11.847  67.826  1.00  0.00    -0.292 C  
BRANCH   8   9
HETATM    9  N   UNL     1     -11.654  10.571  68.512  1.00  0.00    -0.495 N  
HETATM   10  H   UNL     1     -12.294   9.837  68.209  1.00  0.00     0.000 HD 
BRANCH   9  11
HETATM   11  C   UNL     1     -10.802  10.310  69.547  1.00  0.00    -0.256 C  
HETATM   12  O   UNL     1      -9.583  10.399  69.414  1.00  0.00    -0.217 OA 
BRANCH  11  13
HETATM   13  N   UNL     1     -11.401   9.950  70.736  1.00  0.00    -0.326 N  
HETATM   14  C   UNL     1     -12.641  10.615  71.141  1.00  0.00    -0.423 C  
HETATM   15  C   UNL     1     -13.784   9.599  71.251  1.00  0.00    -0.157 C  
HETATM   16  O   UNL     1     -13.433   8.518  72.133  1.00  0.00    -0.351 OA 
HETATM   17  C   UNL     1     -12.258   7.842  71.663  1.00  0.00    -0.308 C  
HETATM   18  C   UNL     1     -11.065   8.803  71.587  1.00  0.00    -0.327 C  
ENDBRANCH  11  13
ENDBRANCH   9  11
ENDBRANCH   8   9
ENDBRANCH   7   8
ENDBRANCH   5   7
ENDBRANCH   4   5
ENDBRANCH   2   4
BRANCH   2  19
HETATM   19  C   UNL     1      -8.006   9.262  66.165  1.00  0.00    -0.107 C  
BRANCH  19  20
HETATM   20  O   UNL     1      -8.983   8.242  65.919  1.00  0.00    -0.170 OA 
BRANCH  20  21
HETATM   21  C   UNL     1      -9.371   7.542  67.030  1.00  0.00    -0.150 A  
HETATM   22  C   UNL     1     -10.527   6.771  66.888  1.00  0.00    -0.350 A  
HETATM   23  H   UNL     1     -10.269   5.305  71.062  1.00  0.00     0.000 HD 
HETATM   24  O   UNL     1     -10.743   5.301  70.239  1.00  0.00    -0.265 OA 
HETATM   25  C   UNL     1     -11.007   6.012  67.958  1.00  0.00    -0.340 A  
HETATM   26  C   UNL     1     -10.313   6.017  69.164  1.00  0.00    -0.229 A  
HETATM   27  C   UNL     1      -8.671   7.520  68.238  1.00  0.00    -0.123 A  
HETATM   28  C   UNL     1      -9.145   6.757  69.307  1.00  0.00    -0.139 A  
ENDBRANCH  20  21
ENDBRANCH  19  20
ENDBRANCH   2  19
TORSDOF 10
ENDMDL
MODEL      220
REMARK 921   NORMALIZED FREE ENERGY PREDICTED BY IDOCK:   -3.99 KCAL/MOL
REMARK 922        TOTAL FREE ENERGY PREDICTED BY IDOCK:   -7.46 KCAL/MOL
REMARK 923 INTER-LIGAND FREE ENERGY PREDICTED BY IDOCK:   -5.82 KCAL/MOL
REMARK 924 INTRA-LIGAND FREE ENERGY PREDICTED BY IDOCK:   -1.64 KCAL/MOL
REMARK 927      BINDING AFFINITY PREDICTED BY RF-SCORE:    0.00 PKD
ROOT
HETATM    1  O   UNL     1      -7.988   4.376  68.918  1.00  0.00    -0.072 OA 
HETATM    2  C   UNL     1      -9.412   4.245  69.024  1.00  0.00    -0.172 C  
HETATM    3  H   UNL     1      -7.750   4.395  67.998  1.00  0.00     0.000 HD 
ENDROOT
BRANCH   2   4
HETATM    4  C   UNL     1      -9.798   4.213  70.512  1.00  0.00    -0.182 C  
BRANCH   4   5
HETATM    5  N   UNL     1      -8.799   4.923  71.330  1.00  0.00    -0.130 NA 
HETATM    6  H   UNL     1      -8.337   5.668  70.808  1.00  0.00     0.000 HD 
BRANCH   5   7
HETATM    7  C   UNL     1      -9.421   5.419  72.563  1.00  0.00    -0.145 C  
BRANCH   7   8
HETATM    8  C   UNL     1     -10.923   5.117  72.585  1.00  0.00    -0.243 C  
BRANCH   8   9
HETATM    9  N   UNL     1     -11.682   6.341  72.746  1.00  0.00    -0.500 N  
HETATM   10  H   UNL     1     -11.977   6.612  73.684  1.00  0.00     0.000 HD 
BRANCH   9  11
HETATM   11  C   UNL     1     -12.018   7.147  71.696  1.00  0.00    -0.318 C  
HETATM   12  O   UNL     1     -12.393   6.680  70.622  1.00  0.00    -0.340 OA 
BRANCH  11  13
HETATM   13  N   UNL     1     -11.915   8.503  71.927  1.00  0.00    -0.320 N  
HETATM   14  C   UNL     1     -10.678   9.197  71.564  1.00  0.00    -0.367 C  
HETATM   15  C   UNL     1     -10.956  10.269  70.503  1.00  0.00    -0.270 C  
HETATM   16  O   UNL     1     -11.981  11.177  70.942  1.00  0.00    -0.331 OA 
HETATM   17  C   UNL     1     -13.200  10.472  71.215  1.00  0.00    -0.306 C  
HETATM   18  C   UNL     1     -12.993   9.421  72.313  1.00  0.00    -0.400 C  
ENDBRANCH  11  13
ENDBRANCH   9  11
ENDBRANCH   8   9
ENDBRANCH   7   8
ENDBRANCH   5   7
ENDBRANCH   4   5
ENDBRANCH   2   4
BRANCH   2  19
HETATM   19  C   UNL     1     -10.107   5.425  68.332  1.00  0.00    -0.173 C  
BRANCH  19  20
HETATM   20  O   UNL     1      -9.703   6.652  68.957  1.00  0.00    -0.140 OA 
BRANCH  20  21
HETATM   21  C   UNL     1      -9.577   7.714  68.103  1.00  0.00    -0.149 A  
HETATM   22  C   UNL     1      -8.439   8.503  68.280  1.00  0.00    -0.135 A  
HETATM   23  H   UNL     1      -9.564  11.182  64.934  1.00  0.00     0.000 HD 
HETATM   24  O   UNL     1      -8.944  10.979  65.624  1.00  0.00    -0.197 OA 
HETATM   25  C   UNL     1      -8.209   9.609  67.458  1.00  0.00    -0.114 A  
HETATM   26  C   UNL     1      -9.117   9.908  66.447  1.00  0.00    -0.150 A  
HETATM   27  C   UNL     1     -10.469   8.012  67.070  1.00  0.00    -0.410 A  
HETATM   28  C   UNL     1     -10.238   9.112  66.242  1.00  0.00    -0.257 A  
ENDBRANCH  20  21
ENDBRANCH  19  20
ENDBRANCH   2  19
TORSDOF 10
ENDMDL
MODEL      221
REMARK 921   NORMALIZED FREE ENERGY PREDICTED BY IDOCK:   -3.98 KCAL/MOL
REMARK 922        TOTAL FREE ENERGY PREDICTED BY IDOCK:   -7.45 KCAL/MOL
REMARK 923 INTER-LIGAND FREE ENERGY PREDICTED BY IDOCK:   -6.68 KCAL/MOL
REMARK 924 INTRA-LIGAND FREE ENERGY PREDICTED BY IDOCK:   -0.77 KCAL/MOL
REMARK 927      BINDING AFFINITY PREDICTED BY RF-SCORE:    0.00 PKD
ROOT
HETATM    1  O   UNL     1      -9.056  12.118  65.666  1.00  0.00    -0.429 OA 
HETATM    2  C   UNL     1     -10.150  11.543  66.394  1.00  0.00    -0.216 C  
HETATM    3  H   UNL     1      -8.241  11.789  66.026  1.00  0.00     0.000 HD 
ENDROOT
BRANCH   2   4
HETATM    4  C   UNL     1     -11.469  12.076  65.810  1.00  0.00    -0.320 C  
BRANCH   4   5
HETATM    5  N   UNL     1     -12.099  13.042  66.727  1.00  0.00    -0.389 NA 
HETATM    6  H   UNL     1     -13.096  13.148  66.543  1.00  0.00     0.000 HD 
BRANCH   5   7
HETATM    7  C   UNL     1     -11.833  12.660  68.119  1.00  0.00    -0.315 C  
BRANCH   7   8
HETATM    8  C   UNL     1     -11.920  13.873  69.051  1.00  0.00    -0.364 C  
BRANCH   8   9
HETATM    9  N   UNL     1     -11.945  15.101  68.282  1.00  0.00    -0.541 N  
HETATM   10  H   UNL     1     -12.543  15.148  67.457  1.00  0.00     0.000 HD 
BRANCH   9  11
HETATM   11  C   UNL     1     -11.201  16.197  68.614  1.00  0.00    -0.369 C  
HETATM   12  O   UNL     1     -10.954  16.474  69.786  1.00  0.00    -0.344 OA 
BRANCH  11  13
HETATM   13  N   UNL     1     -10.749  16.955  67.554  1.00  0.00    -0.308 N  
HETATM   14  C   UNL     1     -10.785  18.415  67.654  1.00  0.00    -0.357 C  
HETATM   15  C   UNL     1      -9.369  18.995  67.560  1.00  0.00    -0.298 C  
HETATM   16  O   UNL     1      -8.704  18.547  66.365  1.00  0.00    -0.299 OA 
HETATM   17  C   UNL     1      -8.619  17.115  66.339  1.00  0.00    -0.265 C  
HETATM   18  C   UNL     1     -10.015  16.481  66.375  1.00  0.00    -0.303 C  
ENDBRANCH  11  13
ENDBRANCH   9  11
ENDBRANCH   8   9
ENDBRANCH   7   8
ENDBRANCH   5   7
ENDBRANCH   4   5
ENDBRANCH   2   4
BRANCH   2  19
HETATM   19  C   UNL     1     -10.113  10.013  66.285  1.00  0.00    -0.243 C  
BRANCH  19  20
HETATM   20  O   UNL     1      -8.996   9.506  67.028  1.00  0.00    -0.133 OA 
BRANCH  20  21
HETATM   21  C   UNL     1      -9.328   8.863  68.190  1.00  0.00    -0.142 A  
HETATM   22  C   UNL     1      -8.283   8.200  68.836  1.00  0.00    -0.124 A  
HETATM   23  H   UNL     1     -10.934   6.861  72.125  1.00  0.00     0.000 HD 
HETATM   24  O   UNL     1     -10.063   6.861  71.748  1.00  0.00    -0.186 OA 
HETATM   25  C   UNL     1      -8.510   7.517  70.034  1.00  0.00    -0.137 A  
HETATM   26  C   UNL     1      -9.786   7.518  70.587  1.00  0.00    -0.179 A  
HETATM   27  C   UNL     1     -10.599   8.874  68.768  1.00  0.00    -0.185 A  
HETATM   28  C   UNL     1     -10.828   8.199  69.968  1.00  0.00    -0.233 A  
ENDBRANCH  20  21
ENDBRANCH  19  20
ENDBRANCH   2  19
TORSDOF 10
ENDMDL
MODEL      222
REMARK 921   NORMALIZED FREE ENERGY PREDICTED BY IDOCK:   -3.98 KCAL/MOL
REMARK 922        TOTAL FREE ENERGY PREDICTED BY IDOCK:   -7.45 KCAL/MOL
REMARK 923 INTER-LIGAND FREE ENERGY PREDICTED BY IDOCK:   -6.23 KCAL/MOL
REMARK 924 INTRA-LIGAND FREE ENERGY PREDICTED BY IDOCK:   -1.22 KCAL/MOL
REMARK 927      BINDING AFFINITY PREDICTED BY RF-SCORE:    0.00 PKD
ROOT
HETATM    1  O   UNL     1      -7.903  10.800  69.823  1.00  0.00    -0.365 OA 
HETATM    2  C   UNL     1      -7.558   9.408  69.834  1.00  0.00    -0.109 C  
HETATM    3  H   UNL     1      -7.459  11.220  69.096  1.00  0.00     0.000 HD 
ENDROOT
BRANCH   2   4
HETATM    4  C   UNL     1      -8.276   8.727  71.011  1.00  0.00    -0.160 C  
BRANCH   4   5
HETATM    5  N   UNL     1      -8.599   7.326  70.693  1.00  0.00    -0.141 NA 
HETATM    6  H   UNL     1      -7.772   6.797  70.417  1.00  0.00     0.000 HD 
BRANCH   5   7
HETATM    7  C   UNL     1      -9.301   6.704  71.822  1.00  0.00    -0.148 C  
BRANCH   7   8
HETATM    8  C   UNL     1      -9.755   7.757  72.839  1.00  0.00    -0.249 C  
BRANCH   8   9
HETATM    9  N   UNL     1     -11.185   7.668  73.054  1.00  0.00    -0.535 N  
HETATM   10  H   UNL     1     -11.547   7.815  73.996  1.00  0.00     0.000 HD 
BRANCH   9  11
HETATM   11  C   UNL     1     -12.069   7.396  72.049  1.00  0.00    -0.289 C  
HETATM   12  O   UNL     1     -12.463   6.252  71.833  1.00  0.00    -0.290 OA 
BRANCH  11  13
HETATM   13  N   UNL     1     -12.485   8.484  71.310  1.00  0.00    -0.286 N  
HETATM   14  C   UNL     1     -13.661   9.238  71.750  1.00  0.00    -0.398 C  
HETATM   15  C   UNL     1     -13.279  10.687  72.072  1.00  0.00    -0.368 C  
HETATM   16  O   UNL     1     -12.620  11.310  70.955  1.00  0.00    -0.376 OA 
HETATM   17  C   UNL     1     -11.432  10.587  70.602  1.00  0.00    -0.327 C  
HETATM   18  C   UNL     1     -11.763   9.141  70.215  1.00  0.00    -0.017 C  
ENDBRANCH  11  13
ENDBRANCH   9  11
ENDBRANCH   8   9
ENDBRANCH   7   8
ENDBRANCH   5   7
ENDBRANCH   4   5
ENDBRANCH   2   4
BRANCH   2  19
HETATM   19  C   UNL     1      -7.981   8.747  68.515  1.00  0.00    -0.112 C  
BRANCH  19  20
HETATM   20  O   UNL     1      -9.350   9.070  68.235  1.00  0.00    -0.139 OA 
BRANCH  20  21
HETATM   21  C   UNL     1      -9.576   9.557  66.975  1.00  0.00    -0.164 A  
HETATM   22  C   UNL     1     -10.493  10.605  66.885  1.00  0.00    -0.304 A  
HETATM   23  H   UNL     1      -9.980  10.906  62.493  1.00  0.00     0.000 HD 
HETATM   24  O   UNL     1     -10.416  11.228  63.273  1.00  0.00    -0.362 OA 
HETATM   25  C   UNL     1     -10.792  11.180  65.647  1.00  0.00    -0.206 A  
HETATM   26  C   UNL     1     -10.154  10.709  64.504  1.00  0.00    -0.353 A  
HETATM   27  C   UNL     1      -8.926   9.108  65.823  1.00  0.00    -0.237 A  
HETATM   28  C   UNL     1      -9.217   9.685  64.586  1.00  0.00    -0.293 A  
ENDBRANCH  20  21
ENDBRANCH  19  20
ENDBRANCH   2  19
TORSDOF 10
ENDMDL
MODEL      223
REMARK 921   NORMALIZED FREE ENERGY PREDICTED BY IDOCK:   -3.97 KCAL/MOL
REMARK 922        TOTAL FREE ENERGY PREDICTED BY IDOCK:   -7.43 KCAL/MOL
REMARK 923 INTER-LIGAND FREE ENERGY PREDICTED BY IDOCK:   -6.43 KCAL/MOL
REMARK 924 INTRA-LIGAND FREE ENERGY PREDICTED BY IDOCK:   -1.01 KCAL/MOL
REMARK 927      BINDING AFFINITY PREDICTED BY RF-SCORE:    0.00 PKD
ROOT
HETATM    1  O   UNL     1     -10.324   8.296  66.280  1.00  0.00    -0.439 OA 
HETATM    2  C   UNL     1      -9.287   8.642  67.208  1.00  0.00    -0.152 C  
HETATM    3  H   UNL     1     -10.230   7.381  66.043  1.00  0.00     0.000 HD 
ENDROOT
BRANCH   2   4
HETATM    4  C   UNL     1      -9.440  10.124  67.592  1.00  0.00    -0.148 C  
BRANCH   4   5
HETATM    5  N   UNL     1     -10.858  10.521  67.604  1.00  0.00    -0.279 NA 
HETATM    6  H   UNL     1     -11.183  10.748  68.544  1.00  0.00     0.000 HD 
BRANCH   5   7
HETATM    7  C   UNL     1     -11.078  11.626  66.663  1.00  0.00    -0.307 C  
BRANCH   7   8
HETATM    8  C   UNL     1     -11.882  12.756  67.316  1.00  0.00    -0.350 C  
BRANCH   8   9
HETATM    9  N   UNL     1     -11.065  13.465  68.281  1.00  0.00    -0.250 N  
HETATM   10  H   UNL     1     -11.300  13.386  69.270  1.00  0.00     0.000 HD 
BRANCH   9  11
HETATM   11  C   UNL     1      -9.995  14.233  67.921  1.00  0.00    -0.230 C  
HETATM   12  O   UNL     1      -8.841  13.871  68.145  1.00  0.00    -0.171 OA 
BRANCH  11  13
HETATM   13  N   UNL     1     -10.298  15.422  67.292  1.00  0.00    -0.266 N  
HETATM   14  C   UNL     1     -11.158  16.392  67.974  1.00  0.00    -0.292 C  
HETATM   15  C   UNL     1     -10.402  17.703  68.216  1.00  0.00    -0.384 C  
HETATM   16  O   UNL     1      -9.863  18.223  66.988  1.00  0.00    -0.301 OA 
HETATM   17  C   UNL     1      -8.966  17.278  66.388  1.00  0.00    -0.252 C  
HETATM   18  C   UNL     1      -9.686  15.961  66.073  1.00  0.00    -0.343 C  
ENDBRANCH  11  13
ENDBRANCH   9  11
ENDBRANCH   8   9
ENDBRANCH   7   8
ENDBRANCH   5   7
ENDBRANCH   4   5
ENDBRANCH   2   4
BRANCH   2  19
HETATM   19  C   UNL     1      -9.386   7.767  68.465  1.00  0.00    -0.147 C  
BRANCH  19  20
HETATM   20  O   UNL     1      -9.808   8.570  69.576  1.00  0.00    -0.181 OA 
BRANCH  20  21
HETATM   21  C   UNL     1     -10.144   7.862  70.699  1.00  0.00    -0.194 A  
HETATM   22  C   UNL     1     -10.319   6.488  70.520  1.00  0.00    -0.240 A  
HETATM   23  H   UNL     1     -11.234   5.871  74.812  1.00  0.00     0.000 HD 
HETATM   24  O   UNL     1     -11.136   5.485  73.950  1.00  0.00    -0.147 OA 
HETATM   25  C   UNL     1     -10.657   5.670  71.601  1.00  0.00    -0.301 A  
HETATM   26  C   UNL     1     -10.800   6.236  72.864  1.00  0.00    -0.256 A  
HETATM   27  C   UNL     1     -10.269   8.412  71.976  1.00  0.00    -0.364 A  
HETATM   28  C   UNL     1     -10.599   7.597  73.060  1.00  0.00    -0.433 A  
ENDBRANCH  20  21
ENDBRANCH  19  20
ENDBRANCH   2  19
TORSDOF 10
ENDMDL
MODEL      224
REMARK 921   NORMALIZED FREE ENERGY PREDICTED BY IDOCK:   -3.96 KCAL/MOL
REMARK 922        TOTAL FREE ENERGY PREDICTED BY IDOCK:   -7.42 KCAL/MOL
REMARK 923 INTER-LIGAND FREE ENERGY PREDICTED BY IDOCK:   -6.67 KCAL/MOL
REMARK 924 INTRA-LIGAND FREE ENERGY PREDICTED BY IDOCK:   -0.75 KCAL/MOL
REMARK 927      BINDING AFFINITY PREDICTED BY RF-SCORE:    0.00 PKD
ROOT
HETATM    1  O   UNL     1     -11.482   9.603  68.411  1.00  0.00    -0.498 OA 
HETATM    2  C   UNL     1     -10.797  10.485  69.311  1.00  0.00    -0.243 C  
HETATM    3  H   UNL     1     -10.839   9.077  67.950  1.00  0.00     0.000 HD 
ENDROOT
BRANCH   2   4
HETATM    4  C   UNL     1     -11.838  11.338  70.057  1.00  0.00    -0.367 C  
BRANCH   4   5
HETATM    5  N   UNL     1     -11.642  12.771  69.779  1.00  0.00    -0.480 NA 
HETATM    6  H   UNL     1     -10.730  13.100  70.096  1.00  0.00     0.000 HD 
BRANCH   5   7
HETATM    7  C   UNL     1     -11.859  13.040  68.353  1.00  0.00    -0.334 C  
BRANCH   7   8
HETATM    8  C   UNL     1     -12.035  14.540  68.094  1.00  0.00    -0.261 C  
BRANCH   8   9
HETATM    9  N   UNL     1     -10.998  15.024  67.204  1.00  0.00    -0.323 N  
HETATM   10  H   UNL     1     -10.228  15.562  67.600  1.00  0.00     0.000 HD 
BRANCH   9  11
HETATM   11  C   UNL     1     -11.009  14.789  65.859  1.00  0.00    -0.335 C  
HETATM   12  O   UNL     1     -11.791  15.374  65.111  1.00  0.00    -0.119 OA 
BRANCH  11  13
HETATM   13  N   UNL     1     -10.090  13.867  65.407  1.00  0.00    -0.323 N  
HETATM   14  C   UNL     1      -8.930  13.545  66.242  1.00  0.00     0.136 C  
HETATM   15  C   UNL     1      -8.944  12.063  66.631  1.00  0.00    -0.204 C  
HETATM   16  O   UNL     1      -9.025  11.222  65.466  1.00  0.00    -0.195 OA 
HETATM   17  C   UNL     1     -10.212  11.513  64.714  1.00  0.00    -0.281 C  
HETATM   18  C   UNL     1     -10.224  12.974  64.250  1.00  0.00    -0.292 C  
ENDBRANCH  11  13
ENDBRANCH   9  11
ENDBRANCH   8   9
ENDBRANCH   7   8
ENDBRANCH   5   7
ENDBRANCH   4   5
ENDBRANCH   2   4
BRANCH   2  19
HETATM   19  C   UNL     1      -9.969   9.677  70.319  1.00  0.00    -0.270 C  
BRANCH  19  20
HETATM   20  O   UNL     1      -9.979   8.292  69.945  1.00  0.00    -0.185 OA 
BRANCH  20  21
HETATM   21  C   UNL     1     -10.197   7.422  70.980  1.00  0.00    -0.191 A  
HETATM   22  C   UNL     1     -10.346   8.004  72.241  1.00  0.00    -0.336 A  
HETATM   23  H   UNL     1     -10.964   4.065  74.176  1.00  0.00     0.000 HD 
HETATM   24  O   UNL     1     -10.896   5.007  74.279  1.00  0.00    -0.320 OA 
HETATM   25  C   UNL     1     -10.579   7.208  73.365  1.00  0.00    -0.424 A  
HETATM   26  C   UNL     1     -10.678   5.828  73.215  1.00  0.00    -0.267 A  
HETATM   27  C   UNL     1     -10.322   6.038  70.840  1.00  0.00    -0.277 A  
HETATM   28  C   UNL     1     -10.561   5.240  71.960  1.00  0.00    -0.279 A  
ENDBRANCH  20  21
ENDBRANCH  19  20
ENDBRANCH   2  19
TORSDOF 10
ENDMDL
MODEL      225
REMARK 921   NORMALIZED FREE ENERGY PREDICTED BY IDOCK:   -3.95 KCAL/MOL
REMARK 922        TOTAL FREE ENERGY PREDICTED BY IDOCK:   -7.39 KCAL/MOL
REMARK 923 INTER-LIGAND FREE ENERGY PREDICTED BY IDOCK:   -6.73 KCAL/MOL
REMARK 924 INTRA-LIGAND FREE ENERGY PREDICTED BY IDOCK:   -0.66 KCAL/MOL
REMARK 927      BINDING AFFINITY PREDICTED BY RF-SCORE:    0.00 PKD
ROOT
HETATM    1  O   UNL     1     -12.049  12.559  69.387  1.00  0.00    -0.266 OA 
HETATM    2  C   UNL     1     -12.275  12.764  70.789  1.00  0.00    -0.248 C  
HETATM    3  H   UNL     1     -11.507  11.787  69.274  1.00  0.00     0.000 HD 
ENDROOT
BRANCH   2   4
HETATM    4  C   UNL     1     -13.152  14.015  70.971  1.00  0.00    -0.272 C  
BRANCH   4   5
HETATM    5  N   UNL     1     -12.766  15.072  70.022  1.00  0.00    -0.597 NA 
HETATM    6  H   UNL     1     -13.578  15.552  69.633  1.00  0.00     0.000 HD 
BRANCH   5   7
HETATM    7  C   UNL     1     -11.829  16.003  70.661  1.00  0.00    -0.315 C  
BRANCH   7   8
HETATM    8  C   UNL     1     -10.416  15.847  70.087  1.00  0.00    -0.244 C  
BRANCH   8   9
HETATM    9  N   UNL     1     -10.048  17.022  69.323  1.00  0.00    -0.247 N  
HETATM   10  H   UNL     1      -9.636  17.814  69.815  1.00  0.00     0.000 HD 
BRANCH   9  11
HETATM   11  C   UNL     1     -10.230  17.113  67.972  1.00  0.00    -0.332 C  
HETATM   12  O   UNL     1     -11.242  17.622  67.494  1.00  0.00    -0.062 OA 
BRANCH  11  13
HETATM   13  N   UNL     1      -9.208  16.606  67.197  1.00  0.00    -0.219 N  
HETATM   14  C   UNL     1      -8.321  17.533  66.491  1.00  0.00    -0.270 C  
HETATM   15  C   UNL     1      -6.877  17.371  66.979  1.00  0.00    -0.182 C  
HETATM   16  O   UNL     1      -6.441  16.004  66.863  1.00  0.00    -0.295 OA 
HETATM   17  C   UNL     1      -7.288  15.136  67.629  1.00  0.00    -0.183 C  
HETATM   18  C   UNL     1      -8.741  15.217  67.145  1.00  0.00    -0.216 C  
ENDBRANCH  11  13
ENDBRANCH   9  11
ENDBRANCH   8   9
ENDBRANCH   7   8
ENDBRANCH   5   7
ENDBRANCH   4   5
ENDBRANCH   2   4
BRANCH   2  19
HETATM   19  C   UNL     1     -12.979  11.543  71.396  1.00  0.00    -0.348 C  
BRANCH  19  20
HETATM   20  O   UNL     1     -12.589  10.361  70.683  1.00  0.00    -0.328 OA 
BRANCH  20  21
HETATM   21  C   UNL     1     -11.744   9.531  71.370  1.00  0.00    -0.393 A  
HETATM   22  C   UNL     1     -10.380   9.731  71.143  1.00  0.00    -0.081 A  
HETATM   23  H   UNL     1      -9.261   6.501  73.963  1.00  0.00     0.000 HD 
HETATM   24  O   UNL     1      -8.971   7.167  73.352  1.00  0.00    -0.132 OA 
HETATM   25  C   UNL     1      -9.430   8.944  71.799  1.00  0.00    -0.334 A  
HETATM   26  C   UNL     1      -9.855   7.967  72.694  1.00  0.00    -0.279 A  
HETATM   27  C   UNL     1     -12.155   8.563  72.288  1.00  0.00    -0.455 A  
HETATM   28  C   UNL     1     -11.209   7.779  72.950  1.00  0.00    -0.434 A  
ENDBRANCH  20  21
ENDBRANCH  19  20
ENDBRANCH   2  19
TORSDOF 10
ENDMDL
MODEL      226
REMARK 921   NORMALIZED FREE ENERGY PREDICTED BY IDOCK:   -3.94 KCAL/MOL
REMARK 922        TOTAL FREE ENERGY PREDICTED BY IDOCK:   -7.38 KCAL/MOL
REMARK 923 INTER-LIGAND FREE ENERGY PREDICTED BY IDOCK:   -6.84 KCAL/MOL
REMARK 924 INTRA-LIGAND FREE ENERGY PREDICTED BY IDOCK:   -0.54 KCAL/MOL
REMARK 927      BINDING AFFINITY PREDICTED BY RF-SCORE:    0.00 PKD
ROOT
HETATM    1  O   UNL     1     -12.727  10.607  69.171  1.00  0.00    -0.685 OA 
HETATM    2  C   UNL     1     -11.380  11.061  69.363  1.00  0.00    -0.284 C  
HETATM    3  H   UNL     1     -13.294  11.362  69.076  1.00  0.00     0.000 HD 
ENDROOT
BRANCH   2   4
HETATM    4  C   UNL     1     -10.461   9.837  69.518  1.00  0.00    -0.232 C  
BRANCH   4   5
HETATM    5  N   UNL     1     -11.071   8.641  68.915  1.00  0.00    -0.420 NA 
HETATM    6  H   UNL     1     -11.974   8.847  68.486  1.00  0.00     0.000 HD 
BRANCH   5   7
HETATM    7  C   UNL     1     -10.138   8.026  67.963  1.00  0.00    -0.194 C  
BRANCH   7   8
HETATM    8  C   UNL     1      -9.463   6.792  68.571  1.00  0.00    -0.131 C  
BRANCH   8   9
HETATM    9  N   UNL     1     -10.036   5.580  68.020  1.00  0.00    -0.164 N  
HETATM   10  H   UNL     1     -10.983   5.320  68.296  1.00  0.00     0.000 HD 
BRANCH   9  11
HETATM   11  C   UNL     1      -9.363   4.773  67.149  1.00  0.00    -0.135 C  
HETATM   12  O   UNL     1      -9.936   3.881  66.526  1.00  0.00    -0.168 OA 
BRANCH  11  13
HETATM   13  N   UNL     1      -8.015   5.032  67.014  1.00  0.00    -0.103 N  
HETATM   14  C   UNL     1      -7.063   4.324  67.873  1.00  0.00    -0.060 C  
HETATM   15  C   UNL     1      -6.109   3.472  67.028  1.00  0.00    -0.025 C  
HETATM   16  O   UNL     1      -5.451   4.270  66.027  1.00  0.00    -0.012 OA 
HETATM   17  C   UNL     1      -6.412   4.886  65.158  1.00  0.00    -0.036 C  
HETATM   18  C   UNL     1      -7.362   5.797  65.947  1.00  0.00    -0.073 C  
ENDBRANCH  11  13
ENDBRANCH   9  11
ENDBRANCH   8   9
ENDBRANCH   7   8
ENDBRANCH   5   7
ENDBRANCH   4   5
ENDBRANCH   2   4
BRANCH   2  19
HETATM   19  C   UNL     1     -10.928  11.901  68.161  1.00  0.00    -0.227 C  
BRANCH  19  20
HETATM   20  O   UNL     1     -11.947  11.880  67.151  1.00  0.00    -0.611 OA 
BRANCH  20  21
HETATM   21  C   UNL     1     -11.912  12.938  66.283  1.00  0.00    -0.408 A  
HETATM   22  C   UNL     1     -11.229  14.070  66.731  1.00  0.00    -0.323 A  
HETATM   23  H   UNL     1     -12.028  16.259  62.962  1.00  0.00     0.000 HD 
HETATM   24  O   UNL     1     -11.637  16.269  63.827  1.00  0.00    -0.952 OA 
HETATM   25  C   UNL     1     -11.128  15.204  65.921  1.00  0.00    -0.319 A  
HETATM   26  C   UNL     1     -11.700  15.189  64.653  1.00  0.00    -0.348 A  
HETATM   27  C   UNL     1     -12.463  12.928  64.999  1.00  0.00    -0.553 A  
HETATM   28  C   UNL     1     -12.357  14.057  64.184  1.00  0.00    -0.374 A  
ENDBRANCH  20  21
ENDBRANCH  19  20
ENDBRANCH   2  19
TORSDOF 10
ENDMDL
MODEL      227
REMARK 921   NORMALIZED FREE ENERGY PREDICTED BY IDOCK:   -3.94 KCAL/MOL
REMARK 922        TOTAL FREE ENERGY PREDICTED BY IDOCK:   -7.38 KCAL/MOL
REMARK 923 INTER-LIGAND FREE ENERGY PREDICTED BY IDOCK:   -7.07 KCAL/MOL
REMARK 924 INTRA-LIGAND FREE ENERGY PREDICTED BY IDOCK:   -0.30 KCAL/MOL
REMARK 927      BINDING AFFINITY PREDICTED BY RF-SCORE:    0.00 PKD
ROOT
HETATM    1  O   UNL     1      -7.884   9.602  66.563  1.00  0.00    -0.106 OA 
HETATM    2  C   UNL     1      -7.947  10.586  67.605  1.00  0.00    -0.106 C  
HETATM    3  H   UNL     1      -7.400   8.849  66.881  1.00  0.00     0.000 HD 
ENDROOT
BRANCH   2   4
HETATM    4  C   UNL     1      -8.730  11.805  67.089  1.00  0.00    -0.169 C  
BRANCH   4   5
HETATM    5  N   UNL     1      -7.815  12.842  66.583  1.00  0.00    -0.299 NA 
HETATM    6  H   UNL     1      -8.222  13.364  65.806  1.00  0.00     0.000 HD 
BRANCH   5   7
HETATM    7  C   UNL     1      -7.399  13.723  67.680  1.00  0.00    -0.172 C  
BRANCH   7   8
HETATM    8  C   UNL     1      -7.836  15.170  67.423  1.00  0.00    -0.198 C  
BRANCH   8   9
HETATM    9  N   UNL     1      -9.037  15.198  66.613  1.00  0.00    -0.261 N  
HETATM   10  H   UNL     1      -9.501  14.316  66.399  1.00  0.00     0.000 HD 
BRANCH   9  11
HETATM   11  C   UNL     1      -9.574  16.355  66.126  1.00  0.00    -0.325 C  
HETATM   12  O   UNL     1     -10.131  16.393  65.030  1.00  0.00    -0.486 OA 
BRANCH  11  13
HETATM   13  N   UNL     1      -9.453  17.460  66.943  1.00  0.00    -0.261 N  
HETATM   14  C   UNL     1      -8.324  18.372  66.748  1.00  0.00    -0.259 C  
HETATM   15  C   UNL     1      -8.823  19.772  66.373  1.00  0.00    -0.377 C  
HETATM   16  O   UNL     1      -9.760  20.265  67.346  1.00  0.00    -0.396 OA 
HETATM   17  C   UNL     1     -10.889  19.386  67.454  1.00  0.00    -0.440 C  
HETATM   18  C   UNL     1     -10.451  17.980  67.883  1.00  0.00    -0.396 C  
ENDBRANCH  11  13
ENDBRANCH   9  11
ENDBRANCH   8   9
ENDBRANCH   7   8
ENDBRANCH   5   7
ENDBRANCH   4   5
ENDBRANCH   2   4
BRANCH   2  19
HETATM   19  C   UNL     1      -8.647  10.004  68.841  1.00  0.00    -0.138 C  
BRANCH  19  20
HETATM   20  O   UNL     1     -10.035   9.790  68.548  1.00  0.00    -0.153 OA 
BRANCH  20  21
HETATM   21  C   UNL     1     -10.901  10.310  69.473  1.00  0.00    -0.256 A  
HETATM   22  C   UNL     1     -11.352  11.607  69.218  1.00  0.00    -0.353 A  
HETATM   23  H   UNL     1     -13.861  11.636  72.871  1.00  0.00     0.000 HD 
HETATM   24  O   UNL     1     -13.555  12.107  72.106  1.00  0.00    -0.431 OA 
HETATM   25  C   UNL     1     -12.244  12.231  70.094  1.00  0.00    -0.302 A  
HETATM   26  C   UNL     1     -12.693  11.541  71.216  1.00  0.00    -0.364 A  
HETATM   27  C   UNL     1     -11.377   9.621  70.590  1.00  0.00    -0.379 A  
HETATM   28  C   UNL     1     -12.273  10.239  71.464  1.00  0.00    -0.449 A  
ENDBRANCH  20  21
ENDBRANCH  19  20
ENDBRANCH   2  19
TORSDOF 10
ENDMDL
MODEL      228
REMARK 921   NORMALIZED FREE ENERGY PREDICTED BY IDOCK:   -3.90 KCAL/MOL
REMARK 922        TOTAL FREE ENERGY PREDICTED BY IDOCK:   -7.32 KCAL/MOL
REMARK 923 INTER-LIGAND FREE ENERGY PREDICTED BY IDOCK:   -6.42 KCAL/MOL
REMARK 924 INTRA-LIGAND FREE ENERGY PREDICTED BY IDOCK:   -0.90 KCAL/MOL
REMARK 927      BINDING AFFINITY PREDICTED BY RF-SCORE:    0.00 PKD
ROOT
HETATM    1  O   UNL     1      -8.052   8.266  71.532  1.00  0.00    -0.107 OA 
HETATM    2  C   UNL     1      -9.038   8.970  70.764  1.00  0.00    -0.245 C  
HETATM    3  H   UNL     1      -8.487   7.800  72.236  1.00  0.00     0.000 HD 
ENDROOT
BRANCH   2   4
HETATM    4  C   UNL     1      -8.333   9.726  69.625  1.00  0.00    -0.173 C  
BRANCH   4   5
HETATM    5  N   UNL     1      -9.132  10.883  69.187  1.00  0.00    -0.360 NA 
HETATM    6  H   UNL     1      -9.461  11.440  69.976  1.00  0.00     0.000 HD 
BRANCH   5   7
HETATM    7  C   UNL     1      -8.367  11.686  68.227  1.00  0.00    -0.159 C  
BRANCH   7   8
HETATM    8  C   UNL     1      -9.174  12.901  67.756  1.00  0.00    -0.200 C  
BRANCH   8   9
HETATM    9  N   UNL     1      -9.961  12.562  66.588  1.00  0.00    -0.231 N  
HETATM   10  H   UNL     1      -9.504  12.558  65.676  1.00  0.00     0.000 HD 
BRANCH   9  11
HETATM   11  C   UNL     1     -11.289  12.248  66.655  1.00  0.00    -0.343 C  
HETATM   12  O   UNL     1     -11.735  11.535  67.552  1.00  0.00    -0.555 OA 
BRANCH  11  13
HETATM   13  N   UNL     1     -12.081  12.788  65.664  1.00  0.00    -0.451 N  
HETATM   14  C   UNL     1     -12.363  14.225  65.679  1.00  0.00    -0.405 C  
HETATM   15  C   UNL     1     -11.813  14.893  64.413  1.00  0.00    -0.360 C  
HETATM   16  O   UNL     1     -12.317  14.252  63.229  1.00  0.00    -0.616 OA 
HETATM   17  C   UNL     1     -11.955  12.863  63.212  1.00  0.00    -0.440 C  
HETATM   18  C   UNL     1     -12.529  12.131  64.431  1.00  0.00    -0.324 C  
ENDBRANCH  11  13
ENDBRANCH   9  11
ENDBRANCH   8   9
ENDBRANCH   7   8
ENDBRANCH   5   7
ENDBRANCH   4   5
ENDBRANCH   2   4
BRANCH   2  19
HETATM   19  C   UNL     1     -10.058   7.983  70.179  1.00  0.00    -0.194 C  
BRANCH  19  20
HETATM   20  O   UNL     1     -10.110   8.136  68.754  1.00  0.00    -0.189 OA 
BRANCH  20  21
HETATM   21  C   UNL     1      -9.705   7.038  68.045  1.00  0.00    -0.129 A  
HETATM   22  C   UNL     1      -8.527   6.431  68.488  1.00  0.00    -0.119 A  
HETATM   23  H   UNL     1      -8.750   3.312  65.347  1.00  0.00     0.000 HD 
HETATM   24  O   UNL     1      -8.275   3.673  66.086  1.00  0.00    -0.099 OA 
HETATM   25  C   UNL     1      -8.028   5.298  67.840  1.00  0.00    -0.095 A  
HETATM   26  C   UNL     1      -8.723   4.769  66.758  1.00  0.00    -0.107 A  
HETATM   27  C   UNL     1     -10.405   6.483  66.972  1.00  0.00    -0.319 A  
HETATM   28  C   UNL     1      -9.912   5.348  66.327  1.00  0.00    -0.199 A  
ENDBRANCH  20  21
ENDBRANCH  19  20
ENDBRANCH   2  19
TORSDOF 10
ENDMDL
MODEL      229
REMARK 921   NORMALIZED FREE ENERGY PREDICTED BY IDOCK:   -3.90 KCAL/MOL
REMARK 922        TOTAL FREE ENERGY PREDICTED BY IDOCK:   -7.32 KCAL/MOL
REMARK 923 INTER-LIGAND FREE ENERGY PREDICTED BY IDOCK:   -6.59 KCAL/MOL
REMARK 924 INTRA-LIGAND FREE ENERGY PREDICTED BY IDOCK:   -0.73 KCAL/MOL
REMARK 927      BINDING AFFINITY PREDICTED BY RF-SCORE:    0.00 PKD
ROOT
HETATM    1  O   UNL     1      -9.028  12.635  65.841  1.00  0.00    -0.422 OA 
HETATM    2  C   UNL     1     -10.236  11.985  66.259  1.00  0.00    -0.222 C  
HETATM    3  H   UNL     1      -8.285  12.132  66.155  1.00  0.00     0.000 HD 
ENDROOT
BRANCH   2   4
HETATM    4  C   UNL     1     -11.438  12.800  65.751  1.00  0.00    -0.348 C  
BRANCH   4   5
HETATM    5  N   UNL     1     -12.248  13.298  66.875  1.00  0.00    -0.314 NA 
HETATM    6  H   UNL     1     -13.249  13.218  66.690  1.00  0.00     0.000 HD 
BRANCH   5   7
HETATM    7  C   UNL     1     -11.861  12.616  68.115  1.00  0.00    -0.315 C  
BRANCH   7   8
HETATM    8  C   UNL     1     -11.804  13.597  69.291  1.00  0.00    -0.346 C  
BRANCH   8   9
HETATM    9  N   UNL     1     -12.073  14.947  68.837  1.00  0.00    -0.547 N  
HETATM   10  H   UNL     1     -12.859  15.101  68.206  1.00  0.00     0.000 HD 
BRANCH   9  11
HETATM   11  C   UNL     1     -11.318  16.019  69.218  1.00  0.00    -0.356 C  
HETATM   12  O   UNL     1     -11.195  16.330  70.401  1.00  0.00    -0.373 OA 
BRANCH  11  13
HETATM   13  N   UNL     1     -10.709  16.713  68.194  1.00  0.00    -0.337 N  
HETATM   14  C   UNL     1     -11.085  18.108  67.953  1.00  0.00     0.129 C  
HETATM   15  C   UNL     1      -9.877  19.032  68.147  1.00  0.00    -0.368 C  
HETATM   16  O   UNL     1      -8.771  18.617  67.326  1.00  0.00    -0.265 OA 
HETATM   17  C   UNL     1      -8.380  17.273  67.643  1.00  0.00    -0.205 C  
HETATM   18  C   UNL     1      -9.539  16.295  67.413  1.00  0.00    -0.230 C  
ENDBRANCH  11  13
ENDBRANCH   9  11
ENDBRANCH   8   9
ENDBRANCH   7   8
ENDBRANCH   5   7
ENDBRANCH   4   5
ENDBRANCH   2   4
BRANCH   2  19
HETATM   19  C   UNL     1     -10.296  10.561  65.690  1.00  0.00    -0.204 C  
BRANCH  19  20
HETATM   20  O   UNL     1      -9.176   9.805  66.171  1.00  0.00    -0.159 OA 
BRANCH  20  21
HETATM   21  C   UNL     1      -9.399   8.459  66.282  1.00  0.00    -0.219 A  
HETATM   22  C   UNL     1      -8.461   7.635  65.656  1.00  0.00    -0.152 A  
HETATM   23  H   UNL     1     -10.558   3.959  66.972  1.00  0.00     0.000 HD 
HETATM   24  O   UNL     1      -9.832   4.340  66.493  1.00  0.00    -0.207 OA 
HETATM   25  C   UNL     1      -8.590   6.245  65.713  1.00  0.00    -0.153 A  
HETATM   26  C   UNL     1      -9.655   5.687  66.414  1.00  0.00    -0.157 A  
HETATM   27  C   UNL     1     -10.450   7.886  67.001  1.00  0.00    -0.419 A  
HETATM   28  C   UNL     1     -10.578   6.498  67.065  1.00  0.00    -0.402 A  
ENDBRANCH  20  21
ENDBRANCH  19  20
ENDBRANCH   2  19
TORSDOF 10
ENDMDL
MODEL      230
REMARK 921   NORMALIZED FREE ENERGY PREDICTED BY IDOCK:   -3.90 KCAL/MOL
REMARK 922        TOTAL FREE ENERGY PREDICTED BY IDOCK:   -7.31 KCAL/MOL
REMARK 923 INTER-LIGAND FREE ENERGY PREDICTED BY IDOCK:   -6.45 KCAL/MOL
REMARK 924 INTRA-LIGAND FREE ENERGY PREDICTED BY IDOCK:   -0.87 KCAL/MOL
REMARK 927      BINDING AFFINITY PREDICTED BY RF-SCORE:    0.00 PKD
ROOT
HETATM    1  O   UNL     1      -7.146   7.338  66.445  1.00  0.00    -0.073 OA 
HETATM    2  C   UNL     1      -8.140   8.057  67.188  1.00  0.00    -0.117 C  
HETATM    3  H   UNL     1      -6.590   6.866  67.054  1.00  0.00     0.000 HD 
ENDROOT
BRANCH   2   4
HETATM    4  C   UNL     1      -9.039   8.822  66.201  1.00  0.00    -0.202 C  
BRANCH   4   5
HETATM    5  N   UNL     1      -9.050  10.262  66.507  1.00  0.00    -0.147 NA 
HETATM    6  H   UNL     1      -8.267  10.752  66.072  1.00  0.00     0.000 HD 
BRANCH   5   7
HETATM    7  C   UNL     1     -10.342  10.846  66.129  1.00  0.00    -0.248 C  
BRANCH   7   8
HETATM    8  C   UNL     1     -10.155  12.037  65.183  1.00  0.00    -0.266 C  
BRANCH   8   9
HETATM    9  N   UNL     1      -9.300  13.037  65.792  1.00  0.00    -0.463 N  
HETATM   10  H   UNL     1      -8.550  13.443  65.233  1.00  0.00     0.000 HD 
BRANCH   9  11
HETATM   11  C   UNL     1      -9.456  13.457  67.081  1.00  0.00    -0.244 C  
HETATM   12  O   UNL     1      -8.660  13.138  67.962  1.00  0.00    -0.164 OA 
BRANCH  11  13
HETATM   13  N   UNL     1     -10.552  14.261  67.318  1.00  0.00    -0.276 N  
HETATM   14  C   UNL     1     -11.697  13.710  68.046  1.00  0.00    -0.352 C  
HETATM   15  C   UNL     1     -11.926  14.482  69.351  1.00  0.00    -0.322 C  
HETATM   16  O   UNL     1     -12.066  15.891  69.101  1.00  0.00    -0.339 OA 
HETATM   17  C   UNL     1     -10.894  16.411  68.457  1.00  0.00    -0.339 C  
HETATM   18  C   UNL     1     -10.649  15.710  67.115  1.00  0.00    -0.308 C  
ENDBRANCH  11  13
ENDBRANCH   9  11
ENDBRANCH   8   9
ENDBRANCH   7   8
ENDBRANCH   5   7
ENDBRANCH   4   5
ENDBRANCH   2   4
BRANCH   2  19
HETATM   19  C   UNL     1      -8.989   7.084  68.016  1.00  0.00    -0.126 C  
BRANCH  19  20
HETATM   20  O   UNL     1      -8.729   7.289  69.412  1.00  0.00    -0.136 OA 
BRANCH  20  21
HETATM   21  C   UNL     1      -9.802   7.739  70.133  1.00  0.00    -0.184 A  
HETATM   22  C   UNL     1     -10.858   6.837  70.277  1.00  0.00    -0.314 A  
HETATM   23  H   UNL     1     -13.208   9.706  72.702  1.00  0.00     0.000 HD 
HETATM   24  O   UNL     1     -13.161   8.848  72.299  1.00  0.00    -0.393 OA 
HETATM   25  C   UNL     1     -12.000   7.192  71.000  1.00  0.00    -0.387 A  
HETATM   26  C   UNL     1     -12.069   8.449  71.591  1.00  0.00    -0.313 A  
HETATM   27  C   UNL     1      -9.875   8.990  70.750  1.00  0.00    -0.304 A  
HETATM   28  C   UNL     1     -11.011   9.345  71.479  1.00  0.00    -0.429 A  
ENDBRANCH  20  21
ENDBRANCH  19  20
ENDBRANCH   2  19
TORSDOF 10
ENDMDL
MODEL      231
REMARK 921   NORMALIZED FREE ENERGY PREDICTED BY IDOCK:   -3.89 KCAL/MOL
REMARK 922        TOTAL FREE ENERGY PREDICTED BY IDOCK:   -7.31 KCAL/MOL
REMARK 923 INTER-LIGAND FREE ENERGY PREDICTED BY IDOCK:   -6.36 KCAL/MOL
REMARK 924 INTRA-LIGAND FREE ENERGY PREDICTED BY IDOCK:   -0.95 KCAL/MOL
REMARK 927      BINDING AFFINITY PREDICTED BY RF-SCORE:    0.00 PKD
ROOT
HETATM    1  O   UNL     1     -12.707  15.261  69.601  1.00  0.00    -0.602 OA 
HETATM    2  C   UNL     1     -12.251  14.916  68.286  1.00  0.00     0.020 C  
HETATM    3  H   UNL     1     -13.379  14.643  69.864  1.00  0.00     0.000 HD 
ENDROOT
BRANCH   2   4
HETATM    4  C   UNL     1     -11.164  15.917  67.860  1.00  0.00    -0.297 C  
BRANCH   4   5
HETATM    5  N   UNL     1      -9.852  15.256  67.753  1.00  0.00    -0.220 NA 
HETATM    6  H   UNL     1      -9.375  15.493  66.883  1.00  0.00     0.000 HD 
BRANCH   5   7
HETATM    7  C   UNL     1      -9.036  15.567  68.932  1.00  0.00    -0.220 C  
BRANCH   7   8
HETATM    8  C   UNL     1      -8.221  16.848  68.717  1.00  0.00    -0.244 C  
BRANCH   8   9
HETATM    9  N   UNL     1      -7.424  16.744  67.512  1.00  0.00    -0.153 N  
HETATM   10  H   UNL     1      -6.696  16.031  67.469  1.00  0.00     0.000 HD 
BRANCH   9  11
HETATM   11  C   UNL     1      -7.606  17.559  66.432  1.00  0.00    -0.294 C  
HETATM   12  O   UNL     1      -8.372  17.255  65.519  1.00  0.00    -0.255 OA 
BRANCH  11  13
HETATM   13  N   UNL     1      -6.884  18.734  66.442  1.00  0.00    -0.204 N  
HETATM   14  C   UNL     1      -7.489  19.950  65.894  1.00  0.00    -0.328 C  
HETATM   15  C   UNL     1      -7.617  21.023  66.982  1.00  0.00    -0.096 C  
HETATM   16  O   UNL     1      -6.348  21.281  67.606  1.00  0.00    -0.352 OA 
HETATM   17  C   UNL     1      -5.822  20.085  68.199  1.00  0.00    -0.228 C  
HETATM   18  C   UNL     1      -5.620  18.991  67.142  1.00  0.00    -0.163 C  
ENDBRANCH  11  13
ENDBRANCH   9  11
ENDBRANCH   8   9
ENDBRANCH   7   8
ENDBRANCH   5   7
ENDBRANCH   4   5
ENDBRANCH   2   4
BRANCH   2  19
HETATM   19  C   UNL     1     -11.679  13.492  68.279  1.00  0.00    -0.359 C  
BRANCH  19  20
HETATM   20  O   UNL     1     -11.988  12.857  67.031  1.00  0.00    -0.381 OA 
BRANCH  20  21
HETATM   21  C   UNL     1     -11.323  11.681  66.807  1.00  0.00    -0.286 A  
HETATM   22  C   UNL     1     -10.547  11.634  65.648  1.00  0.00    -0.324 A  
HETATM   23  H   UNL     1      -9.215   7.494  66.500  1.00  0.00     0.000 HD 
HETATM   24  O   UNL     1      -9.185   8.241  65.915  1.00  0.00    -0.181 OA 
HETATM   25  C   UNL     1      -9.821  10.484  65.327  1.00  0.00    -0.345 A  
HETATM   26  C   UNL     1      -9.866   9.389  66.185  1.00  0.00    -0.285 A  
HETATM   27  C   UNL     1     -11.341  10.583  67.670  1.00  0.00    -0.233 A  
HETATM   28  C   UNL     1     -10.612   9.435  67.357  1.00  0.00    -0.326 A  
ENDBRANCH  20  21
ENDBRANCH  19  20
ENDBRANCH   2  19
TORSDOF 10
ENDMDL
MODEL      232
REMARK 921   NORMALIZED FREE ENERGY PREDICTED BY IDOCK:   -3.89 KCAL/MOL
REMARK 922        TOTAL FREE ENERGY PREDICTED BY IDOCK:   -7.30 KCAL/MOL
REMARK 923 INTER-LIGAND FREE ENERGY PREDICTED BY IDOCK:   -6.39 KCAL/MOL
REMARK 924 INTRA-LIGAND FREE ENERGY PREDICTED BY IDOCK:   -0.91 KCAL/MOL
REMARK 927      BINDING AFFINITY PREDICTED BY RF-SCORE:    0.00 PKD
ROOT
HETATM    1  O   UNL     1     -10.581   5.371  66.978  1.00  0.00    -0.254 OA 
HETATM    2  C   UNL     1     -10.806   6.667  67.551  1.00  0.00    -0.342 C  
HETATM    3  H   UNL     1     -10.453   5.468  66.042  1.00  0.00     0.000 HD 
ENDROOT
BRANCH   2   4
HETATM    4  C   UNL     1     -11.013   6.510  69.067  1.00  0.00    -0.321 C  
BRANCH   4   5
HETATM    5  N   UNL     1     -11.513   7.760  69.663  1.00  0.00    -0.421 NA 
HETATM    6  H   UNL     1     -12.465   7.972  69.363  1.00  0.00     0.000 HD 
BRANCH   5   7
HETATM    7  C   UNL     1     -11.397   7.701  71.125  1.00  0.00    -0.266 C  
BRANCH   7   8
HETATM    8  C   UNL     1     -12.537   6.879  71.737  1.00  0.00    -0.344 C  
BRANCH   8   9
HETATM    9  N   UNL     1     -12.005   5.836  72.591  1.00  0.00    -0.512 N  
HETATM   10  H   UNL     1     -12.594   5.032  72.804  1.00  0.00     0.000 HD 
BRANCH   9  11
HETATM   11  C   UNL     1     -10.748   5.885  73.123  1.00  0.00    -0.261 C  
HETATM   12  O   UNL     1     -10.517   6.484  74.172  1.00  0.00    -0.337 OA 
BRANCH  11  13
HETATM   13  N   UNL     1      -9.773   5.218  72.412  1.00  0.00    -0.151 N  
HETATM   14  C   UNL     1      -8.401   5.732  72.426  1.00  0.00    -0.118 C  
HETATM   15  C   UNL     1      -7.448   4.701  73.042  1.00  0.00    -0.086 C  
HETATM   16  O   UNL     1      -7.548   3.435  72.367  1.00  0.00    -0.055 OA 
HETATM   17  C   UNL     1      -8.888   2.926  72.440  1.00  0.00    -0.075 C  
HETATM   18  C   UNL     1      -9.880   3.896  71.786  1.00  0.00    -0.179 C  
ENDBRANCH  11  13
ENDBRANCH   9  11
ENDBRANCH   8   9
ENDBRANCH   7   8
ENDBRANCH   5   7
ENDBRANCH   4   5
ENDBRANCH   2   4
BRANCH   2  19
HETATM   19  C   UNL     1      -9.603   7.581  67.283  1.00  0.00    -0.156 C  
BRANCH  19  20
HETATM   20  O   UNL     1      -9.921   8.921  67.684  1.00  0.00    -0.172 OA 
BRANCH  20  21
HETATM   21  C   UNL     1     -10.088   9.803  66.650  1.00  0.00    -0.237 A  
HETATM   22  C   UNL     1      -9.524   9.422  65.431  1.00  0.00    -0.322 A  
HETATM   23  H   UNL     1     -10.956  13.102  63.420  1.00  0.00     0.000 HD 
HETATM   24  O   UNL     1     -10.478  12.285  63.349  1.00  0.00    -0.435 OA 
HETATM   25  C   UNL     1      -9.641  10.245  64.308  1.00  0.00    -0.375 A  
HETATM   26  C   UNL     1     -10.341  11.443  64.411  1.00  0.00    -0.320 A  
HETATM   27  C   UNL     1     -10.808  10.997  66.733  1.00  0.00    -0.307 A  
HETATM   28  C   UNL     1     -10.933  11.818  65.611  1.00  0.00    -0.348 A  
ENDBRANCH  20  21
ENDBRANCH  19  20
ENDBRANCH   2  19
TORSDOF 10
ENDMDL
MODEL      233
REMARK 921   NORMALIZED FREE ENERGY PREDICTED BY IDOCK:   -3.89 KCAL/MOL
REMARK 922        TOTAL FREE ENERGY PREDICTED BY IDOCK:   -7.30 KCAL/MOL
REMARK 923 INTER-LIGAND FREE ENERGY PREDICTED BY IDOCK:   -6.17 KCAL/MOL
REMARK 924 INTRA-LIGAND FREE ENERGY PREDICTED BY IDOCK:   -1.12 KCAL/MOL
REMARK 927      BINDING AFFINITY PREDICTED BY RF-SCORE:    0.00 PKD
ROOT
HETATM    1  O   UNL     1      -6.791  12.304  66.331  1.00  0.00    -0.280 OA 
HETATM    2  C   UNL     1      -7.943  11.841  67.049  1.00  0.00    -0.164 C  
HETATM    3  H   UNL     1      -7.081  12.823  65.590  1.00  0.00     0.000 HD 
ENDROOT
BRANCH   2   4
HETATM    4  C   UNL     1      -7.474  10.999  68.249  1.00  0.00    -0.092 C  
BRANCH   4   5
HETATM    5  N   UNL     1      -8.367  11.186  69.405  1.00  0.00    -0.375 NA 
HETATM    6  H   UNL     1      -9.130  11.831  69.198  1.00  0.00     0.000 HD 
BRANCH   5   7
HETATM    7  C   UNL     1      -8.858   9.886  69.875  1.00  0.00    -0.195 C  
BRANCH   7   8
HETATM    8  C   UNL     1      -7.718   8.866  69.969  1.00  0.00    -0.078 C  
BRANCH   8   9
HETATM    9  N   UNL     1      -8.236   7.562  70.331  1.00  0.00    -0.121 N  
HETATM   10  H   UNL     1      -7.710   6.996  70.997  1.00  0.00     0.000 HD 
BRANCH   9  11
HETATM   11  C   UNL     1      -9.399   7.059  69.820  1.00  0.00    -0.146 C  
HETATM   12  O   UNL     1      -9.532   6.849  68.616  1.00  0.00    -0.135 OA 
BRANCH  11  13
HETATM   13  N   UNL     1     -10.393   6.802  70.739  1.00  0.00    -0.202 N  
HETATM   14  C   UNL     1     -10.064   6.801  72.166  1.00  0.00    -0.181 C  
HETATM   15  C   UNL     1     -10.852   7.892  72.900  1.00  0.00    -0.386 C  
HETATM   16  O   UNL     1     -12.265   7.755  72.668  1.00  0.00    -0.210 OA 
HETATM   17  C   UNL     1     -12.558   7.838  71.266  1.00  0.00    -0.264 C  
HETATM   18  C   UNL     1     -11.837   6.731  70.487  1.00  0.00    -0.362 C  
ENDBRANCH  11  13
ENDBRANCH   9  11
ENDBRANCH   8   9
ENDBRANCH   7   8
ENDBRANCH   5   7
ENDBRANCH   4   5
ENDBRANCH   2   4
BRANCH   2  19
HETATM   19  C   UNL     1      -8.774  13.032  67.544  1.00  0.00    -0.197 C  
BRANCH  19  20
HETATM   20  O   UNL     1     -10.146  12.635  67.681  1.00  0.00    -0.211 OA 
BRANCH  20  21
HETATM   21  C   UNL     1     -10.912  13.478  68.439  1.00  0.00    -0.266 A  
HETATM   22  C   UNL     1     -11.539  12.900  69.545  1.00  0.00    -0.348 A  
HETATM   23  H   UNL     1     -13.374  16.754  70.738  1.00  0.00     0.000 HD 
HETATM   24  O   UNL     1     -13.269  15.827  70.916  1.00  0.00    -0.560 OA 
HETATM   25  C   UNL     1     -12.339  13.673  70.390  1.00  0.00    -0.415 A  
HETATM   26  C   UNL     1     -12.493  15.031  70.129  1.00  0.00    -0.311 A  
HETATM   27  C   UNL     1     -11.058  14.847  68.202  1.00  0.00    -0.290 A  
HETATM   28  C   UNL     1     -11.851  15.624  69.048  1.00  0.00    -0.379 A  
ENDBRANCH  20  21
ENDBRANCH  19  20
ENDBRANCH   2  19
TORSDOF 10
ENDMDL
MODEL      234
REMARK 921   NORMALIZED FREE ENERGY PREDICTED BY IDOCK:   -3.87 KCAL/MOL
REMARK 922        TOTAL FREE ENERGY PREDICTED BY IDOCK:   -7.27 KCAL/MOL
REMARK 923 INTER-LIGAND FREE ENERGY PREDICTED BY IDOCK:   -6.79 KCAL/MOL
REMARK 924 INTRA-LIGAND FREE ENERGY PREDICTED BY IDOCK:   -0.49 KCAL/MOL
REMARK 927      BINDING AFFINITY PREDICTED BY RF-SCORE:    0.00 PKD
ROOT
HETATM    1  O   UNL     1      -8.999  10.808  65.100  1.00  0.00    -0.194 OA 
HETATM    2  C   UNL     1      -9.703  10.106  66.133  1.00  0.00    -0.218 C  
HETATM    3  H   UNL     1      -9.594  10.964  64.376  1.00  0.00     0.000 HD 
ENDROOT
BRANCH   2   4
HETATM    4  C   UNL     1      -8.739   9.852  67.305  1.00  0.00    -0.128 C  
BRANCH   4   5
HETATM    5  N   UNL     1      -8.280  11.122  67.894  1.00  0.00    -0.117 NA 
HETATM    6  H   UNL     1      -9.049  11.778  68.032  1.00  0.00     0.000 HD 
BRANCH   5   7
HETATM    7  C   UNL     1      -7.547  10.863  69.138  1.00  0.00    -0.133 C  
BRANCH   7   8
HETATM    8  C   UNL     1      -7.732   9.412  69.597  1.00  0.00    -0.098 C  
BRANCH   8   9
HETATM    9  N   UNL     1      -8.690   9.344  70.683  1.00  0.00    -0.229 N  
HETATM   10  H   UNL     1      -9.505   9.956  70.653  1.00  0.00     0.000 HD 
BRANCH   9  11
HETATM   11  C   UNL     1      -8.547   8.496  71.743  1.00  0.00    -0.190 C  
HETATM   12  O   UNL     1      -7.826   8.778  72.698  1.00  0.00    -0.369 OA 
BRANCH  11  13
HETATM   13  N   UNL     1      -9.265   7.321  71.669  1.00  0.00    -0.146 N  
HETATM   14  C   UNL     1      -9.901   6.795  72.878  1.00  0.00    -0.166 C  
HETATM   15  C   UNL     1     -11.423   6.733  72.701  1.00  0.00    -0.180 C  
HETATM   16  O   UNL     1     -11.777   5.979  71.528  1.00  0.00    -0.250 OA 
HETATM   17  C   UNL     1     -11.200   6.568  70.354  1.00  0.00    -0.355 C  
HETATM   18  C   UNL     1      -9.669   6.605  70.454  1.00  0.00    -0.175 C  
ENDBRANCH  11  13
ENDBRANCH   9  11
ENDBRANCH   8   9
ENDBRANCH   7   8
ENDBRANCH   5   7
ENDBRANCH   4   5
ENDBRANCH   2   4
BRANCH   2  19
HETATM   19  C   UNL     1     -10.901  10.934  66.616  1.00  0.00    -0.197 C  
BRANCH  19  20
HETATM   20  O   UNL     1     -10.448  12.225  67.048  1.00  0.00    -0.215 OA 
BRANCH  20  21
HETATM   21  C   UNL     1     -10.819  13.262  66.236  1.00  0.00    -0.284 A  
HETATM   22  C   UNL     1      -9.949  14.354  66.211  1.00  0.00    -0.320 A  
HETATM   23  H   UNL     1     -12.482  16.525  63.293  1.00  0.00     0.000 HD 
HETATM   24  O   UNL     1     -11.699  16.525  63.831  1.00  0.00    -1.148 OA 
HETATM   25  C   UNL     1     -10.229  15.464  65.410  1.00  0.00    -0.408 A  
HETATM   26  C   UNL     1     -11.376  15.465  64.622  1.00  0.00    -0.355 A  
HETATM   27  C   UNL     1     -11.955  13.267  65.423  1.00  0.00    -0.432 A  
HETATM   28  C   UNL     1     -12.234  14.371  64.616  1.00  0.00    -0.479 A  
ENDBRANCH  20  21
ENDBRANCH  19  20
ENDBRANCH   2  19
TORSDOF 10
ENDMDL
MODEL      235
REMARK 921   NORMALIZED FREE ENERGY PREDICTED BY IDOCK:   -3.87 KCAL/MOL
REMARK 922        TOTAL FREE ENERGY PREDICTED BY IDOCK:   -7.27 KCAL/MOL
REMARK 923 INTER-LIGAND FREE ENERGY PREDICTED BY IDOCK:   -6.65 KCAL/MOL
REMARK 924 INTRA-LIGAND FREE ENERGY PREDICTED BY IDOCK:   -0.62 KCAL/MOL
REMARK 927      BINDING AFFINITY PREDICTED BY RF-SCORE:    0.00 PKD
ROOT
HETATM    1  O   UNL     1     -12.575  11.457  63.125  1.00  0.00    -0.835 OA 
HETATM    2  C   UNL     1     -11.952  12.435  63.969  1.00  0.00    -0.460 C  
HETATM    3  H   UNL     1     -12.458  10.598  63.514  1.00  0.00     0.000 HD 
ENDROOT
BRANCH   2   4
HETATM    4  C   UNL     1     -12.141  13.825  63.339  1.00  0.00    -0.069 C  
BRANCH   4   5
HETATM    5  N   UNL     1     -12.437  14.835  64.370  1.00  0.00    -0.635 NA 
HETATM    6  H   UNL     1     -12.687  14.408  65.262  1.00  0.00     0.000 HD 
BRANCH   5   7
HETATM    7  C   UNL     1     -11.310  15.765  64.501  1.00  0.00    -0.316 C  
BRANCH   7   8
HETATM    8  C   UNL     1     -10.778  15.790  65.938  1.00  0.00    -0.313 C  
BRANCH   8   9
HETATM    9  N   UNL     1      -9.833  16.875  66.108  1.00  0.00    -0.304 N  
HETATM   10  H   UNL     1      -8.936  16.821  65.625  1.00  0.00     0.000 HD 
BRANCH   9  11
HETATM   11  C   UNL     1     -10.092  17.966  66.887  1.00  0.00    -0.348 C  
HETATM   12  O   UNL     1     -11.072  18.681  66.686  1.00  0.00    -0.036 OA 
BRANCH  11  13
HETATM   13  N   UNL     1      -9.191  18.201  67.904  1.00  0.00    -0.264 N  
HETATM   14  C   UNL     1      -8.278  17.130  68.311  1.00  0.00    -0.230 C  
HETATM   15  C   UNL     1      -6.822  17.550  68.084  1.00  0.00    -0.197 C  
HETATM   16  O   UNL     1      -6.532  18.793  68.747  1.00  0.00    -0.235 OA 
HETATM   17  C   UNL     1      -7.394  19.836  68.268  1.00  0.00    -0.314 C  
HETATM   18  C   UNL     1      -8.866  19.491  68.522  1.00  0.00    -0.342 C  
ENDBRANCH  11  13
ENDBRANCH   9  11
ENDBRANCH   8   9
ENDBRANCH   7   8
ENDBRANCH   5   7
ENDBRANCH   4   5
ENDBRANCH   2   4
BRANCH   2  19
HETATM   19  C   UNL     1     -12.583  12.408  65.367  1.00  0.00     0.078 C  
BRANCH  19  20
HETATM   20  O   UNL     1     -11.687  13.013  66.310  1.00  0.00    -0.348 OA 
BRANCH  20  21
HETATM   21  C   UNL     1     -10.943  12.127  67.042  1.00  0.00    -0.271 A  
HETATM   22  C   UNL     1      -9.569  12.373  67.078  1.00  0.00    -0.211 A  
HETATM   23  H   UNL     1      -8.838   8.870  69.694  1.00  0.00     0.000 HD 
HETATM   24  O   UNL     1      -8.471   9.605  69.216  1.00  0.00    -0.130 OA 
HETATM   25  C   UNL     1      -8.719  11.533  67.803  1.00  0.00    -0.142 A  
HETATM   26  C   UNL     1      -9.256  10.457  68.502  1.00  0.00    -0.145 A  
HETATM   27  C   UNL     1     -11.472  11.057  67.767  1.00  0.00    -0.339 A  
HETATM   28  C   UNL     1     -10.626  10.220  68.497  1.00  0.00    -0.240 A  
ENDBRANCH  20  21
ENDBRANCH  19  20
ENDBRANCH   2  19
TORSDOF 10
ENDMDL
MODEL      236
REMARK 921   NORMALIZED FREE ENERGY PREDICTED BY IDOCK:   -3.87 KCAL/MOL
REMARK 922        TOTAL FREE ENERGY PREDICTED BY IDOCK:   -7.27 KCAL/MOL
REMARK 923 INTER-LIGAND FREE ENERGY PREDICTED BY IDOCK:   -6.12 KCAL/MOL
REMARK 924 INTRA-LIGAND FREE ENERGY PREDICTED BY IDOCK:   -1.15 KCAL/MOL
REMARK 927      BINDING AFFINITY PREDICTED BY RF-SCORE:    0.00 PKD
ROOT
HETATM    1  O   UNL     1      -9.081   8.022  68.893  1.00  0.00    -0.144 OA 
HETATM    2  C   UNL     1      -9.408   8.950  69.937  1.00  0.00    -0.166 C  
HETATM    3  H   UNL     1      -9.793   8.005  68.265  1.00  0.00     0.000 HD 
ENDROOT
BRANCH   2   4
HETATM    4  C   UNL     1      -8.255   8.978  70.954  1.00  0.00    -0.185 C  
BRANCH   4   5
HETATM    5  N   UNL     1      -7.696   7.630  71.155  1.00  0.00    -0.083 NA 
HETATM    6  H   UNL     1      -6.747   7.552  70.789  1.00  0.00     0.000 HD 
BRANCH   5   7
HETATM    7  C   UNL     1      -7.772   7.261  72.573  1.00  0.00    -0.088 C  
BRANCH   7   8
HETATM    8  C   UNL     1      -8.692   8.214  73.344  1.00  0.00    -0.251 C  
BRANCH   8   9
HETATM    9  N   UNL     1      -9.857   7.506  73.835  1.00  0.00    -0.389 N  
HETATM   10  H   UNL     1      -9.827   7.112  74.775  1.00  0.00     0.000 HD 
BRANCH   9  11
HETATM   11  C   UNL     1     -10.991   7.344  73.093  1.00  0.00    -0.359 C  
HETATM   12  O   UNL     1     -11.796   8.261  72.941  1.00  0.00    -0.337 OA 
BRANCH  11  13
HETATM   13  N   UNL     1     -11.162   6.097  72.529  1.00  0.00    -0.274 N  
HETATM   14  C   UNL     1     -11.362   5.989  71.082  1.00  0.00    -0.232 C  
HETATM   15  C   UNL     1     -10.229   5.177  70.443  1.00  0.00    -0.264 C  
HETATM   16  O   UNL     1     -10.097   3.890  71.071  1.00  0.00    -0.134 OA 
HETATM   17  C   UNL     1      -9.826   4.036  72.473  1.00  0.00    -0.157 C  
HETATM   18  C   UNL     1     -10.958   4.796  73.175  1.00  0.00    -0.300 C  
ENDBRANCH  11  13
ENDBRANCH   9  11
ENDBRANCH   8   9
ENDBRANCH   7   8
ENDBRANCH   5   7
ENDBRANCH   4   5
ENDBRANCH   2   4
BRANCH   2  19
HETATM   19  C   UNL     1      -9.619  10.353  69.352  1.00  0.00    -0.192 C  
BRANCH  19  20
HETATM   20  O   UNL     1      -9.589  10.285  67.920  1.00  0.00    -0.144 OA 
BRANCH  20  21
HETATM   21  C   UNL     1     -10.342  11.237  67.286  1.00  0.00    -0.201 A  
HETATM   22  C   UNL     1     -11.160  12.012  68.111  1.00  0.00    -0.294 A  
HETATM   23  H   UNL     1     -12.679  14.370  64.680  1.00  0.00     0.000 HD 
HETATM   24  O   UNL     1     -12.701  14.211  65.616  1.00  0.00    -0.514 OA 
HETATM   25  C   UNL     1     -11.964  13.016  67.567  1.00  0.00    -0.360 A  
HETATM   26  C   UNL     1     -11.931  13.250  66.196  1.00  0.00    -0.418 A  
HETATM   27  C   UNL     1     -10.301  11.497  65.915  1.00  0.00    -0.293 A  
HETATM   28  C   UNL     1     -11.099  12.504  65.369  1.00  0.00    -0.337 A  
ENDBRANCH  20  21
ENDBRANCH  19  20
ENDBRANCH   2  19
TORSDOF 10
ENDMDL
MODEL      237
REMARK 921   NORMALIZED FREE ENERGY PREDICTED BY IDOCK:   -3.87 KCAL/MOL
REMARK 922        TOTAL FREE ENERGY PREDICTED BY IDOCK:   -7.27 KCAL/MOL
REMARK 923 INTER-LIGAND FREE ENERGY PREDICTED BY IDOCK:   -6.54 KCAL/MOL
REMARK 924 INTRA-LIGAND FREE ENERGY PREDICTED BY IDOCK:   -0.73 KCAL/MOL
REMARK 927      BINDING AFFINITY PREDICTED BY RF-SCORE:    0.00 PKD
ROOT
HETATM    1  O   UNL     1      -8.492   9.523  67.542  1.00  0.00    -0.124 OA 
HETATM    2  C   UNL     1      -9.354   8.812  66.643  1.00  0.00    -0.189 C  
HETATM    3  H   UNL     1      -7.654   9.662  67.117  1.00  0.00     0.000 HD 
ENDROOT
BRANCH   2   4
HETATM    4  C   UNL     1     -10.711   8.586  67.332  1.00  0.00    -0.145 C  
BRANCH   4   5
HETATM    5  N   UNL     1     -11.175   7.202  67.141  1.00  0.00    -0.559 NA 
HETATM    6  H   UNL     1     -11.370   6.997  66.161  1.00  0.00     0.000 HD 
BRANCH   5   7
HETATM    7  C   UNL     1     -10.205   6.263  67.717  1.00  0.00    -0.170 C  
BRANCH   7   8
HETATM    8  C   UNL     1     -10.553   5.935  69.173  1.00  0.00    -0.299 C  
BRANCH   8   9
HETATM    9  N   UNL     1      -9.674   6.650  70.076  1.00  0.00    -0.163 N  
HETATM   10  H   UNL     1      -9.796   7.658  70.179  1.00  0.00     0.000 HD 
BRANCH   9  11
HETATM   11  C   UNL     1      -8.690   6.034  70.795  1.00  0.00    -0.135 C  
HETATM   12  O   UNL     1      -7.537   5.959  70.373  1.00  0.00    -0.086 OA 
BRANCH  11  13
HETATM   13  N   UNL     1      -9.076   5.516  72.013  1.00  0.00    -0.141 N  
HETATM   14  C   UNL     1     -10.071   6.235  72.812  1.00  0.00    -0.180 C  
HETATM   15  C   UNL     1     -11.321   5.372  73.016  1.00  0.00    -0.293 C  
HETATM   16  O   UNL     1     -10.982   4.097  73.589  1.00  0.00    -0.233 OA 
HETATM   17  C   UNL     1     -10.066   3.388  72.742  1.00  0.00    -0.161 C  
HETATM   18  C   UNL     1      -8.770   4.184  72.547  1.00  0.00    -0.104 C  
ENDBRANCH  11  13
ENDBRANCH   9  11
ENDBRANCH   8   9
ENDBRANCH   7   8
ENDBRANCH   5   7
ENDBRANCH   4   5
ENDBRANCH   2   4
BRANCH   2  19
HETATM   19  C   UNL     1      -9.554   9.618  65.352  1.00  0.00    -0.291 C  
BRANCH  19  20
HETATM   20  O   UNL     1      -9.220  10.993  65.589  1.00  0.00    -0.198 OA 
BRANCH  20  21
HETATM   21  C   UNL     1     -10.120  11.894  65.088  1.00  0.00    -0.261 A  
HETATM   22  C   UNL     1     -10.333  13.036  65.863  1.00  0.00    -0.296 A  
HETATM   23  H   UNL     1     -13.233  14.688  62.948  1.00  0.00     0.000 HD 
HETATM   24  O   UNL     1     -12.778  14.795  63.775  1.00  0.00    -0.767 OA 
HETATM   25  C   UNL     1     -11.226  14.023  65.440  1.00  0.00    -0.319 A  
HETATM   26  C   UNL     1     -11.892  13.867  64.229  1.00  0.00    -0.412 A  
HETATM   27  C   UNL     1     -10.778  11.761  63.863  1.00  0.00    -0.457 A  
HETATM   28  C   UNL     1     -11.666  12.749  63.434  1.00  0.00    -0.556 A  
ENDBRANCH  20  21
ENDBRANCH  19  20
ENDBRANCH   2  19
TORSDOF 10
ENDMDL
MODEL      238
REMARK 921   NORMALIZED FREE ENERGY PREDICTED BY IDOCK:   -3.86 KCAL/MOL
REMARK 922        TOTAL FREE ENERGY PREDICTED BY IDOCK:   -7.26 KCAL/MOL
REMARK 923 INTER-LIGAND FREE ENERGY PREDICTED BY IDOCK:   -6.59 KCAL/MOL
REMARK 924 INTRA-LIGAND FREE ENERGY PREDICTED BY IDOCK:   -0.67 KCAL/MOL
REMARK 927      BINDING AFFINITY PREDICTED BY RF-SCORE:    0.00 PKD
ROOT
HETATM    1  O   UNL     1      -9.974   6.824  66.281  1.00  0.00    -0.401 OA 
HETATM    2  C   UNL     1      -8.609   7.202  66.507  1.00  0.00    -0.129 C  
HETATM    3  H   UNL     1     -10.089   5.920  66.550  1.00  0.00     0.000 HD 
ENDROOT
BRANCH   2   4
HETATM    4  C   UNL     1      -8.421   8.665  66.071  1.00  0.00    -0.141 C  
BRANCH   4   5
HETATM    5  N   UNL     1      -7.437   9.348  66.928  1.00  0.00    -0.090 NA 
HETATM    6  H   UNL     1      -6.496   9.306  66.536  1.00  0.00     0.000 HD 
BRANCH   5   7
HETATM    7  C   UNL     1      -7.866  10.728  67.184  1.00  0.00    -0.124 C  
BRANCH   7   8
HETATM    8  C   UNL     1      -8.775  11.242  66.062  1.00  0.00    -0.164 C  
BRANCH   8   9
HETATM    9  N   UNL     1      -9.101  12.637  66.275  1.00  0.00    -0.423 N  
HETATM   10  H   UNL     1      -8.398  13.342  66.052  1.00  0.00     0.000 HD 
BRANCH   9  11
HETATM   11  C   UNL     1     -10.309  13.049  66.761  1.00  0.00    -0.254 C  
HETATM   12  O   UNL     1     -10.429  13.468  67.911  1.00  0.00    -0.241 OA 
BRANCH  11  13
HETATM   13  N   UNL     1     -11.366  12.969  65.880  1.00  0.00    -0.303 N  
HETATM   14  C   UNL     1     -12.320  14.078  65.805  1.00  0.00    -0.480 C  
HETATM   15  C   UNL     1     -12.313  14.698  64.403  1.00  0.00    -0.398 C  
HETATM   16  O   UNL     1     -12.557  13.701  63.395  1.00  0.00    -0.799 OA 
HETATM   17  C   UNL     1     -11.559  12.672  63.448  1.00  0.00    -0.469 C  
HETATM   18  C   UNL     1     -11.560  11.977  64.816  1.00  0.00    -0.281 C  
ENDBRANCH  11  13
ENDBRANCH   9  11
ENDBRANCH   8   9
ENDBRANCH   7   8
ENDBRANCH   5   7
ENDBRANCH   4   5
ENDBRANCH   2   4
BRANCH   2  19
HETATM   19  C   UNL     1      -8.256   7.053  67.993  1.00  0.00    -0.119 C  
BRANCH  19  20
HETATM   20  O   UNL     1      -9.238   7.730  68.789  1.00  0.00    -0.140 OA 
BRANCH  20  21
HETATM   21  C   UNL     1      -9.747   6.988  69.821  1.00  0.00    -0.168 A  
HETATM   22  C   UNL     1      -8.897   6.012  70.343  1.00  0.00    -0.148 A  
HETATM   23  H   UNL     1     -11.906   4.752  73.344  1.00  0.00     0.000 HD 
HETATM   24  O   UNL     1     -11.041   4.624  72.973  1.00  0.00    -0.247 OA 
HETATM   25  C   UNL     1      -9.315   5.203  71.404  1.00  0.00    -0.189 A  
HETATM   26  C   UNL     1     -10.582   5.390  71.946  1.00  0.00    -0.226 A  
HETATM   27  C   UNL     1     -11.008   7.181  70.389  1.00  0.00    -0.290 A  
HETATM   28  C   UNL     1     -11.426   6.379  71.453  1.00  0.00    -0.363 A  
ENDBRANCH  20  21
ENDBRANCH  19  20
ENDBRANCH   2  19
TORSDOF 10
ENDMDL
MODEL      239
REMARK 921   NORMALIZED FREE ENERGY PREDICTED BY IDOCK:   -3.86 KCAL/MOL
REMARK 922        TOTAL FREE ENERGY PREDICTED BY IDOCK:   -7.25 KCAL/MOL
REMARK 923 INTER-LIGAND FREE ENERGY PREDICTED BY IDOCK:   -6.07 KCAL/MOL
REMARK 924 INTRA-LIGAND FREE ENERGY PREDICTED BY IDOCK:   -1.18 KCAL/MOL
REMARK 927      BINDING AFFINITY PREDICTED BY RF-SCORE:    0.00 PKD
ROOT
HETATM    1  O   UNL     1      -7.383  19.370  69.192  1.00  0.00    -0.357 OA 
HETATM    2  C   UNL     1      -7.274  18.246  68.308  1.00  0.00    -0.259 C  
HETATM    3  H   UNL     1      -7.341  19.060  70.088  1.00  0.00     0.000 HD 
ENDROOT
BRANCH   2   4
HETATM    4  C   UNL     1      -7.343  18.749  66.855  1.00  0.00    -0.211 C  
BRANCH   4   5
HETATM    5  N   UNL     1      -8.085  17.804  66.005  1.00  0.00    -0.525 NA 
HETATM    6  H   UNL     1      -7.601  16.911  65.913  1.00  0.00     0.000 HD 
BRANCH   5   7
HETATM    7  C   UNL     1      -9.452  17.638  66.514  1.00  0.00    -0.283 C  
BRANCH   7   8
HETATM    8  C   UNL     1      -9.904  16.177  66.419  1.00  0.00    -0.284 C  
BRANCH   8   9
HETATM    9  N   UNL     1     -10.904  15.891  67.428  1.00  0.00    -0.313 N  
HETATM   10  H   UNL     1     -11.366  16.673  67.891  1.00  0.00     0.000 HD 
BRANCH   9  11
HETATM   11  C   UNL     1     -11.254  14.620  67.784  1.00  0.00    -0.308 C  
HETATM   12  O   UNL     1     -11.717  13.828  66.965  1.00  0.00    -0.347 OA 
BRANCH  11  13
HETATM   13  N   UNL     1     -11.045  14.292  69.107  1.00  0.00    -0.256 N  
HETATM   14  C   UNL     1     -10.408  15.268  69.993  1.00  0.00    -0.221 C  
HETATM   15  C   UNL     1     -11.357  15.661  71.130  1.00  0.00    -0.393 C  
HETATM   16  O   UNL     1     -11.819  14.500  71.843  1.00  0.00    -0.277 OA 
HETATM   17  C   UNL     1     -12.506  13.603  70.958  1.00  0.00    -0.377 C  
HETATM   18  C   UNL     1     -11.583  13.132  69.828  1.00  0.00    -0.221 C  
ENDBRANCH  11  13
ENDBRANCH   9  11
ENDBRANCH   8   9
ENDBRANCH   7   8
ENDBRANCH   5   7
ENDBRANCH   4   5
ENDBRANCH   2   4
BRANCH   2  19
HETATM   19  C   UNL     1      -5.946  17.514  68.542  1.00  0.00    -0.167 C  
BRANCH  19  20
HETATM   20  O   UNL     1      -5.999  16.218  67.930  1.00  0.00    -0.108 OA 
BRANCH  20  21
HETATM   21  C   UNL     1      -5.919  15.169  68.806  1.00  0.00    -0.088 A  
HETATM   22  C   UNL     1      -5.931  13.896  68.231  1.00  0.00    -0.117 A  
HETATM   23  H   UNL     1      -5.582  11.919  72.182  1.00  0.00     0.000 HD 
HETATM   24  O   UNL     1      -5.659  11.821  71.241  1.00  0.00    -0.368 OA 
HETATM   25  C   UNL     1      -5.847  12.756  69.034  1.00  0.00    -0.076 A  
HETATM   26  C   UNL     1      -5.735  12.899  70.413  1.00  0.00    -0.171 A  
HETATM   27  C   UNL     1      -5.783  15.299  70.190  1.00  0.00    -0.135 A  
HETATM   28  C   UNL     1      -5.692  14.162  70.994  1.00  0.00    -0.215 A  
ENDBRANCH  20  21
ENDBRANCH  19  20
ENDBRANCH   2  19
TORSDOF 10
ENDMDL
MODEL      240
REMARK 921   NORMALIZED FREE ENERGY PREDICTED BY IDOCK:   -3.85 KCAL/MOL
REMARK 922        TOTAL FREE ENERGY PREDICTED BY IDOCK:   -7.23 KCAL/MOL
REMARK 923 INTER-LIGAND FREE ENERGY PREDICTED BY IDOCK:   -5.98 KCAL/MOL
REMARK 924 INTRA-LIGAND FREE ENERGY PREDICTED BY IDOCK:   -1.25 KCAL/MOL
REMARK 927      BINDING AFFINITY PREDICTED BY RF-SCORE:    0.00 PKD
ROOT
HETATM    1  O   UNL     1      -7.222   5.478  68.500  1.00  0.00    -0.071 OA 
HETATM    2  C   UNL     1      -8.439   6.167  68.820  1.00  0.00    -0.118 C  
HETATM    3  H   UNL     1      -6.918   5.019  69.274  1.00  0.00     0.000 HD 
ENDROOT
BRANCH   2   4
HETATM    4  C   UNL     1      -8.930   6.912  67.567  1.00  0.00    -0.116 C  
BRANCH   4   5
HETATM    5  N   UNL     1      -8.638   8.352  67.661  1.00  0.00    -0.129 NA 
HETATM    6  H   UNL     1      -9.357   8.919  67.211  1.00  0.00     0.000 HD 
BRANCH   5   7
HETATM    7  C   UNL     1      -8.435   8.733  69.064  1.00  0.00    -0.130 C  
BRANCH   7   8
HETATM    8  C   UNL     1      -9.500   9.735  69.524  1.00  0.00    -0.212 C  
BRANCH   8   9
HETATM    9  N   UNL     1      -9.132  11.079  69.130  1.00  0.00    -0.381 N  
HETATM   10  H   UNL     1      -8.675  11.681  69.815  1.00  0.00     0.000 HD 
BRANCH   9  11
HETATM   11  C   UNL     1      -9.369  11.575  67.879  1.00  0.00    -0.171 C  
HETATM   12  O   UNL     1      -8.503  11.558  67.007  1.00  0.00    -0.151 OA 
BRANCH  11  13
HETATM   13  N   UNL     1     -10.634  12.081  67.669  1.00  0.00    -0.206 N  
HETATM   14  C   UNL     1     -11.273  12.871  68.724  1.00  0.00    -0.279 C  
HETATM   15  C   UNL     1     -11.552  14.296  68.234  1.00  0.00    -0.324 C  
HETATM   16  O   UNL     1     -12.325  14.284  67.021  1.00  0.00    -0.386 OA 
HETATM   17  C   UNL     1     -11.634  13.568  65.987  1.00  0.00    -0.338 C  
HETATM   18  C   UNL     1     -11.376  12.115  66.404  1.00  0.00    -0.356 C  
ENDBRANCH  11  13
ENDBRANCH   9  11
ENDBRANCH   8   9
ENDBRANCH   7   8
ENDBRANCH   5   7
ENDBRANCH   4   5
ENDBRANCH   2   4
BRANCH   2  19
HETATM   19  C   UNL     1      -9.508   5.169  69.283  1.00  0.00    -0.140 C  
BRANCH  19  20
HETATM   20  O   UNL     1      -9.611   5.208  70.714  1.00  0.00    -0.160 OA 
BRANCH  20  21
HETATM   21  C   UNL     1     -10.391   6.222  71.203  1.00  0.00    -0.209 A  
HETATM   22  C   UNL     1     -11.622   6.401  70.569  1.00  0.00    -0.424 A  
HETATM   23  H   UNL     1     -12.708   9.760  73.247  1.00  0.00     0.000 HD 
HETATM   24  O   UNL     1     -12.953   9.208  72.514  1.00  0.00    -0.407 OA 
HETATM   25  C   UNL     1     -12.498   7.403  70.993  1.00  0.00    -0.285 A  
HETATM   26  C   UNL     1     -12.140   8.212  72.067  1.00  0.00    -0.340 A  
HETATM   27  C   UNL     1     -10.053   7.026  72.293  1.00  0.00    -0.195 A  
HETATM   28  C   UNL     1     -10.929   8.024  72.724  1.00  0.00    -0.449 A  
ENDBRANCH  20  21
ENDBRANCH  19  20
ENDBRANCH   2  19
TORSDOF 10
ENDMDL
MODEL      241
REMARK 921   NORMALIZED FREE ENERGY PREDICTED BY IDOCK:   -3.84 KCAL/MOL
REMARK 922        TOTAL FREE ENERGY PREDICTED BY IDOCK:   -7.22 KCAL/MOL
REMARK 923 INTER-LIGAND FREE ENERGY PREDICTED BY IDOCK:   -6.57 KCAL/MOL
REMARK 924 INTRA-LIGAND FREE ENERGY PREDICTED BY IDOCK:   -0.64 KCAL/MOL
REMARK 927      BINDING AFFINITY PREDICTED BY RF-SCORE:    0.00 PKD
ROOT
HETATM    1  O   UNL     1     -12.818  15.255  69.690  1.00  0.00    -0.601 OA 
HETATM    2  C   UNL     1     -12.125  14.442  68.734  1.00  0.00    -0.241 C  
HETATM    3  H   UNL     1     -13.527  14.747  70.068  1.00  0.00     0.000 HD 
ENDROOT
BRANCH   2   4
HETATM    4  C   UNL     1     -10.978  15.265  68.122  1.00  0.00    -0.292 C  
BRANCH   4   5
HETATM    5  N   UNL     1      -9.670  14.700  68.491  1.00  0.00    -0.220 NA 
HETATM    6  H   UNL     1      -9.046  14.622  67.687  1.00  0.00     0.000 HD 
BRANCH   5   7
HETATM    7  C   UNL     1      -9.072  15.485  69.577  1.00  0.00    -0.260 C  
BRANCH   7   8
HETATM    8  C   UNL     1      -8.306  16.694  69.029  1.00  0.00    -0.182 C  
BRANCH   8   9
HETATM    9  N   UNL     1      -7.637  16.349  67.791  1.00  0.00    -0.141 N  
HETATM   10  H   UNL     1      -7.115  15.473  67.746  1.00  0.00     0.000 HD 
BRANCH   9  11
HETATM   11  C   UNL     1      -7.674  17.145  66.682  1.00  0.00    -0.265 C  
HETATM   12  O   UNL     1      -8.544  17.010  65.824  1.00  0.00    -0.517 OA 
BRANCH  11  13
HETATM   13  N   UNL     1      -6.685  18.102  66.601  1.00  0.00    -0.188 N  
HETATM   14  C   UNL     1      -6.860  19.234  65.688  1.00  0.00    -0.283 C  
HETATM   15  C   UNL     1      -6.880  20.554  66.467  1.00  0.00    -0.255 C  
HETATM   16  O   UNL     1      -5.705  20.691  67.286  1.00  0.00    -0.172 OA 
HETATM   17  C   UNL     1      -5.608  19.605  68.219  1.00  0.00    -0.205 C  
HETATM   18  C   UNL     1      -5.528  18.259  67.489  1.00  0.00    -0.138 C  
ENDBRANCH  11  13
ENDBRANCH   9  11
ENDBRANCH   8   9
ENDBRANCH   7   8
ENDBRANCH   5   7
ENDBRANCH   4   5
ENDBRANCH   2   4
BRANCH   2  19
HETATM   19  C   UNL     1     -11.559  13.188  69.415  1.00  0.00    -0.300 C  
BRANCH  19  20
HETATM   20  O   UNL     1     -11.793  12.044  68.582  1.00  0.00    -0.310 OA 
BRANCH  20  21
HETATM   21  C   UNL     1     -11.321  10.863  69.088  1.00  0.00    -0.283 A  
HETATM   22  C   UNL     1     -11.701  10.570  70.399  1.00  0.00    -0.434 A  
HETATM   23  H   UNL     1      -9.507   6.719  70.356  1.00  0.00     0.000 HD 
HETATM   24  O   UNL     1     -10.046   7.329  70.845  1.00  0.00    -0.189 OA 
HETATM   25  C   UNL     1     -11.279   9.386  71.010  1.00  0.00    -0.412 A  
HETATM   26  C   UNL     1     -10.490   8.492  70.294  1.00  0.00    -0.220 A  
HETATM   27  C   UNL     1     -10.547   9.946  68.372  1.00  0.00    -0.258 A  
HETATM   28  C   UNL     1     -10.130   8.760  68.978  1.00  0.00    -0.206 A  
ENDBRANCH  20  21
ENDBRANCH  19  20
ENDBRANCH   2  19
TORSDOF 10
ENDMDL
MODEL      242
REMARK 921   NORMALIZED FREE ENERGY PREDICTED BY IDOCK:   -3.83 KCAL/MOL
REMARK 922        TOTAL FREE ENERGY PREDICTED BY IDOCK:   -7.21 KCAL/MOL
REMARK 923 INTER-LIGAND FREE ENERGY PREDICTED BY IDOCK:   -6.20 KCAL/MOL
REMARK 924 INTRA-LIGAND FREE ENERGY PREDICTED BY IDOCK:   -1.01 KCAL/MOL
REMARK 927      BINDING AFFINITY PREDICTED BY RF-SCORE:    0.00 PKD
ROOT
HETATM    1  O   UNL     1      -5.584  13.946  68.148  1.00  0.00    -0.100 OA 
HETATM    2  C   UNL     1      -6.817  14.640  67.914  1.00  0.00    -0.163 C  
HETATM    3  H   UNL     1      -5.175  13.759  67.311  1.00  0.00     0.000 HD 
ENDROOT
BRANCH   2   4
HETATM    4  C   UNL     1      -7.480  14.942  69.269  1.00  0.00    -0.177 C  
BRANCH   4   5
HETATM    5  N   UNL     1      -8.887  14.509  69.276  1.00  0.00    -0.395 NA 
HETATM    6  H   UNL     1      -9.034  13.695  69.873  1.00  0.00     0.000 HD 
BRANCH   5   7
HETATM    7  C   UNL     1      -9.756  15.631  69.651  1.00  0.00    -0.276 C  
BRANCH   7   8
HETATM    8  C   UNL     1     -11.228  15.204  69.680  1.00  0.00    -0.272 C  
BRANCH   8   9
HETATM    9  N   UNL     1     -11.495  14.240  68.632  1.00  0.00    -0.278 N  
HETATM   10  H   UNL     1     -11.445  14.549  67.661  1.00  0.00     0.000 HD 
BRANCH   9  11
HETATM   11  C   UNL     1     -11.810  12.937  68.889  1.00  0.00    -0.309 C  
HETATM   12  O   UNL     1     -12.236  12.583  69.987  1.00  0.00    -0.272 OA 
BRANCH  11  13
HETATM   13  N   UNL     1     -11.626  12.060  67.840  1.00  0.00    -0.330 N  
HETATM   14  C   UNL     1     -11.578  12.583  66.473  1.00  0.00    -0.388 C  
HETATM   15  C   UNL     1     -10.216  12.288  65.834  1.00  0.00    -0.249 C  
HETATM   16  O   UNL     1      -9.910  10.884  65.891  1.00  0.00    -0.216 OA 
HETATM   17  C   UNL     1      -9.890  10.425  67.250  1.00  0.00    -0.178 C  
HETATM   18  C   UNL     1     -11.250  10.644  67.924  1.00  0.00    -0.308 C  
ENDBRANCH  11  13
ENDBRANCH   9  11
ENDBRANCH   8   9
ENDBRANCH   7   8
ENDBRANCH   5   7
ENDBRANCH   4   5
ENDBRANCH   2   4
BRANCH   2  19
HETATM   19  C   UNL     1      -6.555  15.950  67.161  1.00  0.00    -0.097 C  
BRANCH  19  20
HETATM   20  O   UNL     1      -7.707  16.293  66.378  1.00  0.00    -0.262 OA 
BRANCH  20  21
HETATM   21  C   UNL     1      -8.414  17.369  66.843  1.00  0.00    -0.241 A  
HETATM   22  C   UNL     1      -9.773  17.387  66.523  1.00  0.00    -0.302 A  
HETATM   23  H   UNL     1     -10.408  21.207  68.677  1.00  0.00     0.000 HD 
HETATM   24  O   UNL     1     -10.785  20.509  68.155  1.00  0.00    -0.003 OA 
HETATM   25  C   UNL     1     -10.588  18.437  66.953  1.00  0.00    -0.381 A  
HETATM   26  C   UNL     1     -10.036  19.459  67.718  1.00  0.00    -0.401 A  
HETATM   27  C   UNL     1      -7.878  18.390  67.630  1.00  0.00    -0.240 A  
HETATM   28  C   UNL     1      -8.691  19.437  68.067  1.00  0.00    -0.362 A  
ENDBRANCH  20  21
ENDBRANCH  19  20
ENDBRANCH   2  19
TORSDOF 10
ENDMDL
MODEL      243
REMARK 921   NORMALIZED FREE ENERGY PREDICTED BY IDOCK:   -3.83 KCAL/MOL
REMARK 922        TOTAL FREE ENERGY PREDICTED BY IDOCK:   -7.20 KCAL/MOL
REMARK 923 INTER-LIGAND FREE ENERGY PREDICTED BY IDOCK:   -6.61 KCAL/MOL
REMARK 924 INTRA-LIGAND FREE ENERGY PREDICTED BY IDOCK:   -0.59 KCAL/MOL
REMARK 927      BINDING AFFINITY PREDICTED BY RF-SCORE:    0.00 PKD
ROOT
HETATM    1  O   UNL     1     -12.088  10.672  67.981  1.00  0.00    -0.755 OA 
HETATM    2  C   UNL     1     -10.907   9.898  67.729  1.00  0.00    -0.264 C  
HETATM    3  H   UNL     1     -12.764  10.097  68.319  1.00  0.00     0.000 HD 
ENDROOT
BRANCH   2   4
HETATM    4  C   UNL     1      -9.812  10.828  67.180  1.00  0.00    -0.185 C  
BRANCH   4   5
HETATM    5  N   UNL     1     -10.316  12.204  67.031  1.00  0.00    -0.210 NA 
HETATM    6  H   UNL     1     -11.320  12.263  67.200  1.00  0.00     0.000 HD 
BRANCH   5   7
HETATM    7  C   UNL     1      -9.557  13.113  67.899  1.00  0.00    -0.218 C  
BRANCH   7   8
HETATM    8  C   UNL     1      -8.471  13.852  67.110  1.00  0.00    -0.180 C  
BRANCH   8   9
HETATM    9  N   UNL     1      -7.809  14.827  67.953  1.00  0.00    -0.125 N  
HETATM   10  H   UNL     1      -7.589  14.570  68.915  1.00  0.00     0.000 HD 
BRANCH   9  11
HETATM   11  C   UNL     1      -7.468  16.074  67.514  1.00  0.00    -0.160 C  
HETATM   12  O   UNL     1      -6.476  16.258  66.810  1.00  0.00    -0.280 OA 
BRANCH  11  13
HETATM   13  N   UNL     1      -8.307  17.096  67.906  1.00  0.00    -0.203 N  
HETATM   14  C   UNL     1      -8.150  18.420  67.302  1.00  0.00    -0.240 C  
HETATM   15  C   UNL     1      -9.423  18.820  66.546  1.00  0.00    -0.338 C  
HETATM   16  O   UNL     1     -10.577  18.744  67.400  1.00  0.00    -0.411 OA 
HETATM   17  C   UNL     1     -10.743  17.414  67.912  1.00  0.00    -0.351 C  
HETATM   18  C   UNL     1      -9.517  16.983  68.727  1.00  0.00    -0.263 C  
ENDBRANCH  11  13
ENDBRANCH   9  11
ENDBRANCH   8   9
ENDBRANCH   7   8
ENDBRANCH   5   7
ENDBRANCH   4   5
ENDBRANCH   2   4
BRANCH   2  19
HETATM   19  C   UNL     1     -10.422   9.233  69.024  1.00  0.00    -0.216 C  
BRANCH  19  20
HETATM   20  O   UNL     1     -10.307   7.818  68.823  1.00  0.00    -0.202 OA 
BRANCH  20  21
HETATM   21  C   UNL     1     -10.551   7.060  69.937  1.00  0.00    -0.229 A  
HETATM   22  C   UNL     1     -11.590   7.504  70.758  1.00  0.00    -0.300 A  
HETATM   23  H   UNL     1     -11.033   4.134  73.581  1.00  0.00     0.000 HD 
HETATM   24  O   UNL     1     -11.510   4.925  73.361  1.00  0.00    -0.336 OA 
HETATM   25  C   UNL     1     -11.926   6.801  71.917  1.00  0.00    -0.374 A  
HETATM   26  C   UNL     1     -11.227   5.642  72.239  1.00  0.00    -0.259 A  
HETATM   27  C   UNL     1      -9.872   5.883  70.260  1.00  0.00    -0.234 A  
HETATM   28  C   UNL     1     -10.211   5.174  71.414  1.00  0.00    -0.282 A  
ENDBRANCH  20  21
ENDBRANCH  19  20
ENDBRANCH   2  19
TORSDOF 10
ENDMDL
MODEL      244
REMARK 921   NORMALIZED FREE ENERGY PREDICTED BY IDOCK:   -3.82 KCAL/MOL
REMARK 922        TOTAL FREE ENERGY PREDICTED BY IDOCK:   -7.19 KCAL/MOL
REMARK 923 INTER-LIGAND FREE ENERGY PREDICTED BY IDOCK:   -6.41 KCAL/MOL
REMARK 924 INTRA-LIGAND FREE ENERGY PREDICTED BY IDOCK:   -0.78 KCAL/MOL
REMARK 927      BINDING AFFINITY PREDICTED BY RF-SCORE:    0.00 PKD
ROOT
HETATM    1  O   UNL     1      -8.835   9.862  66.677  1.00  0.00    -0.133 OA 
HETATM    2  C   UNL     1      -8.263  10.093  67.971  1.00  0.00    -0.113 C  
HETATM    3  H   UNL     1      -9.278   9.021  66.683  1.00  0.00     0.000 HD 
ENDROOT
BRANCH   2   4
HETATM    4  C   UNL     1      -7.545  11.454  67.960  1.00  0.00    -0.110 C  
BRANCH   4   5
HETATM    5  N   UNL     1      -7.997  12.278  66.826  1.00  0.00    -0.378 NA 
HETATM    6  H   UNL     1      -8.957  12.063  66.556  1.00  0.00     0.000 HD 
BRANCH   5   7
HETATM    7  C   UNL     1      -7.818  13.701  67.137  1.00  0.00    -0.008 C  
BRANCH   7   8
HETATM    8  C   UNL     1      -8.755  14.142  68.268  1.00  0.00    -0.181 C  
BRANCH   8   9
HETATM    9  N   UNL     1     -10.066  13.550  68.097  1.00  0.00    -0.243 N  
HETATM   10  H   UNL     1     -10.242  12.629  68.500  1.00  0.00     0.000 HD 
BRANCH   9  11
HETATM   11  C   UNL     1     -11.076  14.171  67.420  1.00  0.00    -0.306 C  
HETATM   12  O   UNL     1     -11.908  14.865  68.002  1.00  0.00    -0.333 OA 
BRANCH  11  13
HETATM   13  N   UNL     1     -11.090  13.973  66.055  1.00  0.00    -0.300 N  
HETATM   14  C   UNL     1     -11.382  12.637  65.530  1.00  0.00    -0.321 C  
HETATM   15  C   UNL     1     -12.654  12.663  64.675  1.00  0.00    -0.440 C  
HETATM   16  O   UNL     1     -12.557  13.649  63.632  1.00  0.00    -0.728 OA 
HETATM   17  C   UNL     1     -12.348  14.955  64.187  1.00  0.00    -0.185 C  
HETATM   18  C   UNL     1     -11.054  15.002  65.009  1.00  0.00    -0.413 C  
ENDBRANCH  11  13
ENDBRANCH   9  11
ENDBRANCH   8   9
ENDBRANCH   7   8
ENDBRANCH   5   7
ENDBRANCH   4   5
ENDBRANCH   2   4
BRANCH   2  19
HETATM   19  C   UNL     1      -9.360  10.093  69.044  1.00  0.00    -0.188 C  
BRANCH  19  20
HETATM   20  O   UNL     1      -9.864   8.761  69.214  1.00  0.00    -0.173 OA 
BRANCH  20  21
HETATM   21  C   UNL     1      -9.912   8.329  70.512  1.00  0.00    -0.184 A  
HETATM   22  C   UNL     1     -11.115   7.745  70.913  1.00  0.00    -0.270 A  
HETATM   23  H   UNL     1      -9.578   6.975  74.998  1.00  0.00     0.000 HD 
HETATM   24  O   UNL     1     -10.305   6.911  74.390  1.00  0.00    -0.296 OA 
HETATM   25  C   UNL     1     -11.269   7.264  72.216  1.00  0.00    -0.305 A  
HETATM   26  C   UNL     1     -10.204   7.357  73.107  1.00  0.00    -0.312 A  
HETATM   27  C   UNL     1      -8.844   8.395  71.410  1.00  0.00    -0.230 A  
HETATM   28  C   UNL     1      -8.992   7.909  72.710  1.00  0.00    -0.258 A  
ENDBRANCH  20  21
ENDBRANCH  19  20
ENDBRANCH   2  19
TORSDOF 10
ENDMDL
MODEL      245
REMARK 921   NORMALIZED FREE ENERGY PREDICTED BY IDOCK:   -3.81 KCAL/MOL
REMARK 922        TOTAL FREE ENERGY PREDICTED BY IDOCK:   -7.18 KCAL/MOL
REMARK 923 INTER-LIGAND FREE ENERGY PREDICTED BY IDOCK:   -6.08 KCAL/MOL
REMARK 924 INTRA-LIGAND FREE ENERGY PREDICTED BY IDOCK:   -1.10 KCAL/MOL
REMARK 927      BINDING AFFINITY PREDICTED BY RF-SCORE:    0.00 PKD
ROOT
HETATM    1  O   UNL     1     -12.987   7.790  70.827  1.00  0.00    -0.530 OA 
HETATM    2  C   UNL     1     -11.842   7.976  71.670  1.00  0.00    -0.289 C  
HETATM    3  H   UNL     1     -13.688   8.352  71.135  1.00  0.00     0.000 HD 
ENDROOT
BRANCH   2   4
HETATM    4  C   UNL     1     -10.707   7.064  71.172  1.00  0.00    -0.230 C  
BRANCH   4   5
HETATM    5  N   UNL     1     -11.247   5.868  70.505  1.00  0.00    -0.281 NA 
HETATM    6  H   UNL     1     -12.182   6.029  70.130  1.00  0.00     0.000 HD 
BRANCH   5   7
HETATM    7  C   UNL     1     -10.313   5.403  69.473  1.00  0.00    -0.280 C  
BRANCH   7   8
HETATM    8  C   UNL     1      -9.942   6.538  68.512  1.00  0.00    -0.142 C  
BRANCH   8   9
HETATM    9  N   UNL     1      -8.502   6.631  68.372  1.00  0.00    -0.124 N  
HETATM   10  H   UNL     1      -7.933   5.834  68.654  1.00  0.00     0.000 HD 
BRANCH   9  11
HETATM   11  C   UNL     1      -7.877   7.740  67.877  1.00  0.00    -0.127 C  
HETATM   12  O   UNL     1      -8.015   8.086  66.705  1.00  0.00    -0.100 OA 
BRANCH  11  13
HETATM   13  N   UNL     1      -7.098   8.436  68.776  1.00  0.00    -0.066 N  
HETATM   14  C   UNL     1      -6.563   9.745  68.394  1.00  0.00    -0.056 C  
HETATM   15  C   UNL     1      -7.100  10.838  69.325  1.00  0.00    -0.116 C  
HETATM   16  O   UNL     1      -6.833  10.522  70.703  1.00  0.00    -0.330 OA 
HETATM   17  C   UNL     1      -7.437   9.271  71.062  1.00  0.00    -0.064 C  
HETATM   18  C   UNL     1      -6.892   8.128  70.196  1.00  0.00    -0.040 C  
ENDBRANCH  11  13
ENDBRANCH   9  11
ENDBRANCH   8   9
ENDBRANCH   7   8
ENDBRANCH   5   7
ENDBRANCH   4   5
ENDBRANCH   2   4
BRANCH   2  19
HETATM   19  C   UNL     1     -11.387   9.440  71.631  1.00  0.00    -0.382 C  
BRANCH  19  20
HETATM   20  O   UNL     1     -12.531  10.294  71.489  1.00  0.00    -0.376 OA 
BRANCH  20  21
HETATM   21  C   UNL     1     -12.332  11.388  70.689  1.00  0.00    -0.373 A  
HETATM   22  C   UNL     1     -12.047  11.116  69.350  1.00  0.00    -0.396 A  
HETATM   23  H   UNL     1     -11.779  15.426  68.354  1.00  0.00     0.000 HD 
HETATM   24  O   UNL     1     -11.717  14.528  68.051  1.00  0.00    -0.320 OA 
HETATM   25  C   UNL     1     -11.833  12.160  68.446  1.00  0.00    -0.360 A  
HETATM   26  C   UNL     1     -11.924  13.475  68.889  1.00  0.00    -0.341 A  
HETATM   27  C   UNL     1     -12.443  12.713  71.116  1.00  0.00    -0.326 A  
HETATM   28  C   UNL     1     -12.237  13.758  70.214  1.00  0.00    -0.429 A  
ENDBRANCH  20  21
ENDBRANCH  19  20
ENDBRANCH   2  19
TORSDOF 10
ENDMDL
MODEL      246
REMARK 921   NORMALIZED FREE ENERGY PREDICTED BY IDOCK:   -3.81 KCAL/MOL
REMARK 922        TOTAL FREE ENERGY PREDICTED BY IDOCK:   -7.18 KCAL/MOL
REMARK 923 INTER-LIGAND FREE ENERGY PREDICTED BY IDOCK:   -6.49 KCAL/MOL
REMARK 924 INTRA-LIGAND FREE ENERGY PREDICTED BY IDOCK:   -0.68 KCAL/MOL
REMARK 927      BINDING AFFINITY PREDICTED BY RF-SCORE:    0.00 PKD
ROOT
HETATM    1  O   UNL     1     -10.988   7.654  67.214  1.00  0.00    -0.529 OA 
HETATM    2  C   UNL     1     -10.360   6.401  67.517  1.00  0.00    -0.196 C  
HETATM    3  H   UNL     1     -11.783   7.731  67.729  1.00  0.00     0.000 HD 
ENDROOT
BRANCH   2   4
HETATM    4  C   UNL     1      -9.074   6.277  66.683  1.00  0.00    -0.144 C  
BRANCH   4   5
HETATM    5  N   UNL     1      -9.266   6.833  65.333  1.00  0.00    -0.295 NA 
HETATM    6  H   UNL     1      -9.797   7.704  65.351  1.00  0.00     0.000 HD 
BRANCH   5   7
HETATM    7  C   UNL     1      -7.968   6.993  64.667  1.00  0.00    -0.114 C  
BRANCH   7   8
HETATM    8  C   UNL     1      -8.147   7.347  63.186  1.00  0.00    -0.032 C  
BRANCH   8   9
HETATM    9  N   UNL     1      -8.782   8.643  63.050  1.00  0.00    -0.430 N  
HETATM   10  H   UNL     1      -9.777   8.677  62.827  1.00  0.00     0.000 HD 
BRANCH   9  11
HETATM   11  C   UNL     1      -8.106   9.819  63.208  1.00  0.00    -0.149 C  
HETATM   12  O   UNL     1      -7.088  10.066  62.563  1.00  0.00    -0.112 OA 
BRANCH  11  13
HETATM   13  N   UNL     1      -8.644  10.698  64.124  1.00  0.00    -0.142 N  
HETATM   14  C   UNL     1      -9.463  11.814  63.646  1.00  0.00    -0.086 C  
HETATM   15  C   UNL     1     -10.889  11.708  64.199  1.00  0.00    -0.372 C  
HETATM   16  O   UNL     1     -10.883  11.612  65.634  1.00  0.00    -0.276 OA 
HETATM   17  C   UNL     1     -10.136  10.464  66.062  1.00  0.00    -0.243 C  
HETATM   18  C   UNL     1      -8.681  10.546  65.583  1.00  0.00    -0.180 C  
ENDBRANCH  11  13
ENDBRANCH   9  11
ENDBRANCH   8   9
ENDBRANCH   7   8
ENDBRANCH   5   7
ENDBRANCH   4   5
ENDBRANCH   2   4
BRANCH   2  19
HETATM   19  C   UNL     1     -10.020   6.326  69.011  1.00  0.00    -0.146 C  
BRANCH  19  20
HETATM   20  O   UNL     1     -10.034   7.646  69.573  1.00  0.00    -0.176 OA 
BRANCH  20  21
HETATM   21  C   UNL     1     -11.123   7.923  70.355  1.00  0.00    -0.245 A  
HETATM   22  C   UNL     1     -11.374   9.276  70.589  1.00  0.00    -0.330 A  
HETATM   23  H   UNL     1     -14.956   8.367  73.035  1.00  0.00     0.000 HD 
HETATM   24  O   UNL     1     -14.380   9.029  72.673  1.00  0.00    -0.603 OA 
HETATM   25  C   UNL     1     -12.465   9.670  71.369  1.00  0.00    -0.465 A  
HETATM   26  C   UNL     1     -13.309   8.700  71.899  1.00  0.00    -0.382 A  
HETATM   27  C   UNL     1     -11.992   6.961  70.875  1.00  0.00    -0.430 A  
HETATM   28  C   UNL     1     -13.086   7.351  71.649  1.00  0.00    -0.412 A  
ENDBRANCH  20  21
ENDBRANCH  19  20
ENDBRANCH   2  19
TORSDOF 10
ENDMDL
MODEL      247
REMARK 921   NORMALIZED FREE ENERGY PREDICTED BY IDOCK:   -3.77 KCAL/MOL
REMARK 922        TOTAL FREE ENERGY PREDICTED BY IDOCK:   -7.11 KCAL/MOL
REMARK 923 INTER-LIGAND FREE ENERGY PREDICTED BY IDOCK:   -6.26 KCAL/MOL
REMARK 924 INTRA-LIGAND FREE ENERGY PREDICTED BY IDOCK:   -0.85 KCAL/MOL
REMARK 927      BINDING AFFINITY PREDICTED BY RF-SCORE:    0.00 PKD
ROOT
HETATM    1  O   UNL     1     -13.487   7.551  70.938  1.00  0.00    -0.600 OA 
HETATM    2  C   UNL     1     -12.408   7.650  71.877  1.00  0.00    -0.306 C  
HETATM    3  H   UNL     1     -14.248   7.991  71.298  1.00  0.00     0.000 HD 
ENDROOT
BRANCH   2   4
HETATM    4  C   UNL     1     -11.176   6.936  71.294  1.00  0.00    -0.268 C  
BRANCH   4   5
HETATM    5  N   UNL     1     -10.123   7.904  70.944  1.00  0.00    -0.190 NA 
HETATM    6  H   UNL     1     -10.372   8.855  71.216  1.00  0.00     0.000 HD 
BRANCH   5   7
HETATM    7  C   UNL     1      -8.842   7.483  71.523  1.00  0.00    -0.124 C  
BRANCH   7   8
HETATM    8  C   UNL     1      -8.293   6.244  70.808  1.00  0.00    -0.126 C  
BRANCH   8   9
HETATM    9  N   UNL     1      -7.965   6.558  69.432  1.00  0.00    -0.112 N  
HETATM   10  H   UNL     1      -7.915   7.538  69.154  1.00  0.00     0.000 HD 
BRANCH   9  11
HETATM   11  C   UNL     1      -7.719   5.598  68.492  1.00  0.00    -0.089 C  
HETATM   12  O   UNL     1      -6.854   4.741  68.661  1.00  0.00    -0.049 OA 
BRANCH  11  13
HETATM   13  N   UNL     1      -8.506   5.655  67.361  1.00  0.00    -0.107 N  
HETATM   14  C   UNL     1      -8.503   4.524  66.431  1.00  0.00    -0.112 C  
HETATM   15  C   UNL     1      -9.903   3.908  66.331  1.00  0.00    -0.108 C  
HETATM   16  O   UNL     1     -10.881   4.901  65.977  1.00  0.00    -0.301 OA 
HETATM   17  C   UNL     1     -10.909   5.954  66.950  1.00  0.00    -0.296 C  
HETATM   18  C   UNL     1      -9.544   6.645  67.052  1.00  0.00    -0.150 C  
ENDBRANCH  11  13
ENDBRANCH   9  11
ENDBRANCH   8   9
ENDBRANCH   7   8
ENDBRANCH   5   7
ENDBRANCH   4   5
ENDBRANCH   2   4
BRANCH   2  19
HETATM   19  C   UNL     1     -12.075   9.124  72.147  1.00  0.00    -0.318 C  
BRANCH  19  20
HETATM   20  O   UNL     1     -13.157   9.950  71.697  1.00  0.00    -0.374 OA 
BRANCH  20  21
HETATM   21  C   UNL     1     -12.773  11.102  71.064  1.00  0.00    -0.378 A  
HETATM   22  C   UNL     1     -13.140  12.292  71.695  1.00  0.00    -0.408 A  
HETATM   23  H   UNL     1     -11.204  14.753  68.558  1.00  0.00     0.000 HD 
HETATM   24  O   UNL     1     -11.703  14.731  69.366  1.00  0.00    -0.289 OA 
HETATM   25  C   UNL     1     -12.792  13.525  71.137  1.00  0.00    -0.387 A  
HETATM   26  C   UNL     1     -12.060  13.557  69.955  1.00  0.00    -0.341 A  
HETATM   27  C   UNL     1     -12.019  11.148  69.889  1.00  0.00    -0.439 A  
HETATM   28  C   UNL     1     -11.664  12.378  69.333  1.00  0.00    -0.384 A  
ENDBRANCH  20  21
ENDBRANCH  19  20
ENDBRANCH   2  19
TORSDOF 10
ENDMDL
MODEL      248
REMARK 921   NORMALIZED FREE ENERGY PREDICTED BY IDOCK:   -3.76 KCAL/MOL
REMARK 922        TOTAL FREE ENERGY PREDICTED BY IDOCK:   -7.10 KCAL/MOL
REMARK 923 INTER-LIGAND FREE ENERGY PREDICTED BY IDOCK:   -6.01 KCAL/MOL
REMARK 924 INTRA-LIGAND FREE ENERGY PREDICTED BY IDOCK:   -1.09 KCAL/MOL
REMARK 927      BINDING AFFINITY PREDICTED BY RF-SCORE:    0.00 PKD
ROOT
HETATM    1  O   UNL     1      -9.164   9.756  67.336  1.00  0.00    -0.133 OA 
HETATM    2  C   UNL     1      -8.973  11.031  67.965  1.00  0.00    -0.145 C  
HETATM    3  H   UNL     1      -8.459   9.612  66.716  1.00  0.00     0.000 HD 
ENDROOT
BRANCH   2   4
HETATM    4  C   UNL     1     -10.116  11.265  68.968  1.00  0.00    -0.128 C  
BRANCH   4   5
HETATM    5  N   UNL     1     -10.625  12.643  68.874  1.00  0.00    -0.399 NA 
HETATM    6  H   UNL     1     -10.309  13.221  69.654  1.00  0.00     0.000 HD 
BRANCH   5   7
HETATM    7  C   UNL     1     -10.263  13.225  67.577  1.00  0.00    -0.222 C  
BRANCH   7   8
HETATM    8  C   UNL     1     -10.949  14.580  67.368  1.00  0.00    -0.303 C  
BRANCH   8   9
HETATM    9  N   UNL     1      -9.995  15.561  66.891  1.00  0.00    -0.242 N  
HETATM   10  H   UNL     1      -9.019  15.469  67.174  1.00  0.00     0.000 HD 
BRANCH   9  11
HETATM   11  C   UNL     1     -10.346  16.601  66.079  1.00  0.00    -0.340 C  
HETATM   12  O   UNL     1     -10.618  16.426  64.893  1.00  0.00    -0.677 OA 
BRANCH  11  13
HETATM   13  N   UNL     1     -10.379  17.842  66.680  1.00  0.00    -0.352 N  
HETATM   14  C   UNL     1      -9.994  17.964  68.088  1.00  0.00    -0.350 C  
HETATM   15  C   UNL     1      -8.771  18.877  68.232  1.00  0.00    -0.333 C  
HETATM   16  O   UNL     1      -9.005  20.157  67.618  1.00  0.00    -0.328 OA 
HETATM   17  C   UNL     1      -9.303  20.003  66.223  1.00  0.00    -0.359 C  
HETATM   18  C   UNL     1     -10.556  19.141  66.022  1.00  0.00    -0.442 C  
ENDBRANCH  11  13
ENDBRANCH   9  11
ENDBRANCH   8   9
ENDBRANCH   7   8
ENDBRANCH   5   7
ENDBRANCH   4   5
ENDBRANCH   2   4
BRANCH   2  19
HETATM   19  C   UNL     1      -7.625  11.064  68.697  1.00  0.00    -0.124 C  
BRANCH  19  20
HETATM   20  O   UNL     1      -6.703  11.886  67.968  1.00  0.00    -0.063 OA 
BRANCH  20  21
HETATM   21  C   UNL     1      -6.533  13.145  68.479  1.00  0.00    -0.085 A  
HETATM   22  C   UNL     1      -6.746  14.197  67.585  1.00  0.00    -0.188 A  
HETATM   23  H   UNL     1      -5.875  17.238  70.689  1.00  0.00     0.000 HD 
HETATM   24  O   UNL     1      -6.107  17.058  69.786  1.00  0.00    -0.226 OA 
HETATM   25  C   UNL     1      -6.605  15.522  68.005  1.00  0.00    -0.156 A  
HETATM   26  C   UNL     1      -6.265  15.785  69.328  1.00  0.00    -0.138 A  
HETATM   27  C   UNL     1      -6.214  13.424  69.809  1.00  0.00    -0.113 A  
HETATM   28  C   UNL     1      -6.079  14.747  70.234  1.00  0.00    -0.167 A  
ENDBRANCH  20  21
ENDBRANCH  19  20
ENDBRANCH   2  19
TORSDOF 10
ENDMDL
MODEL      249
REMARK 921   NORMALIZED FREE ENERGY PREDICTED BY IDOCK:   -3.76 KCAL/MOL
REMARK 922        TOTAL FREE ENERGY PREDICTED BY IDOCK:   -7.10 KCAL/MOL
REMARK 923 INTER-LIGAND FREE ENERGY PREDICTED BY IDOCK:   -6.21 KCAL/MOL
REMARK 924 INTRA-LIGAND FREE ENERGY PREDICTED BY IDOCK:   -0.89 KCAL/MOL
REMARK 927      BINDING AFFINITY PREDICTED BY RF-SCORE:    0.00 PKD
ROOT
HETATM    1  O   UNL     1      -6.504   7.963  65.274  1.00  0.00    -0.044 OA 
HETATM    2  C   UNL     1      -7.894   7.698  65.043  1.00  0.00    -0.126 C  
HETATM    3  H   UNL     1      -6.087   8.161  64.444  1.00  0.00     0.000 HD 
ENDROOT
BRANCH   2   4
HETATM    4  C   UNL     1      -8.568   7.378  66.388  1.00  0.00    -0.134 C  
BRANCH   4   5
HETATM    5  N   UNL     1      -9.968   6.966  66.190  1.00  0.00    -0.413 NA 
HETATM    6  H   UNL     1     -10.042   5.991  65.900  1.00  0.00     0.000 HD 
BRANCH   5   7
HETATM    7  C   UNL     1     -10.748   7.241  67.402  1.00  0.00    -0.288 C  
BRANCH   7   8
HETATM    8  C   UNL     1     -10.859   5.992  68.283  1.00  0.00    -0.284 C  
BRANCH   8   9
HETATM    9  N   UNL     1     -10.425   6.287  69.634  1.00  0.00    -0.215 N  
HETATM   10  H   UNL     1      -9.425   6.311  69.831  1.00  0.00     0.000 HD 
BRANCH   9  11
HETATM   11  C   UNL     1     -11.299   6.534  70.654  1.00  0.00    -0.351 C  
HETATM   12  O   UNL     1     -12.490   6.753  70.441  1.00  0.00    -0.215 OA 
BRANCH  11  13
HETATM   13  N   UNL     1     -10.757   6.513  71.922  1.00  0.00    -0.215 N  
HETATM   14  C   UNL     1      -9.851   5.424  72.294  1.00  0.00    -0.163 C  
HETATM   15  C   UNL     1      -8.462   5.975  72.639  1.00  0.00    -0.118 C  
HETATM   16  O   UNL     1      -8.546   6.986  73.659  1.00  0.00    -0.126 OA 
HETATM   17  C   UNL     1      -9.379   8.072  73.230  1.00  0.00    -0.275 C  
HETATM   18  C   UNL     1     -10.801   7.585  72.923  1.00  0.00    -0.373 C  
ENDBRANCH  11  13
ENDBRANCH   9  11
ENDBRANCH   8   9
ENDBRANCH   7   8
ENDBRANCH   5   7
ENDBRANCH   4   5
ENDBRANCH   2   4
BRANCH   2  19
HETATM   19  C   UNL     1      -8.567   8.919  64.402  1.00  0.00    -0.115 C  
BRANCH  19  20
HETATM   20  O   UNL     1      -8.853   9.895  65.414  1.00  0.00    -0.149 OA 
BRANCH  20  21
HETATM   21  C   UNL     1      -9.667  10.918  65.007  1.00  0.00    -0.267 A  
HETATM   22  C   UNL     1     -10.252  10.764  63.749  1.00  0.00    -0.354 A  
HETATM   23  H   UNL     1     -12.388  14.633  64.079  1.00  0.00     0.000 HD 
HETATM   24  O   UNL     1     -12.200  13.864  63.555  1.00  0.00    -0.620 OA 
HETATM   25  C   UNL     1     -11.106  11.747  63.240  1.00  0.00    -0.370 A  
HETATM   26  C   UNL     1     -11.382  12.874  64.008  1.00  0.00    -0.415 A  
HETATM   27  C   UNL     1      -9.971  12.043  65.776  1.00  0.00    -0.266 A  
HETATM   28  C   UNL     1     -10.829  13.023  65.274  1.00  0.00    -0.311 A  
ENDBRANCH  20  21
ENDBRANCH  19  20
ENDBRANCH   2  19
TORSDOF 10
ENDMDL
MODEL      250
REMARK 921   NORMALIZED FREE ENERGY PREDICTED BY IDOCK:   -3.76 KCAL/MOL
REMARK 922        TOTAL FREE ENERGY PREDICTED BY IDOCK:   -7.09 KCAL/MOL
REMARK 923 INTER-LIGAND FREE ENERGY PREDICTED BY IDOCK:   -5.87 KCAL/MOL
REMARK 924 INTRA-LIGAND FREE ENERGY PREDICTED BY IDOCK:   -1.22 KCAL/MOL
REMARK 927      BINDING AFFINITY PREDICTED BY RF-SCORE:    0.00 PKD
ROOT
HETATM    1  O   UNL     1     -10.902   5.374  66.413  1.00  0.00    -0.532 OA 
HETATM    2  C   UNL     1     -11.151   6.526  67.230  1.00  0.00    -0.350 C  
HETATM    3  H   UNL     1     -11.030   5.611  65.502  1.00  0.00     0.000 HD 
ENDROOT
BRANCH   2   4
HETATM    4  C   UNL     1     -10.943   6.142  68.705  1.00  0.00    -0.348 C  
BRANCH   4   5
HETATM    5  N   UNL     1     -11.908   6.839  69.572  1.00  0.00    -0.633 NA 
HETATM    6  H   UNL     1     -12.765   6.300  69.700  1.00  0.00     0.000 HD 
BRANCH   5   7
HETATM    7  C   UNL     1     -11.277   7.181  70.852  1.00  0.00    -0.276 C  
BRANCH   7   8
HETATM    8  C   UNL     1     -10.951   5.921  71.662  1.00  0.00    -0.268 C  
BRANCH   8   9
HETATM    9  N   UNL     1      -9.532   5.634  71.598  1.00  0.00    -0.149 N  
HETATM   10  H   UNL     1      -9.232   4.748  71.191  1.00  0.00     0.000 HD 
BRANCH   9  11
HETATM   11  C   UNL     1      -8.580   6.498  72.058  1.00  0.00    -0.125 C  
HETATM   12  O   UNL     1      -8.648   6.988  73.184  1.00  0.00    -0.119 OA 
BRANCH  11  13
HETATM   13  N   UNL     1      -7.549   6.771  71.184  1.00  0.00    -0.087 N  
HETATM   14  C   UNL     1      -6.218   6.225  71.456  1.00  0.00    -0.041 C  
HETATM   15  C   UNL     1      -5.783   5.284  70.327  1.00  0.00    -0.016 C  
HETATM   16  O   UNL     1      -5.850   5.942  69.050  1.00  0.00    -0.014 OA 
HETATM   17  C   UNL     1      -7.184   6.396  68.783  1.00  0.00    -0.085 C  
HETATM   18  C   UNL     1      -7.652   7.387  69.856  1.00  0.00    -0.090 C  
ENDBRANCH  11  13
ENDBRANCH   9  11
ENDBRANCH   8   9
ENDBRANCH   7   8
ENDBRANCH   5   7
ENDBRANCH   4   5
ENDBRANCH   2   4
BRANCH   2  19
HETATM   19  C   UNL     1     -10.195   7.664  66.850  1.00  0.00    -0.294 C  
BRANCH  19  20
HETATM   20  O   UNL     1     -10.295   8.718  67.817  1.00  0.00    -0.215 OA 
BRANCH  20  21
HETATM   21  C   UNL     1     -10.621   9.942  67.298  1.00  0.00    -0.252 A  
HETATM   22  C   UNL     1     -10.301  10.134  65.952  1.00  0.00    -0.221 A  
HETATM   23  H   UNL     1     -11.960  14.244  65.967  1.00  0.00     0.000 HD 
HETATM   24  O   UNL     1     -11.529  13.555  65.476  1.00  0.00    -0.300 OA 
HETATM   25  C   UNL     1     -10.596  11.345  65.321  1.00  0.00    -0.336 A  
HETATM   26  C   UNL     1     -11.227  12.354  66.041  1.00  0.00    -0.335 A  
HETATM   27  C   UNL     1     -11.274  10.954  68.003  1.00  0.00    -0.378 A  
HETATM   28  C   UNL     1     -11.577  12.163  67.373  1.00  0.00    -0.410 A  
ENDBRANCH  20  21
ENDBRANCH  19  20
ENDBRANCH   2  19
TORSDOF 10
ENDMDL
MODEL      251
REMARK 921   NORMALIZED FREE ENERGY PREDICTED BY IDOCK:   -3.75 KCAL/MOL
REMARK 922        TOTAL FREE ENERGY PREDICTED BY IDOCK:   -7.08 KCAL/MOL
REMARK 923 INTER-LIGAND FREE ENERGY PREDICTED BY IDOCK:   -7.47 KCAL/MOL
REMARK 924 INTRA-LIGAND FREE ENERGY PREDICTED BY IDOCK:    0.39 KCAL/MOL
REMARK 927      BINDING AFFINITY PREDICTED BY RF-SCORE:    0.00 PKD
ROOT
HETATM    1  O   UNL     1     -12.166  12.440  68.112  1.00  0.00    -0.314 OA 
HETATM    2  C   UNL     1     -11.665  12.963  69.350  1.00  0.00    -0.321 C  
HETATM    3  H   UNL     1     -12.006  11.504  68.088  1.00  0.00     0.000 HD 
ENDROOT
BRANCH   2   4
HETATM    4  C   UNL     1     -11.924  14.479  69.388  1.00  0.00    -0.322 C  
BRANCH   4   5
HETATM    5  N   UNL     1     -11.169  15.169  68.329  1.00  0.00    -0.294 NA 
HETATM    6  H   UNL     1     -11.390  16.165  68.289  1.00  0.00     0.000 HD 
BRANCH   5   7
HETATM    7  C   UNL     1      -9.731  14.932  68.501  1.00  0.00    -0.215 C  
BRANCH   7   8
HETATM    8  C   UNL     1      -9.199  13.966  67.437  1.00  0.00    -0.224 C  
BRANCH   8   9
HETATM    9  N   UNL     1      -8.941  14.672  66.198  1.00  0.00    -0.491 N  
HETATM   10  H   UNL     1      -7.990  14.680  65.830  1.00  0.00     0.000 HD 
BRANCH   9  11
HETATM   11  C   UNL     1      -9.917  15.327  65.502  1.00  0.00    -0.348 C  
HETATM   12  O   UNL     1     -10.011  16.553  65.527  1.00  0.00    -0.541 OA 
BRANCH  11  13
HETATM   13  N   UNL     1     -10.772  14.525  64.776  1.00  0.00    -0.417 N  
HETATM   14  C   UNL     1     -10.325  13.192  64.365  1.00  0.00    -0.368 C  
HETATM   15  C   UNL     1     -11.217  12.111  64.985  1.00  0.00    -0.322 C  
HETATM   16  O   UNL     1     -12.602  12.341  64.673  1.00  0.00    -0.464 OA 
HETATM   17  C   UNL     1     -13.025  13.623  65.158  1.00  0.00    -0.221 C  
HETATM   18  C   UNL     1     -12.200  14.750  64.525  1.00  0.00    -0.428 C  
ENDBRANCH  11  13
ENDBRANCH   9  11
ENDBRANCH   8   9
ENDBRANCH   7   8
ENDBRANCH   5   7
ENDBRANCH   4   5
ENDBRANCH   2   4
BRANCH   2  19
HETATM   19  C   UNL     1     -12.366  12.286  70.535  1.00  0.00    -0.264 C  
BRANCH  19  20
HETATM   20  O   UNL     1     -12.685  10.930  70.191  1.00  0.00    -0.278 OA 
BRANCH  20  21
HETATM   21  C   UNL     1     -11.609  10.085  70.138  1.00  0.00    -0.252 A  
HETATM   22  C   UNL     1     -11.159   9.756  68.858  1.00  0.00    -0.139 A  
HETATM   23  H   UNL     1      -7.901   7.220  70.469  1.00  0.00     0.000 HD 
HETATM   24  O   UNL     1      -8.345   7.564  69.703  1.00  0.00    -0.128 OA 
HETATM   25  C   UNL     1     -10.063   8.906  68.690  1.00  0.00    -0.206 A  
HETATM   26  C   UNL     1      -9.412   8.402  69.812  1.00  0.00    -0.162 A  
HETATM   27  C   UNL     1     -10.933   9.591  71.255  1.00  0.00    -0.440 A  
HETATM   28  C   UNL     1      -9.833   8.747  71.091  1.00  0.00    -0.313 A  
ENDBRANCH  20  21
ENDBRANCH  19  20
ENDBRANCH   2  19
TORSDOF 10
ENDMDL
MODEL      252
REMARK 921   NORMALIZED FREE ENERGY PREDICTED BY IDOCK:   -3.75 KCAL/MOL
REMARK 922        TOTAL FREE ENERGY PREDICTED BY IDOCK:   -7.08 KCAL/MOL
REMARK 923 INTER-LIGAND FREE ENERGY PREDICTED BY IDOCK:   -6.42 KCAL/MOL
REMARK 924 INTRA-LIGAND FREE ENERGY PREDICTED BY IDOCK:   -0.66 KCAL/MOL
REMARK 927      BINDING AFFINITY PREDICTED BY RF-SCORE:    0.00 PKD
ROOT
HETATM    1  O   UNL     1     -12.712  11.138  62.885  1.00  0.00    -0.634 OA 
HETATM    2  C   UNL     1     -11.958  12.008  63.740  1.00  0.00    -0.490 C  
HETATM    3  H   UNL     1     -12.624  10.246  63.201  1.00  0.00     0.000 HD 
ENDROOT
BRANCH   2   4
HETATM    4  C   UNL     1     -12.100  13.451  63.226  1.00  0.00    -0.262 C  
BRANCH   4   5
HETATM    5  N   UNL     1     -12.656  14.329  64.270  1.00  0.00    -0.677 NA 
HETATM    6  H   UNL     1     -12.880  13.815  65.122  1.00  0.00     0.000 HD 
BRANCH   5   7
HETATM    7  C   UNL     1     -11.741  15.448  64.525  1.00  0.00    -0.277 C  
BRANCH   7   8
HETATM    8  C   UNL     1     -10.386  14.948  65.038  1.00  0.00    -0.370 C  
BRANCH   8   9
HETATM    9  N   UNL     1      -9.464  16.055  65.190  1.00  0.00     0.438 N  
HETATM   10  H   UNL     1      -8.579  16.025  64.685  1.00  0.00     0.000 HD 
BRANCH   9  11
HETATM   11  C   UNL     1      -9.730  17.136  65.981  1.00  0.00    -0.189 C  
HETATM   12  O   UNL     1     -10.577  17.970  65.665  1.00  0.00    -0.599 OA 
BRANCH  11  13
HETATM   13  N   UNL     1      -8.995  17.219  67.145  1.00  0.00    -0.222 N  
HETATM   14  C   UNL     1      -8.726  15.998  67.908  1.00  0.00    -0.165 C  
HETATM   15  C   UNL     1      -7.217  15.737  67.988  1.00  0.00    -0.130 C  
HETATM   16  O   UNL     1      -6.522  16.877  68.522  1.00  0.00    -0.152 OA 
HETATM   17  C   UNL     1      -6.747  18.036  67.705  1.00  0.00    -0.199 C  
HETATM   18  C   UNL     1      -8.240  18.377  67.636  1.00  0.00    -0.254 C  
ENDBRANCH  11  13
ENDBRANCH   9  11
ENDBRANCH   8   9
ENDBRANCH   7   8
ENDBRANCH   5   7
ENDBRANCH   4   5
ENDBRANCH   2   4
BRANCH   2  19
HETATM   19  C   UNL     1     -12.477  11.916  65.181  1.00  0.00     0.523 C  
BRANCH  19  20
HETATM   20  O   UNL     1     -11.369  11.777  66.081  1.00  0.00    -0.330 OA 
BRANCH  20  21
HETATM   21  C   UNL     1     -11.625  12.172  67.367  1.00  0.00    -0.340 A  
HETATM   22  C   UNL     1     -11.546  11.170  68.336  1.00  0.00    -0.376 A  
HETATM   23  H   UNL     1     -12.530  14.006  71.596  1.00  0.00     0.000 HD 
HETATM   24  O   UNL     1     -12.326  13.113  71.345  1.00  0.00    -0.243 OA 
HETATM   25  C   UNL     1     -11.782  11.466  69.681  1.00  0.00    -0.415 A  
HETATM   26  C   UNL     1     -12.080  12.774  70.050  1.00  0.00    -0.285 A  
HETATM   27  C   UNL     1     -11.902  13.484  67.753  1.00  0.00    -0.398 A  
HETATM   28  C   UNL     1     -12.132  13.785  69.097  1.00  0.00    -0.374 A  
ENDBRANCH  20  21
ENDBRANCH  19  20
ENDBRANCH   2  19
TORSDOF 10
ENDMDL
MODEL      253
REMARK 921   NORMALIZED FREE ENERGY PREDICTED BY IDOCK:   -3.73 KCAL/MOL
REMARK 922        TOTAL FREE ENERGY PREDICTED BY IDOCK:   -7.05 KCAL/MOL
REMARK 923 INTER-LIGAND FREE ENERGY PREDICTED BY IDOCK:   -5.85 KCAL/MOL
REMARK 924 INTRA-LIGAND FREE ENERGY PREDICTED BY IDOCK:   -1.21 KCAL/MOL
REMARK 927      BINDING AFFINITY PREDICTED BY RF-SCORE:    0.00 PKD
ROOT
HETATM    1  O   UNL     1     -11.397   8.945  71.969  1.00  0.00    -0.353 OA 
HETATM    2  C   UNL     1     -11.219   9.866  70.884  1.00  0.00    -0.360 C  
HETATM    3  H   UNL     1     -11.598   9.436  72.757  1.00  0.00     0.000 HD 
ENDROOT
BRANCH   2   4
HETATM    4  C   UNL     1     -10.892   9.071  69.608  1.00  0.00    -0.186 C  
BRANCH   4   5
HETATM    5  N   UNL     1      -9.471   9.213  69.248  1.00  0.00    -0.155 NA 
HETATM    6  H   UNL     1      -9.271   8.828  68.325  1.00  0.00     0.000 HD 
BRANCH   5   7
HETATM    7  C   UNL     1      -9.062  10.618  69.360  1.00  0.00    -0.043 C  
BRANCH   7   8
HETATM    8  C   UNL     1      -9.034  11.296  67.986  1.00  0.00    -0.156 C  
BRANCH   8   9
HETATM    9  N   UNL     1      -9.729  12.567  68.035  1.00  0.00    -0.209 N  
HETATM   10  H   UNL     1     -10.515  12.668  68.677  1.00  0.00     0.000 HD 
BRANCH   9  11
HETATM   11  C   UNL     1      -9.375  13.634  67.260  1.00  0.00    -0.233 C  
HETATM   12  O   UNL     1      -9.700  13.703  66.076  1.00  0.00    -0.277 OA 
BRANCH  11  13
HETATM   13  N   UNL     1      -8.645  14.616  67.895  1.00  0.00    -0.158 N  
HETATM   14  C   UNL     1      -7.744  15.459  67.105  1.00  0.00    -0.211 C  
HETATM   15  C   UNL     1      -8.174  16.928  67.185  1.00  0.00    -0.190 C  
HETATM   16  O   UNL     1      -8.271  17.366  68.552  1.00  0.00    -0.253 OA 
HETATM   17  C   UNL     1      -9.219  16.567  69.274  1.00  0.00    -0.122 C  
HETATM   18  C   UNL     1      -8.806  15.090  69.274  1.00  0.00    -0.157 C  
ENDBRANCH  11  13
ENDBRANCH   9  11
ENDBRANCH   8   9
ENDBRANCH   7   8
ENDBRANCH   5   7
ENDBRANCH   4   5
ENDBRANCH   2   4
BRANCH   2  19
HETATM   19  C   UNL     1     -12.496  10.689  70.671  1.00  0.00    -0.371 C  
BRANCH  19  20
HETATM   20  O   UNL     1     -12.150  12.000  70.204  1.00  0.00    -0.322 OA 
BRANCH  20  21
HETATM   21  C   UNL     1     -12.625  13.026  70.976  1.00  0.00    -0.299 A  
HETATM   22  C   UNL     1     -13.385  12.649  72.085  1.00  0.00    -0.570 A  
HETATM   23  H   UNL     1     -13.986  16.861  73.323  1.00  0.00     0.000 HD 
HETATM   24  O   UNL     1     -14.159  15.943  73.494  1.00  0.00    -0.030 OA 
HETATM   25  C   UNL     1     -13.913  13.616  72.944  1.00  0.00     0.178 A  
HETATM   26  C   UNL     1     -13.661  14.961  72.694  1.00  0.00    -0.459 A  
HETATM   27  C   UNL     1     -12.361  14.378  70.749  1.00  0.00    -0.417 A  
HETATM   28  C   UNL     1     -12.881  15.347  71.609  1.00  0.00    -0.492 A  
ENDBRANCH  20  21
ENDBRANCH  19  20
ENDBRANCH   2  19
TORSDOF 10
ENDMDL
MODEL      254
REMARK 921   NORMALIZED FREE ENERGY PREDICTED BY IDOCK:   -3.72 KCAL/MOL
REMARK 922        TOTAL FREE ENERGY PREDICTED BY IDOCK:   -7.03 KCAL/MOL
REMARK 923 INTER-LIGAND FREE ENERGY PREDICTED BY IDOCK:   -6.10 KCAL/MOL
REMARK 924 INTRA-LIGAND FREE ENERGY PREDICTED BY IDOCK:   -0.94 KCAL/MOL
REMARK 927      BINDING AFFINITY PREDICTED BY RF-SCORE:    0.00 PKD
ROOT
HETATM    1  O   UNL     1     -12.687  11.467  63.237  1.00  0.00    -0.657 OA 
HETATM    2  C   UNL     1     -11.443  12.178  63.317  1.00  0.00    -0.325 C  
HETATM    3  H   UNL     1     -12.524  10.606  62.868  1.00  0.00     0.000 HD 
ENDROOT
BRANCH   2   4
HETATM    4  C   UNL     1     -11.706  13.571  63.913  1.00  0.00    -0.368 C  
BRANCH   4   5
HETATM    5  N   UNL     1     -12.534  13.476  65.128  1.00  0.00    -0.509 NA 
HETATM    6  H   UNL     1     -12.561  12.526  65.499  1.00  0.00     0.000 HD 
BRANCH   5   7
HETATM    7  C   UNL     1     -12.071  14.445  66.128  1.00  0.00    -0.357 C  
BRANCH   7   8
HETATM    8  C   UNL     1     -10.577  14.267  66.420  1.00  0.00    -0.286 C  
BRANCH   8   9
HETATM    9  N   UNL     1     -10.153  15.179  67.463  1.00  0.00    -0.231 N  
HETATM   10  H   UNL     1     -10.556  15.076  68.394  1.00  0.00     0.000 HD 
BRANCH   9  11
HETATM   11  C   UNL     1      -9.238  16.170  67.252  1.00  0.00    -0.208 C  
HETATM   12  O   UNL     1      -9.212  16.806  66.200  1.00  0.00    -0.329 OA 
BRANCH  11  13
HETATM   13  N   UNL     1      -8.364  16.407  68.292  1.00  0.00    -0.183 N  
HETATM   14  C   UNL     1      -8.458  15.590  69.504  1.00  0.00    -0.211 C  
HETATM   15  C   UNL     1      -7.160  14.805  69.725  1.00  0.00    -0.132 C  
HETATM   16  O   UNL     1      -6.022  15.685  69.748  1.00  0.00    -0.136 OA 
HETATM   17  C   UNL     1      -5.917  16.412  68.515  1.00  0.00    -0.116 C  
HETATM   18  C   UNL     1      -7.171  17.260  68.270  1.00  0.00    -0.211 C  
ENDBRANCH  11  13
ENDBRANCH   9  11
ENDBRANCH   8   9
ENDBRANCH   7   8
ENDBRANCH   5   7
ENDBRANCH   4   5
ENDBRANCH   2   4
BRANCH   2  19
HETATM   19  C   UNL     1     -10.451  11.412  64.202  1.00  0.00    -0.363 C  
BRANCH  19  20
HETATM   20  O   UNL     1     -11.027  11.205  65.499  1.00  0.00    -0.189 OA 
BRANCH  20  21
HETATM   21  C   UNL     1     -10.393  10.262  66.263  1.00  0.00    -0.186 A  
HETATM   22  C   UNL     1      -9.132   9.865  65.813  1.00  0.00    -0.208 A  
HETATM   23  H   UNL     1      -8.611   7.067  69.210  1.00  0.00     0.000 HD 
HETATM   24  O   UNL     1      -8.250   7.435  68.413  1.00  0.00    -0.123 OA 
HETATM   25  C   UNL     1      -8.395   8.912  66.521  1.00  0.00    -0.115 A  
HETATM   26  C   UNL     1      -8.923   8.373  67.690  1.00  0.00    -0.135 A  
HETATM   27  C   UNL     1     -10.901   9.729  67.449  1.00  0.00    -0.265 A  
HETATM   28  C   UNL     1     -10.165   8.782  68.163  1.00  0.00    -0.250 A  
ENDBRANCH  20  21
ENDBRANCH  19  20
ENDBRANCH   2  19
TORSDOF 10
ENDMDL
MODEL      255
REMARK 921   NORMALIZED FREE ENERGY PREDICTED BY IDOCK:   -3.71 KCAL/MOL
REMARK 922        TOTAL FREE ENERGY PREDICTED BY IDOCK:   -7.02 KCAL/MOL
REMARK 923 INTER-LIGAND FREE ENERGY PREDICTED BY IDOCK:   -6.18 KCAL/MOL
REMARK 924 INTRA-LIGAND FREE ENERGY PREDICTED BY IDOCK:   -0.84 KCAL/MOL
REMARK 927      BINDING AFFINITY PREDICTED BY RF-SCORE:    0.00 PKD
ROOT
HETATM    1  O   UNL     1     -12.324  10.773  68.531  1.00  0.00    -0.825 OA 
HETATM    2  C   UNL     1     -11.129  10.911  69.312  1.00  0.00    -0.248 C  
HETATM    3  H   UNL     1     -12.632  11.637  68.285  1.00  0.00     0.000 HD 
ENDROOT
BRANCH   2   4
HETATM    4  C   UNL     1     -10.632   9.510  69.709  1.00  0.00    -0.236 C  
BRANCH   4   5
HETATM    5  N   UNL     1     -10.324   9.449  71.148  1.00  0.00    -0.315 NA 
HETATM    6  H   UNL     1     -11.168   9.479  71.720  1.00  0.00     0.000 HD 
BRANCH   5   7
HETATM    7  C   UNL     1      -9.504   8.267  71.436  1.00  0.00    -0.175 C  
BRANCH   7   8
HETATM    8  C   UNL     1     -10.355   7.133  72.019  1.00  0.00    -0.191 C  
BRANCH   8   9
HETATM    9  N   UNL     1     -10.210   5.931  71.223  1.00  0.00    -0.203 N  
HETATM   10  H   UNL     1      -9.865   5.085  71.676  1.00  0.00     0.000 HD 
BRANCH   9  11
HETATM   11  C   UNL     1     -10.514   5.884  69.893  1.00  0.00    -0.270 C  
HETATM   12  O   UNL     1     -11.646   6.136  69.483  1.00  0.00    -0.396 OA 
BRANCH  11  13
HETATM   13  N   UNL     1      -9.473   5.544  69.054  1.00  0.00    -0.124 N  
HETATM   14  C   UNL     1      -9.236   4.132  68.746  1.00  0.00    -0.146 C  
HETATM   15  C   UNL     1      -9.397   3.877  67.243  1.00  0.00    -0.191 C  
HETATM   16  O   UNL     1      -8.551   4.751  66.475  1.00  0.00    -0.110 OA 
HETATM   17  C   UNL     1      -8.864   6.125  66.746  1.00  0.00    -0.122 C  
HETATM   18  C   UNL     1      -8.666   6.451  68.231  1.00  0.00    -0.116 C  
ENDBRANCH  11  13
ENDBRANCH   9  11
ENDBRANCH   8   9
ENDBRANCH   7   8
ENDBRANCH   5   7
ENDBRANCH   4   5
ENDBRANCH   2   4
BRANCH   2  19
HETATM   19  C   UNL     1     -10.047  11.636  68.501  1.00  0.00    -0.206 C  
BRANCH  19  20
HETATM   20  O   UNL     1     -10.667  12.477  67.518  1.00  0.00    -0.219 OA 
BRANCH  20  21
HETATM   21  C   UNL     1     -10.678  13.810  67.831  1.00  0.00    -0.247 A  
HETATM   22  C   UNL     1      -9.552  14.535  67.436  1.00  0.00    -0.212 A  
HETATM   23  H   UNL     1     -11.193  18.310  69.077  1.00  0.00     0.000 HD 
HETATM   24  O   UNL     1     -10.474  17.873  68.635  1.00  0.00    -0.349 OA 
HETATM   25  C   UNL     1      -9.462  15.904  67.700  1.00  0.00    -0.219 A  
HETATM   26  C   UNL     1     -10.515  16.543  68.347  1.00  0.00    -0.307 A  
HETATM   27  C   UNL     1     -11.736  14.468  68.460  1.00  0.00    -0.353 A  
HETATM   28  C   UNL     1     -11.653  15.838  68.719  1.00  0.00    -0.401 A  
ENDBRANCH  20  21
ENDBRANCH  19  20
ENDBRANCH   2  19
TORSDOF 10
ENDMDL
MODEL      256
REMARK 921   NORMALIZED FREE ENERGY PREDICTED BY IDOCK:   -3.71 KCAL/MOL
REMARK 922        TOTAL FREE ENERGY PREDICTED BY IDOCK:   -7.02 KCAL/MOL
REMARK 923 INTER-LIGAND FREE ENERGY PREDICTED BY IDOCK:   -5.74 KCAL/MOL
REMARK 924 INTRA-LIGAND FREE ENERGY PREDICTED BY IDOCK:   -1.28 KCAL/MOL
REMARK 927      BINDING AFFINITY PREDICTED BY RF-SCORE:    0.00 PKD
ROOT
HETATM    1  O   UNL     1     -10.233   4.328  70.238  1.00  0.00    -0.138 OA 
HETATM    2  C   UNL     1      -9.740   5.670  70.120  1.00  0.00    -0.174 C  
HETATM    3  H   UNL     1     -10.637   4.224  71.091  1.00  0.00     0.000 HD 
ENDROOT
BRANCH   2   4
HETATM    4  C   UNL     1      -9.085   5.838  68.738  1.00  0.00    -0.115 C  
BRANCH   4   5
HETATM    5  N   UNL     1      -8.014   6.848  68.782  1.00  0.00    -0.118 NA 
HETATM    6  H   UNL     1      -7.104   6.431  68.981  1.00  0.00     0.000 HD 
BRANCH   5   7
HETATM    7  C   UNL     1      -8.004   7.624  67.537  1.00  0.00    -0.120 C  
BRANCH   7   8
HETATM    8  C   UNL     1      -9.179   7.235  66.633  1.00  0.00    -0.157 C  
BRANCH   8   9
HETATM    9  N   UNL     1      -9.442   8.282  65.667  1.00  0.00    -0.430 N  
HETATM   10  H   UNL     1      -9.575   8.021  64.690  1.00  0.00     0.000 HD 
BRANCH   9  11
HETATM   11  C   UNL     1      -9.518   9.601  66.008  1.00  0.00    -0.225 C  
HETATM   12  O   UNL     1     -10.502  10.059  66.588  1.00  0.00    -0.223 OA 
BRANCH  11  13
HETATM   13  N   UNL     1      -8.426  10.371  65.666  1.00  0.00    -0.159 N  
HETATM   14  C   UNL     1      -8.016  11.463  66.553  1.00  0.00    -0.128 C  
HETATM   15  C   UNL     1      -6.599  11.219  67.084  1.00  0.00    -0.106 C  
HETATM   16  O   UNL     1      -5.670  11.016  66.005  1.00  0.00    -0.135 OA 
HETATM   17  C   UNL     1      -6.061   9.891  65.204  1.00  0.00    -0.097 C  
HETATM   18  C   UNL     1      -7.454  10.106  64.600  1.00  0.00    -0.132 C  
ENDBRANCH  11  13
ENDBRANCH   9  11
ENDBRANCH   8   9
ENDBRANCH   7   8
ENDBRANCH   5   7
ENDBRANCH   4   5
ENDBRANCH   2   4
BRANCH   2  19
HETATM   19  C   UNL     1     -10.892   6.673  70.275  1.00  0.00    -0.271 C  
BRANCH  19  20
HETATM   20  O   UNL     1     -10.384   8.009  70.149  1.00  0.00    -0.206 OA 
BRANCH  20  21
HETATM   21  C   UNL     1     -11.205   8.982  70.651  1.00  0.00    -0.270 A  
HETATM   22  C   UNL     1     -11.114  10.231  70.034  1.00  0.00    -0.373 A  
HETATM   23  H   UNL     1     -14.224  11.958  72.676  1.00  0.00     0.000 HD 
HETATM   24  O   UNL     1     -13.609  12.096  71.966  1.00  0.00    -0.377 OA 
HETATM   25  C   UNL     1     -11.913  11.294  70.464  1.00  0.00    -0.467 A  
HETATM   26  C   UNL     1     -12.814  11.092  71.504  1.00  0.00    -0.450 A  
HETATM   27  C   UNL     1     -12.130   8.787  71.679  1.00  0.00    -0.401 A  
HETATM   28  C   UNL     1     -12.934   9.845  72.107  1.00  0.00    -0.471 A  
ENDBRANCH  20  21
ENDBRANCH  19  20
ENDBRANCH   2  19
TORSDOF 10
ENDMDL
MODEL      257
REMARK 921   NORMALIZED FREE ENERGY PREDICTED BY IDOCK:   -3.71 KCAL/MOL
REMARK 922        TOTAL FREE ENERGY PREDICTED BY IDOCK:   -7.01 KCAL/MOL
REMARK 923 INTER-LIGAND FREE ENERGY PREDICTED BY IDOCK:   -6.63 KCAL/MOL
REMARK 924 INTRA-LIGAND FREE ENERGY PREDICTED BY IDOCK:   -0.38 KCAL/MOL
REMARK 927      BINDING AFFINITY PREDICTED BY RF-SCORE:    0.00 PKD
ROOT
HETATM    1  O   UNL     1      -8.141   9.935  65.787  1.00  0.00    -0.116 OA 
HETATM    2  C   UNL     1      -7.891  10.481  67.090  1.00  0.00    -0.112 C  
HETATM    3  H   UNL     1      -7.608   9.158  65.673  1.00  0.00     0.000 HD 
ENDROOT
BRANCH   2   4
HETATM    4  C   UNL     1      -8.755  11.740  67.274  1.00  0.00    -0.163 C  
BRANCH   4   5
HETATM    5  N   UNL     1      -8.125  12.909  66.637  1.00  0.00    -0.386 NA 
HETATM    6  H   UNL     1      -8.782  13.428  66.055  1.00  0.00     0.000 HD 
BRANCH   5   7
HETATM    7  C   UNL     1      -7.501  13.760  67.656  1.00  0.00    -0.178 C  
BRANCH   7   8
HETATM    8  C   UNL     1      -7.952  15.218  67.511  1.00  0.00    -0.176 C  
BRANCH   8   9
HETATM    9  N   UNL     1      -9.191  15.291  66.762  1.00  0.00    -0.232 N  
HETATM   10  H   UNL     1      -9.728  14.435  66.624  1.00  0.00     0.000 HD 
BRANCH   9  11
HETATM   11  C   UNL     1      -9.669  16.456  66.234  1.00  0.00    -0.308 C  
HETATM   12  O   UNL     1     -10.274  16.475  65.164  1.00  0.00    -0.590 OA 
BRANCH  11  13
HETATM   13  N   UNL     1      -9.433  17.590  66.981  1.00  0.00    -0.260 N  
HETATM   14  C   UNL     1      -8.240  18.393  66.704  1.00  0.00    -0.266 C  
HETATM   15  C   UNL     1      -8.634  19.806  66.260  1.00  0.00    -0.364 C  
HETATM   16  O   UNL     1      -9.498  20.430  67.227  1.00  0.00    -0.392 OA 
HETATM   17  C   UNL     1     -10.691  19.656  67.415  1.00  0.00    -0.435 C  
HETATM   18  C   UNL     1     -10.357  18.245  67.915  1.00  0.00    -0.399 C  
ENDBRANCH  11  13
ENDBRANCH   9  11
ENDBRANCH   8   9
ENDBRANCH   7   8
ENDBRANCH   5   7
ENDBRANCH   4   5
ENDBRANCH   2   4
BRANCH   2  19
HETATM   19  C   UNL     1      -8.239   9.450  68.172  1.00  0.00    -0.118 C  
BRANCH  19  20
HETATM   20  O   UNL     1      -9.659   9.253  68.207  1.00  0.00    -0.144 OA 
BRANCH  20  21
HETATM   21  C   UNL     1     -10.126   8.660  69.350  1.00  0.00    -0.204 A  
HETATM   22  C   UNL     1      -9.888   9.358  70.536  1.00  0.00    -0.331 A  
HETATM   23  H   UNL     1     -11.937   6.269  72.966  1.00  0.00     0.000 HD 
HETATM   24  O   UNL     1     -11.464   7.092  72.949  1.00  0.00    -0.248 OA 
HETATM   25  C   UNL     1     -10.328   8.845  71.759  1.00  0.00    -0.426 A  
HETATM   26  C   UNL     1     -11.021   7.639  71.783  1.00  0.00    -0.239 A  
HETATM   27  C   UNL     1     -10.842   7.462  69.386  1.00  0.00    -0.184 A  
HETATM   28  C   UNL     1     -11.289   6.951  70.606  1.00  0.00    -0.366 A  
ENDBRANCH  20  21
ENDBRANCH  19  20
ENDBRANCH   2  19
TORSDOF 10
ENDMDL
MODEL      258
REMARK 921   NORMALIZED FREE ENERGY PREDICTED BY IDOCK:   -3.69 KCAL/MOL
REMARK 922        TOTAL FREE ENERGY PREDICTED BY IDOCK:   -6.99 KCAL/MOL
REMARK 923 INTER-LIGAND FREE ENERGY PREDICTED BY IDOCK:   -6.06 KCAL/MOL
REMARK 924 INTRA-LIGAND FREE ENERGY PREDICTED BY IDOCK:   -0.93 KCAL/MOL
REMARK 927      BINDING AFFINITY PREDICTED BY RF-SCORE:    0.00 PKD
ROOT
HETATM    1  O   UNL     1     -10.480   6.712  66.292  1.00  0.00    -0.454 OA 
HETATM    2  C   UNL     1      -9.346   7.437  66.786  1.00  0.00    -0.160 C  
HETATM    3  H   UNL     1     -10.421   5.812  66.588  1.00  0.00     0.000 HD 
ENDROOT
BRANCH   2   4
HETATM    4  C   UNL     1      -9.442   8.895  66.306  1.00  0.00    -0.239 C  
BRANCH   4   5
HETATM    5  N   UNL     1      -9.045   9.829  67.373  1.00  0.00    -0.134 NA 
HETATM    6  H   UNL     1      -8.031   9.884  67.475  1.00  0.00     0.000 HD 
BRANCH   5   7
HETATM    7  C   UNL     1      -9.647  11.146  67.138  1.00  0.00    -0.173 C  
BRANCH   7   8
HETATM    8  C   UNL     1     -10.204  11.253  65.714  1.00  0.00    -0.251 C  
BRANCH   8   9
HETATM    9  N   UNL     1     -10.469  12.637  65.378  1.00  0.00    -0.278 N  
HETATM   10  H   UNL     1      -9.857  13.101  64.706  1.00  0.00     0.000 HD 
BRANCH   9  11
HETATM   11  C   UNL     1     -11.501  13.347  65.922  1.00  0.00    -0.321 C  
HETATM   12  O   UNL     1     -12.672  13.019  65.738  1.00  0.00    -0.476 OA 
BRANCH  11  13
HETATM   13  N   UNL     1     -11.139  14.436  66.686  1.00  0.00    -0.318 N  
HETATM   14  C   UNL     1     -11.157  14.322  68.146  1.00  0.00    -0.258 C  
HETATM   15  C   UNL     1      -9.751  14.536  68.718  1.00  0.00    -0.210 C  
HETATM   16  O   UNL     1      -9.197  15.789  68.276  1.00  0.00    -0.184 OA 
HETATM   17  C   UNL     1      -9.124  15.833  66.844  1.00  0.00    -0.235 C  
HETATM   18  C   UNL     1     -10.516  15.679  66.218  1.00  0.00    -0.306 C  
ENDBRANCH  11  13
ENDBRANCH   9  11
ENDBRANCH   8   9
ENDBRANCH   7   8
ENDBRANCH   5   7
ENDBRANCH   4   5
ENDBRANCH   2   4
BRANCH   2  19
HETATM   19  C   UNL     1      -9.317   7.396  68.320  1.00  0.00    -0.140 C  
BRANCH  19  20
HETATM   20  O   UNL     1     -10.653   7.239  68.820  1.00  0.00    -0.204 OA 
BRANCH  20  21
HETATM   21  C   UNL     1     -10.737   7.036  70.171  1.00  0.00    -0.240 A  
HETATM   22  C   UNL     1      -9.644   7.478  70.920  1.00  0.00    -0.165 A  
HETATM   23  H   UNL     1     -11.504   6.170  74.724  1.00  0.00     0.000 HD 
HETATM   24  O   UNL     1     -10.757   6.566  74.292  1.00  0.00    -0.156 OA 
HETATM   25  C   UNL     1      -9.630   7.326  72.309  1.00  0.00    -0.173 A  
HETATM   26  C   UNL     1     -10.724   6.745  72.942  1.00  0.00    -0.261 A  
HETATM   27  C   UNL     1     -11.838   6.476  70.822  1.00  0.00    -0.394 A  
HETATM   28  C   UNL     1     -11.830   6.329  72.210  1.00  0.00    -0.326 A  
ENDBRANCH  20  21
ENDBRANCH  19  20
ENDBRANCH   2  19
TORSDOF 10
ENDMDL
MODEL      259
REMARK 921   NORMALIZED FREE ENERGY PREDICTED BY IDOCK:   -3.68 KCAL/MOL
REMARK 922        TOTAL FREE ENERGY PREDICTED BY IDOCK:   -6.97 KCAL/MOL
REMARK 923 INTER-LIGAND FREE ENERGY PREDICTED BY IDOCK:   -6.35 KCAL/MOL
REMARK 924 INTRA-LIGAND FREE ENERGY PREDICTED BY IDOCK:   -0.63 KCAL/MOL
REMARK 927      BINDING AFFINITY PREDICTED BY RF-SCORE:    0.00 PKD
ROOT
HETATM    1  O   UNL     1     -11.301  13.336  67.663  1.00  0.00    -0.268 OA 
HETATM    2  C   UNL     1     -12.100  14.094  68.581  1.00  0.00    -0.285 C  
HETATM    3  H   UNL     1     -11.160  13.853  66.879  1.00  0.00     0.000 HD 
ENDROOT
BRANCH   2   4
HETATM    4  C   UNL     1     -12.329  13.255  69.850  1.00  0.00    -0.163 C  
BRANCH   4   5
HETATM    5  N   UNL     1     -11.387  12.125  69.910  1.00  0.00    -0.506 NA 
HETATM    6  H   UNL     1     -10.750  12.200  70.704  1.00  0.00     0.000 HD 
BRANCH   5   7
HETATM    7  C   UNL     1     -12.124  10.856  69.915  1.00  0.00    -0.354 C  
BRANCH   7   8
HETATM    8  C   UNL     1     -12.135  10.229  71.314  1.00  0.00    -0.382 C  
BRANCH   8   9
HETATM    9  N   UNL     1     -11.493   8.930  71.289  1.00  0.00    -0.278 N  
HETATM   10  H   UNL     1     -11.740   8.278  70.544  1.00  0.00     0.000 HD 
BRANCH   9  11
HETATM   11  C   UNL     1     -10.573   8.542  72.221  1.00  0.00    -0.338 C  
HETATM   12  O   UNL     1     -10.916   8.072  73.305  1.00  0.00    -0.257 OA 
BRANCH  11  13
HETATM   13  N   UNL     1      -9.253   8.706  71.860  1.00  0.00    -0.260 N  
HETATM   14  C   UNL     1      -8.224   7.915  72.538  1.00  0.00    -0.139 C  
HETATM   15  C   UNL     1      -7.493   7.013  71.536  1.00  0.00    -0.084 C  
HETATM   16  O   UNL     1      -6.957   7.781  70.444  1.00  0.00    -0.046 OA 
HETATM   17  C   UNL     1      -8.004   8.481  69.756  1.00  0.00    -0.103 C  
HETATM   18  C   UNL     1      -8.735   9.442  70.701  1.00  0.00    -0.211 C  
ENDBRANCH  11  13
ENDBRANCH   9  11
ENDBRANCH   8   9
ENDBRANCH   7   8
ENDBRANCH   5   7
ENDBRANCH   4   5
ENDBRANCH   2   4
BRANCH   2  19
HETATM   19  C   UNL     1     -11.390  15.405  68.945  1.00  0.00    -0.314 C  
BRANCH  19  20
HETATM   20  O   UNL     1     -10.015  15.333  68.541  1.00  0.00    -0.213 OA 
BRANCH  20  21
HETATM   21  C   UNL     1      -9.576  16.406  67.814  1.00  0.00    -0.231 A  
HETATM   22  C   UNL     1     -10.458  17.486  67.733  1.00  0.00    -0.381 A  
HETATM   23  H   UNL     1      -7.622  19.841  65.273  1.00  0.00     0.000 HD 
HETATM   24  O   UNL     1      -8.473  19.795  65.693  1.00  0.00    -0.362 OA 
HETATM   25  C   UNL     1     -10.107  18.635  67.021  1.00  0.00    -0.395 A  
HETATM   26  C   UNL     1      -8.861  18.702  66.406  1.00  0.00    -0.275 A  
HETATM   27  C   UNL     1      -8.320  16.495  67.211  1.00  0.00    -0.197 A  
HETATM   28  C   UNL     1      -7.963  17.645  66.504  1.00  0.00    -0.302 A  
ENDBRANCH  20  21
ENDBRANCH  19  20
ENDBRANCH   2  19
TORSDOF 10
ENDMDL
MODEL      260
REMARK 921   NORMALIZED FREE ENERGY PREDICTED BY IDOCK:   -3.68 KCAL/MOL
REMARK 922        TOTAL FREE ENERGY PREDICTED BY IDOCK:   -6.97 KCAL/MOL
REMARK 923 INTER-LIGAND FREE ENERGY PREDICTED BY IDOCK:   -5.42 KCAL/MOL
REMARK 924 INTRA-LIGAND FREE ENERGY PREDICTED BY IDOCK:   -1.55 KCAL/MOL
REMARK 927      BINDING AFFINITY PREDICTED BY RF-SCORE:    0.00 PKD
ROOT
HETATM    1  O   UNL     1      -5.669  18.441  70.553  1.00  0.00    -0.226 OA 
HETATM    2  C   UNL     1      -6.620  17.909  69.621  1.00  0.00    -0.072 C  
HETATM    3  H   UNL     1      -5.256  17.721  71.015  1.00  0.00     0.000 HD 
ENDROOT
BRANCH   2   4
HETATM    4  C   UNL     1      -7.289  19.076  68.875  1.00  0.00    -0.325 C  
BRANCH   4   5
HETATM    5  N   UNL     1      -8.330  18.585  67.956  1.00  0.00    -0.269 NA 
HETATM    6  H   UNL     1      -8.110  17.659  67.589  1.00  0.00     0.000 HD 
BRANCH   5   7
HETATM    7  C   UNL     1      -9.640  18.619  68.617  1.00  0.00    -0.368 C  
BRANCH   7   8
HETATM    8  C   UNL     1     -10.556  17.512  68.084  1.00  0.00    -0.366 C  
BRANCH   8   9
HETATM    9  N   UNL     1      -9.801  16.296  67.858  1.00  0.00    -0.234 N  
HETATM   10  H   UNL     1      -9.281  15.894  68.638  1.00  0.00     0.000 HD 
BRANCH   9  11
HETATM   11  C   UNL     1      -9.758  15.665  66.648  1.00  0.00    -0.249 C  
HETATM   12  O   UNL     1      -9.151  16.148  65.694  1.00  0.00    -0.394 OA 
BRANCH  11  13
HETATM   13  N   UNL     1     -10.428  14.462  66.577  1.00  0.00    -0.285 N  
HETATM   14  C   UNL     1      -9.662  13.228  66.392  1.00  0.00    -0.276 C  
HETATM   15  C   UNL     1      -9.861  12.288  67.586  1.00  0.00    -0.196 C  
HETATM   16  O   UNL     1     -11.258  12.033  67.818  1.00  0.00    -0.235 OA 
HETATM   17  C   UNL     1     -11.961  13.257  68.072  1.00  0.00    -0.313 C  
HETATM   18  C   UNL     1     -11.842  14.216  66.881  1.00  0.00    -0.431 C  
ENDBRANCH  11  13
ENDBRANCH   9  11
ENDBRANCH   8   9
ENDBRANCH   7   8
ENDBRANCH   5   7
ENDBRANCH   4   5
ENDBRANCH   2   4
BRANCH   2  19
HETATM   19  C   UNL     1      -5.918  16.984  68.617  1.00  0.00    -0.148 C  
BRANCH  19  20
HETATM   20  O   UNL     1      -6.752  15.849  68.347  1.00  0.00    -0.111 OA 
BRANCH  20  21
HETATM   21  C   UNL     1      -6.422  14.718  69.044  1.00  0.00    -0.096 A  
HETATM   22  C   UNL     1      -6.412  13.532  68.307  1.00  0.00    -0.104 A  
HETATM   23  H   UNL     1      -5.196  11.145  71.838  1.00  0.00     0.000 HD 
HETATM   24  O   UNL     1      -5.425  11.154  70.916  1.00  0.00    -0.119 OA 
HETATM   25  C   UNL     1      -6.082  12.320  68.920  1.00  0.00    -0.073 A  
HETATM   26  C   UNL     1      -5.746  12.308  70.270  1.00  0.00    -0.167 A  
HETATM   27  C   UNL     1      -6.061  14.695  70.393  1.00  0.00    -0.173 A  
HETATM   28  C   UNL     1      -5.724  13.487  71.007  1.00  0.00    -0.188 A  
ENDBRANCH  20  21
ENDBRANCH  19  20
ENDBRANCH   2  19
TORSDOF 10
ENDMDL
MODEL      261
REMARK 921   NORMALIZED FREE ENERGY PREDICTED BY IDOCK:   -3.67 KCAL/MOL
REMARK 922        TOTAL FREE ENERGY PREDICTED BY IDOCK:   -6.95 KCAL/MOL
REMARK 923 INTER-LIGAND FREE ENERGY PREDICTED BY IDOCK:   -6.58 KCAL/MOL
REMARK 924 INTRA-LIGAND FREE ENERGY PREDICTED BY IDOCK:   -0.38 KCAL/MOL
REMARK 927      BINDING AFFINITY PREDICTED BY RF-SCORE:    0.00 PKD
ROOT
HETATM    1  O   UNL     1     -10.907   7.095  66.695  1.00  0.00    -0.516 OA 
HETATM    2  C   UNL     1     -10.249   8.334  66.994  1.00  0.00    -0.310 C  
HETATM    3  H   UNL     1     -11.514   7.236  65.979  1.00  0.00     0.000 HD 
ENDROOT
BRANCH   2   4
HETATM    4  C   UNL     1      -9.266   8.105  68.155  1.00  0.00    -0.133 C  
BRANCH   4   5
HETATM    5  N   UNL     1      -9.530   9.042  69.260  1.00  0.00    -0.155 NA 
HETATM    6  H   UNL     1      -9.520  10.013  68.949  1.00  0.00     0.000 HD 
BRANCH   5   7
HETATM    7  C   UNL     1     -10.790   8.690  69.926  1.00  0.00    -0.208 C  
BRANCH   7   8
HETATM    8  C   UNL     1     -11.371   9.892  70.680  1.00  0.00    -0.339 C  
BRANCH   8   9
HETATM    9  N   UNL     1     -11.906  10.863  69.747  1.00  0.00    -0.316 N  
HETATM   10  H   UNL     1     -12.411  10.525  68.928  1.00  0.00     0.000 HD 
BRANCH   9  11
HETATM   11  C   UNL     1     -11.762  12.210  69.918  1.00  0.00    -0.287 C  
HETATM   12  O   UNL     1     -12.167  12.775  70.932  1.00  0.00    -0.349 OA 
BRANCH  11  13
HETATM   13  N   UNL     1     -11.134  12.879  68.889  1.00  0.00    -0.254 N  
HETATM   14  C   UNL     1     -11.867  13.913  68.156  1.00  0.00    -0.372 C  
HETATM   15  C   UNL     1     -11.178  15.274  68.315  1.00  0.00    -0.314 C  
HETATM   16  O   UNL     1      -9.796  15.204  67.921  1.00  0.00    -0.215 OA 
HETATM   17  C   UNL     1      -9.093  14.235  68.712  1.00  0.00    -0.103 C  
HETATM   18  C   UNL     1      -9.707  12.840  68.547  1.00  0.00    -0.126 C  
ENDBRANCH  11  13
ENDBRANCH   9  11
ENDBRANCH   8   9
ENDBRANCH   7   8
ENDBRANCH   5   7
ENDBRANCH   4   5
ENDBRANCH   2   4
BRANCH   2  19
HETATM   19  C   UNL     1      -9.488   8.840  65.761  1.00  0.00    -0.169 C  
BRANCH  19  20
HETATM   20  O   UNL     1      -9.175  10.230  65.929  1.00  0.00    -0.155 OA 
BRANCH  20  21
HETATM   21  C   UNL     1      -9.948  11.083  65.188  1.00  0.00    -0.278 A  
HETATM   22  C   UNL     1      -9.935  10.872  63.808  1.00  0.00    -0.408 A  
HETATM   23  H   UNL     1     -12.766  14.205  63.095  1.00  0.00     0.000 HD 
HETATM   24  O   UNL     1     -12.231  13.515  62.723  1.00  0.00    -0.226 OA 
HETATM   25  C   UNL     1     -10.694  11.682  62.960  1.00  0.00    -0.181 A  
HETATM   26  C   UNL     1     -11.479  12.693  63.505  1.00  0.00    -0.491 A  
HETATM   27  C   UNL     1     -10.758  12.087  65.724  1.00  0.00    -0.319 A  
HETATM   28  C   UNL     1     -11.523  12.894  64.880  1.00  0.00    -0.351 A  
ENDBRANCH  20  21
ENDBRANCH  19  20
ENDBRANCH   2  19
TORSDOF 10
ENDMDL
MODEL      262
REMARK 921   NORMALIZED FREE ENERGY PREDICTED BY IDOCK:   -3.67 KCAL/MOL
REMARK 922        TOTAL FREE ENERGY PREDICTED BY IDOCK:   -6.95 KCAL/MOL
REMARK 923 INTER-LIGAND FREE ENERGY PREDICTED BY IDOCK:   -6.13 KCAL/MOL
REMARK 924 INTRA-LIGAND FREE ENERGY PREDICTED BY IDOCK:   -0.82 KCAL/MOL
REMARK 927      BINDING AFFINITY PREDICTED BY RF-SCORE:    0.00 PKD
ROOT
HETATM    1  O   UNL     1     -12.611  13.341  70.867  1.00  0.00    -0.345 OA 
HETATM    2  C   UNL     1     -11.727  12.899  69.827  1.00  0.00    -0.281 C  
HETATM    3  H   UNL     1     -12.570  14.288  70.922  1.00  0.00     0.000 HD 
ENDROOT
BRANCH   2   4
HETATM    4  C   UNL     1     -11.792  11.365  69.739  1.00  0.00    -0.364 C  
BRANCH   4   5
HETATM    5  N   UNL     1     -12.148  10.930  68.378  1.00  0.00    -0.818 NA 
HETATM    6  H   UNL     1     -12.411  11.716  67.782  1.00  0.00     0.000 HD 
BRANCH   5   7
HETATM    7  C   UNL     1     -11.053  10.144  67.799  1.00  0.00    -0.227 C  
BRANCH   7   8
HETATM    8  C   UNL     1      -9.807  10.191  68.692  1.00  0.00    -0.162 C  
BRANCH   8   9
HETATM    9  N   UNL     1      -9.074   8.944  68.602  1.00  0.00    -0.137 N  
HETATM   10  H   UNL     1      -8.954   8.387  69.448  1.00  0.00     0.000 HD 
BRANCH   9  11
HETATM   11  C   UNL     1      -8.538   8.484  67.433  1.00  0.00    -0.127 C  
HETATM   12  O   UNL     1      -9.113   7.638  66.752  1.00  0.00    -0.137 OA 
BRANCH  11  13
HETATM   13  N   UNL     1      -7.325   9.035  67.076  1.00  0.00    -0.086 N  
HETATM   14  C   UNL     1      -6.709   8.642  65.806  1.00  0.00    -0.064 C  
HETATM   15  C   UNL     1      -6.561   9.857  64.883  1.00  0.00    -0.119 C  
HETATM   16  O   UNL     1      -5.838  10.917  65.534  1.00  0.00    -0.128 OA 
HETATM   17  C   UNL     1      -6.512  11.328  66.732  1.00  0.00    -0.136 C  
HETATM   18  C   UNL     1      -6.638  10.160  67.719  1.00  0.00    -0.067 C  
ENDBRANCH  11  13
ENDBRANCH   9  11
ENDBRANCH   8   9
ENDBRANCH   7   8
ENDBRANCH   5   7
ENDBRANCH   4   5
ENDBRANCH   2   4
BRANCH   2  19
HETATM   19  C   UNL     1     -12.139  13.515  68.483  1.00  0.00    -0.268 C  
BRANCH  19  20
HETATM   20  O   UNL     1     -10.979  13.680  67.656  1.00  0.00    -0.259 OA 
BRANCH  20  21
HETATM   21  C   UNL     1     -10.879  14.904  67.050  1.00  0.00    -0.315 A  
HETATM   22  C   UNL     1     -10.550  15.971  67.889  1.00  0.00    -0.301 A  
HETATM   23  H   UNL     1     -10.607  18.857  64.527  1.00  0.00     0.000 HD 
HETATM   24  O   UNL     1     -10.484  18.713  65.458  1.00  0.00    -0.585 OA 
HETATM   25  C   UNL     1     -10.416  17.262  67.373  1.00  0.00    -0.338 A  
HETATM   26  C   UNL     1     -10.595  17.474  66.010  1.00  0.00    -0.217 A  
HETATM   27  C   UNL     1     -11.034  15.126  65.681  1.00  0.00    -0.359 A  
HETATM   28  C   UNL     1     -10.893  16.414  65.160  1.00  0.00    -0.289 A  
ENDBRANCH  20  21
ENDBRANCH  19  20
ENDBRANCH   2  19
TORSDOF 10
ENDMDL
MODEL      263
REMARK 921   NORMALIZED FREE ENERGY PREDICTED BY IDOCK:   -3.66 KCAL/MOL
REMARK 922        TOTAL FREE ENERGY PREDICTED BY IDOCK:   -6.94 KCAL/MOL
REMARK 923 INTER-LIGAND FREE ENERGY PREDICTED BY IDOCK:   -5.93 KCAL/MOL
REMARK 924 INTRA-LIGAND FREE ENERGY PREDICTED BY IDOCK:   -1.02 KCAL/MOL
REMARK 927      BINDING AFFINITY PREDICTED BY RF-SCORE:    0.00 PKD
ROOT
HETATM    1  O   UNL     1      -9.571  12.165  63.261  1.00  0.00    -0.635 OA 
HETATM    2  C   UNL     1     -10.169  12.098  64.563  1.00  0.00    -0.293 C  
HETATM    3  H   UNL     1     -10.191  12.560  62.659  1.00  0.00     0.000 HD 
ENDROOT
BRANCH   2   4
HETATM    4  C   UNL     1      -9.165  11.457  65.537  1.00  0.00    -0.177 C  
BRANCH   4   5
HETATM    5  N   UNL     1      -9.729  11.373  66.895  1.00  0.00    -0.190 NA 
HETATM    6  H   UNL     1     -10.280  12.198  67.132  1.00  0.00     0.000 HD 
BRANCH   5   7
HETATM    7  C   UNL     1     -10.503  10.135  67.041  1.00  0.00    -0.240 C  
BRANCH   7   8
HETATM    8  C   UNL     1     -11.277  10.119  68.363  1.00  0.00    -0.177 C  
BRANCH   8   9
HETATM    9  N   UNL     1     -11.106   8.846  69.034  1.00  0.00    -0.428 N  
HETATM   10  H   UNL     1     -11.938   8.315  69.291  1.00  0.00     0.000 HD 
BRANCH   9  11
HETATM   11  C   UNL     1      -9.880   8.328  69.336  1.00  0.00    -0.185 C  
HETATM   12  O   UNL     1      -9.057   8.965  69.990  1.00  0.00    -0.150 OA 
BRANCH  11  13
HETATM   13  N   UNL     1      -9.639   7.054  68.866  1.00  0.00    -0.141 N  
HETATM   14  C   UNL     1     -10.595   6.440  67.943  1.00  0.00    -0.258 C  
HETATM   15  C   UNL     1      -9.925   6.137  66.598  1.00  0.00    -0.158 C  
HETATM   16  O   UNL     1      -8.747   5.331  66.777  1.00  0.00    -0.113 OA 
HETATM   17  C   UNL     1      -7.801   5.998  67.624  1.00  0.00    -0.101 C  
HETATM   18  C   UNL     1      -8.402   6.276  69.007  1.00  0.00    -0.117 C  
ENDBRANCH  11  13
ENDBRANCH   9  11
ENDBRANCH   8   9
ENDBRANCH   7   8
ENDBRANCH   5   7
ENDBRANCH   4   5
ENDBRANCH   2   4
BRANCH   2  19
HETATM   19  C   UNL     1     -10.538  13.506  65.050  1.00  0.00    -0.372 C  
BRANCH  19  20
HETATM   20  O   UNL     1      -9.456  14.046  65.821  1.00  0.00    -0.161 OA 
BRANCH  20  21
HETATM   21  C   UNL     1      -9.468  15.409  65.947  1.00  0.00    -0.334 A  
HETATM   22  C   UNL     1     -10.613  16.052  65.472  1.00  0.00    -0.415 A  
HETATM   23  H   UNL     1      -9.066  20.039  66.633  1.00  0.00     0.000 HD 
HETATM   24  O   UNL     1      -9.767  19.536  66.238  1.00  0.00    -0.362 OA 
HETATM   25  C   UNL     1     -10.732  17.442  65.558  1.00  0.00    -0.081 A  
HETATM   26  C   UNL     1      -9.705  18.179  66.137  1.00  0.00    -0.210 A  
HETATM   27  C   UNL     1      -8.455  16.159  66.546  1.00  0.00    -0.346 A  
HETATM   28  C   UNL     1      -8.573  17.547  66.640  1.00  0.00    -0.284 A  
ENDBRANCH  20  21
ENDBRANCH  19  20
ENDBRANCH   2  19
TORSDOF 10
ENDMDL
MODEL      264
REMARK 921   NORMALIZED FREE ENERGY PREDICTED BY IDOCK:   -3.65 KCAL/MOL
REMARK 922        TOTAL FREE ENERGY PREDICTED BY IDOCK:   -6.93 KCAL/MOL
REMARK 923 INTER-LIGAND FREE ENERGY PREDICTED BY IDOCK:   -5.92 KCAL/MOL
REMARK 924 INTRA-LIGAND FREE ENERGY PREDICTED BY IDOCK:   -1.01 KCAL/MOL
REMARK 927      BINDING AFFINITY PREDICTED BY RF-SCORE:    0.00 PKD
ROOT
HETATM    1  O   UNL     1      -7.340  11.506  65.904  1.00  0.00    -0.350 OA 
HETATM    2  C   UNL     1      -8.118  11.608  67.104  1.00  0.00    -0.166 C  
HETATM    3  H   UNL     1      -7.460  12.298  65.393  1.00  0.00     0.000 HD 
ENDROOT
BRANCH   2   4
HETATM    4  C   UNL     1      -7.924  10.326  67.931  1.00  0.00    -0.102 C  
BRANCH   4   5
HETATM    5  N   UNL     1      -7.730  10.642  69.356  1.00  0.00    -0.220 NA 
HETATM    6  H   UNL     1      -8.552  11.088  69.764  1.00  0.00     0.000 HD 
BRANCH   5   7
HETATM    7  C   UNL     1      -7.339   9.433  70.090  1.00  0.00    -0.110 C  
BRANCH   7   8
HETATM    8  C   UNL     1      -7.533   8.178  69.232  1.00  0.00    -0.089 C  
BRANCH   8   9
HETATM    9  N   UNL     1      -8.642   7.391  69.732  1.00  0.00    -0.139 N  
HETATM   10  H   UNL     1      -8.441   6.503  70.193  1.00  0.00     0.000 HD 
BRANCH   9  11
HETATM   11  C   UNL     1      -9.943   7.786  69.613  1.00  0.00    -0.190 C  
HETATM   12  O   UNL     1     -10.490   7.875  68.515  1.00  0.00    -0.206 OA 
BRANCH  11  13
HETATM   13  N   UNL     1     -10.592   8.068  70.797  1.00  0.00    -0.211 N  
HETATM   14  C   UNL     1     -10.707   9.460  71.235  1.00  0.00    -0.350 C  
HETATM   15  C   UNL     1     -12.180   9.875  71.325  1.00  0.00    -0.387 C  
HETATM   16  O   UNL     1     -12.920   8.976  72.169  1.00  0.00    -0.367 OA 
HETATM   17  C   UNL     1     -12.849   7.634  71.667  1.00  0.00    -0.349 C  
HETATM   18  C   UNL     1     -11.396   7.146  71.608  1.00  0.00    -0.251 C  
ENDBRANCH  11  13
ENDBRANCH   9  11
ENDBRANCH   8   9
ENDBRANCH   7   8
ENDBRANCH   5   7
ENDBRANCH   4   5
ENDBRANCH   2   4
BRANCH   2  19
HETATM   19  C   UNL     1      -7.672  12.827  67.923  1.00  0.00    -0.143 C  
BRANCH  19  20
HETATM   20  O   UNL     1      -8.823  13.475  68.483  1.00  0.00    -0.166 OA 
BRANCH  20  21
HETATM   21  C   UNL     1      -9.297  14.531  67.751  1.00  0.00    -0.198 A  
HETATM   22  C   UNL     1      -8.423  15.044  66.791  1.00  0.00    -0.239 A  
HETATM   23  H   UNL     1     -11.370  18.085  65.484  1.00  0.00     0.000 HD 
HETATM   24  O   UNL     1     -10.502  17.714  65.381  1.00  0.00    -0.648 OA 
HETATM   25  C   UNL     1      -8.809  16.118  65.984  1.00  0.00    -0.313 A  
HETATM   26  C   UNL     1     -10.080  16.662  66.135  1.00  0.00    -0.345 A  
HETATM   27  C   UNL     1     -10.578  15.072  67.877  1.00  0.00    -0.259 A  
HETATM   28  C   UNL     1     -10.969  16.140  67.068  1.00  0.00    -0.123 A  
ENDBRANCH  20  21
ENDBRANCH  19  20
ENDBRANCH   2  19
TORSDOF 10
ENDMDL
MODEL      265
REMARK 921   NORMALIZED FREE ENERGY PREDICTED BY IDOCK:   -3.65 KCAL/MOL
REMARK 922        TOTAL FREE ENERGY PREDICTED BY IDOCK:   -6.93 KCAL/MOL
REMARK 923 INTER-LIGAND FREE ENERGY PREDICTED BY IDOCK:   -6.41 KCAL/MOL
REMARK 924 INTRA-LIGAND FREE ENERGY PREDICTED BY IDOCK:   -0.51 KCAL/MOL
REMARK 927      BINDING AFFINITY PREDICTED BY RF-SCORE:    0.00 PKD
ROOT
HETATM    1  O   UNL     1     -12.214  11.905  67.434  1.00  0.00    -0.502 OA 
HETATM    2  C   UNL     1     -11.000  11.696  68.168  1.00  0.00    -0.226 C  
HETATM    3  H   UNL     1     -12.320  12.836  67.276  1.00  0.00     0.000 HD 
ENDROOT
BRANCH   2   4
HETATM    4  C   UNL     1     -10.829  10.188  68.424  1.00  0.00    -0.242 C  
BRANCH   4   5
HETATM    5  N   UNL     1     -11.204   9.407  67.233  1.00  0.00    -0.186 NA 
HETATM    6  H   UNL     1     -11.279   9.991  66.400  1.00  0.00     0.000 HD 
BRANCH   5   7
HETATM    7  C   UNL     1     -10.264   8.296  67.045  1.00  0.00    -0.310 C  
BRANCH   7   8
HETATM    8  C   UNL     1     -10.628   7.105  67.938  1.00  0.00    -0.208 C  
BRANCH   8   9
HETATM    9  N   UNL     1     -11.068   5.985  67.130  1.00  0.00    -0.545 N  
HETATM   10  H   UNL     1     -12.064   5.887  66.934  1.00  0.00     0.000 HD 
BRANCH   9  11
HETATM   11  C   UNL     1     -10.207   5.056  66.621  1.00  0.00    -0.263 C  
HETATM   12  O   UNL     1     -10.317   4.641  65.469  1.00  0.00    -0.235 OA 
BRANCH  11  13
HETATM   13  N   UNL     1      -9.215   4.629  67.479  1.00  0.00    -0.125 N  
HETATM   14  C   UNL     1      -7.839   5.083  67.261  1.00  0.00    -0.096 C  
HETATM   15  C   UNL     1      -7.343   5.891  68.465  1.00  0.00    -0.085 C  
HETATM   16  O   UNL     1      -7.483   5.142  69.685  1.00  0.00    -0.059 OA 
HETATM   17  C   UNL     1      -8.855   4.781  69.904  1.00  0.00    -0.090 C  
HETATM   18  C   UNL     1      -9.387   3.921  68.752  1.00  0.00    -0.166 C  
ENDBRANCH  11  13
ENDBRANCH   9  11
ENDBRANCH   8   9
ENDBRANCH   7   8
ENDBRANCH   5   7
ENDBRANCH   4   5
ENDBRANCH   2   4
BRANCH   2  19
HETATM   19  C   UNL     1      -9.800  12.227  67.373  1.00  0.00    -0.198 C  
BRANCH  19  20
HETATM   20  O   UNL     1      -9.369  13.475  67.934  1.00  0.00    -0.199 OA 
BRANCH  20  21
HETATM   21  C   UNL     1      -9.745  14.582  67.222  1.00  0.00    -0.232 A  
HETATM   22  C   UNL     1     -10.180  14.346  65.917  1.00  0.00    -0.341 A  
HETATM   23  H   UNL     1     -10.961  18.651  65.213  1.00  0.00     0.000 HD 
HETATM   24  O   UNL     1     -10.968  17.768  64.864  1.00  0.00    -0.866 OA 
HETATM   25  C   UNL     1     -10.594  15.406  65.105  1.00  0.00    -0.458 A  
HETATM   26  C   UNL     1     -10.584  16.700  65.616  1.00  0.00    -0.270 A  
HETATM   27  C   UNL     1      -9.761  15.883  67.730  1.00  0.00    -0.220 A  
HETATM   28  C   UNL     1     -10.180  16.944  66.924  1.00  0.00    -0.296 A  
ENDBRANCH  20  21
ENDBRANCH  19  20
ENDBRANCH   2  19
TORSDOF 10
ENDMDL
MODEL      266
REMARK 921   NORMALIZED FREE ENERGY PREDICTED BY IDOCK:   -3.63 KCAL/MOL
REMARK 922        TOTAL FREE ENERGY PREDICTED BY IDOCK:   -6.89 KCAL/MOL
REMARK 923 INTER-LIGAND FREE ENERGY PREDICTED BY IDOCK:   -5.98 KCAL/MOL
REMARK 924 INTRA-LIGAND FREE ENERGY PREDICTED BY IDOCK:   -0.91 KCAL/MOL
REMARK 927      BINDING AFFINITY PREDICTED BY RF-SCORE:    0.00 PKD
ROOT
HETATM    1  O   UNL     1      -8.926  10.891  64.872  1.00  0.00    -0.204 OA 
HETATM    2  C   UNL     1      -9.873  10.586  65.905  1.00  0.00    -0.234 C  
HETATM    3  H   UNL     1      -9.399  11.149  64.089  1.00  0.00     0.000 HD 
ENDROOT
BRANCH   2   4
HETATM    4  C   UNL     1      -9.107  10.167  67.171  1.00  0.00    -0.135 C  
BRANCH   4   5
HETATM    5  N   UNL     1      -7.941  11.038  67.395  1.00  0.00    -0.116 NA 
HETATM    6  H   UNL     1      -8.210  11.945  67.777  1.00  0.00     0.000 HD 
BRANCH   5   7
HETATM    7  C   UNL     1      -6.957  10.354  68.241  1.00  0.00    -0.070 C  
BRANCH   7   8
HETATM    8  C   UNL     1      -7.579   9.140  68.941  1.00  0.00    -0.076 C  
BRANCH   8   9
HETATM    9  N   UNL     1      -8.081   9.513  70.248  1.00  0.00    -0.169 N  
HETATM   10  H   UNL     1      -8.492  10.439  70.367  1.00  0.00     0.000 HD 
BRANCH   9  11
HETATM   11  C   UNL     1      -8.029   8.677  71.327  1.00  0.00    -0.136 C  
HETATM   12  O   UNL     1      -7.078   8.694  72.106  1.00  0.00    -0.174 OA 
BRANCH  11  13
HETATM   13  N   UNL     1      -9.107   7.831  71.479  1.00  0.00    -0.131 N  
HETATM   14  C   UNL     1     -10.265   8.283  72.253  1.00  0.00    -0.305 C  
HETATM   15  C   UNL     1     -11.517   8.326  71.369  1.00  0.00    -0.269 C  
HETATM   16  O   UNL     1     -11.748   7.054  70.736  1.00  0.00    -0.319 OA 
HETATM   17  C   UNL     1     -10.624   6.680  69.927  1.00  0.00    -0.226 C  
HETATM   18  C   UNL     1      -9.350   6.568  70.773  1.00  0.00    -0.158 C  
ENDBRANCH  11  13
ENDBRANCH   9  11
ENDBRANCH   8   9
ENDBRANCH   7   8
ENDBRANCH   5   7
ENDBRANCH   4   5
ENDBRANCH   2   4
BRANCH   2  19
HETATM   19  C   UNL     1     -10.743  11.814  66.206  1.00  0.00    -0.270 C  
BRANCH  19  20
HETATM   20  O   UNL     1     -11.765  11.457  67.148  1.00  0.00    -0.556 OA 
BRANCH  20  21
HETATM   21  C   UNL     1     -11.880  12.307  68.215  1.00  0.00    -0.310 A  
HETATM   22  C   UNL     1     -12.093  11.699  69.454  1.00  0.00    -0.328 A  
HETATM   23  H   UNL     1     -12.162  15.603  71.551  1.00  0.00     0.000 HD 
HETATM   24  O   UNL     1     -12.235  14.658  71.613  1.00  0.00    -0.327 OA 
HETATM   25  C   UNL     1     -12.218  12.474  70.610  1.00  0.00    -0.365 A  
HETATM   26  C   UNL     1     -12.112  13.858  70.519  1.00  0.00    -0.356 A  
HETATM   27  C   UNL     1     -11.753  13.696  68.141  1.00  0.00    -0.392 A  
HETATM   28  C   UNL     1     -11.871  14.472  69.295  1.00  0.00    -0.361 A  
ENDBRANCH  20  21
ENDBRANCH  19  20
ENDBRANCH   2  19
TORSDOF 10
ENDMDL
MODEL      267
REMARK 921   NORMALIZED FREE ENERGY PREDICTED BY IDOCK:   -3.63 KCAL/MOL
REMARK 922        TOTAL FREE ENERGY PREDICTED BY IDOCK:   -6.89 KCAL/MOL
REMARK 923 INTER-LIGAND FREE ENERGY PREDICTED BY IDOCK:   -5.70 KCAL/MOL
REMARK 924 INTRA-LIGAND FREE ENERGY PREDICTED BY IDOCK:   -1.19 KCAL/MOL
REMARK 927      BINDING AFFINITY PREDICTED BY RF-SCORE:    0.00 PKD
ROOT
HETATM    1  O   UNL     1     -11.683  10.248  68.117  1.00  0.00    -0.711 OA 
HETATM    2  C   UNL     1     -10.920  10.538  66.937  1.00  0.00    -0.131 C  
HETATM    3  H   UNL     1     -11.594   9.325  68.320  1.00  0.00     0.000 HD 
ENDROOT
BRANCH   2   4
HETATM    4  C   UNL     1     -11.065  12.033  66.607  1.00  0.00    -0.310 C  
BRANCH   4   5
HETATM    5  N   UNL     1     -12.012  12.686  67.527  1.00  0.00    -0.429 NA 
HETATM    6  H   UNL     1     -12.485  12.012  68.130  1.00  0.00     0.000 HD 
BRANCH   5   7
HETATM    7  C   UNL     1     -11.326  13.728  68.298  1.00  0.00    -0.285 C  
BRANCH   7   8
HETATM    8  C   UNL     1     -12.031  15.081  68.148  1.00  0.00    -0.165 C  
BRANCH   8   9
HETATM    9  N   UNL     1     -11.306  16.111  68.865  1.00  0.00    -0.355 N  
HETATM   10  H   UNL     1     -11.811  16.680  69.543  1.00  0.00     0.000 HD 
BRANCH   9  11
HETATM   11  C   UNL     1      -9.975  16.350  68.672  1.00  0.00    -0.235 C  
HETATM   12  O   UNL     1      -9.142  16.075  69.534  1.00  0.00    -0.234 OA 
BRANCH  11  13
HETATM   13  N   UNL     1      -9.639  16.906  67.456  1.00  0.00    -0.242 N  
HETATM   14  C   UNL     1      -9.699  18.361  67.296  1.00  0.00    -0.297 C  
HETATM   15  C   UNL     1      -8.311  18.923  66.967  1.00  0.00    -0.276 C  
HETATM   16  O   UNL     1      -7.749  18.270  65.815  1.00  0.00    -0.517 OA 
HETATM   17  C   UNL     1      -7.634  16.858  66.038  1.00  0.00    -0.028 C  
HETATM   18  C   UNL     1      -9.006  16.232  66.317  1.00  0.00    -0.331 C  
ENDBRANCH  11  13
ENDBRANCH   9  11
ENDBRANCH   8   9
ENDBRANCH   7   8
ENDBRANCH   5   7
ENDBRANCH   4   5
ENDBRANCH   2   4
BRANCH   2  19
HETATM   19  C   UNL     1      -9.441  10.197  67.165  1.00  0.00    -0.158 C  
BRANCH  19  20
HETATM   20  O   UNL     1      -8.626  11.300  66.745  1.00  0.00    -0.148 OA 
BRANCH  20  21
HETATM   21  C   UNL     1      -7.777  11.782  67.706  1.00  0.00    -0.133 A  
HETATM   22  C   UNL     1      -7.480  13.144  67.625  1.00  0.00    -0.164 A  
HETATM   23  H   UNL     1      -4.887  12.967  71.214  1.00  0.00     0.000 HD 
HETATM   24  O   UNL     1      -5.253  13.495  70.515  1.00  0.00    -0.101 OA 
HETATM   25  C   UNL     1      -6.629  13.739  68.560  1.00  0.00    -0.099 A  
HETATM   26  C   UNL     1      -6.093  12.966  69.584  1.00  0.00    -0.124 A  
HETATM   27  C   UNL     1      -7.251  11.022  68.752  1.00  0.00    -0.091 A  
HETATM   28  C   UNL     1      -6.406  11.616  69.692  1.00  0.00    -0.133 A  
ENDBRANCH  20  21
ENDBRANCH  19  20
ENDBRANCH   2  19
TORSDOF 10
ENDMDL
MODEL      268
REMARK 921   NORMALIZED FREE ENERGY PREDICTED BY IDOCK:   -3.61 KCAL/MOL
REMARK 922        TOTAL FREE ENERGY PREDICTED BY IDOCK:   -6.85 KCAL/MOL
REMARK 923 INTER-LIGAND FREE ENERGY PREDICTED BY IDOCK:   -5.65 KCAL/MOL
REMARK 924 INTRA-LIGAND FREE ENERGY PREDICTED BY IDOCK:   -1.20 KCAL/MOL
REMARK 927      BINDING AFFINITY PREDICTED BY RF-SCORE:    0.00 PKD
ROOT
HETATM    1  O   UNL     1      -6.243   7.320  65.015  1.00  0.00    -0.037 OA 
HETATM    2  C   UNL     1      -7.219   8.281  65.442  1.00  0.00    -0.071 C  
HETATM    3  H   UNL     1      -6.121   6.679  65.706  1.00  0.00     0.000 HD 
ENDROOT
BRANCH   2   4
HETATM    4  C   UNL     1      -7.415   9.318  64.323  1.00  0.00    -0.107 C  
BRANCH   4   5
HETATM    5  N   UNL     1      -8.596  10.158  64.585  1.00  0.00    -0.172 NA 
HETATM    6  H   UNL     1      -8.341  11.062  64.983  1.00  0.00     0.000 HD 
BRANCH   5   7
HETATM    7  C   UNL     1      -9.393  10.300  63.361  1.00  0.00    -0.303 C  
BRANCH   7   8
HETATM    8  C   UNL     1     -10.050  11.682  63.287  1.00  0.00    -0.423 C  
BRANCH   8   9
HETATM    9  N   UNL     1      -9.918  12.373  64.554  1.00  0.00    -0.487 N  
HETATM   10  H   UNL     1      -9.188  12.072  65.199  1.00  0.00     0.000 HD 
BRANCH   9  11
HETATM   11  C   UNL     1     -10.728  13.410  64.919  1.00  0.00    -0.369 C  
HETATM   12  O   UNL     1     -11.691  13.746  64.231  1.00  0.00    -0.394 OA 
BRANCH  11  13
HETATM   13  N   UNL     1     -10.397  14.038  66.101  1.00  0.00    -0.289 N  
HETATM   14  C   UNL     1      -9.048  13.870  66.645  1.00  0.00    -0.190 C  
HETATM   15  C   UNL     1      -8.329  15.222  66.723  1.00  0.00    -0.223 C  
HETATM   16  O   UNL     1      -9.103  16.178  67.470  1.00  0.00    -0.200 OA 
HETATM   17  C   UNL     1     -10.388  16.373  66.864  1.00  0.00    -0.300 C  
HETATM   18  C   UNL     1     -11.176  15.059  66.811  1.00  0.00    -0.322 C  
ENDBRANCH  11  13
ENDBRANCH   9  11
ENDBRANCH   8   9
ENDBRANCH   7   8
ENDBRANCH   5   7
ENDBRANCH   4   5
ENDBRANCH   2   4
BRANCH   2  19
HETATM   19  C   UNL     1      -8.552   7.584  65.746  1.00  0.00    -0.142 C  
BRANCH  19  20
HETATM   20  O   UNL     1      -8.782   7.586  67.162  1.00  0.00    -0.119 OA 
BRANCH  20  21
HETATM   21  C   UNL     1      -9.385   8.718  67.641  1.00  0.00    -0.137 A  
HETATM   22  C   UNL     1      -8.690   9.397  68.644  1.00  0.00    -0.131 A  
HETATM   23  H   UNL     1     -11.813  12.529  68.925  1.00  0.00     0.000 HD 
HETATM   24  O   UNL     1     -10.985  12.193  69.244  1.00  0.00    -0.200 OA 
HETATM   25  C   UNL     1      -9.213  10.568  69.199  1.00  0.00    -0.183 A  
HETATM   26  C   UNL     1     -10.427  11.061  68.731  1.00  0.00    -0.198 A  
HETATM   27  C   UNL     1     -10.592   9.236  67.166  1.00  0.00    -0.286 A  
HETATM   28  C   UNL     1     -11.114  10.409  67.714  1.00  0.00    -0.365 A  
ENDBRANCH  20  21
ENDBRANCH  19  20
ENDBRANCH   2  19
TORSDOF 10
ENDMDL
MODEL      269
REMARK 921   NORMALIZED FREE ENERGY PREDICTED BY IDOCK:   -3.60 KCAL/MOL
REMARK 922        TOTAL FREE ENERGY PREDICTED BY IDOCK:   -6.84 KCAL/MOL
REMARK 923 INTER-LIGAND FREE ENERGY PREDICTED BY IDOCK:   -5.35 KCAL/MOL
REMARK 924 INTRA-LIGAND FREE ENERGY PREDICTED BY IDOCK:   -1.50 KCAL/MOL
REMARK 927      BINDING AFFINITY PREDICTED BY RF-SCORE:    0.00 PKD
ROOT
HETATM    1  O   UNL     1      -7.501  20.001  70.025  1.00  0.00     0.066 OA 
HETATM    2  C   UNL     1      -7.031  18.993  69.120  1.00  0.00    -0.310 C  
HETATM    3  H   UNL     1      -7.883  19.578  70.784  1.00  0.00     0.000 HD 
ENDROOT
BRANCH   2   4
HETATM    4  C   UNL     1      -6.415  19.679  67.889  1.00  0.00    -0.226 C  
BRANCH   4   5
HETATM    5  N   UNL     1      -6.473  18.798  66.710  1.00  0.00    -0.186 NA 
HETATM    6  H   UNL     1      -6.166  17.849  66.927  1.00  0.00     0.000 HD 
BRANCH   5   7
HETATM    7  C   UNL     1      -7.820  18.823  66.131  1.00  0.00    -0.238 C  
BRANCH   7   8
HETATM    8  C   UNL     1      -8.374  17.404  65.959  1.00  0.00    -0.106 C  
BRANCH   8   9
HETATM    9  N   UNL     1      -9.769  17.355  66.350  1.00  0.00    -0.287 N  
HETATM   10  H   UNL     1     -10.059  17.864  67.185  1.00  0.00     0.000 HD 
BRANCH   9  11
HETATM   11  C   UNL     1     -10.710  16.658  65.648  1.00  0.00    -0.214 C  
HETATM   12  O   UNL     1     -11.166  17.084  64.588  1.00  0.00    -0.968 OA 
BRANCH  11  13
HETATM   13  N   UNL     1     -11.100  15.458  66.202  1.00  0.00    -0.280 N  
HETATM   14  C   UNL     1     -11.034  14.241  65.389  1.00  0.00    -0.333 C  
HETATM   15  C   UNL     1     -10.063  13.231  66.013  1.00  0.00    -0.299 C  
HETATM   16  O   UNL     1     -10.412  12.954  67.381  1.00  0.00    -0.231 OA 
HETATM   17  C   UNL     1     -10.392  14.157  68.162  1.00  0.00    -0.239 C  
HETATM   18  C   UNL     1     -11.389  15.186  67.614  1.00  0.00    -0.321 C  
ENDBRANCH  11  13
ENDBRANCH   9  11
ENDBRANCH   8   9
ENDBRANCH   7   8
ENDBRANCH   5   7
ENDBRANCH   4   5
ENDBRANCH   2   4
BRANCH   2  19
HETATM   19  C   UNL     1      -5.978  18.114  69.807  1.00  0.00    -0.231 C  
BRANCH  19  20
HETATM   20  O   UNL     1      -5.374  17.245  68.839  1.00  0.00    -0.144 OA 
BRANCH  20  21
HETATM   21  C   UNL     1      -5.861  15.965  68.836  1.00  0.00    -0.112 A  
HETATM   22  C   UNL     1      -6.012  15.371  70.091  1.00  0.00    -0.141 A  
HETATM   23  H   UNL     1      -7.590  11.628  68.320  1.00  0.00     0.000 HD 
HETATM   24  O   UNL     1      -7.346  12.102  69.106  1.00  0.00    -0.051 OA 
HETATM   25  C   UNL     1      -6.508  14.070  70.203  1.00  0.00    -0.055 A  
HETATM   26  C   UNL     1      -6.866  13.375  69.052  1.00  0.00    -0.103 A  
HETATM   27  C   UNL     1      -6.245  15.265  67.691  1.00  0.00    -0.155 A  
HETATM   28  C   UNL     1      -6.747  13.967  67.800  1.00  0.00    -0.186 A  
ENDBRANCH  20  21
ENDBRANCH  19  20
ENDBRANCH   2  19
TORSDOF 10
ENDMDL
MODEL      270
REMARK 921   NORMALIZED FREE ENERGY PREDICTED BY IDOCK:   -3.60 KCAL/MOL
REMARK 922        TOTAL FREE ENERGY PREDICTED BY IDOCK:   -6.84 KCAL/MOL
REMARK 923 INTER-LIGAND FREE ENERGY PREDICTED BY IDOCK:   -5.52 KCAL/MOL
REMARK 924 INTRA-LIGAND FREE ENERGY PREDICTED BY IDOCK:   -1.31 KCAL/MOL
REMARK 927      BINDING AFFINITY PREDICTED BY RF-SCORE:    0.00 PKD
ROOT
HETATM    1  O   UNL     1      -8.938  13.400  66.564  1.00  0.00    -0.417 OA 
HETATM    2  C   UNL     1      -9.206  12.355  67.509  1.00  0.00    -0.183 C  
HETATM    3  H   UNL     1      -8.036  13.679  66.663  1.00  0.00     0.000 HD 
ENDROOT
BRANCH   2   4
HETATM    4  C   UNL     1     -10.668  11.904  67.349  1.00  0.00    -0.232 C  
BRANCH   4   5
HETATM    5  N   UNL     1     -11.570  13.064  67.265  1.00  0.00    -0.335 NA 
HETATM    6  H   UNL     1     -12.397  12.865  66.701  1.00  0.00     0.000 HD 
BRANCH   5   7
HETATM    7  C   UNL     1     -11.921  13.527  68.612  1.00  0.00    -0.343 C  
BRANCH   7   8
HETATM    8  C   UNL     1     -11.796  15.051  68.723  1.00  0.00    -0.301 C  
BRANCH   8   9
HETATM    9  N   UNL     1     -10.872  15.555  67.728  1.00  0.00    -0.301 N  
HETATM   10  H   UNL     1     -11.066  15.370  66.744  1.00  0.00     0.000 HD 
BRANCH   9  11
HETATM   11  C   UNL     1      -9.753  16.269  68.051  1.00  0.00    -0.230 C  
HETATM   12  O   UNL     1      -8.724  15.712  68.429  1.00  0.00    -0.169 OA 
BRANCH  11  13
HETATM   13  N   UNL     1      -9.858  17.637  67.916  1.00  0.00    -0.288 N  
HETATM   14  C   UNL     1      -8.745  18.485  68.349  1.00  0.00    -0.327 C  
HETATM   15  C   UNL     1      -8.178  19.273  67.163  1.00  0.00    -0.268 C  
HETATM   16  O   UNL     1      -9.210  20.026  66.502  1.00  0.00    -0.358 OA 
HETATM   17  C   UNL     1     -10.245  19.155  66.024  1.00  0.00    -0.424 C  
HETATM   18  C   UNL     1     -10.887  18.379  67.180  1.00  0.00    -0.231 C  
ENDBRANCH  11  13
ENDBRANCH   9  11
ENDBRANCH   8   9
ENDBRANCH   7   8
ENDBRANCH   5   7
ENDBRANCH   4   5
ENDBRANCH   2   4
BRANCH   2  19
HETATM   19  C   UNL     1      -8.266  11.167  67.265  1.00  0.00    -0.136 C  
BRANCH  19  20
HETATM   20  O   UNL     1      -8.198  10.890  65.859  1.00  0.00    -0.160 OA 
BRANCH  20  21
HETATM   21  C   UNL     1      -8.088   9.563  65.543  1.00  0.00    -0.116 A  
HETATM   22  C   UNL     1      -8.454   8.666  66.549  1.00  0.00    -0.118 A  
HETATM   23  H   UNL     1      -7.586   5.161  63.980  1.00  0.00     0.000 HD 
HETATM   24  O   UNL     1      -7.873   5.483  64.826  1.00  0.00    -0.093 OA 
HETATM   25  C   UNL     1      -8.386   7.288  66.328  1.00  0.00    -0.129 A  
HETATM   26  C   UNL     1      -7.965   6.816  65.089  1.00  0.00    -0.128 A  
HETATM   27  C   UNL     1      -7.689   9.075  64.296  1.00  0.00    -0.123 A  
HETATM   28  C   UNL     1      -7.626   7.699  64.071  1.00  0.00    -0.114 A  
ENDBRANCH  20  21
ENDBRANCH  19  20
ENDBRANCH   2  19
TORSDOF 10
ENDMDL
MODEL      271
REMARK 921   NORMALIZED FREE ENERGY PREDICTED BY IDOCK:   -3.56 KCAL/MOL
REMARK 922        TOTAL FREE ENERGY PREDICTED BY IDOCK:   -6.78 KCAL/MOL
REMARK 923 INTER-LIGAND FREE ENERGY PREDICTED BY IDOCK:   -5.91 KCAL/MOL
REMARK 924 INTRA-LIGAND FREE ENERGY PREDICTED BY IDOCK:   -0.88 KCAL/MOL
REMARK 927      BINDING AFFINITY PREDICTED BY RF-SCORE:    0.00 PKD
ROOT
HETATM    1  O   UNL     1     -11.089   8.403  69.017  1.00  0.00    -0.430 OA 
HETATM    2  C   UNL     1     -10.323   9.598  68.810  1.00  0.00    -0.213 C  
HETATM    3  H   UNL     1     -11.914   8.635  69.427  1.00  0.00     0.000 HD 
ENDROOT
BRANCH   2   4
HETATM    4  C   UNL     1      -8.987   9.221  68.147  1.00  0.00    -0.128 C  
BRANCH   4   5
HETATM    5  N   UNL     1      -8.293   8.175  68.916  1.00  0.00    -0.124 NA 
HETATM    6  H   UNL     1      -7.648   7.639  68.336  1.00  0.00     0.000 HD 
BRANCH   5   7
HETATM    7  C   UNL     1      -7.625   8.768  70.080  1.00  0.00    -0.072 C  
BRANCH   7   8
HETATM    8  C   UNL     1      -7.012   7.686  70.976  1.00  0.00    -0.049 C  
BRANCH   8   9
HETATM    9  N   UNL     1      -7.548   6.384  70.634  1.00  0.00    -0.100 N  
HETATM   10  H   UNL     1      -7.698   6.162  69.650  1.00  0.00     0.000 HD 
BRANCH   9  11
HETATM   11  C   UNL     1      -7.859   5.442  71.572  1.00  0.00    -0.110 C  
HETATM   12  O   UNL     1      -7.123   4.479  71.784  1.00  0.00    -0.051 OA 
BRANCH  11  13
HETATM   13  N   UNL     1      -9.036   5.650  72.259  1.00  0.00    -0.139 N  
HETATM   14  C   UNL     1      -9.051   5.494  73.715  1.00  0.00    -0.123 C  
HETATM   15  C   UNL     1      -9.423   6.818  74.393  1.00  0.00    -0.249 C  
HETATM   16  O   UNL     1     -10.670   7.325  73.887  1.00  0.00    -0.318 OA 
HETATM   17  C   UNL     1     -10.594   7.538  72.471  1.00  0.00    -0.270 C  
HETATM   18  C   UNL     1     -10.277   6.230  71.735  1.00  0.00    -0.196 C  
ENDBRANCH  11  13
ENDBRANCH   9  11
ENDBRANCH   8   9
ENDBRANCH   7   8
ENDBRANCH   5   7
ENDBRANCH   4   5
ENDBRANCH   2   4
BRANCH   2  19
HETATM   19  C   UNL     1     -11.094  10.573  67.910  1.00  0.00    -0.304 C  
BRANCH  19  20
HETATM   20  O   UNL     1     -10.273  11.715  67.627  1.00  0.00    -0.184 OA 
BRANCH  20  21
HETATM   21  C   UNL     1     -10.817  12.604  66.740  1.00  0.00    -0.250 A  
HETATM   22  C   UNL     1     -10.002  13.680  66.383  1.00  0.00    -0.299 A  
HETATM   23  H   UNL     1     -13.086  15.337  63.666  1.00  0.00     0.000 HD 
HETATM   24  O   UNL     1     -12.220  15.427  64.045  1.00  0.00    -0.629 OA 
HETATM   25  C   UNL     1     -10.457  14.644  65.479  1.00  0.00    -0.374 A  
HETATM   26  C   UNL     1     -11.726  14.512  64.924  1.00  0.00    -0.402 A  
HETATM   27  C   UNL     1     -12.080  12.473  66.158  1.00  0.00    -0.357 A  
HETATM   28  C   UNL     1     -12.535  13.430  65.250  1.00  0.00    -0.532 A  
ENDBRANCH  20  21
ENDBRANCH  19  20
ENDBRANCH   2  19
TORSDOF 10
ENDMDL
MODEL      272
REMARK 921   NORMALIZED FREE ENERGY PREDICTED BY IDOCK:   -3.56 KCAL/MOL
REMARK 922        TOTAL FREE ENERGY PREDICTED BY IDOCK:   -6.78 KCAL/MOL
REMARK 923 INTER-LIGAND FREE ENERGY PREDICTED BY IDOCK:   -5.92 KCAL/MOL
REMARK 924 INTRA-LIGAND FREE ENERGY PREDICTED BY IDOCK:   -0.85 KCAL/MOL
REMARK 927      BINDING AFFINITY PREDICTED BY RF-SCORE:    0.00 PKD
ROOT
HETATM    1  O   UNL     1      -8.360   5.798  68.022  1.00  0.00    -0.104 OA 
HETATM    2  C   UNL     1      -9.773   5.554  68.055  1.00  0.00    -0.131 C  
HETATM    3  H   UNL     1      -7.935   5.073  67.578  1.00  0.00     0.000 HD 
ENDROOT
BRANCH   2   4
HETATM    4  C   UNL     1     -10.462   6.727  68.774  1.00  0.00    -0.208 C  
BRANCH   4   5
HETATM    5  N   UNL     1     -11.021   7.683  67.804  1.00  0.00    -0.501 NA 
HETATM    6  H   UNL     1     -12.004   7.885  67.989  1.00  0.00     0.000 HD 
BRANCH   5   7
HETATM    7  C   UNL     1     -10.206   8.902  67.773  1.00  0.00    -0.228 C  
BRANCH   7   8
HETATM    8  C   UNL     1      -9.743   9.222  66.347  1.00  0.00    -0.258 C  
BRANCH   8   9
HETATM    9  N   UNL     1     -10.354  10.450  65.881  1.00  0.00    -0.225 N  
HETATM   10  H   UNL     1     -11.294  10.408  65.486  1.00  0.00     0.000 HD 
BRANCH   9  11
HETATM   11  C   UNL     1      -9.727  11.661  65.949  1.00  0.00    -0.235 C  
HETATM   12  O   UNL     1      -8.702  11.817  66.610  1.00  0.00    -0.183 OA 
BRANCH  11  13
HETATM   13  N   UNL     1     -10.314  12.679  65.226  1.00  0.00    -0.286 N  
HETATM   14  C   UNL     1     -10.585  12.478  63.801  1.00  0.00    -0.436 C  
HETATM   15  C   UNL     1     -12.090  12.572  63.523  1.00  0.00    -0.562 C  
HETATM   16  O   UNL     1     -12.630  13.812  64.011  1.00  0.00    -0.685 OA 
HETATM   17  C   UNL     1     -12.414  13.938  65.423  1.00  0.00    -0.501 C  
HETATM   18  C   UNL     1     -10.917  13.907  65.755  1.00  0.00    -0.285 C  
ENDBRANCH  11  13
ENDBRANCH   9  11
ENDBRANCH   8   9
ENDBRANCH   7   8
ENDBRANCH   5   7
ENDBRANCH   4   5
ENDBRANCH   2   4
BRANCH   2  19
HETATM   19  C   UNL     1     -10.323   5.423  66.629  1.00  0.00    -0.275 C  
BRANCH  19  20
HETATM   20  O   UNL     1      -9.272   5.675  65.685  1.00  0.00    -0.142 OA 
BRANCH  20  21
HETATM   21  C   UNL     1      -8.969   4.617  64.872  1.00  0.00    -0.153 A  
HETATM   22  C   UNL     1      -7.700   4.643  64.289  1.00  0.00    -0.078 A  
HETATM   23  H   UNL     1      -8.379   0.783  62.221  1.00  0.00     0.000 HD 
HETATM   24  O   UNL     1      -7.793   1.512  62.386  1.00  0.00    -0.044 OA 
HETATM   25  C   UNL     1      -7.285   3.608  63.447  1.00  0.00    -0.050 A  
HETATM   26  C   UNL     1      -8.144   2.541  63.205  1.00  0.00    -0.073 A  
HETATM   27  C   UNL     1      -9.812   3.528  64.639  1.00  0.00    -0.168 A  
HETATM   28  C   UNL     1      -9.398   2.489  63.803  1.00  0.00    -0.111 A  
ENDBRANCH  20  21
ENDBRANCH  19  20
ENDBRANCH   2  19
TORSDOF 10
ENDMDL
MODEL      273
REMARK 921   NORMALIZED FREE ENERGY PREDICTED BY IDOCK:   -3.54 KCAL/MOL
REMARK 922        TOTAL FREE ENERGY PREDICTED BY IDOCK:   -6.75 KCAL/MOL
REMARK 923 INTER-LIGAND FREE ENERGY PREDICTED BY IDOCK:   -6.25 KCAL/MOL
REMARK 924 INTRA-LIGAND FREE ENERGY PREDICTED BY IDOCK:   -0.49 KCAL/MOL
REMARK 927      BINDING AFFINITY PREDICTED BY RF-SCORE:    0.00 PKD
ROOT
HETATM    1  O   UNL     1     -11.937  10.459  67.978  1.00  0.00    -0.706 OA 
HETATM    2  C   UNL     1     -10.922  10.260  66.984  1.00  0.00    -0.119 C  
HETATM    3  H   UNL     1     -11.979   9.688  68.531  1.00  0.00     0.000 HD 
ENDROOT
BRANCH   2   4
HETATM    4  C   UNL     1     -10.855  11.508  66.088  1.00  0.00    -0.278 C  
BRANCH   4   5
HETATM    5  N   UNL     1     -11.992  12.407  66.350  1.00  0.00    -0.607 NA 
HETATM    6  H   UNL     1     -12.722  11.949  66.896  1.00  0.00     0.000 HD 
BRANCH   5   7
HETATM    7  C   UNL     1     -11.519  13.641  66.988  1.00  0.00    -0.343 C  
BRANCH   7   8
HETATM    8  C   UNL     1     -11.254  14.735  65.947  1.00  0.00    -0.340 C  
BRANCH   8   9
HETATM    9  N   UNL     1     -10.760  15.935  66.591  1.00  0.00    -0.303 N  
HETATM   10  H   UNL     1     -11.390  16.457  67.199  1.00  0.00     0.000 HD 
BRANCH   9  11
HETATM   11  C   UNL     1      -9.486  16.396  66.418  1.00  0.00    -0.293 C  
HETATM   12  O   UNL     1      -8.549  15.629  66.201  1.00  0.00    -0.297 OA 
BRANCH  11  13
HETATM   13  N   UNL     1      -9.331  17.764  66.495  1.00  0.00    -0.279 N  
HETATM   14  C   UNL     1     -10.470  18.631  66.185  1.00  0.00    -0.430 C  
HETATM   15  C   UNL     1     -10.857  19.467  67.410  1.00  0.00    -0.414 C  
HETATM   16  O   UNL     1      -9.730  20.208  67.908  1.00  0.00    -0.370 OA 
HETATM   17  C   UNL     1      -8.663  19.322  68.274  1.00  0.00    -0.338 C  
HETATM   18  C   UNL     1      -8.196  18.497  67.068  1.00  0.00    -0.247 C  
ENDBRANCH  11  13
ENDBRANCH   9  11
ENDBRANCH   8   9
ENDBRANCH   7   8
ENDBRANCH   5   7
ENDBRANCH   4   5
ENDBRANCH   2   4
BRANCH   2  19
HETATM   19  C   UNL     1      -9.562  10.028  67.655  1.00  0.00    -0.148 C  
BRANCH  19  20
HETATM   20  O   UNL     1      -9.587   8.787  68.374  1.00  0.00    -0.144 OA 
BRANCH  20  21
HETATM   21  C   UNL     1      -8.596   8.648  69.309  1.00  0.00    -0.131 A  
HETATM   22  C   UNL     1      -7.896   7.440  69.275  1.00  0.00    -0.116 A  
HETATM   23  H   UNL     1      -5.293   8.655  72.649  1.00  0.00     0.000 HD 
HETATM   24  O   UNL     1      -5.525   7.987  72.016  1.00  0.00    -0.035 OA 
HETATM   25  C   UNL     1      -6.860   7.197  70.180  1.00  0.00    -0.060 A  
HETATM   26  C   UNL     1      -6.520   8.177  71.107  1.00  0.00    -0.039 A  
HETATM   27  C   UNL     1      -8.230   9.632  70.230  1.00  0.00    -0.217 A  
HETATM   28  C   UNL     1      -7.191   9.394  71.131  1.00  0.00    -0.001 A  
ENDBRANCH  20  21
ENDBRANCH  19  20
ENDBRANCH   2  19
TORSDOF 10
ENDMDL
MODEL      274
REMARK 921   NORMALIZED FREE ENERGY PREDICTED BY IDOCK:   -3.53 KCAL/MOL
REMARK 922        TOTAL FREE ENERGY PREDICTED BY IDOCK:   -6.73 KCAL/MOL
REMARK 923 INTER-LIGAND FREE ENERGY PREDICTED BY IDOCK:   -6.10 KCAL/MOL
REMARK 924 INTRA-LIGAND FREE ENERGY PREDICTED BY IDOCK:   -0.63 KCAL/MOL
REMARK 927      BINDING AFFINITY PREDICTED BY RF-SCORE:    0.00 PKD
ROOT
HETATM    1  O   UNL     1      -9.485   8.266  72.703  1.00  0.00    -0.248 OA 
HETATM    2  C   UNL     1     -10.596   7.590  72.098  1.00  0.00    -0.221 C  
HETATM    3  H   UNL     1      -8.727   7.693  72.676  1.00  0.00     0.000 HD 
ENDROOT
BRANCH   2   4
HETATM    4  C   UNL     1     -11.823   8.518  72.142  1.00  0.00    -0.379 C  
BRANCH   4   5
HETATM    5  N   UNL     1     -11.653   9.659  71.226  1.00  0.00    -0.365 NA 
HETATM    6  H   UNL     1     -11.458   9.356  70.271  1.00  0.00     0.000 HD 
BRANCH   5   7
HETATM    7  C   UNL     1     -12.826  10.538  71.297  1.00  0.00    -0.431 C  
BRANCH   7   8
HETATM    8  C   UNL     1     -12.455  11.982  70.942  1.00  0.00    -0.288 C  
BRANCH   8   9
HETATM    9  N   UNL     1     -11.395  12.004  69.954  1.00  0.00    -0.510 N  
HETATM   10  H   UNL     1     -10.428  11.967  70.277  1.00  0.00     0.000 HD 
BRANCH   9  11
HETATM   11  C   UNL     1     -11.635  12.071  68.612  1.00  0.00    -0.319 C  
HETATM   12  O   UNL     1     -11.987  11.082  67.972  1.00  0.00    -0.623 OA 
BRANCH  11  13
HETATM   13  N   UNL     1     -11.465  13.313  68.036  1.00  0.00    -0.289 N  
HETATM   14  C   UNL     1     -10.481  14.235  68.608  1.00  0.00    -0.249 C  
HETATM   15  C   UNL     1      -9.389  14.559  67.581  1.00  0.00    -0.202 C  
HETATM   16  O   UNL     1      -9.960  15.060  66.359  1.00  0.00    -0.255 OA 
HETATM   17  C   UNL     1     -10.859  14.098  65.788  1.00  0.00    -0.297 C  
HETATM   18  C   UNL     1     -12.006  13.778  66.755  1.00  0.00    -0.426 C  
ENDBRANCH  11  13
ENDBRANCH   9  11
ENDBRANCH   8   9
ENDBRANCH   7   8
ENDBRANCH   5   7
ENDBRANCH   4   5
ENDBRANCH   2   4
BRANCH   2  19
HETATM   19  C   UNL     1     -10.270   7.229  70.643  1.00  0.00    -0.195 C  
BRANCH  19  20
HETATM   20  O   UNL     1     -10.225   5.802  70.503  1.00  0.00    -0.194 OA 
BRANCH  20  21
HETATM   21  C   UNL     1      -9.315   5.345  69.588  1.00  0.00    -0.135 A  
HETATM   22  C   UNL     1      -8.635   4.177  69.938  1.00  0.00    -0.103 A  
HETATM   23  H   UNL     1      -6.354   4.158  66.139  1.00  0.00     0.000 HD 
HETATM   24  O   UNL     1      -6.524   3.739  66.974  1.00  0.00    -0.039 OA 
HETATM   25  C   UNL     1      -7.689   3.621  69.073  1.00  0.00    -0.052 A  
HETATM   26  C   UNL     1      -7.441   4.235  67.849  1.00  0.00    -0.068 A  
HETATM   27  C   UNL     1      -9.072   5.938  68.347  1.00  0.00    -0.115 A  
HETATM   28  C   UNL     1      -8.133   5.382  67.477  1.00  0.00    -0.101 A  
ENDBRANCH  20  21
ENDBRANCH  19  20
ENDBRANCH   2  19
TORSDOF 10
ENDMDL
MODEL      275
REMARK 921   NORMALIZED FREE ENERGY PREDICTED BY IDOCK:   -3.52 KCAL/MOL
REMARK 922        TOTAL FREE ENERGY PREDICTED BY IDOCK:   -6.72 KCAL/MOL
REMARK 923 INTER-LIGAND FREE ENERGY PREDICTED BY IDOCK:   -5.91 KCAL/MOL
REMARK 924 INTRA-LIGAND FREE ENERGY PREDICTED BY IDOCK:   -0.81 KCAL/MOL
REMARK 927      BINDING AFFINITY PREDICTED BY RF-SCORE:    0.00 PKD
ROOT
HETATM    1  O   UNL     1     -11.370   8.919  71.950  1.00  0.00    -0.338 OA 
HETATM    2  C   UNL     1     -11.112   9.714  70.784  1.00  0.00    -0.334 C  
HETATM    3  H   UNL     1     -11.544   9.498  72.683  1.00  0.00     0.000 HD 
ENDROOT
BRANCH   2   4
HETATM    4  C   UNL     1     -10.829   8.777  69.598  1.00  0.00    -0.169 C  
BRANCH   4   5
HETATM    5  N   UNL     1      -9.387   8.721  69.304  1.00  0.00    -0.149 NA 
HETATM    6  H   UNL     1      -9.183   8.119  68.505  1.00  0.00     0.000 HD 
BRANCH   5   7
HETATM    7  C   UNL     1      -8.859  10.078  69.119  1.00  0.00    -0.168 C  
BRANCH   7   8
HETATM    8  C   UNL     1      -8.349  10.283  67.688  1.00  0.00    -0.114 C  
BRANCH   8   9
HETATM    9  N   UNL     1      -7.217   9.417  67.426  1.00  0.00    -0.086 N  
HETATM   10  H   UNL     1      -6.620   9.146  68.207  1.00  0.00     0.000 HD 
BRANCH   9  11
HETATM   11  C   UNL     1      -6.916   8.949  66.179  1.00  0.00    -0.081 C  
HETATM   12  O   UNL     1      -6.323   9.646  65.358  1.00  0.00    -0.068 OA 
BRANCH  11  13
HETATM   13  N   UNL     1      -7.314   7.656  65.915  1.00  0.00    -0.072 N  
HETATM   14  C   UNL     1      -6.311   6.588  65.904  1.00  0.00    -0.039 C  
HETATM   15  C   UNL     1      -6.619   5.550  66.989  1.00  0.00    -0.056 C  
HETATM   16  O   UNL     1      -7.957   5.041  66.853  1.00  0.00    -0.102 OA 
HETATM   17  C   UNL     1      -8.916   6.104  66.947  1.00  0.00    -0.118 C  
HETATM   18  C   UNL     1      -8.688   7.147  65.846  1.00  0.00    -0.130 C  
ENDBRANCH  11  13
ENDBRANCH   9  11
ENDBRANCH   8   9
ENDBRANCH   7   8
ENDBRANCH   5   7
ENDBRANCH   4   5
ENDBRANCH   2   4
BRANCH   2  19
HETATM   19  C   UNL     1     -12.324  10.601  70.469  1.00  0.00    -0.359 C  
BRANCH  19  20
HETATM   20  O   UNL     1     -11.874  11.872  69.980  1.00  0.00    -0.323 OA 
BRANCH  20  21
HETATM   21  C   UNL     1     -12.367  12.953  70.660  1.00  0.00    -0.302 A  
HETATM   22  C   UNL     1     -13.234  12.662  71.715  1.00  0.00    -0.457 A  
HETATM   23  H   UNL     1     -13.750  16.951  72.702  1.00  0.00     0.000 HD 
HETATM   24  O   UNL     1     -13.977  16.051  72.899  1.00  0.00    -0.560 OA 
HETATM   25  C   UNL     1     -13.789  13.691  72.480  1.00  0.00    -0.620 A  
HETATM   26  C   UNL     1     -13.457  15.011  72.191  1.00  0.00    -0.407 A  
HETATM   27  C   UNL     1     -12.024  14.281  70.395  1.00  0.00    -0.402 A  
HETATM   28  C   UNL     1     -12.572  15.311  71.162  1.00  0.00    -0.457 A  
ENDBRANCH  20  21
ENDBRANCH  19  20
ENDBRANCH   2  19
TORSDOF 10
ENDMDL
MODEL      276
REMARK 921   NORMALIZED FREE ENERGY PREDICTED BY IDOCK:   -3.52 KCAL/MOL
REMARK 922        TOTAL FREE ENERGY PREDICTED BY IDOCK:   -6.71 KCAL/MOL
REMARK 923 INTER-LIGAND FREE ENERGY PREDICTED BY IDOCK:   -5.66 KCAL/MOL
REMARK 924 INTRA-LIGAND FREE ENERGY PREDICTED BY IDOCK:   -1.05 KCAL/MOL
REMARK 927      BINDING AFFINITY PREDICTED BY RF-SCORE:    0.00 PKD
ROOT
HETATM    1  O   UNL     1     -10.235   6.697  68.187  1.00  0.00    -0.150 OA 
HETATM    2  C   UNL     1      -9.446   7.794  67.706  1.00  0.00    -0.143 C  
HETATM    3  H   UNL     1     -11.126   6.997  68.324  1.00  0.00     0.000 HD 
ENDROOT
BRANCH   2   4
HETATM    4  C   UNL     1      -8.003   7.307  67.485  1.00  0.00    -0.113 C  
BRANCH   4   5
HETATM    5  N   UNL     1      -7.449   6.725  68.719  1.00  0.00    -0.094 NA 
HETATM    6  H   UNL     1      -6.947   5.856  68.540  1.00  0.00     0.000 HD 
BRANCH   5   7
HETATM    7  C   UNL     1      -6.611   7.714  69.408  1.00  0.00    -0.039 C  
BRANCH   7   8
HETATM    8  C   UNL     1      -6.956   7.786  70.900  1.00  0.00    -0.049 C  
BRANCH   8   9
HETATM    9  N   UNL     1      -8.371   7.551  71.104  1.00  0.00    -0.108 N  
HETATM   10  H   UNL     1      -8.704   6.588  71.147  1.00  0.00     0.000 HD 
BRANCH   9  11
HETATM   11  C   UNL     1      -9.277   8.564  71.241  1.00  0.00    -0.200 C  
HETATM   12  O   UNL     1      -9.015   9.712  70.888  1.00  0.00    -0.196 OA 
BRANCH  11  13
HETATM   13  N   UNL     1     -10.491   8.208  71.790  1.00  0.00    -0.227 N  
HETATM   14  C   UNL     1     -11.705   8.337  70.982  1.00  0.00    -0.270 C  
HETATM   15  C   UNL     1     -12.366   6.968  70.783  1.00  0.00    -0.258 C  
HETATM   16  O   UNL     1     -12.618   6.326  72.045  1.00  0.00    -0.269 OA 
HETATM   17  C   UNL     1     -11.396   6.147  72.775  1.00  0.00    -0.222 C  
HETATM   18  C   UNL     1     -10.718   7.495  73.052  1.00  0.00    -0.384 C  
ENDBRANCH  11  13
ENDBRANCH   9  11
ENDBRANCH   8   9
ENDBRANCH   7   8
ENDBRANCH   5   7
ENDBRANCH   4   5
ENDBRANCH   2   4
BRANCH   2  19
HETATM   19  C   UNL     1     -10.023   8.324  66.387  1.00  0.00    -0.194 C  
BRANCH  19  20
HETATM   20  O   UNL     1      -9.393   9.569  66.054  1.00  0.00    -0.180 OA 
BRANCH  20  21
HETATM   21  C   UNL     1     -10.214  10.662  66.124  1.00  0.00    -0.248 A  
HETATM   22  C   UNL     1     -10.727  11.115  64.907  1.00  0.00    -0.318 A  
HETATM   23  H   UNL     1     -12.990  14.377  66.878  1.00  0.00     0.000 HD 
HETATM   24  O   UNL     1     -12.752  13.942  66.067  1.00  0.00    -0.463 OA 
HETATM   25  C   UNL     1     -11.581  12.220  64.866  1.00  0.00    -0.395 A  
HETATM   26  C   UNL     1     -11.930  12.856  66.053  1.00  0.00    -0.446 A  
HETATM   27  C   UNL     1     -10.590  11.296  67.310  1.00  0.00    -0.271 A  
HETATM   28  C   UNL     1     -11.449  12.396  67.273  1.00  0.00    -0.421 A  
ENDBRANCH  20  21
ENDBRANCH  19  20
ENDBRANCH   2  19
TORSDOF 10
ENDMDL
MODEL      277
REMARK 921   NORMALIZED FREE ENERGY PREDICTED BY IDOCK:   -3.52 KCAL/MOL
REMARK 922        TOTAL FREE ENERGY PREDICTED BY IDOCK:   -6.71 KCAL/MOL
REMARK 923 INTER-LIGAND FREE ENERGY PREDICTED BY IDOCK:   -5.93 KCAL/MOL
REMARK 924 INTRA-LIGAND FREE ENERGY PREDICTED BY IDOCK:   -0.78 KCAL/MOL
REMARK 927      BINDING AFFINITY PREDICTED BY RF-SCORE:    0.00 PKD
ROOT
HETATM    1  O   UNL     1      -9.245   9.593  71.373  1.00  0.00    -0.295 OA 
HETATM    2  C   UNL     1      -9.344   9.679  69.945  1.00  0.00    -0.228 C  
HETATM    3  H   UNL     1      -9.747  10.301  71.759  1.00  0.00     0.000 HD 
ENDROOT
BRANCH   2   4
HETATM    4  C   UNL     1      -8.531   8.532  69.321  1.00  0.00    -0.128 C  
BRANCH   4   5
HETATM    5  N   UNL     1      -9.310   7.283  69.301  1.00  0.00    -0.154 NA 
HETATM    6  H   UNL     1      -9.173   6.761  68.435  1.00  0.00     0.000 HD 
BRANCH   5   7
HETATM    7  C   UNL     1      -8.997   6.476  70.486  1.00  0.00    -0.152 C  
BRANCH   7   8
HETATM    8  C   UNL     1      -8.952   4.983  70.141  1.00  0.00    -0.111 C  
BRANCH   8   9
HETATM    9  N   UNL     1     -10.033   4.280  70.803  1.00  0.00    -0.188 N  
HETATM   10  H   UNL     1     -10.993   4.506  70.543  1.00  0.00     0.000 HD 
BRANCH   9  11
HETATM   11  C   UNL     1      -9.820   3.328  71.759  1.00  0.00    -0.159 C  
HETATM   12  O   UNL     1      -9.967   2.131  71.517  1.00  0.00    -0.155 OA 
BRANCH  11  13
HETATM   13  N   UNL     1      -9.428   3.799  72.994  1.00  0.00    -0.109 N  
HETATM   14  C   UNL     1      -8.040   3.611  73.422  1.00  0.00    -0.079 C  
HETATM   15  C   UNL     1      -7.358   4.966  73.643  1.00  0.00    -0.090 C  
HETATM   16  O   UNL     1      -8.106   5.778  74.564  1.00  0.00    -0.106 OA 
HETATM   17  C   UNL     1      -9.436   6.006  74.074  1.00  0.00    -0.149 C  
HETATM   18  C   UNL     1     -10.186   4.682  73.887  1.00  0.00    -0.202 C  
ENDBRANCH  11  13
ENDBRANCH   9  11
ENDBRANCH   8   9
ENDBRANCH   7   8
ENDBRANCH   5   7
ENDBRANCH   4   5
ENDBRANCH   2   4
BRANCH   2  19
HETATM   19  C   UNL     1     -10.812   9.572  69.508  1.00  0.00    -0.222 C  
BRANCH  19  20
HETATM   20  O   UNL     1     -11.244  10.829  68.970  1.00  0.00    -0.223 OA 
BRANCH  20  21
HETATM   21  C   UNL     1     -11.916  11.630  69.855  1.00  0.00    -0.340 A  
HETATM   22  C   UNL     1     -12.559  10.969  70.903  1.00  0.00    -0.488 A  
HETATM   23  H   UNL     1     -14.028  14.776  72.631  1.00  0.00     0.000 HD 
HETATM   24  O   UNL     1     -13.997  13.829  72.689  1.00  0.00    -0.710 OA 
HETATM   25  C   UNL     1     -13.268  11.691  71.866  1.00  0.00    -0.475 A  
HETATM   26  C   UNL     1     -13.314  13.079  71.781  1.00  0.00    -0.378 A  
HETATM   27  C   UNL     1     -11.951  13.024  69.794  1.00  0.00    -0.377 A  
HETATM   28  C   UNL     1     -12.652  13.749  70.759  1.00  0.00    -0.410 A  
ENDBRANCH  20  21
ENDBRANCH  19  20
ENDBRANCH   2  19
TORSDOF 10
ENDMDL
MODEL      278
REMARK 921   NORMALIZED FREE ENERGY PREDICTED BY IDOCK:   -3.51 KCAL/MOL
REMARK 922        TOTAL FREE ENERGY PREDICTED BY IDOCK:   -6.70 KCAL/MOL
REMARK 923 INTER-LIGAND FREE ENERGY PREDICTED BY IDOCK:   -5.56 KCAL/MOL
REMARK 924 INTRA-LIGAND FREE ENERGY PREDICTED BY IDOCK:   -1.13 KCAL/MOL
REMARK 927      BINDING AFFINITY PREDICTED BY RF-SCORE:    0.00 PKD
ROOT
HETATM    1  O   UNL     1     -11.410   5.881  66.445  1.00  0.00    -0.730 OA 
HETATM    2  C   UNL     1     -10.991   6.709  67.539  1.00  0.00    -0.338 C  
HETATM    3  H   UNL     1     -11.486   6.419  65.666  1.00  0.00     0.000 HD 
ENDROOT
BRANCH   2   4
HETATM    4  C   UNL     1     -10.869   5.837  68.801  1.00  0.00    -0.215 C  
BRANCH   4   5
HETATM    5  N   UNL     1      -9.460   5.515  69.084  1.00  0.00    -0.124 NA 
HETATM    6  H   UNL     1      -8.819   6.106  68.553  1.00  0.00     0.000 HD 
BRANCH   5   7
HETATM    7  C   UNL     1      -9.208   5.588  70.527  1.00  0.00    -0.148 C  
BRANCH   7   8
HETATM    8  C   UNL     1      -8.146   6.644  70.851  1.00  0.00    -0.119 C  
BRANCH   8   9
HETATM    9  N   UNL     1      -8.724   7.972  70.806  1.00  0.00    -0.135 N  
HETATM   10  H   UNL     1      -8.429   8.607  70.064  1.00  0.00     0.000 HD 
BRANCH   9  11
HETATM   11  C   UNL     1      -9.647   8.409  71.713  1.00  0.00    -0.234 C  
HETATM   12  O   UNL     1      -9.368   8.532  72.904  1.00  0.00    -0.242 OA 
BRANCH  11  13
HETATM   13  N   UNL     1     -10.893   8.703  71.202  1.00  0.00    -0.244 N  
HETATM   14  C   UNL     1     -12.080   8.123  71.834  1.00  0.00    -0.323 C  
HETATM   15  C   UNL     1     -12.990   9.228  72.383  1.00  0.00    -0.377 C  
HETATM   16  O   UNL     1     -13.329  10.177  71.357  1.00  0.00    -0.367 OA 
HETATM   17  C   UNL     1     -12.146  10.781  70.815  1.00  0.00    -0.372 C  
HETATM   18  C   UNL     1     -11.222   9.723  70.199  1.00  0.00    -0.272 C  
ENDBRANCH  11  13
ENDBRANCH   9  11
ENDBRANCH   8   9
ENDBRANCH   7   8
ENDBRANCH   5   7
ENDBRANCH   4   5
ENDBRANCH   2   4
BRANCH   2  19
HETATM   19  C   UNL     1      -9.638   7.360  67.224  1.00  0.00    -0.150 C  
BRANCH  19  20
HETATM   20  O   UNL     1      -9.836   8.469  66.336  1.00  0.00    -0.253 OA 
BRANCH  20  21
HETATM   21  C   UNL     1      -8.682   9.045  65.875  1.00  0.00    -0.166 A  
HETATM   22  C   UNL     1      -8.110   8.442  64.753  1.00  0.00    -0.155 A  
HETATM   23  H   UNL     1      -4.797  11.384  64.649  1.00  0.00     0.000 HD 
HETATM   24  O   UNL     1      -5.197  10.614  64.264  1.00  0.00    -0.148 OA 
HETATM   25  C   UNL     1      -6.934   8.953  64.197  1.00  0.00    -0.089 A  
HETATM   26  C   UNL     1      -6.347  10.081  64.762  1.00  0.00    -0.127 A  
HETATM   27  C   UNL     1      -8.095  10.189  66.418  1.00  0.00    -0.122 A  
HETATM   28  C   UNL     1      -6.924  10.707  65.861  1.00  0.00    -0.116 A  
ENDBRANCH  20  21
ENDBRANCH  19  20
ENDBRANCH   2  19
TORSDOF 10
ENDMDL
MODEL      279
REMARK 921   NORMALIZED FREE ENERGY PREDICTED BY IDOCK:   -3.51 KCAL/MOL
REMARK 922        TOTAL FREE ENERGY PREDICTED BY IDOCK:   -6.69 KCAL/MOL
REMARK 923 INTER-LIGAND FREE ENERGY PREDICTED BY IDOCK:   -5.76 KCAL/MOL
REMARK 924 INTRA-LIGAND FREE ENERGY PREDICTED BY IDOCK:   -0.93 KCAL/MOL
REMARK 927      BINDING AFFINITY PREDICTED BY RF-SCORE:    0.00 PKD
ROOT
HETATM    1  O   UNL     1     -11.388   6.921  68.264  1.00  0.00    -0.526 OA 
HETATM    2  C   UNL     1     -10.250   7.792  68.322  1.00  0.00    -0.201 C  
HETATM    3  H   UNL     1     -11.120   6.049  68.531  1.00  0.00     0.000 HD 
ENDROOT
BRANCH   2   4
HETATM    4  C   UNL     1     -10.683   9.203  67.888  1.00  0.00    -0.162 C  
BRANCH   4   5
HETATM    5  N   UNL     1     -10.471  10.176  68.974  1.00  0.00    -0.206 NA 
HETATM    6  H   UNL     1      -9.839  10.927  68.695  1.00  0.00     0.000 HD 
BRANCH   5   7
HETATM    7  C   UNL     1     -11.762  10.689  69.447  1.00  0.00    -0.273 C  
BRANCH   7   8
HETATM    8  C   UNL     1     -11.833  12.214  69.312  1.00  0.00    -0.313 C  
BRANCH   8   9
HETATM    9  N   UNL     1     -11.403  12.625  67.991  1.00  0.00    -0.269 N  
HETATM   10  H   UNL     1     -12.013  12.429  67.197  1.00  0.00     0.000 HD 
BRANCH   9  11
HETATM   11  C   UNL     1     -10.217  13.263  67.764  1.00  0.00    -0.228 C  
HETATM   12  O   UNL     1      -9.207  12.643  67.435  1.00  0.00    -0.178 OA 
BRANCH  11  13
HETATM   13  N   UNL     1     -10.237  14.632  67.921  1.00  0.00    -0.225 N  
HETATM   14  C   UNL     1      -9.821  15.210  69.201  1.00  0.00    -0.237 C  
HETATM   15  C   UNL     1      -8.595  16.110  69.010  1.00  0.00    -0.251 C  
HETATM   16  O   UNL     1      -8.841  17.117  68.013  1.00  0.00    -0.219 OA 
HETATM   17  C   UNL     1      -9.170  16.513  66.754  1.00  0.00    -0.234 C  
HETATM   18  C   UNL     1     -10.427  15.642  66.874  1.00  0.00    -0.307 C  
ENDBRANCH  11  13
ENDBRANCH   9  11
ENDBRANCH   8   9
ENDBRANCH   7   8
ENDBRANCH   5   7
ENDBRANCH   4   5
ENDBRANCH   2   4
BRANCH   2  19
HETATM   19  C   UNL     1      -9.688   7.836  69.749  1.00  0.00    -0.176 C  
BRANCH  19  20
HETATM   20  O   UNL     1     -10.750   7.617  70.688  1.00  0.00    -0.223 OA 
BRANCH  20  21
HETATM   21  C   UNL     1     -10.549   6.568  71.544  1.00  0.00    -0.229 A  
HETATM   22  C   UNL     1      -9.240   6.087  71.617  1.00  0.00    -0.153 A  
HETATM   23  H   UNL     1     -10.350   3.022  74.620  1.00  0.00     0.000 HD 
HETATM   24  O   UNL     1      -9.668   3.410  74.084  1.00  0.00    -0.098 OA 
HETATM   25  C   UNL     1      -8.923   5.022  72.465  1.00  0.00    -0.137 A  
HETATM   26  C   UNL     1      -9.922   4.454  73.249  1.00  0.00    -0.142 A  
HETATM   27  C   UNL     1     -11.537   6.003  72.353  1.00  0.00    -0.349 A  
HETATM   28  C   UNL     1     -11.222   4.944  73.206  1.00  0.00    -0.423 A  
ENDBRANCH  20  21
ENDBRANCH  19  20
ENDBRANCH   2  19
TORSDOF 10
ENDMDL
MODEL      280
REMARK 921   NORMALIZED FREE ENERGY PREDICTED BY IDOCK:   -3.50 KCAL/MOL
REMARK 922        TOTAL FREE ENERGY PREDICTED BY IDOCK:   -6.69 KCAL/MOL
REMARK 923 INTER-LIGAND FREE ENERGY PREDICTED BY IDOCK:   -5.85 KCAL/MOL
REMARK 924 INTRA-LIGAND FREE ENERGY PREDICTED BY IDOCK:   -0.84 KCAL/MOL
REMARK 927      BINDING AFFINITY PREDICTED BY RF-SCORE:    0.00 PKD
ROOT
HETATM    1  O   UNL     1      -9.209  11.422  64.288  1.00  0.00    -0.388 OA 
HETATM    2  C   UNL     1     -10.256  10.688  64.937  1.00  0.00    -0.324 C  
HETATM    3  H   UNL     1      -9.587  12.180  63.858  1.00  0.00     0.000 HD 
ENDROOT
BRANCH   2   4
HETATM    4  C   UNL     1      -9.643   9.460  65.633  1.00  0.00    -0.274 C  
BRANCH   4   5
HETATM    5  N   UNL     1      -8.484   9.845  66.456  1.00  0.00    -0.124 NA 
HETATM    6  H   UNL     1      -8.556  10.805  66.792  1.00  0.00     0.000 HD 
BRANCH   5   7
HETATM    7  C   UNL     1      -8.309   8.889  67.555  1.00  0.00    -0.109 C  
BRANCH   7   8
HETATM    8  C   UNL     1      -9.659   8.493  68.164  1.00  0.00    -0.143 C  
BRANCH   8   9
HETATM    9  N   UNL     1      -9.656   8.725  69.594  1.00  0.00    -0.169 N  
HETATM   10  H   UNL     1      -8.947   9.345  69.986  1.00  0.00     0.000 HD 
BRANCH   9  11
HETATM   11  C   UNL     1     -10.561   8.150  70.439  1.00  0.00    -0.224 C  
HETATM   12  O   UNL     1     -11.768   8.182  70.206  1.00  0.00    -0.089 OA 
BRANCH  11  13
HETATM   13  N   UNL     1     -10.030   7.534  71.552  1.00  0.00    -0.177 N  
HETATM   14  C   UNL     1      -9.299   6.274  71.392  1.00  0.00    -0.152 C  
HETATM   15  C   UNL     1      -7.844   6.436  71.846  1.00  0.00    -0.100 C  
HETATM   16  O   UNL     1      -7.775   6.937  73.193  1.00  0.00    -0.091 OA 
HETATM   17  C   UNL     1      -8.434   8.208  73.295  1.00  0.00    -0.230 C  
HETATM   18  C   UNL     1      -9.912   8.092  72.904  1.00  0.00    -0.266 C  
ENDBRANCH  11  13
ENDBRANCH   9  11
ENDBRANCH   8   9
ENDBRANCH   7   8
ENDBRANCH   5   7
ENDBRANCH   4   5
ENDBRANCH   2   4
BRANCH   2  19
HETATM   19  C   UNL     1     -10.960  11.574  65.974  1.00  0.00    -0.259 C  
BRANCH  19  20
HETATM   20  O   UNL     1     -10.035  12.547  66.480  1.00  0.00    -0.233 OA 
BRANCH  20  21
HETATM   21  C   UNL     1     -10.298  13.837  66.104  1.00  0.00    -0.301 A  
HETATM   22  C   UNL     1      -9.328  14.780  66.449  1.00  0.00    -0.320 A  
HETATM   23  H   UNL     1     -11.618  18.077  64.573  1.00  0.00     0.000 HD 
HETATM   24  O   UNL     1     -10.844  17.812  65.054  1.00  0.00    -0.774 OA 
HETATM   25  C   UNL     1      -9.494  16.124  66.107  1.00  0.00    -0.362 A  
HETATM   26  C   UNL     1     -10.630  16.514  65.403  1.00  0.00    -0.276 A  
HETATM   27  C   UNL     1     -11.422  14.237  65.378  1.00  0.00    -0.332 A  
HETATM   28  C   UNL     1     -11.588  15.579  65.029  1.00  0.00    -0.133 A  
ENDBRANCH  20  21
ENDBRANCH  19  20
ENDBRANCH   2  19
TORSDOF 10
ENDMDL
MODEL      281
REMARK 921   NORMALIZED FREE ENERGY PREDICTED BY IDOCK:   -3.50 KCAL/MOL
REMARK 922        TOTAL FREE ENERGY PREDICTED BY IDOCK:   -6.69 KCAL/MOL
REMARK 923 INTER-LIGAND FREE ENERGY PREDICTED BY IDOCK:   -5.80 KCAL/MOL
REMARK 924 INTRA-LIGAND FREE ENERGY PREDICTED BY IDOCK:   -0.89 KCAL/MOL
REMARK 927      BINDING AFFINITY PREDICTED BY RF-SCORE:    0.00 PKD
ROOT
HETATM    1  O   UNL     1     -10.132  12.359  62.932  1.00  0.00    -0.408 OA 
HETATM    2  C   UNL     1     -10.805  11.568  63.920  1.00  0.00    -0.401 C  
HETATM    3  H   UNL     1     -10.782  12.786  62.386  1.00  0.00     0.000 HD 
ENDROOT
BRANCH   2   4
HETATM    4  C   UNL     1      -9.751  10.876  64.803  1.00  0.00    -0.271 C  
BRANCH   4   5
HETATM    5  N   UNL     1      -9.460  11.678  66.003  1.00  0.00    -0.226 NA 
HETATM    6  H   UNL     1     -10.139  12.428  66.135  1.00  0.00     0.000 HD 
BRANCH   5   7
HETATM    7  C   UNL     1      -9.368  10.806  67.179  1.00  0.00    -0.155 C  
BRANCH   7   8
HETATM    8  C   UNL     1      -9.246   9.334  66.768  1.00  0.00    -0.147 C  
BRANCH   8   9
HETATM    9  N   UNL     1      -8.457   8.603  67.738  1.00  0.00    -0.125 N  
HETATM   10  H   UNL     1      -7.684   9.083  68.200  1.00  0.00     0.000 HD 
BRANCH   9  11
HETATM   11  C   UNL     1      -8.703   7.299  68.061  1.00  0.00    -0.127 C  
HETATM   12  O   UNL     1      -8.385   6.380  67.307  1.00  0.00    -0.112 OA 
BRANCH  11  13
HETATM   13  N   UNL     1      -9.318   7.091  69.277  1.00  0.00    -0.146 N  
HETATM   14  C   UNL     1      -9.794   5.748  69.616  1.00  0.00    -0.176 C  
HETATM   15  C   UNL     1      -9.071   5.220  70.860  1.00  0.00    -0.138 C  
HETATM   16  O   UNL     1      -9.199   6.137  71.961  1.00  0.00    -0.147 OA 
HETATM   17  C   UNL     1      -8.653   7.419  71.620  1.00  0.00    -0.116 C  
HETATM   18  C   UNL     1      -9.379   8.021  70.410  1.00  0.00    -0.158 C  
ENDBRANCH  11  13
ENDBRANCH   9  11
ENDBRANCH   8   9
ENDBRANCH   7   8
ENDBRANCH   5   7
ENDBRANCH   4   5
ENDBRANCH   2   4
BRANCH   2  19
HETATM   19  C   UNL     1     -11.706  12.457  64.788  1.00  0.00    -0.368 C  
BRANCH  19  20
HETATM   20  O   UNL     1     -11.347  13.833  64.597  1.00  0.00    -0.345 OA 
BRANCH  20  21
HETATM   21  C   UNL     1     -11.272  14.569  65.749  1.00  0.00    -0.334 A  
HETATM   22  C   UNL     1     -10.689  15.832  65.626  1.00  0.00    -0.360 A  
HETATM   23  H   UNL     1     -11.280  16.715  69.928  1.00  0.00     0.000 HD 
HETATM   24  O   UNL     1     -10.951  17.009  69.087  1.00  0.00    -0.234 OA 
HETATM   25  C   UNL     1     -10.569  16.668  66.739  1.00  0.00    -0.214 A  
HETATM   26  C   UNL     1     -11.051  16.237  67.971  1.00  0.00    -0.299 A  
HETATM   27  C   UNL     1     -11.772  14.158  66.987  1.00  0.00    -0.430 A  
HETATM   28  C   UNL     1     -11.659  14.994  68.099  1.00  0.00    -0.360 A  
ENDBRANCH  20  21
ENDBRANCH  19  20
ENDBRANCH   2  19
TORSDOF 10
ENDMDL
MODEL      282
REMARK 921   NORMALIZED FREE ENERGY PREDICTED BY IDOCK:   -3.49 KCAL/MOL
REMARK 922        TOTAL FREE ENERGY PREDICTED BY IDOCK:   -6.67 KCAL/MOL
REMARK 923 INTER-LIGAND FREE ENERGY PREDICTED BY IDOCK:   -5.85 KCAL/MOL
REMARK 924 INTRA-LIGAND FREE ENERGY PREDICTED BY IDOCK:   -0.82 KCAL/MOL
REMARK 927      BINDING AFFINITY PREDICTED BY RF-SCORE:    0.00 PKD
ROOT
HETATM    1  O   UNL     1     -11.255   8.688  67.824  1.00  0.00    -0.384 OA 
HETATM    2  C   UNL     1     -10.643   9.776  68.532  1.00  0.00    -0.221 C  
HETATM    3  H   UNL     1     -10.584   8.222  67.339  1.00  0.00     0.000 HD 
ENDROOT
BRANCH   2   4
HETATM    4  C   UNL     1     -11.729  10.531  69.316  1.00  0.00    -0.209 C  
BRANCH   4   5
HETATM    5  N   UNL     1     -11.859  11.916  68.835  1.00  0.00    -0.311 NA 
HETATM    6  H   UNL     1     -11.248  12.556  69.343  1.00  0.00     0.000 HD 
BRANCH   5   7
HETATM    7  C   UNL     1     -11.629  11.969  67.387  1.00  0.00    -0.318 C  
BRANCH   7   8
HETATM    8  C   UNL     1     -11.991  13.346  66.819  1.00  0.00    -0.394 C  
BRANCH   8   9
HETATM    9  N   UNL     1     -10.809  14.180  66.725  1.00  0.00    -0.293 N  
HETATM   10  H   UNL     1      -9.945  13.850  67.155  1.00  0.00     0.000 HD 
BRANCH   9  11
HETATM   11  C   UNL     1     -10.804  15.387  66.087  1.00  0.00    -0.313 C  
HETATM   12  O   UNL     1     -11.022  15.475  64.880  1.00  0.00    -0.419 OA 
BRANCH  11  13
HETATM   13  N   UNL     1     -10.547  16.482  66.883  1.00  0.00    -0.279 N  
HETATM   14  C   UNL     1     -10.683  16.356  68.336  1.00  0.00    -0.327 C  
HETATM   15  C   UNL     1      -9.338  16.616  69.025  1.00  0.00    -0.227 C  
HETATM   16  O   UNL     1      -8.796  17.891  68.638  1.00  0.00    -0.297 OA 
HETATM   17  C   UNL     1      -8.605  17.950  67.217  1.00  0.00    -0.237 C  
HETATM   18  C   UNL     1      -9.933  17.751  66.476  1.00  0.00    -0.346 C  
ENDBRANCH  11  13
ENDBRANCH   9  11
ENDBRANCH   8   9
ENDBRANCH   7   8
ENDBRANCH   5   7
ENDBRANCH   4   5
ENDBRANCH   2   4
BRANCH   2  19
HETATM   19  C   UNL     1      -9.577   9.245  69.500  1.00  0.00    -0.173 C  
BRANCH  19  20
HETATM   20  O   UNL     1      -8.376   8.948  68.774  1.00  0.00    -0.120 OA 
BRANCH  20  21
HETATM   21  C   UNL     1      -7.683  10.046  68.341  1.00  0.00    -0.084 A  
HETATM   22  C   UNL     1      -7.377  10.994  69.320  1.00  0.00    -0.113 A  
HETATM   23  H   UNL     1      -5.278  13.584  66.399  1.00  0.00     0.000 HD 
HETATM   24  O   UNL     1      -5.562  13.454  67.296  1.00  0.00    -0.354 OA 
HETATM   25  C   UNL     1      -6.666  12.151  68.987  1.00  0.00    -0.103 A  
HETATM   26  C   UNL     1      -6.250  12.341  67.674  1.00  0.00    -0.120 A  
HETATM   27  C   UNL     1      -7.239  10.240  67.031  1.00  0.00    -0.091 A  
HETATM   28  C   UNL     1      -6.523  11.390  66.697  1.00  0.00    -0.117 A  
ENDBRANCH  20  21
ENDBRANCH  19  20
ENDBRANCH   2  19
TORSDOF 10
ENDMDL
MODEL      283
REMARK 921   NORMALIZED FREE ENERGY PREDICTED BY IDOCK:   -3.48 KCAL/MOL
REMARK 922        TOTAL FREE ENERGY PREDICTED BY IDOCK:   -6.65 KCAL/MOL
REMARK 923 INTER-LIGAND FREE ENERGY PREDICTED BY IDOCK:   -5.53 KCAL/MOL
REMARK 924 INTRA-LIGAND FREE ENERGY PREDICTED BY IDOCK:   -1.13 KCAL/MOL
REMARK 927      BINDING AFFINITY PREDICTED BY RF-SCORE:    0.00 PKD
ROOT
HETATM    1  O   UNL     1     -10.766   6.121  66.348  1.00  0.00    -0.488 OA 
HETATM    2  C   UNL     1     -11.029   7.134  67.329  1.00  0.00    -0.263 C  
HETATM    3  H   UNL     1     -11.013   6.452  65.493  1.00  0.00     0.000 HD 
ENDROOT
BRANCH   2   4
HETATM    4  C   UNL     1     -10.630   6.598  68.714  1.00  0.00    -0.236 C  
BRANCH   4   5
HETATM    5  N   UNL     1     -11.610   7.000  69.737  1.00  0.00    -0.564 NA 
HETATM    6  H   UNL     1     -12.335   6.294  69.870  1.00  0.00     0.000 HD 
BRANCH   5   7
HETATM    7  C   UNL     1     -10.922   7.325  70.992  1.00  0.00    -0.251 C  
BRANCH   7   8
HETATM    8  C   UNL     1     -10.231   6.090  71.579  1.00  0.00    -0.204 C  
BRANCH   8   9
HETATM    9  N   UNL     1      -8.792   6.214  71.463  1.00  0.00    -0.135 N  
HETATM   10  H   UNL     1      -8.289   5.535  70.891  1.00  0.00     0.000 HD 
BRANCH   9  11
HETATM   11  C   UNL     1      -8.081   7.199  72.086  1.00  0.00    -0.095 C  
HETATM   12  O   UNL     1      -8.210   7.421  73.289  1.00  0.00    -0.106 OA 
BRANCH  11  13
HETATM   13  N   UNL     1      -7.217   7.912  71.282  1.00  0.00    -0.057 N  
HETATM   14  C   UNL     1      -7.700   8.433  70.001  1.00  0.00    -0.090 C  
HETATM   15  C   UNL     1      -7.617   9.964  69.980  1.00  0.00    -0.172 C  
HETATM   16  O   UNL     1      -6.285  10.415  70.284  1.00  0.00    -0.092 OA 
HETATM   17  C   UNL     1      -5.876   9.949  71.578  1.00  0.00     0.045 C  
HETATM   18  C   UNL     1      -5.887   8.417  71.639  1.00  0.00    -0.041 C  
ENDBRANCH  11  13
ENDBRANCH   9  11
ENDBRANCH   8   9
ENDBRANCH   7   8
ENDBRANCH   5   7
ENDBRANCH   4   5
ENDBRANCH   2   4
BRANCH   2  19
HETATM   19  C   UNL     1     -10.226   8.402  67.011  1.00  0.00    -0.307 C  
BRANCH  19  20
HETATM   20  O   UNL     1     -10.357   9.336  68.092  1.00  0.00    -0.196 OA 
BRANCH  20  21
HETATM   21  C   UNL     1     -10.903  10.542  67.742  1.00  0.00    -0.294 A  
HETATM   22  C   UNL     1     -10.777  10.898  66.398  1.00  0.00    -0.257 A  
HETATM   23  H   UNL     1     -12.955  14.706  67.025  1.00  0.00     0.000 HD 
HETATM   24  O   UNL     1     -12.499  14.134  66.420  1.00  0.00    -0.461 OA 
HETATM   25  C   UNL     1     -11.305  12.106  65.933  1.00  0.00    -0.407 A  
HETATM   26  C   UNL     1     -11.974  12.944  66.820  1.00  0.00    -0.350 A  
HETATM   27  C   UNL     1     -11.596  11.382  68.617  1.00  0.00    -0.384 A  
HETATM   28  C   UNL     1     -12.131  12.585  68.154  1.00  0.00    -0.124 A  
ENDBRANCH  20  21
ENDBRANCH  19  20
ENDBRANCH   2  19
TORSDOF 10
ENDMDL
MODEL      284
REMARK 921   NORMALIZED FREE ENERGY PREDICTED BY IDOCK:   -3.48 KCAL/MOL
REMARK 922        TOTAL FREE ENERGY PREDICTED BY IDOCK:   -6.65 KCAL/MOL
REMARK 923 INTER-LIGAND FREE ENERGY PREDICTED BY IDOCK:   -6.06 KCAL/MOL
REMARK 924 INTRA-LIGAND FREE ENERGY PREDICTED BY IDOCK:   -0.59 KCAL/MOL
REMARK 927      BINDING AFFINITY PREDICTED BY RF-SCORE:    0.00 PKD
ROOT
HETATM    1  O   UNL     1      -9.321  12.388  66.209  1.00  0.00    -0.246 OA 
HETATM    2  C   UNL     1     -10.424  12.643  67.089  1.00  0.00    -0.235 C  
HETATM    3  H   UNL     1      -8.538  12.251  66.730  1.00  0.00     0.000 HD 
ENDROOT
BRANCH   2   4
HETATM    4  C   UNL     1     -11.690  12.867  66.245  1.00  0.00    -0.399 C  
BRANCH   4   5
HETATM    5  N   UNL     1     -11.991  14.303  66.117  1.00  0.00    -0.406 NA 
HETATM    6  H   UNL     1     -12.988  14.474  65.986  1.00  0.00     0.000 HD 
BRANCH   5   7
HETATM    7  C   UNL     1     -11.453  15.033  67.270  1.00  0.00    -0.304 C  
BRANCH   7   8
HETATM    8  C   UNL     1     -10.642  16.254  66.821  1.00  0.00    -0.257 C  
BRANCH   8   9
HETATM    9  N   UNL     1     -10.754  17.321  67.795  1.00  0.00    -0.361 N  
HETATM   10  H   UNL     1     -11.320  17.163  68.629  1.00  0.00     0.000 HD 
BRANCH   9  11
HETATM   11  C   UNL     1     -10.135  18.529  67.645  1.00  0.00    -0.364 C  
HETATM   12  O   UNL     1     -10.755  19.586  67.746  1.00  0.00    -0.446 OA 
BRANCH  11  13
HETATM   13  N   UNL     1      -8.782  18.477  67.383  1.00  0.00    -0.260 N  
HETATM   14  C   UNL     1      -8.242  19.246  66.260  1.00  0.00    -0.318 C  
HETATM   15  C   UNL     1      -7.234  20.288  66.758  1.00  0.00    -0.267 C  
HETATM   16  O   UNL     1      -6.198  19.672  67.544  1.00  0.00    -0.193 OA 
HETATM   17  C   UNL     1      -6.758  18.994  68.677  1.00  0.00    -0.278 C  
HETATM   18  C   UNL     1      -7.736  17.898  68.234  1.00  0.00    -0.279 C  
ENDBRANCH  11  13
ENDBRANCH   9  11
ENDBRANCH   8   9
ENDBRANCH   7   8
ENDBRANCH   5   7
ENDBRANCH   4   5
ENDBRANCH   2   4
BRANCH   2  19
HETATM   19  C   UNL     1     -10.633  11.453  68.035  1.00  0.00    -0.191 C  
BRANCH  19  20
HETATM   20  O   UNL     1      -9.363  11.006  68.531  1.00  0.00    -0.174 OA 
BRANCH  20  21
HETATM   21  C   UNL     1      -9.330   9.693  68.917  1.00  0.00    -0.151 A  
HETATM   22  C   UNL     1      -8.244   8.950  68.450  1.00  0.00    -0.117 A  
HETATM   23  H   UNL     1      -9.631   5.291  70.531  1.00  0.00     0.000 HD 
HETATM   24  O   UNL     1      -8.981   5.696  69.968  1.00  0.00    -0.133 OA 
HETATM   25  C   UNL     1      -8.110   7.601  68.790  1.00  0.00    -0.127 A  
HETATM   26  C   UNL     1      -9.061   7.008  69.614  1.00  0.00    -0.144 A  
HETATM   27  C   UNL     1     -10.265   9.091  69.762  1.00  0.00    -0.214 A  
HETATM   28  C   UNL     1     -10.130   7.746  70.109  1.00  0.00    -0.197 A  
ENDBRANCH  20  21
ENDBRANCH  19  20
ENDBRANCH   2  19
TORSDOF 10
ENDMDL
MODEL      285
REMARK 921   NORMALIZED FREE ENERGY PREDICTED BY IDOCK:   -3.47 KCAL/MOL
REMARK 922        TOTAL FREE ENERGY PREDICTED BY IDOCK:   -6.63 KCAL/MOL
REMARK 923 INTER-LIGAND FREE ENERGY PREDICTED BY IDOCK:   -5.81 KCAL/MOL
REMARK 924 INTRA-LIGAND FREE ENERGY PREDICTED BY IDOCK:   -0.82 KCAL/MOL
REMARK 927      BINDING AFFINITY PREDICTED BY RF-SCORE:    0.00 PKD
ROOT
HETATM    1  O   UNL     1     -12.200  11.046  68.214  1.00  0.00    -0.769 OA 
HETATM    2  C   UNL     1     -10.953  11.326  68.865  1.00  0.00    -0.223 C  
HETATM    3  H   UNL     1     -12.600  11.867  67.952  1.00  0.00     0.000 HD 
ENDROOT
BRANCH   2   4
HETATM    4  C   UNL     1     -10.306   9.997  69.290  1.00  0.00    -0.219 C  
BRANCH   4   5
HETATM    5  N   UNL     1     -11.314   9.069  69.830  1.00  0.00    -0.436 NA 
HETATM    6  H   UNL     1     -11.611   8.382  69.137  1.00  0.00     0.000 HD 
BRANCH   5   7
HETATM    7  C   UNL     1     -10.808   8.434  71.052  1.00  0.00    -0.238 C  
BRANCH   7   8
HETATM    8  C   UNL     1     -11.225   6.961  71.123  1.00  0.00    -0.274 C  
BRANCH   8   9
HETATM    9  N   UNL     1     -10.055   6.105  71.131  1.00  0.00    -0.187 N  
HETATM   10  H   UNL     1      -9.715   5.754  72.026  1.00  0.00     0.000 HD 
BRANCH   9  11
HETATM   11  C   UNL     1      -9.391   5.749  69.993  1.00  0.00    -0.146 C  
HETATM   12  O   UNL     1      -9.926   5.058  69.127  1.00  0.00    -0.180 OA 
BRANCH  11  13
HETATM   13  N   UNL     1      -8.100   6.218  69.884  1.00  0.00    -0.118 N  
HETATM   14  C   UNL     1      -7.448   6.219  68.572  1.00  0.00    -0.088 C  
HETATM   15  C   UNL     1      -7.091   7.649  68.151  1.00  0.00    -0.081 C  
HETATM   16  O   UNL     1      -6.293   8.301  69.155  1.00  0.00    -0.038 OA 
HETATM   17  C   UNL     1      -6.994   8.350  70.406  1.00  0.00    -0.037 C  
HETATM   18  C   UNL     1      -7.329   6.938  70.904  1.00  0.00    -0.077 C  
ENDBRANCH  11  13
ENDBRANCH   9  11
ENDBRANCH   8   9
ENDBRANCH   7   8
ENDBRANCH   5   7
ENDBRANCH   4   5
ENDBRANCH   2   4
BRANCH   2  19
HETATM   19  C   UNL     1     -10.015  12.080  67.913  1.00  0.00    -0.197 C  
BRANCH  19  20
HETATM   20  O   UNL     1     -10.791  12.781  66.931  1.00  0.00    -0.247 OA 
BRANCH  20  21
HETATM   21  C   UNL     1     -10.600  14.136  66.913  1.00  0.00    -0.280 A  
HETATM   22  C   UNL     1     -11.254  14.855  67.916  1.00  0.00    -0.324 A  
HETATM   23  H   UNL     1      -9.614  18.708  66.465  1.00  0.00     0.000 HD 
HETATM   24  O   UNL     1     -10.162  18.257  67.096  1.00  0.00    -0.338 OA 
HETATM   25  C   UNL     1     -11.121  16.244  67.993  1.00  0.00    -0.299 A  
HETATM   26  C   UNL     1     -10.318  16.904  67.070  1.00  0.00    -0.307 A  
HETATM   27  C   UNL     1      -9.779  14.809  66.006  1.00  0.00    -0.350 A  
HETATM   28  C   UNL     1      -9.639  16.196  66.084  1.00  0.00    -0.359 A  
ENDBRANCH  20  21
ENDBRANCH  19  20
ENDBRANCH   2  19
TORSDOF 10
ENDMDL
MODEL      286
REMARK 921   NORMALIZED FREE ENERGY PREDICTED BY IDOCK:   -3.46 KCAL/MOL
REMARK 922        TOTAL FREE ENERGY PREDICTED BY IDOCK:   -6.62 KCAL/MOL
REMARK 923 INTER-LIGAND FREE ENERGY PREDICTED BY IDOCK:   -5.60 KCAL/MOL
REMARK 924 INTRA-LIGAND FREE ENERGY PREDICTED BY IDOCK:   -1.02 KCAL/MOL
REMARK 927      BINDING AFFINITY PREDICTED BY RF-SCORE:    0.00 PKD
ROOT
HETATM    1  O   UNL     1      -8.712   8.155  63.670  1.00  0.00    -0.389 OA 
HETATM    2  C   UNL     1      -8.820   8.368  65.084  1.00  0.00    -0.031 C  
HETATM    3  H   UNL     1      -9.585   8.064  63.306  1.00  0.00     0.000 HD 
ENDROOT
BRANCH   2   4
HETATM    4  C   UNL     1      -7.407   8.514  65.673  1.00  0.00    -0.084 C  
BRANCH   4   5
HETATM    5  N   UNL     1      -7.340   9.651  66.607  1.00  0.00    -0.090 NA 
HETATM    6  H   UNL     1      -8.142  10.274  66.508  1.00  0.00     0.000 HD 
BRANCH   5   7
HETATM    7  C   UNL     1      -7.190   9.162  67.982  1.00  0.00    -0.079 C  
BRANCH   7   8
HETATM    8  C   UNL     1      -8.430   9.485  68.823  1.00  0.00    -0.122 C  
BRANCH   8   9
HETATM    9  N   UNL     1      -8.304  10.797  69.425  1.00  0.00    -0.368 N  
HETATM   10  H   UNL     1      -7.949  10.864  70.379  1.00  0.00     0.000 HD 
BRANCH   9  11
HETATM   11  C   UNL     1      -8.641  11.947  68.770  1.00  0.00     0.050 C  
HETATM   12  O   UNL     1      -9.800  12.177  68.431  1.00  0.00    -0.209 OA 
BRANCH  11  13
HETATM   13  N   UNL     1      -7.603  12.821  68.528  1.00  0.00    -0.129 N  
HETATM   14  C   UNL     1      -7.587  13.581  67.276  1.00  0.00    -0.058 C  
HETATM   15  C   UNL     1      -7.652  15.086  67.560  1.00  0.00    -0.192 C  
HETATM   16  O   UNL     1      -6.600  15.490  68.455  1.00  0.00    -0.104 OA 
HETATM   17  C   UNL     1      -6.694  14.781  69.699  1.00  0.00    -0.166 C  
HETATM   18  C   UNL     1      -6.578  13.268  69.479  1.00  0.00    -0.040 C  
ENDBRANCH  11  13
ENDBRANCH   9  11
ENDBRANCH   8   9
ENDBRANCH   7   8
ENDBRANCH   5   7
ENDBRANCH   4   5
ENDBRANCH   2   4
BRANCH   2  19
HETATM   19  C   UNL     1      -9.636   9.636  65.368  1.00  0.00    -0.291 C  
BRANCH  19  20
HETATM   20  O   UNL     1      -9.178  10.700  64.521  1.00  0.00    -0.203 OA 
BRANCH  20  21
HETATM   21  C   UNL     1     -10.030  11.769  64.435  1.00  0.00    -0.251 A  
HETATM   22  C   UNL     1     -11.103  11.620  63.555  1.00  0.00    -0.476 A  
HETATM   23  H   UNL     1     -12.674  15.651  64.519  1.00  0.00     0.000 HD 
HETATM   24  O   UNL     1     -12.771  14.853  64.014  1.00  0.00    -0.792 OA 
HETATM   25  C   UNL     1     -12.036  12.648  63.397  1.00  0.00    -0.614 A  
HETATM   26  C   UNL     1     -11.895  13.818  64.137  1.00  0.00    -0.401 A  
HETATM   27  C   UNL     1      -9.912  12.938  65.189  1.00  0.00    -0.175 A  
HETATM   28  C   UNL     1     -10.846  13.965  65.038  1.00  0.00    -0.389 A  
ENDBRANCH  20  21
ENDBRANCH  19  20
ENDBRANCH   2  19
TORSDOF 10
ENDMDL
MODEL      287
REMARK 921   NORMALIZED FREE ENERGY PREDICTED BY IDOCK:   -3.46 KCAL/MOL
REMARK 922        TOTAL FREE ENERGY PREDICTED BY IDOCK:   -6.61 KCAL/MOL
REMARK 923 INTER-LIGAND FREE ENERGY PREDICTED BY IDOCK:   -5.48 KCAL/MOL
REMARK 924 INTRA-LIGAND FREE ENERGY PREDICTED BY IDOCK:   -1.13 KCAL/MOL
REMARK 927      BINDING AFFINITY PREDICTED BY RF-SCORE:    0.00 PKD
ROOT
HETATM    1  O   UNL     1     -10.026   4.059  71.921  1.00  0.00    -0.175 OA 
HETATM    2  C   UNL     1      -9.985   5.233  71.098  1.00  0.00    -0.201 C  
HETATM    3  H   UNL     1      -9.961   4.321  72.832  1.00  0.00     0.000 HD 
ENDROOT
BRANCH   2   4
HETATM    4  C   UNL     1     -10.089   4.808  69.623  1.00  0.00    -0.205 C  
BRANCH   4   5
HETATM    5  N   UNL     1      -9.394   5.767  68.749  1.00  0.00    -0.117 NA 
HETATM    6  H   UNL     1      -9.161   6.631  69.238  1.00  0.00     0.000 HD 
BRANCH   5   7
HETATM    7  C   UNL     1      -8.211   5.136  68.152  1.00  0.00    -0.097 C  
BRANCH   7   8
HETATM    8  C   UNL     1      -8.412   4.891  66.652  1.00  0.00    -0.106 C  
BRANCH   8   9
HETATM    9  N   UNL     1      -7.592   5.800  65.877  1.00  0.00    -0.085 N  
HETATM   10  H   UNL     1      -6.583   5.654  65.862  1.00  0.00     0.000 HD 
BRANCH   9  11
HETATM   11  C   UNL     1      -8.113   6.842  65.165  1.00  0.00    -0.132 C  
HETATM   12  O   UNL     1      -8.274   6.772  63.948  1.00  0.00    -0.051 OA 
BRANCH  11  13
HETATM   13  N   UNL     1      -8.448   7.959  65.901  1.00  0.00    -0.132 N  
HETATM   14  C   UNL     1      -7.404   8.929  66.240  1.00  0.00    -0.087 C  
HETATM   15  C   UNL     1      -7.721  10.296  65.623  1.00  0.00    -0.148 C  
HETATM   16  O   UNL     1      -9.031  10.748  66.010  1.00  0.00    -0.168 OA 
HETATM   17  C   UNL     1     -10.034   9.810  65.594  1.00  0.00    -0.282 C  
HETATM   18  C   UNL     1      -9.796   8.434  66.228  1.00  0.00    -0.187 C  
ENDBRANCH  11  13
ENDBRANCH   9  11
ENDBRANCH   8   9
ENDBRANCH   7   8
ENDBRANCH   5   7
ENDBRANCH   4   5
ENDBRANCH   2   4
BRANCH   2  19
HETATM   19  C   UNL     1     -11.149   6.169  71.452  1.00  0.00    -0.288 C  
BRANCH  19  20
HETATM   20  O   UNL     1     -11.235   7.216  70.475  1.00  0.00    -0.270 OA 
BRANCH  20  21
HETATM   21  C   UNL     1     -11.821   8.369  70.924  1.00  0.00    -0.217 A  
HETATM   22  C   UNL     1     -11.452   9.537  70.254  1.00  0.00    -0.256 A  
HETATM   23  H   UNL     1     -14.106  12.030  72.781  1.00  0.00     0.000 HD 
HETATM   24  O   UNL     1     -13.474  11.996  72.073  1.00  0.00    -0.447 OA 
HETATM   25  C   UNL     1     -11.995  10.769  70.627  1.00  0.00    -0.466 A  
HETATM   26  C   UNL     1     -12.921  10.820  71.664  1.00  0.00    -0.476 A  
HETATM   27  C   UNL     1     -12.768   8.431  71.949  1.00  0.00    -0.390 A  
HETATM   28  C   UNL     1     -13.317   9.660  72.320  1.00  0.00    -0.498 A  
ENDBRANCH  20  21
ENDBRANCH  19  20
ENDBRANCH   2  19
TORSDOF 10
ENDMDL
MODEL      288
REMARK 921   NORMALIZED FREE ENERGY PREDICTED BY IDOCK:   -3.45 KCAL/MOL
REMARK 922        TOTAL FREE ENERGY PREDICTED BY IDOCK:   -6.61 KCAL/MOL
REMARK 923 INTER-LIGAND FREE ENERGY PREDICTED BY IDOCK:   -5.95 KCAL/MOL
REMARK 924 INTRA-LIGAND FREE ENERGY PREDICTED BY IDOCK:   -0.66 KCAL/MOL
REMARK 927      BINDING AFFINITY PREDICTED BY RF-SCORE:    0.00 PKD
ROOT
HETATM    1  O   UNL     1     -10.329   9.877  66.079  1.00  0.00    -0.224 OA 
HETATM    2  C   UNL     1     -10.642  11.076  66.801  1.00  0.00    -0.266 C  
HETATM    3  H   UNL     1      -9.847   9.292  66.652  1.00  0.00     0.000 HD 
ENDROOT
BRANCH   2   4
HETATM    4  C   UNL     1     -11.422  12.023  65.873  1.00  0.00    -0.333 C  
BRANCH   4   5
HETATM    5  N   UNL     1     -11.036  13.425  66.105  1.00  0.00    -0.276 NA 
HETATM    6  H   UNL     1     -11.323  13.753  67.028  1.00  0.00     0.000 HD 
BRANCH   5   7
HETATM    7  C   UNL     1      -9.594  13.592  65.886  1.00  0.00    -0.111 C  
BRANCH   7   8
HETATM    8  C   UNL     1      -8.896  14.088  67.157  1.00  0.00    -0.228 C  
BRANCH   8   9
HETATM    9  N   UNL     1      -9.633  15.191  67.740  1.00  0.00    -0.202 N  
HETATM   10  H   UNL     1     -10.413  15.588  67.216  1.00  0.00     0.000 HD 
BRANCH   9  11
HETATM   11  C   UNL     1      -9.327  15.721  68.961  1.00  0.00    -0.244 C  
HETATM   12  O   UNL     1      -9.993  15.457  69.960  1.00  0.00    -0.271 OA 
BRANCH  11  13
HETATM   13  N   UNL     1      -8.230  16.556  68.991  1.00  0.00    -0.232 N  
HETATM   14  C   UNL     1      -6.914  15.995  69.304  1.00  0.00    -0.205 C  
HETATM   15  C   UNL     1      -5.954  16.189  68.125  1.00  0.00    -0.109 C  
HETATM   16  O   UNL     1      -5.878  17.573  67.741  1.00  0.00    -0.138 OA 
HETATM   17  C   UNL     1      -7.173  18.067  67.367  1.00  0.00    -0.193 C  
HETATM   18  C   UNL     1      -8.163  17.948  68.533  1.00  0.00    -0.295 C  
ENDBRANCH  11  13
ENDBRANCH   9  11
ENDBRANCH   8   9
ENDBRANCH   7   8
ENDBRANCH   5   7
ENDBRANCH   4   5
ENDBRANCH   2   4
BRANCH   2  19
HETATM   19  C   UNL     1     -11.489  10.746  68.037  1.00  0.00    -0.256 C  
BRANCH  19  20
HETATM   20  O   UNL     1     -10.631  10.580  69.175  1.00  0.00    -0.201 OA 
BRANCH  20  21
HETATM   21  C   UNL     1     -11.013   9.590  70.039  1.00  0.00    -0.251 A  
HETATM   22  C   UNL     1     -10.628   8.295  69.688  1.00  0.00    -0.222 A  
HETATM   23  H   UNL     1     -12.505   6.567  73.311  1.00  0.00     0.000 HD 
HETATM   24  O   UNL     1     -12.023   6.414  72.507  1.00  0.00    -0.207 OA 
HETATM   25  C   UNL     1     -10.961   7.211  70.504  1.00  0.00    -0.287 A  
HETATM   26  C   UNL     1     -11.667   7.436  71.681  1.00  0.00    -0.279 A  
HETATM   27  C   UNL     1     -11.702   9.804  71.235  1.00  0.00    -0.472 A  
HETATM   28  C   UNL     1     -12.030   8.724  72.056  1.00  0.00    -0.446 A  
ENDBRANCH  20  21
ENDBRANCH  19  20
ENDBRANCH   2  19
TORSDOF 10
ENDMDL
MODEL      289
REMARK 921   NORMALIZED FREE ENERGY PREDICTED BY IDOCK:   -3.44 KCAL/MOL
REMARK 922        TOTAL FREE ENERGY PREDICTED BY IDOCK:   -6.59 KCAL/MOL
REMARK 923 INTER-LIGAND FREE ENERGY PREDICTED BY IDOCK:   -5.71 KCAL/MOL
REMARK 924 INTRA-LIGAND FREE ENERGY PREDICTED BY IDOCK:   -0.88 KCAL/MOL
REMARK 927      BINDING AFFINITY PREDICTED BY RF-SCORE:    0.00 PKD
ROOT
HETATM    1  O   UNL     1      -8.809  15.197  66.620  1.00  0.00    -0.258 OA 
HETATM    2  C   UNL     1      -8.201  13.923  66.878  1.00  0.00     0.066 C  
HETATM    3  H   UNL     1      -9.368  15.120  65.856  1.00  0.00     0.000 HD 
ENDROOT
BRANCH   2   4
HETATM    4  C   UNL     1      -7.295  14.048  68.115  1.00  0.00    -0.128 C  
BRANCH   4   5
HETATM    5  N   UNL     1      -8.096  14.224  69.339  1.00  0.00    -0.349 NA 
HETATM    6  H   UNL     1      -7.675  13.754  70.141  1.00  0.00     0.000 HD 
BRANCH   5   7
HETATM    7  C   UNL     1      -8.320  15.652  69.592  1.00  0.00    -0.070 C  
BRANCH   7   8
HETATM    8  C   UNL     1      -7.028  16.455  69.406  1.00  0.00    -0.210 C  
BRANCH   8   9
HETATM    9  N   UNL     1      -7.192  17.439  68.354  1.00  0.00    -0.214 N  
HETATM   10  H   UNL     1      -7.272  17.114  67.391  1.00  0.00     0.000 HD 
BRANCH   9  11
HETATM   11  C   UNL     1      -7.245  18.781  68.599  1.00  0.00    -0.303 C  
HETATM   12  O   UNL     1      -6.283  19.386  69.070  1.00  0.00    -0.244 OA 
BRANCH  11  13
HETATM   13  N   UNL     1      -8.434  19.400  68.277  1.00  0.00    -0.331 N  
HETATM   14  C   UNL     1      -8.441  20.443  67.249  1.00  0.00    -0.331 C  
HETATM   15  C   UNL     1      -9.329  20.029  66.070  1.00  0.00    -0.265 C  
HETATM   16  O   UNL     1     -10.656  19.694  66.514  1.00  0.00    -0.451 OA 
HETATM   17  C   UNL     1     -10.615  18.617  67.462  1.00  0.00    -0.423 C  
HETATM   18  C   UNL     1      -9.783  18.999  68.692  1.00  0.00    -0.410 C  
ENDBRANCH  11  13
ENDBRANCH   9  11
ENDBRANCH   8   9
ENDBRANCH   7   8
ENDBRANCH   5   7
ENDBRANCH   4   5
ENDBRANCH   2   4
BRANCH   2  19
HETATM   19  C   UNL     1      -9.280  12.862  67.130  1.00  0.00    -0.225 C  
BRANCH  19  20
HETATM   20  O   UNL     1      -8.712  11.764  67.857  1.00  0.00    -0.150 OA 
BRANCH  20  21
HETATM   21  C   UNL     1      -9.233  10.538  67.541  1.00  0.00    -0.142 A  
HETATM   22  C   UNL     1     -10.321  10.124  68.312  1.00  0.00    -0.215 A  
HETATM   23  H   UNL     1     -10.690   6.324  66.062  1.00  0.00     0.000 HD 
HETATM   24  O   UNL     1     -11.013   6.873  66.765  1.00  0.00    -0.329 OA 
HETATM   25  C   UNL     1     -10.933   8.891  68.068  1.00  0.00     0.040 A  
HETATM   26  C   UNL     1     -10.459   8.086  67.038  1.00  0.00    -0.340 A  
HETATM   27  C   UNL     1      -8.781   9.730  66.495  1.00  0.00    -0.139 A  
HETATM   28  C   UNL     1      -9.395   8.501  66.245  1.00  0.00    -0.287 A  
ENDBRANCH  20  21
ENDBRANCH  19  20
ENDBRANCH   2  19
TORSDOF 10
ENDMDL
MODEL      290
REMARK 921   NORMALIZED FREE ENERGY PREDICTED BY IDOCK:   -3.37 KCAL/MOL
REMARK 922        TOTAL FREE ENERGY PREDICTED BY IDOCK:   -6.47 KCAL/MOL
REMARK 923 INTER-LIGAND FREE ENERGY PREDICTED BY IDOCK:   -5.83 KCAL/MOL
REMARK 924 INTRA-LIGAND FREE ENERGY PREDICTED BY IDOCK:   -0.64 KCAL/MOL
REMARK 927      BINDING AFFINITY PREDICTED BY RF-SCORE:    0.00 PKD
ROOT
HETATM    1  O   UNL     1      -7.034  15.275  67.209  1.00  0.00    -0.193 OA 
HETATM    2  C   UNL     1      -8.307  14.614  67.197  1.00  0.00    -0.211 C  
HETATM    3  H   UNL     1      -6.641  15.198  66.348  1.00  0.00     0.000 HD 
ENDROOT
BRANCH   2   4
HETATM    4  C   UNL     1      -8.942  14.737  68.593  1.00  0.00    -0.185 C  
BRANCH   4   5
HETATM    5  N   UNL     1      -9.800  13.576  68.885  1.00  0.00    -0.426 NA 
HETATM    6  H   UNL     1      -9.395  12.972  69.601  1.00  0.00     0.000 HD 
BRANCH   5   7
HETATM    7  C   UNL     1     -11.150  14.026  69.244  1.00  0.00    -0.232 C  
BRANCH   7   8
HETATM    8  C   UNL     1     -12.145  13.741  68.114  1.00  0.00    -0.281 C  
BRANCH   8   9
HETATM    9  N   UNL     1     -11.887  12.440  67.529  1.00  0.00    -0.339 N  
HETATM   10  H   UNL     1     -11.699  12.384  66.528  1.00  0.00     0.000 HD 
BRANCH   9  11
HETATM   11  C   UNL     1     -11.885  11.287  68.261  1.00  0.00    -0.229 C  
HETATM   12  O   UNL     1     -12.762  11.051  69.090  1.00  0.00    -0.277 OA 
BRANCH  11  13
HETATM   13  N   UNL     1     -10.847  10.417  68.000  1.00  0.00    -0.249 N  
HETATM   14  C   UNL     1     -10.153  10.499  66.713  1.00  0.00    -0.219 C  
HETATM   15  C   UNL     1      -8.674  10.845  66.923  1.00  0.00    -0.144 C  
HETATM   16  O   UNL     1      -8.047   9.913  67.822  1.00  0.00    -0.108 OA 
HETATM   17  C   UNL     1      -8.706   9.917  69.096  1.00  0.00    -0.159 C  
HETATM   18  C   UNL     1     -10.181   9.522  68.953  1.00  0.00    -0.199 C  
ENDBRANCH  11  13
ENDBRANCH   9  11
ENDBRANCH   8   9
ENDBRANCH   7   8
ENDBRANCH   5   7
ENDBRANCH   4   5
ENDBRANCH   2   4
BRANCH   2  19
HETATM   19  C   UNL     1      -9.227  15.254  66.149  1.00  0.00    -0.310 C  
BRANCH  19  20
HETATM   20  O   UNL     1     -10.154  16.135  66.799  1.00  0.00    -0.255 OA 
BRANCH  20  21
HETATM   21  C   UNL     1      -9.695  17.412  66.983  1.00  0.00    -0.276 A  
HETATM   22  C   UNL     1     -10.144  18.057  68.137  1.00  0.00    -0.378 A  
HETATM   23  H   UNL     1      -7.831  21.718  67.198  1.00  0.00     0.000 HD 
HETATM   24  O   UNL     1      -8.430  21.278  67.789  1.00  0.00     0.124 OA 
HETATM   25  C   UNL     1      -9.732  19.361  68.425  1.00  0.00    -0.488 A  
HETATM   26  C   UNL     1      -8.855  20.006  67.559  1.00  0.00    -0.345 A  
HETATM   27  C   UNL     1      -8.797  18.062  66.134  1.00  0.00    -0.111 A  
HETATM   28  C   UNL     1      -8.378  19.362  66.423  1.00  0.00    -0.342 A  
ENDBRANCH  20  21
ENDBRANCH  19  20
ENDBRANCH   2  19
TORSDOF 10
ENDMDL
MODEL      291
REMARK 921   NORMALIZED FREE ENERGY PREDICTED BY IDOCK:   -3.35 KCAL/MOL
REMARK 922        TOTAL FREE ENERGY PREDICTED BY IDOCK:   -6.45 KCAL/MOL
REMARK 923 INTER-LIGAND FREE ENERGY PREDICTED BY IDOCK:   -5.42 KCAL/MOL
REMARK 924 INTRA-LIGAND FREE ENERGY PREDICTED BY IDOCK:   -1.04 KCAL/MOL
REMARK 927      BINDING AFFINITY PREDICTED BY RF-SCORE:    0.00 PKD
ROOT
HETATM    1  O   UNL     1      -9.563   8.868  65.102  1.00  0.00    -0.435 OA 
HETATM    2  C   UNL     1      -8.501   8.093  65.675  1.00  0.00    -0.156 C  
HETATM    3  H   UNL     1     -10.234   8.277  64.780  1.00  0.00     0.000 HD 
ENDROOT
BRANCH   2   4
HETATM    4  C   UNL     1      -7.414   9.049  66.195  1.00  0.00    -0.091 C  
BRANCH   4   5
HETATM    5  N   UNL     1      -7.921  10.429  66.274  1.00  0.00    -0.132 NA 
HETATM    6  H   UNL     1      -8.770  10.557  65.723  1.00  0.00     0.000 HD 
BRANCH   5   7
HETATM    7  C   UNL     1      -8.114  10.814  67.677  1.00  0.00    -0.114 C  
BRANCH   7   8
HETATM    8  C   UNL     1      -9.581  11.153  67.961  1.00  0.00    -0.176 C  
BRANCH   8   9
HETATM    9  N   UNL     1     -10.017  10.524  69.192  1.00  0.00    -0.214 N  
HETATM   10  H   UNL     1      -9.365   9.913  69.684  1.00  0.00     0.000 HD 
BRANCH   9  11
HETATM   11  C   UNL     1     -11.261  10.714  69.720  1.00  0.00    -0.297 C  
HETATM   12  O   UNL     1     -12.126  11.346  69.115  1.00  0.00    -0.324 OA 
BRANCH  11  13
HETATM   13  N   UNL     1     -11.477  10.148  70.959  1.00  0.00    -0.367 N  
HETATM   14  C   UNL     1     -12.722  10.444  71.672  1.00  0.00    -0.455 C  
HETATM   15  C   UNL     1     -13.529   9.160  71.897  1.00  0.00    -0.430 C  
HETATM   16  O   UNL     1     -12.739   8.163  72.570  1.00  0.00    -0.241 OA 
HETATM   17  C   UNL     1     -11.568   7.844  71.805  1.00  0.00    -0.278 C  
HETATM   18  C   UNL     1     -10.692   9.085  71.596  1.00  0.00    -0.371 C  
ENDBRANCH  11  13
ENDBRANCH   9  11
ENDBRANCH   8   9
ENDBRANCH   7   8
ENDBRANCH   5   7
ENDBRANCH   4   5
ENDBRANCH   2   4
BRANCH   2  19
HETATM   19  C   UNL     1      -9.035   7.236  66.831  1.00  0.00    -0.135 C  
BRANCH  19  20
HETATM   20  O   UNL     1      -8.001   7.052  67.808  1.00  0.00    -0.111 OA 
BRANCH  20  21
HETATM   21  C   UNL     1      -8.421   6.502  68.989  1.00  0.00    -0.125 A  
HETATM   22  C   UNL     1      -9.276   5.403  68.877  1.00  0.00    -0.147 A  
HETATM   23  H   UNL     1      -9.550   4.947  73.276  1.00  0.00     0.000 HD 
HETATM   24  O   UNL     1      -9.817   4.635  72.420  1.00  0.00    -0.151 OA 
HETATM   25  C   UNL     1      -9.759   4.762  70.020  1.00  0.00    -0.280 A  
HETATM   26  C   UNL     1      -9.368   5.219  71.275  1.00  0.00    -0.148 A  
HETATM   27  C   UNL     1      -8.019   6.936  70.254  1.00  0.00    -0.115 A  
HETATM   28  C   UNL     1      -8.495   6.294  71.398  1.00  0.00    -0.127 A  
ENDBRANCH  20  21
ENDBRANCH  19  20
ENDBRANCH   2  19
TORSDOF 10
ENDMDL
MODEL      292
REMARK 921   NORMALIZED FREE ENERGY PREDICTED BY IDOCK:   -3.35 KCAL/MOL
REMARK 922        TOTAL FREE ENERGY PREDICTED BY IDOCK:   -6.44 KCAL/MOL
REMARK 923 INTER-LIGAND FREE ENERGY PREDICTED BY IDOCK:   -5.30 KCAL/MOL
REMARK 924 INTRA-LIGAND FREE ENERGY PREDICTED BY IDOCK:   -1.14 KCAL/MOL
REMARK 927      BINDING AFFINITY PREDICTED BY RF-SCORE:    0.00 PKD
ROOT
HETATM    1  O   UNL     1      -8.660  10.827  69.756  1.00  0.00    -0.364 OA 
HETATM    2  C   UNL     1      -7.660   9.812  69.922  1.00  0.00    -0.152 C  
HETATM    3  H   UNL     1      -8.459  11.330  68.975  1.00  0.00     0.000 HD 
ENDROOT
BRANCH   2   4
HETATM    4  C   UNL     1      -7.985   8.999  71.187  1.00  0.00    -0.127 C  
BRANCH   4   5
HETATM    5  N   UNL     1      -7.894   7.554  70.922  1.00  0.00    -0.093 NA 
HETATM    6  H   UNL     1      -6.937   7.261  70.724  1.00  0.00     0.000 HD 
BRANCH   5   7
HETATM    7  C   UNL     1      -8.481   6.801  72.036  1.00  0.00    -0.112 C  
BRANCH   7   8
HETATM    8  C   UNL     1      -9.214   7.733  73.007  1.00  0.00    -0.226 C  
BRANCH   8   9
HETATM    9  N   UNL     1     -10.595   7.321  73.157  1.00  0.00    -0.319 N  
HETATM   10  H   UNL     1     -11.027   7.391  74.079  1.00  0.00     0.000 HD 
BRANCH   9  11
HETATM   11  C   UNL     1     -11.342   6.844  72.119  1.00  0.00    -0.265 C  
HETATM   12  O   UNL     1     -11.416   5.640  71.880  1.00  0.00    -0.212 OA 
BRANCH  11  13
HETATM   13  N   UNL     1     -12.003   7.797  71.372  1.00  0.00    -0.299 N  
HETATM   14  C   UNL     1     -13.466   7.771  71.315  1.00  0.00    -0.183 C  
HETATM   15  C   UNL     1     -14.049   9.063  71.900  1.00  0.00    -0.341 C  
HETATM   16  O   UNL     1     -13.500  10.221  71.247  1.00  0.00    -0.319 OA 
HETATM   17  C   UNL     1     -12.072  10.253  71.390  1.00  0.00    -0.362 C  
HETATM   18  C   UNL     1     -11.430   9.006  70.770  1.00  0.00    -0.282 C  
ENDBRANCH  11  13
ENDBRANCH   9  11
ENDBRANCH   8   9
ENDBRANCH   7   8
ENDBRANCH   5   7
ENDBRANCH   4   5
ENDBRANCH   2   4
BRANCH   2  19
HETATM   19  C   UNL     1      -7.639   8.885  68.700  1.00  0.00    -0.096 C  
BRANCH  19  20
HETATM   20  O   UNL     1      -8.895   8.969  68.012  1.00  0.00    -0.129 OA 
BRANCH  20  21
HETATM   21  C   UNL     1      -9.340   7.785  67.488  1.00  0.00    -0.139 A  
HETATM   22  C   UNL     1      -8.361   6.817  67.257  1.00  0.00    -0.121 A  
HETATM   23  H   UNL     1     -11.345   3.911  65.743  1.00  0.00     0.000 HD 
HETATM   24  O   UNL     1     -10.433   4.099  65.932  1.00  0.00    -0.131 OA 
HETATM   25  C   UNL     1      -8.708   5.570  66.731  1.00  0.00    -0.114 A  
HETATM   26  C   UNL     1     -10.043   5.295  66.454  1.00  0.00    -0.226 A  
HETATM   27  C   UNL     1     -10.679   7.487  67.227  1.00  0.00    -0.365 A  
HETATM   28  C   UNL     1     -11.030   6.240  66.707  1.00  0.00    -0.328 A  
ENDBRANCH  20  21
ENDBRANCH  19  20
ENDBRANCH   2  19
TORSDOF 10
ENDMDL
MODEL      293
REMARK 921   NORMALIZED FREE ENERGY PREDICTED BY IDOCK:   -3.35 KCAL/MOL
REMARK 922        TOTAL FREE ENERGY PREDICTED BY IDOCK:   -6.44 KCAL/MOL
REMARK 923 INTER-LIGAND FREE ENERGY PREDICTED BY IDOCK:   -5.42 KCAL/MOL
REMARK 924 INTRA-LIGAND FREE ENERGY PREDICTED BY IDOCK:   -1.02 KCAL/MOL
REMARK 927      BINDING AFFINITY PREDICTED BY RF-SCORE:    0.00 PKD
ROOT
HETATM    1  O   UNL     1      -8.602  11.709  65.933  1.00  0.00    -0.372 OA 
HETATM    2  C   UNL     1      -9.432  11.223  66.997  1.00  0.00    -0.171 C  
HETATM    3  H   UNL     1      -9.102  11.700  65.125  1.00  0.00     0.000 HD 
ENDROOT
BRANCH   2   4
HETATM    4  C   UNL     1      -8.622  11.237  68.304  1.00  0.00    -0.153 C  
BRANCH   4   5
HETATM    5  N   UNL     1      -9.352  10.553  69.384  1.00  0.00    -0.363 NA 
HETATM    6  H   UNL     1     -10.234  10.157  69.058  1.00  0.00     0.000 HD 
BRANCH   5   7
HETATM    7  C   UNL     1      -8.493   9.540  70.008  1.00  0.00    -0.195 C  
BRANCH   7   8
HETATM    8  C   UNL     1      -9.220   8.197  70.131  1.00  0.00    -0.155 C  
BRANCH   8   9
HETATM    9  N   UNL     1     -10.266   8.096  69.134  1.00  0.00    -0.210 N  
HETATM   10  H   UNL     1     -11.192   8.460  69.359  1.00  0.00     0.000 HD 
BRANCH   9  11
HETATM   11  C   UNL     1     -10.065   7.535  67.905  1.00  0.00    -0.182 C  
HETATM   12  O   UNL     1     -10.586   8.000  66.893  1.00  0.00    -0.338 OA 
BRANCH  11  13
HETATM   13  N   UNL     1      -9.242   6.429  67.882  1.00  0.00    -0.115 N  
HETATM   14  C   UNL     1      -9.803   5.114  68.204  1.00  0.00    -0.151 C  
HETATM   15  C   UNL     1      -9.675   4.168  67.004  1.00  0.00    -0.197 C  
HETATM   16  O   UNL     1      -8.312   4.083  66.555  1.00  0.00    -0.104 OA 
HETATM   17  C   UNL     1      -7.822   5.377  66.175  1.00  0.00    -0.103 C  
HETATM   18  C   UNL     1      -7.874   6.353  67.358  1.00  0.00    -0.105 C  
ENDBRANCH  11  13
ENDBRANCH   9  11
ENDBRANCH   8   9
ENDBRANCH   7   8
ENDBRANCH   5   7
ENDBRANCH   4   5
ENDBRANCH   2   4
BRANCH   2  19
HETATM   19  C   UNL     1     -10.676  12.109  67.146  1.00  0.00    -0.232 C  
BRANCH  19  20
HETATM   20  O   UNL     1     -10.596  12.843  68.376  1.00  0.00    -0.241 OA 
BRANCH  20  21
HETATM   21  C   UNL     1     -10.582  14.204  68.229  1.00  0.00    -0.251 A  
HETATM   22  C   UNL     1     -11.433  14.915  69.079  1.00  0.00    -0.322 A  
HETATM   23  H   UNL     1     -10.155  18.806  67.387  1.00  0.00     0.000 HD 
HETATM   24  O   UNL     1     -10.708  18.344  68.005  1.00  0.00    -0.357 OA 
HETATM   25  C   UNL     1     -11.492  16.310  69.017  1.00  0.00    -0.268 A  
HETATM   26  C   UNL     1     -10.682  16.987  68.111  1.00  0.00    -0.374 A  
HETATM   27  C   UNL     1      -9.759  14.898  67.340  1.00  0.00    -0.217 A  
HETATM   28  C   UNL     1      -9.810  16.292  67.281  1.00  0.00    -0.243 A  
ENDBRANCH  20  21
ENDBRANCH  19  20
ENDBRANCH   2  19
TORSDOF 10
ENDMDL
MODEL      294
REMARK 921   NORMALIZED FREE ENERGY PREDICTED BY IDOCK:   -3.35 KCAL/MOL
REMARK 922        TOTAL FREE ENERGY PREDICTED BY IDOCK:   -6.44 KCAL/MOL
REMARK 923 INTER-LIGAND FREE ENERGY PREDICTED BY IDOCK:   -5.61 KCAL/MOL
REMARK 924 INTRA-LIGAND FREE ENERGY PREDICTED BY IDOCK:   -0.83 KCAL/MOL
REMARK 927      BINDING AFFINITY PREDICTED BY RF-SCORE:    0.00 PKD
ROOT
HETATM    1  O   UNL     1     -11.208   7.527  67.407  1.00  0.00    -0.522 OA 
HETATM    2  C   UNL     1     -10.096   8.433  67.432  1.00  0.00    -0.236 C  
HETATM    3  H   UNL     1     -11.921   7.903  67.909  1.00  0.00     0.000 HD 
ENDROOT
BRANCH   2   4
HETATM    4  C   UNL     1      -8.941   7.823  66.621  1.00  0.00    -0.149 C  
BRANCH   4   5
HETATM    5  N   UNL     1      -9.202   6.406  66.315  1.00  0.00    -0.200 NA 
HETATM    6  H   UNL     1      -9.321   6.246  65.315  1.00  0.00     0.000 HD 
BRANCH   5   7
HETATM    7  C   UNL     1      -8.142   5.566  66.885  1.00  0.00    -0.101 C  
BRANCH   7   8
HETATM    8  C   UNL     1      -8.103   5.685  68.412  1.00  0.00    -0.103 C  
BRANCH   8   9
HETATM    9  N   UNL     1      -9.402   5.380  68.977  1.00  0.00    -0.122 N  
HETATM   10  H   UNL     1     -10.151   5.093  68.347  1.00  0.00     0.000 HD 
BRANCH   9  11
HETATM   11  C   UNL     1      -9.665   5.459  70.314  1.00  0.00    -0.192 C  
HETATM   12  O   UNL     1     -10.534   4.766  70.840  1.00  0.00    -0.163 OA 
BRANCH  11  13
HETATM   13  N   UNL     1      -8.892   6.355  71.022  1.00  0.00    -0.139 N  
HETATM   14  C   UNL     1      -9.344   7.742  71.151  1.00  0.00    -0.150 C  
HETATM   15  C   UNL     1      -9.578   8.096  72.625  1.00  0.00    -0.282 C  
HETATM   16  O   UNL     1      -8.404   7.830  73.413  1.00  0.00    -0.142 OA 
HETATM   17  C   UNL     1      -8.036   6.446  73.323  1.00  0.00    -0.110 C  
HETATM   18  C   UNL     1      -7.736   6.050  71.872  1.00  0.00    -0.098 C  
ENDBRANCH  11  13
ENDBRANCH   9  11
ENDBRANCH   8   9
ENDBRANCH   7   8
ENDBRANCH   5   7
ENDBRANCH   4   5
ENDBRANCH   2   4
BRANCH   2  19
HETATM   19  C   UNL     1     -10.500   9.784  66.826  1.00  0.00    -0.189 C  
BRANCH  19  20
HETATM   20  O   UNL     1     -11.563  10.357  67.600  1.00  0.00    -0.383 OA 
BRANCH  20  21
HETATM   21  C   UNL     1     -11.580  11.726  67.622  1.00  0.00    -0.294 A  
HETATM   22  C   UNL     1     -11.876  12.309  68.856  1.00  0.00    -0.355 A  
HETATM   23  H   UNL     1     -11.475  16.405  67.212  1.00  0.00     0.000 HD 
HETATM   24  O   UNL     1     -11.665  15.858  67.966  1.00  0.00    -0.245 OA 
HETATM   25  C   UNL     1     -11.912  13.699  68.992  1.00  0.00    -0.392 A  
HETATM   26  C   UNL     1     -11.634  14.499  67.889  1.00  0.00    -0.344 A  
HETATM   27  C   UNL     1     -11.281  12.541  66.528  1.00  0.00    -0.356 A  
HETATM   28  C   UNL     1     -11.310  13.930  66.663  1.00  0.00    -0.342 A  
ENDBRANCH  20  21
ENDBRANCH  19  20
ENDBRANCH   2  19
TORSDOF 10
ENDMDL
MODEL      295
REMARK 921   NORMALIZED FREE ENERGY PREDICTED BY IDOCK:   -3.33 KCAL/MOL
REMARK 922        TOTAL FREE ENERGY PREDICTED BY IDOCK:   -6.41 KCAL/MOL
REMARK 923 INTER-LIGAND FREE ENERGY PREDICTED BY IDOCK:   -5.23 KCAL/MOL
REMARK 924 INTRA-LIGAND FREE ENERGY PREDICTED BY IDOCK:   -1.19 KCAL/MOL
REMARK 927      BINDING AFFINITY PREDICTED BY RF-SCORE:    0.00 PKD
ROOT
HETATM    1  O   UNL     1     -11.202   9.083  68.360  1.00  0.00    -0.450 OA 
HETATM    2  C   UNL     1     -10.638  10.176  69.096  1.00  0.00    -0.224 C  
HETATM    3  H   UNL     1     -10.533   8.718  67.792  1.00  0.00     0.000 HD 
ENDROOT
BRANCH   2   4
HETATM    4  C   UNL     1     -11.722  10.766  70.015  1.00  0.00    -0.336 C  
BRANCH   4   5
HETATM    5  N   UNL     1     -11.893  12.208  69.769  1.00  0.00    -0.333 NA 
HETATM    6  H   UNL     1     -11.104  12.752  70.120  1.00  0.00     0.000 HD 
BRANCH   5   7
HETATM    7  C   UNL     1     -12.136  12.449  68.342  1.00  0.00    -0.060 C  
BRANCH   7   8
HETATM    8  C   UNL     1     -12.118  13.948  68.024  1.00  0.00    -0.283 C  
BRANCH   8   9
HETATM    9  N   UNL     1     -10.991  14.270  67.172  1.00  0.00    -0.296 N  
HETATM   10  H   UNL     1     -10.070  14.370  67.599  1.00  0.00     0.000 HD 
BRANCH   9  11
HETATM   11  C   UNL     1     -11.110  14.445  65.823  1.00  0.00    -0.316 C  
HETATM   12  O   UNL     1     -11.655  15.441  65.350  1.00  0.00    -0.186 OA 
BRANCH  11  13
HETATM   13  N   UNL     1     -10.575  13.443  65.042  1.00  0.00    -0.337 N  
HETATM   14  C   UNL     1      -9.630  12.497  65.641  1.00  0.00    -0.088 C  
HETATM   15  C   UNL     1     -10.188  11.070  65.581  1.00  0.00    -0.260 C  
HETATM   16  O   UNL     1     -10.539  10.708  64.234  1.00  0.00    -0.298 OA 
HETATM   17  C   UNL     1     -11.523  11.611  63.707  1.00  0.00    -0.364 C  
HETATM   18  C   UNL     1     -10.995  13.051  63.692  1.00  0.00    -0.185 C  
ENDBRANCH  11  13
ENDBRANCH   9  11
ENDBRANCH   8   9
ENDBRANCH   7   8
ENDBRANCH   5   7
ENDBRANCH   4   5
ENDBRANCH   2   4
BRANCH   2  19
HETATM   19  C   UNL     1      -9.450   9.692  69.938  1.00  0.00    -0.231 C  
BRANCH  19  20
HETATM   20  O   UNL     1      -8.421   9.194  69.073  1.00  0.00    -0.127 OA 
BRANCH  20  21
HETATM   21  C   UNL     1      -7.616  10.158  68.527  1.00  0.00    -0.088 A  
HETATM   22  C   UNL     1      -7.334  11.250  69.350  1.00  0.00    -0.027 A  
HETATM   23  H   UNL     1      -4.806  13.156  66.249  1.00  0.00     0.000 HD 
HETATM   24  O   UNL     1      -5.178  13.205  67.122  1.00  0.00    -0.335 OA 
HETATM   25  C   UNL     1      -6.518  12.288  68.895  1.00  0.00    -0.089 A  
HETATM   26  C   UNL     1      -5.973  12.216  67.617  1.00  0.00    -0.106 A  
HETATM   27  C   UNL     1      -7.045  10.088  67.255  1.00  0.00    -0.085 A  
HETATM   28  C   UNL     1      -6.223  11.120  66.799  1.00  0.00    -0.122 A  
ENDBRANCH  20  21
ENDBRANCH  19  20
ENDBRANCH   2  19
TORSDOF 10
ENDMDL
MODEL      296
REMARK 921   NORMALIZED FREE ENERGY PREDICTED BY IDOCK:   -3.32 KCAL/MOL
REMARK 922        TOTAL FREE ENERGY PREDICTED BY IDOCK:   -6.40 KCAL/MOL
REMARK 923 INTER-LIGAND FREE ENERGY PREDICTED BY IDOCK:   -5.68 KCAL/MOL
REMARK 924 INTRA-LIGAND FREE ENERGY PREDICTED BY IDOCK:   -0.72 KCAL/MOL
REMARK 927      BINDING AFFINITY PREDICTED BY RF-SCORE:    0.00 PKD
ROOT
HETATM    1  O   UNL     1      -9.039   9.223  71.595  1.00  0.00    -0.315 OA 
HETATM    2  C   UNL     1      -9.348   9.668  70.267  1.00  0.00    -0.242 C  
HETATM    3  H   UNL     1      -9.644   9.631  72.203  1.00  0.00     0.000 HD 
ENDROOT
BRANCH   2   4
HETATM    4  C   UNL     1      -8.366   9.009  69.283  1.00  0.00    -0.122 C  
BRANCH   4   5
HETATM    5  N   UNL     1      -8.878   7.708  68.820  1.00  0.00    -0.131 NA 
HETATM    6  H   UNL     1      -8.786   7.598  67.810  1.00  0.00     0.000 HD 
BRANCH   5   7
HETATM    7  C   UNL     1      -8.221   6.621  69.555  1.00  0.00    -0.130 C  
BRANCH   7   8
HETATM    8  C   UNL     1      -6.908   6.211  68.878  1.00  0.00    -0.066 C  
BRANCH   8   9
HETATM    9  N   UNL     1      -7.080   6.144  67.441  1.00  0.00    -0.069 N  
HETATM   10  H   UNL     1      -6.981   7.002  66.898  1.00  0.00     0.000 HD 
BRANCH   9  11
HETATM   11  C   UNL     1      -7.368   4.983  66.784  1.00  0.00    -0.086 C  
HETATM   12  O   UNL     1      -6.858   3.914  67.115  1.00  0.00    -0.049 OA 
BRANCH  11  13
HETATM   13  N   UNL     1      -8.264   5.093  65.742  1.00  0.00    -0.114 N  
HETATM   14  C   UNL     1      -7.771   5.453  64.410  1.00  0.00    -0.096 C  
HETATM   15  C   UNL     1      -8.061   4.330  63.408  1.00  0.00    -0.088 C  
HETATM   16  O   UNL     1      -9.459   3.993  63.398  1.00  0.00    -0.143 OA 
HETATM   17  C   UNL     1      -9.888   3.571  64.701  1.00  0.00    -0.168 C  
HETATM   18  C   UNL     1      -9.673   4.681  65.736  1.00  0.00    -0.197 C  
ENDBRANCH  11  13
ENDBRANCH   9  11
ENDBRANCH   8   9
ENDBRANCH   7   8
ENDBRANCH   5   7
ENDBRANCH   4   5
ENDBRANCH   2   4
BRANCH   2  19
HETATM   19  C   UNL     1     -10.788   9.284  69.901  1.00  0.00    -0.234 C  
BRANCH  19  20
HETATM   20  O   UNL     1     -11.418  10.379  69.222  1.00  0.00    -0.245 OA 
BRANCH  20  21
HETATM   21  C   UNL     1     -12.015  11.295  70.046  1.00  0.00    -0.368 A  
HETATM   22  C   UNL     1     -12.692  10.769  71.148  1.00  0.00    -0.532 A  
HETATM   23  H   UNL     1     -13.844  14.801  72.582  1.00  0.00     0.000 HD 
HETATM   24  O   UNL     1     -13.884  13.862  72.714  1.00  0.00    -0.701 OA 
HETATM   25  C   UNL     1     -13.331  11.617  72.057  1.00  0.00    -0.405 A  
HETATM   26  C   UNL     1     -13.272  12.993  71.863  1.00  0.00    -0.430 A  
HETATM   27  C   UNL     1     -11.944  12.679  69.876  1.00  0.00    -0.365 A  
HETATM   28  C   UNL     1     -12.576  13.529  70.786  1.00  0.00    -0.382 A  
ENDBRANCH  20  21
ENDBRANCH  19  20
ENDBRANCH   2  19
TORSDOF 10
ENDMDL
MODEL      297
REMARK 921   NORMALIZED FREE ENERGY PREDICTED BY IDOCK:   -3.32 KCAL/MOL
REMARK 922        TOTAL FREE ENERGY PREDICTED BY IDOCK:   -6.40 KCAL/MOL
REMARK 923 INTER-LIGAND FREE ENERGY PREDICTED BY IDOCK:   -5.72 KCAL/MOL
REMARK 924 INTRA-LIGAND FREE ENERGY PREDICTED BY IDOCK:   -0.68 KCAL/MOL
REMARK 927      BINDING AFFINITY PREDICTED BY RF-SCORE:    0.00 PKD
ROOT
HETATM    1  O   UNL     1     -12.433  10.911  68.397  1.00  0.00    -0.659 OA 
HETATM    2  C   UNL     1     -11.132  11.177  68.941  1.00  0.00    -0.237 C  
HETATM    3  H   UNL     1     -12.908  11.731  68.325  1.00  0.00     0.000 HD 
ENDROOT
BRANCH   2   4
HETATM    4  C   UNL     1     -10.364   9.850  69.058  1.00  0.00    -0.209 C  
BRANCH   4   5
HETATM    5  N   UNL     1     -11.253   8.763  69.501  1.00  0.00    -0.434 NA 
HETATM    6  H   UNL     1     -11.531   8.157  68.728  1.00  0.00     0.000 HD 
BRANCH   5   7
HETATM    7  C   UNL     1     -10.622   8.010  70.591  1.00  0.00    -0.219 C  
BRANCH   7   8
HETATM    8  C   UNL     1     -10.443   6.535  70.214  1.00  0.00    -0.216 C  
BRANCH   8   9
HETATM    9  N   UNL     1      -9.052   6.253  69.925  1.00  0.00    -0.143 N  
HETATM   10  H   UNL     1      -8.830   5.467  69.315  1.00  0.00     0.000 HD 
BRANCH   9  11
HETATM   11  C   UNL     1      -8.025   6.995  70.435  1.00  0.00    -0.113 C  
HETATM   12  O   UNL     1      -7.491   7.888  69.779  1.00  0.00    -0.083 OA 
BRANCH  11  13
HETATM   13  N   UNL     1      -7.642   6.680  71.721  1.00  0.00    -0.092 N  
HETATM   14  C   UNL     1      -7.717   7.709  72.761  1.00  0.00    -0.098 C  
HETATM   15  C   UNL     1      -8.693   7.287  73.865  1.00  0.00    -0.191 C  
HETATM   16  O   UNL     1      -8.345   5.998  74.399  1.00  0.00    -0.114 OA 
HETATM   17  C   UNL     1      -8.358   5.002  73.366  1.00  0.00    -0.110 C  
HETATM   18  C   UNL     1      -7.354   5.346  72.259  1.00  0.00    -0.094 C  
ENDBRANCH  11  13
ENDBRANCH   9  11
ENDBRANCH   8   9
ENDBRANCH   7   8
ENDBRANCH   5   7
ENDBRANCH   4   5
ENDBRANCH   2   4
BRANCH   2  19
HETATM   19  C   UNL     1     -10.364  12.144  68.031  1.00  0.00    -0.205 C  
BRANCH  19  20
HETATM   20  O   UNL     1     -11.294  12.978  67.325  1.00  0.00    -0.276 OA 
BRANCH  20  21
HETATM   21  C   UNL     1     -11.084  14.323  67.476  1.00  0.00    -0.298 A  
HETATM   22  C   UNL     1     -11.585  14.887  68.651  1.00  0.00    -0.342 A  
HETATM   23  H   UNL     1     -10.087  18.913  67.562  1.00  0.00     0.000 HD 
HETATM   24  O   UNL     1     -10.554  18.374  68.189  1.00  0.00    -0.356 OA 
HETATM   25  C   UNL     1     -11.419  16.250  68.909  1.00  0.00    -0.282 A  
HETATM   26  C   UNL     1     -10.735  17.039  67.990  1.00  0.00    -0.365 A  
HETATM   27  C   UNL     1     -10.379  15.122  66.573  1.00  0.00    -0.286 A  
HETATM   28  C   UNL     1     -10.206  16.483  66.831  1.00  0.00    -0.296 A  
ENDBRANCH  20  21
ENDBRANCH  19  20
ENDBRANCH   2  19
TORSDOF 10
ENDMDL
MODEL      298
REMARK 921   NORMALIZED FREE ENERGY PREDICTED BY IDOCK:   -3.32 KCAL/MOL
REMARK 922        TOTAL FREE ENERGY PREDICTED BY IDOCK:   -6.40 KCAL/MOL
REMARK 923 INTER-LIGAND FREE ENERGY PREDICTED BY IDOCK:   -5.93 KCAL/MOL
REMARK 924 INTRA-LIGAND FREE ENERGY PREDICTED BY IDOCK:   -0.47 KCAL/MOL
REMARK 927      BINDING AFFINITY PREDICTED BY RF-SCORE:    0.00 PKD
ROOT
HETATM    1  O   UNL     1      -9.230  10.816  65.010  1.00  0.00    -0.195 OA 
HETATM    2  C   UNL     1     -10.275  10.099  65.682  1.00  0.00    -0.218 C  
HETATM    3  H   UNL     1      -9.608  11.568  64.570  1.00  0.00     0.000 HD 
ENDROOT
BRANCH   2   4
HETATM    4  C   UNL     1      -9.662   8.881  66.393  1.00  0.00    -0.262 C  
BRANCH   4   5
HETATM    5  N   UNL     1      -8.484   9.271  67.186  1.00  0.00    -0.123 NA 
HETATM    6  H   UNL     1      -8.688  10.047  67.817  1.00  0.00     0.000 HD 
BRANCH   5   7
HETATM    7  C   UNL     1      -7.951   8.106  67.902  1.00  0.00    -0.127 C  
BRANCH   7   8
HETATM    8  C   UNL     1      -9.074   7.313  68.580  1.00  0.00    -0.133 C  
BRANCH   8   9
HETATM    9  N   UNL     1      -8.704   5.918  68.702  1.00  0.00    -0.110 N  
HETATM   10  H   UNL     1      -7.716   5.669  68.657  1.00  0.00     0.000 HD 
BRANCH   9  11
HETATM   11  C   UNL     1      -9.622   4.922  68.876  1.00  0.00    -0.158 C  
HETATM   12  O   UNL     1     -10.368   4.899  69.854  1.00  0.00    -0.265 OA 
BRANCH  11  13
HETATM   13  N   UNL     1      -9.656   3.962  67.887  1.00  0.00    -0.166 N  
HETATM   14  C   UNL     1      -9.967   4.363  66.513  1.00  0.00    -0.223 C  
HETATM   15  C   UNL     1      -8.789   4.052  65.583  1.00  0.00    -0.123 C  
HETATM   16  O   UNL     1      -8.410   2.667  65.673  1.00  0.00    -0.088 OA 
HETATM   17  C   UNL     1      -8.039   2.330  67.017  1.00  0.00    -0.073 C  
HETATM   18  C   UNL     1      -9.203   2.570  67.986  1.00  0.00    -0.206 C  
ENDBRANCH  11  13
ENDBRANCH   9  11
ENDBRANCH   8   9
ENDBRANCH   7   8
ENDBRANCH   5   7
ENDBRANCH   4   5
ENDBRANCH   2   4
BRANCH   2  19
HETATM   19  C   UNL     1     -10.966  11.007  66.708  1.00  0.00    -0.217 C  
BRANCH  19  20
HETATM   20  O   UNL     1     -10.254  12.249  66.804  1.00  0.00    -0.209 OA 
BRANCH  20  21
HETATM   21  C   UNL     1     -10.788  13.272  66.066  1.00  0.00    -0.273 A  
HETATM   22  C   UNL     1      -9.980  14.401  65.922  1.00  0.00    -0.350 A  
HETATM   23  H   UNL     1     -13.015  16.467  63.439  1.00  0.00     0.000 HD 
HETATM   24  O   UNL     1     -12.161  16.499  63.853  1.00  0.00    -0.896 OA 
HETATM   25  C   UNL     1     -10.425  15.500  65.182  1.00  0.00    -0.431 A  
HETATM   26  C   UNL     1     -11.676  15.453  64.577  1.00  0.00    -0.277 A  
HETATM   27  C   UNL     1     -12.033  13.228  65.434  1.00  0.00    -0.432 A  
HETATM   28  C   UNL     1     -12.477  14.322  64.689  1.00  0.00    -0.371 A  
ENDBRANCH  20  21
ENDBRANCH  19  20
ENDBRANCH   2  19
TORSDOF 10
ENDMDL
MODEL      299
REMARK 921   NORMALIZED FREE ENERGY PREDICTED BY IDOCK:   -3.32 KCAL/MOL
REMARK 922        TOTAL FREE ENERGY PREDICTED BY IDOCK:   -6.39 KCAL/MOL
REMARK 923 INTER-LIGAND FREE ENERGY PREDICTED BY IDOCK:   -4.99 KCAL/MOL
REMARK 924 INTRA-LIGAND FREE ENERGY PREDICTED BY IDOCK:   -1.40 KCAL/MOL
REMARK 927      BINDING AFFINITY PREDICTED BY RF-SCORE:    0.00 PKD
ROOT
HETATM    1  O   UNL     1      -6.150   6.945  66.181  1.00  0.00    -0.033 OA 
HETATM    2  C   UNL     1      -7.053   7.713  66.988  1.00  0.00    -0.084 C  
HETATM    3  H   UNL     1      -5.497   6.546  66.745  1.00  0.00     0.000 HD 
ENDROOT
BRANCH   2   4
HETATM    4  C   UNL     1      -8.108   8.359  66.075  1.00  0.00    -0.104 C  
BRANCH   4   5
HETATM    5  N   UNL     1      -8.660   9.578  66.688  1.00  0.00    -0.133 NA 
HETATM    6  H   UNL     1      -8.241  10.424  66.302  1.00  0.00     0.000 HD 
BRANCH   5   7
HETATM    7  C   UNL     1     -10.123   9.584  66.566  1.00  0.00    -0.256 C  
BRANCH   7   8
HETATM    8  C   UNL     1     -10.668  11.015  66.521  1.00  0.00    -0.241 C  
BRANCH   8   9
HETATM    9  N   UNL     1     -10.165  11.783  67.642  1.00  0.00    -0.197 N  
HETATM   10  H   UNL     1      -9.590  12.604  67.452  1.00  0.00     0.000 HD 
BRANCH   9  11
HETATM   11  C   UNL     1     -10.427  11.454  68.941  1.00  0.00    -0.193 C  
HETATM   12  O   UNL     1      -9.629  10.802  69.612  1.00  0.00    -0.048 OA 
BRANCH  11  13
HETATM   13  N   UNL     1     -11.630  11.906  69.440  1.00  0.00    -0.302 N  
HETATM   14  C   UNL     1     -12.481  10.985  70.198  1.00  0.00    -0.269 C  
HETATM   15  C   UNL     1     -12.676  11.492  71.632  1.00  0.00    -0.290 C  
HETATM   16  O   UNL     1     -13.187  12.837  71.641  1.00  0.00    -0.397 OA 
HETATM   17  C   UNL     1     -12.290  13.724  70.957  1.00  0.00    -0.372 C  
HETATM   18  C   UNL     1     -12.101  13.295  69.496  1.00  0.00    -0.258 C  
ENDBRANCH  11  13
ENDBRANCH   9  11
ENDBRANCH   8   9
ENDBRANCH   7   8
ENDBRANCH   5   7
ENDBRANCH   4   5
ENDBRANCH   2   4
BRANCH   2  19
HETATM   19  C   UNL     1      -7.742   6.808  68.019  1.00  0.00    -0.112 C  
BRANCH  19  20
HETATM   20  O   UNL     1      -7.321   7.179  69.339  1.00  0.00    -0.085 OA 
BRANCH  20  21
HETATM   21  C   UNL     1      -8.340   7.505  70.193  1.00  0.00    -0.134 A  
HETATM   22  C   UNL     1      -9.626   7.180  69.756  1.00  0.00    -0.155 A  
HETATM   23  H   UNL     1     -11.474   8.769  73.457  1.00  0.00     0.000 HD 
HETATM   24  O   UNL     1     -11.602   8.363  72.608  1.00  0.00    -0.385 OA 
HETATM   25  C   UNL     1     -10.738   7.463  70.553  1.00  0.00    -0.247 A  
HETATM   26  C   UNL     1     -10.552   8.058  71.797  1.00  0.00    -0.238 A  
HETATM   27  C   UNL     1      -8.166   8.081  71.453  1.00  0.00    -0.127 A  
HETATM   28  C   UNL     1      -9.274   8.359  72.255  1.00  0.00    -0.329 A  
ENDBRANCH  20  21
ENDBRANCH  19  20
ENDBRANCH   2  19
TORSDOF 10
ENDMDL
MODEL      300
REMARK 921   NORMALIZED FREE ENERGY PREDICTED BY IDOCK:   -3.28 KCAL/MOL
REMARK 922        TOTAL FREE ENERGY PREDICTED BY IDOCK:   -6.33 KCAL/MOL
REMARK 923 INTER-LIGAND FREE ENERGY PREDICTED BY IDOCK:   -5.72 KCAL/MOL
REMARK 924 INTRA-LIGAND FREE ENERGY PREDICTED BY IDOCK:   -0.61 KCAL/MOL
REMARK 927      BINDING AFFINITY PREDICTED BY RF-SCORE:    0.00 PKD
ROOT
HETATM    1  O   UNL     1      -8.886   6.948  68.410  1.00  0.00    -0.124 OA 
HETATM    2  C   UNL     1      -9.695   6.889  69.593  1.00  0.00    -0.155 C  
HETATM    3  H   UNL     1      -8.222   6.270  68.459  1.00  0.00     0.000 HD 
ENDROOT
BRANCH   2   4
HETATM    4  C   UNL     1     -10.769   7.986  69.514  1.00  0.00    -0.181 C  
BRANCH   4   5
HETATM    5  N   UNL     1     -10.213   9.228  68.951  1.00  0.00    -0.196 NA 
HETATM    6  H   UNL     1     -10.567   9.415  68.013  1.00  0.00     0.000 HD 
BRANCH   5   7
HETATM    7  C   UNL     1     -10.461  10.349  69.866  1.00  0.00    -0.218 C  
BRANCH   7   8
HETATM    8  C   UNL     1     -11.348  11.412  69.209  1.00  0.00    -0.289 C  
BRANCH   8   9
HETATM    9  N   UNL     1     -10.653  12.036  68.101  1.00  0.00    -0.202 N  
HETATM   10  H   UNL     1      -9.921  12.716  68.306  1.00  0.00     0.000 HD 
BRANCH   9  11
HETATM   11  C   UNL     1     -10.935  11.752  66.796  1.00  0.00    -0.288 C  
HETATM   12  O   UNL     1     -10.534  10.719  66.262  1.00  0.00    -0.250 OA 
BRANCH  11  13
HETATM   13  N   UNL     1     -11.698  12.689  66.132  1.00  0.00    -0.387 N  
HETATM   14  C   UNL     1     -11.519  14.108  66.447  1.00  0.00    -0.354 C  
HETATM   15  C   UNL     1     -11.042  14.877  65.210  1.00  0.00    -0.378 C  
HETATM   16  O   UNL     1     -11.934  14.675  64.099  1.00  0.00    -0.404 OA 
HETATM   17  C   UNL     1     -12.025  13.281  63.770  1.00  0.00    -0.491 C  
HETATM   18  C   UNL     1     -12.551  12.469  64.959  1.00  0.00    -0.345 C  
ENDBRANCH  11  13
ENDBRANCH   9  11
ENDBRANCH   8   9
ENDBRANCH   7   8
ENDBRANCH   5   7
ENDBRANCH   4   5
ENDBRANCH   2   4
BRANCH   2  19
HETATM   19  C   UNL     1     -10.364   5.513  69.709  1.00  0.00    -0.296 C  
BRANCH  19  20
HETATM   20  O   UNL     1     -10.904   5.353  71.029  1.00  0.00    -0.215 OA 
BRANCH  20  21
HETATM   21  C   UNL     1     -10.139   4.590  71.870  1.00  0.00    -0.188 A  
HETATM   22  C   UNL     1     -10.808   4.037  72.964  1.00  0.00    -0.234 A  
HETATM   23  H   UNL     1      -7.130   2.042  74.423  1.00  0.00     0.000 HD 
HETATM   24  O   UNL     1      -8.053   2.216  74.556  1.00  0.00    -0.048 OA 
HETATM   25  C   UNL     1     -10.123   3.236  73.882  1.00  0.00    -0.188 A  
HETATM   26  C   UNL     1      -8.769   2.981  73.687  1.00  0.00    -0.073 A  
HETATM   27  C   UNL     1      -8.785   4.308  71.675  1.00  0.00    -0.136 A  
HETATM   28  C   UNL     1      -8.100   3.503  72.586  1.00  0.00    -0.077 A  
ENDBRANCH  20  21
ENDBRANCH  19  20
ENDBRANCH   2  19
TORSDOF 10
ENDMDL
MODEL      301
REMARK 921   NORMALIZED FREE ENERGY PREDICTED BY IDOCK:   -3.24 KCAL/MOL
REMARK 922        TOTAL FREE ENERGY PREDICTED BY IDOCK:   -6.28 KCAL/MOL
REMARK 923 INTER-LIGAND FREE ENERGY PREDICTED BY IDOCK:   -5.30 KCAL/MOL
REMARK 924 INTRA-LIGAND FREE ENERGY PREDICTED BY IDOCK:   -0.98 KCAL/MOL
REMARK 927      BINDING AFFINITY PREDICTED BY RF-SCORE:    0.00 PKD
ROOT
HETATM    1  O   UNL     1      -9.373   9.401  71.661  1.00  0.00    -0.262 OA 
HETATM    2  C   UNL     1      -9.780   9.954  70.402  1.00  0.00    -0.090 C  
HETATM    3  H   UNL     1      -9.779   9.898  72.360  1.00  0.00     0.000 HD 
ENDROOT
BRANCH   2   4
HETATM    4  C   UNL     1      -9.121   9.149  69.269  1.00  0.00    -0.146 C  
BRANCH   4   5
HETATM    5  N   UNL     1     -10.120   8.351  68.539  1.00  0.00    -0.192 NA 
HETATM    6  H   UNL     1     -10.460   8.834  67.707  1.00  0.00     0.000 HD 
BRANCH   5   7
HETATM    7  C   UNL     1      -9.572   7.027  68.223  1.00  0.00    -0.134 C  
BRANCH   7   8
HETATM    8  C   UNL     1      -9.822   6.662  66.756  1.00  0.00    -0.173 C  
BRANCH   8   9
HETATM    9  N   UNL     1     -10.686   5.502  66.664  1.00  0.00    -0.454 N  
HETATM   10  H   UNL     1     -11.594   5.533  67.127  1.00  0.00     0.000 HD 
BRANCH   9  11
HETATM   11  C   UNL     1     -10.336   4.371  65.984  1.00  0.00    -0.178 C  
HETATM   12  O   UNL     1     -10.832   4.099  64.892  1.00  0.00    -0.243 OA 
BRANCH  11  13
HETATM   13  N   UNL     1      -9.396   3.571  66.600  1.00  0.00    -0.181 N  
HETATM   14  C   UNL     1      -8.006   3.623  66.143  1.00  0.00    -0.089 C  
HETATM   15  C   UNL     1      -7.087   4.099  67.274  1.00  0.00    -0.067 C  
HETATM   16  O   UNL     1      -7.244   3.282  68.447  1.00  0.00    -0.049 OA 
HETATM   17  C   UNL     1      -8.602   3.317  68.911  1.00  0.00    -0.080 C  
HETATM   18  C   UNL     1      -9.563   2.797  67.835  1.00  0.00    -0.026 C  
ENDBRANCH  11  13
ENDBRANCH   9  11
ENDBRANCH   8   9
ENDBRANCH   7   8
ENDBRANCH   5   7
ENDBRANCH   4   5
ENDBRANCH   2   4
BRANCH   2  19
HETATM   19  C   UNL     1     -11.307   9.890  70.264  1.00  0.00    -0.291 C  
BRANCH  19  20
HETATM   20  O   UNL     1     -11.726  10.731  69.180  1.00  0.00    -0.292 OA 
BRANCH  20  21
HETATM   21  C   UNL     1     -12.106  11.994  69.550  1.00  0.00    -0.212 A  
HETATM   22  C   UNL     1     -12.596  12.123  70.851  1.00  0.00    -0.340 A  
HETATM   23  H   UNL     1     -13.227  16.482  70.364  1.00  0.00     0.000 HD 
HETATM   24  O   UNL     1     -13.296  15.721  70.926  1.00  0.00    -0.576 OA 
HETATM   25  C   UNL     1     -13.005  13.369  71.333  1.00  0.00    -0.412 A  
HETATM   26  C   UNL     1     -12.904  14.486  70.509  1.00  0.00    -0.304 A  
HETATM   27  C   UNL     1     -11.988  13.126  68.741  1.00  0.00    -0.316 A  
HETATM   28  C   UNL     1     -12.390  14.374  69.222  1.00  0.00    -0.188 A  
ENDBRANCH  20  21
ENDBRANCH  19  20
ENDBRANCH   2  19
TORSDOF 10
ENDMDL
MODEL      302
REMARK 921   NORMALIZED FREE ENERGY PREDICTED BY IDOCK:   -3.22 KCAL/MOL
REMARK 922        TOTAL FREE ENERGY PREDICTED BY IDOCK:   -6.24 KCAL/MOL
REMARK 923 INTER-LIGAND FREE ENERGY PREDICTED BY IDOCK:   -6.11 KCAL/MOL
REMARK 924 INTRA-LIGAND FREE ENERGY PREDICTED BY IDOCK:   -0.13 KCAL/MOL
REMARK 927      BINDING AFFINITY PREDICTED BY RF-SCORE:    0.00 PKD
ROOT
HETATM    1  O   UNL     1     -11.762  11.593  63.480  1.00  0.00    -0.587 OA 
HETATM    2  C   UNL     1     -11.244  12.468  64.492  1.00  0.00    -0.325 C  
HETATM    3  H   UNL     1     -11.735  10.701  63.804  1.00  0.00     0.000 HD 
ENDROOT
BRANCH   2   4
HETATM    4  C   UNL     1     -11.287  13.913  63.968  1.00  0.00    -0.086 C  
BRANCH   4   5
HETATM    5  N   UNL     1     -11.680  14.849  65.035  1.00  0.00    -0.353 NA 
HETATM    6  H   UNL     1     -11.909  14.364  65.903  1.00  0.00     0.000 HD 
BRANCH   5   7
HETATM    7  C   UNL     1     -10.632  15.858  65.228  1.00  0.00    -0.419 C  
BRANCH   7   8
HETATM    8  C   UNL     1      -9.489  15.311  66.090  1.00  0.00    -0.326 C  
BRANCH   8   9
HETATM    9  N   UNL     1      -8.912  16.368  66.895  1.00  0.00    -0.204 N  
HETATM   10  H   UNL     1      -9.517  16.874  67.542  1.00  0.00     0.000 HD 
BRANCH   9  11
HETATM   11  C   UNL     1      -7.593  16.716  66.825  1.00  0.00    -0.257 C  
HETATM   12  O   UNL     1      -6.711  15.867  66.708  1.00  0.00    -0.249 OA 
BRANCH  11  13
HETATM   13  N   UNL     1      -7.328  18.068  66.887  1.00  0.00    -0.197 N  
HETATM   14  C   UNL     1      -8.416  18.995  67.208  1.00  0.00    -0.277 C  
HETATM   15  C   UNL     1      -8.113  19.748  68.508  1.00  0.00    -0.242 C  
HETATM   16  O   UNL     1      -6.837  20.409  68.438  1.00  0.00    -0.281 OA 
HETATM   17  C   UNL     1      -5.788  19.460  68.200  1.00  0.00    -0.211 C  
HETATM   18  C   UNL     1      -6.011  18.714  66.878  1.00  0.00    -0.154 C  
ENDBRANCH  11  13
ENDBRANCH   9  11
ENDBRANCH   8   9
ENDBRANCH   7   8
ENDBRANCH   5   7
ENDBRANCH   4   5
ENDBRANCH   2   4
BRANCH   2  19
HETATM   19  C   UNL     1     -12.083  12.354  65.772  1.00  0.00    -0.311 C  
BRANCH  19  20
HETATM   20  O   UNL     1     -11.628  11.235  66.546  1.00  0.00    -0.344 OA 
BRANCH  20  21
HETATM   21  C   UNL     1     -10.331  10.866  66.309  1.00  0.00    -0.250 A  
HETATM   22  C   UNL     1      -9.353  11.714  66.834  1.00  0.00    -0.195 A  
HETATM   23  H   UNL     1      -6.070   9.174  65.284  1.00  0.00     0.000 HD 
HETATM   24  O   UNL     1      -6.322   9.958  65.756  1.00  0.00    -0.073 OA 
HETATM   25  C   UNL     1      -7.997  11.428  66.657  1.00  0.00    -0.148 A  
HETATM   26  C   UNL     1      -7.628  10.279  65.965  1.00  0.00    -0.128 A  
HETATM   27  C   UNL     1      -9.946   9.705  65.636  1.00  0.00    -0.321 A  
HETATM   28  C   UNL     1      -8.592   9.412  65.463  1.00  0.00    -0.169 A  
ENDBRANCH  20  21
ENDBRANCH  19  20
ENDBRANCH   2  19
TORSDOF 10
ENDMDL
MODEL      303
REMARK 921   NORMALIZED FREE ENERGY PREDICTED BY IDOCK:   -3.22 KCAL/MOL
REMARK 922        TOTAL FREE ENERGY PREDICTED BY IDOCK:   -6.24 KCAL/MOL
REMARK 923 INTER-LIGAND FREE ENERGY PREDICTED BY IDOCK:   -5.19 KCAL/MOL
REMARK 924 INTRA-LIGAND FREE ENERGY PREDICTED BY IDOCK:   -1.04 KCAL/MOL
REMARK 927      BINDING AFFINITY PREDICTED BY RF-SCORE:    0.00 PKD
ROOT
HETATM    1  O   UNL     1      -8.992   7.545  72.300  1.00  0.00    -0.127 OA 
HETATM    2  C   UNL     1      -9.221   8.665  71.435  1.00  0.00    -0.235 C  
HETATM    3  H   UNL     1      -9.824   7.257  72.656  1.00  0.00     0.000 HD 
ENDROOT
BRANCH   2   4
HETATM    4  C   UNL     1      -7.873   9.131  70.859  1.00  0.00    -0.132 C  
BRANCH   4   5
HETATM    5  N   UNL     1      -7.996  10.464  70.244  1.00  0.00    -0.404 NA 
HETATM    6  H   UNL     1      -8.084  11.201  70.944  1.00  0.00     0.000 HD 
BRANCH   5   7
HETATM    7  C   UNL     1      -6.870  10.702  69.334  1.00  0.00    -0.095 C  
BRANCH   7   8
HETATM    8  C   UNL     1      -6.688  12.199  69.060  1.00  0.00    -0.103 C  
BRANCH   8   9
HETATM    9  N   UNL     1      -7.437  12.592  67.883  1.00  0.00    -0.110 N  
HETATM   10  H   UNL     1      -7.260  12.103  67.007  1.00  0.00     0.000 HD 
BRANCH   9  11
HETATM   11  C   UNL     1      -8.370  13.589  67.899  1.00  0.00    -0.175 C  
HETATM   12  O   UNL     1      -8.176  14.640  68.508  1.00  0.00    -0.139 OA 
BRANCH  11  13
HETATM   13  N   UNL     1      -9.525  13.338  67.189  1.00  0.00    -0.231 N  
HETATM   14  C   UNL     1      -9.623  12.109  66.398  1.00  0.00    -0.234 C  
HETATM   15  C   UNL     1     -10.770  11.231  66.912  1.00  0.00    -0.273 C  
HETATM   16  O   UNL     1     -12.009  11.961  66.940  1.00  0.00    -0.614 OA 
HETATM   17  C   UNL     1     -11.898  13.115  67.785  1.00  0.00    -0.348 C  
HETATM   18  C   UNL     1     -10.799  14.060  67.282  1.00  0.00    -0.284 C  
ENDBRANCH  11  13
ENDBRANCH   9  11
ENDBRANCH   8   9
ENDBRANCH   7   8
ENDBRANCH   5   7
ENDBRANCH   4   5
ENDBRANCH   2   4
BRANCH   2  19
HETATM   19  C   UNL     1     -10.165   8.267  70.292  1.00  0.00    -0.196 C  
BRANCH  19  20
HETATM   20  O   UNL     1      -9.579   8.639  69.036  1.00  0.00    -0.159 OA 
BRANCH  20  21
HETATM   21  C   UNL     1      -9.528   7.632  68.109  1.00  0.00    -0.145 A  
HETATM   22  C   UNL     1     -10.760   7.108  67.714  1.00  0.00    -0.282 A  
HETATM   23  H   UNL     1      -8.846   4.263  64.907  1.00  0.00     0.000 HD 
HETATM   24  O   UNL     1      -9.650   4.593  65.289  1.00  0.00    -0.166 OA 
HETATM   25  C   UNL     1     -10.823   6.082  66.768  1.00  0.00    -0.356 A  
HETATM   26  C   UNL     1      -9.645   5.597  66.208  1.00  0.00    -0.147 A  
HETATM   27  C   UNL     1      -8.355   7.153  67.523  1.00  0.00    -0.116 A  
HETATM   28  C   UNL     1      -8.414   6.132  66.572  1.00  0.00    -0.119 A  
ENDBRANCH  20  21
ENDBRANCH  19  20
ENDBRANCH   2  19
TORSDOF 10
ENDMDL
MODEL      304
REMARK 921   NORMALIZED FREE ENERGY PREDICTED BY IDOCK:   -3.20 KCAL/MOL
REMARK 922        TOTAL FREE ENERGY PREDICTED BY IDOCK:   -6.21 KCAL/MOL
REMARK 923 INTER-LIGAND FREE ENERGY PREDICTED BY IDOCK:   -5.65 KCAL/MOL
REMARK 924 INTRA-LIGAND FREE ENERGY PREDICTED BY IDOCK:   -0.57 KCAL/MOL
REMARK 927      BINDING AFFINITY PREDICTED BY RF-SCORE:    0.00 PKD
ROOT
HETATM    1  O   UNL     1     -12.862  13.379  70.855  1.00  0.00    -0.284 OA 
HETATM    2  C   UNL     1     -11.914  12.859  69.912  1.00  0.00    -0.307 C  
HETATM    3  H   UNL     1     -12.744  14.319  70.921  1.00  0.00     0.000 HD 
ENDROOT
BRANCH   2   4
HETATM    4  C   UNL     1     -12.103  11.336  69.807  1.00  0.00    -0.325 C  
BRANCH   4   5
HETATM    5  N   UNL     1     -12.298  10.925  68.407  1.00  0.00    -0.655 NA 
HETATM    6  H   UNL     1     -12.408  11.726  67.785  1.00  0.00     0.000 HD 
BRANCH   5   7
HETATM    7  C   UNL     1     -11.201  10.047  67.984  1.00  0.00    -0.122 C  
BRANCH   7   8
HETATM    8  C   UNL     1     -10.236   9.770  69.143  1.00  0.00    -0.199 C  
BRANCH   8   9
HETATM    9  N   UNL     1     -10.649   8.588  69.872  1.00  0.00    -0.227 N  
HETATM   10  H   UNL     1     -11.277   8.700  70.668  1.00  0.00     0.000 HD 
BRANCH   9  11
HETATM   11  C   UNL     1     -10.233   7.331  69.539  1.00  0.00    -0.198 C  
HETATM   12  O   UNL     1     -10.710   6.730  68.578  1.00  0.00    -0.212 OA 
BRANCH  11  13
HETATM   13  N   UNL     1      -9.248   6.795  70.342  1.00  0.00    -0.156 N  
HETATM   14  C   UNL     1      -8.351   5.778  69.790  1.00  0.00    -0.112 C  
HETATM   15  C   UNL     1      -6.900   6.273  69.810  1.00  0.00    -0.065 C  
HETATM   16  O   UNL     1      -6.511   6.682  71.133  1.00  0.00    -0.047 OA 
HETATM   17  C   UNL     1      -7.364   7.733  71.610  1.00  0.00    -0.067 C  
HETATM   18  C   UNL     1      -8.825   7.272  71.664  1.00  0.00    -0.117 C  
ENDBRANCH  11  13
ENDBRANCH   9  11
ENDBRANCH   8   9
ENDBRANCH   7   8
ENDBRANCH   5   7
ENDBRANCH   4   5
ENDBRANCH   2   4
BRANCH   2  19
HETATM   19  C   UNL     1     -12.126  13.505  68.537  1.00  0.00    -0.268 C  
BRANCH  19  20
HETATM   20  O   UNL     1     -10.863  13.633  67.868  1.00  0.00    -0.243 OA 
BRANCH  20  21
HETATM   21  C   UNL     1     -10.562  14.903  67.453  1.00  0.00    -0.263 A  
HETATM   22  C   UNL     1     -10.152  15.787  68.453  1.00  0.00    -0.222 A  
HETATM   23  H   UNL     1      -9.606  19.090  65.549  1.00  0.00     0.000 HD 
HETATM   24  O   UNL     1      -9.565  18.803  66.453  1.00  0.00    -0.326 OA 
HETATM   25  C   UNL     1      -9.814  17.106  68.137  1.00  0.00    -0.281 A  
HETATM   26  C   UNL     1      -9.875  17.527  66.813  1.00  0.00    -0.306 A  
HETATM   27  C   UNL     1     -10.597  15.332  66.125  1.00  0.00    -0.318 A  
HETATM   28  C   UNL     1     -10.254  16.647  65.805  1.00  0.00    -0.328 A  
ENDBRANCH  20  21
ENDBRANCH  19  20
ENDBRANCH   2  19
TORSDOF 10
ENDMDL
MODEL      305
REMARK 921   NORMALIZED FREE ENERGY PREDICTED BY IDOCK:   -3.20 KCAL/MOL
REMARK 922        TOTAL FREE ENERGY PREDICTED BY IDOCK:   -6.21 KCAL/MOL
REMARK 923 INTER-LIGAND FREE ENERGY PREDICTED BY IDOCK:   -5.09 KCAL/MOL
REMARK 924 INTRA-LIGAND FREE ENERGY PREDICTED BY IDOCK:   -1.12 KCAL/MOL
REMARK 927      BINDING AFFINITY PREDICTED BY RF-SCORE:    0.00 PKD
ROOT
HETATM    1  O   UNL     1      -9.343  11.789  65.129  1.00  0.00    -0.400 OA 
HETATM    2  C   UNL     1      -8.461  10.701  65.439  1.00  0.00    -0.160 C  
HETATM    3  H   UNL     1      -9.583  11.736  64.211  1.00  0.00     0.000 HD 
ENDROOT
BRANCH   2   4
HETATM    4  C   UNL     1      -8.071  10.788  66.925  1.00  0.00    -0.132 C  
BRANCH   4   5
HETATM    5  N   UNL     1      -9.196  11.282  67.737  1.00  0.00    -0.153 NA 
HETATM    6  H   UNL     1      -9.529  10.578  68.396  1.00  0.00     0.000 HD 
BRANCH   5   7
HETATM    7  C   UNL     1      -8.820  12.531  68.408  1.00  0.00    -0.123 C  
BRANCH   7   8
HETATM    8  C   UNL     1      -7.449  13.024  67.931  1.00  0.00    -0.137 C  
BRANCH   8   9
HETATM    9  N   UNL     1      -7.604  14.059  66.929  1.00  0.00    -0.235 N  
HETATM   10  H   UNL     1      -7.567  13.793  65.945  1.00  0.00     0.000 HD 
BRANCH   9  11
HETATM   11  C   UNL     1      -7.799  15.372  67.246  1.00  0.00    -0.206 C  
HETATM   12  O   UNL     1      -6.885  16.070  67.681  1.00  0.00    -0.130 OA 
BRANCH  11  13
HETATM   13  N   UNL     1      -9.074  15.854  67.038  1.00  0.00    -0.207 N  
HETATM   14  C   UNL     1      -9.867  15.322  65.927  1.00  0.00    -0.354 C  
HETATM   15  C   UNL     1     -11.135  14.638  66.452  1.00  0.00    -0.334 C  
HETATM   16  O   UNL     1     -11.896  15.529  67.286  1.00  0.00    -0.036 OA 
HETATM   17  C   UNL     1     -11.113  15.969  68.405  1.00  0.00    -0.351 C  
HETATM   18  C   UNL     1      -9.855  16.711  67.937  1.00  0.00    -0.248 C  
ENDBRANCH  11  13
ENDBRANCH   9  11
ENDBRANCH   8   9
ENDBRANCH   7   8
ENDBRANCH   5   7
ENDBRANCH   4   5
ENDBRANCH   2   4
BRANCH   2  19
HETATM   19  C   UNL     1      -9.155   9.361  65.162  1.00  0.00    -0.225 C  
BRANCH  19  20
HETATM   20  O   UNL     1     -10.060   9.059  66.233  1.00  0.00    -0.295 OA 
BRANCH  20  21
HETATM   21  C   UNL     1      -9.998   7.770  66.689  1.00  0.00    -0.228 A  
HETATM   22  C   UNL     1      -8.808   7.090  66.422  1.00  0.00    -0.158 A  
HETATM   23  H   UNL     1     -10.239   3.430  68.471  1.00  0.00     0.000 HD 
HETATM   24  O   UNL     1      -9.542   3.857  67.988  1.00  0.00    -0.174 OA 
HETATM   25  C   UNL     1      -8.635   5.770  66.849  1.00  0.00    -0.111 A  
HETATM   26  C   UNL     1      -9.656   5.144  67.557  1.00  0.00    -0.140 A  
HETATM   27  C   UNL     1     -11.005   7.137  67.420  1.00  0.00    -0.296 A  
HETATM   28  C   UNL     1     -10.833   5.821  67.854  1.00  0.00    -0.257 A  
ENDBRANCH  20  21
ENDBRANCH  19  20
ENDBRANCH   2  19
TORSDOF 10
ENDMDL
MODEL      306
REMARK 921   NORMALIZED FREE ENERGY PREDICTED BY IDOCK:   -3.19 KCAL/MOL
REMARK 922        TOTAL FREE ENERGY PREDICTED BY IDOCK:   -6.19 KCAL/MOL
REMARK 923 INTER-LIGAND FREE ENERGY PREDICTED BY IDOCK:   -5.55 KCAL/MOL
REMARK 924 INTRA-LIGAND FREE ENERGY PREDICTED BY IDOCK:   -0.64 KCAL/MOL
REMARK 927      BINDING AFFINITY PREDICTED BY RF-SCORE:    0.00 PKD
ROOT
HETATM    1  O   UNL     1     -10.057   7.658  66.009  1.00  0.00    -0.406 OA 
HETATM    2  C   UNL     1      -9.479   7.652  67.322  1.00  0.00    -0.148 C  
HETATM    3  H   UNL     1      -9.853   6.835  65.580  1.00  0.00     0.000 HD 
ENDROOT
BRANCH   2   4
HETATM    4  C   UNL     1      -9.808   8.985  68.015  1.00  0.00    -0.166 C  
BRANCH   4   5
HETATM    5  N   UNL     1     -11.176   9.423  67.691  1.00  0.00    -0.391 NA 
HETATM    6  H   UNL     1     -11.881   8.799  68.085  1.00  0.00     0.000 HD 
BRANCH   5   7
HETATM    7  C   UNL     1     -11.372  10.813  68.117  1.00  0.00    -0.308 C  
BRANCH   7   8
HETATM    8  C   UNL     1     -10.098  11.640  67.912  1.00  0.00    -0.187 C  
BRANCH   8   9
HETATM    9  N   UNL     1     -10.212  12.456  66.721  1.00  0.00    -0.218 N  
HETATM   10  H   UNL     1      -9.721  12.160  65.878  1.00  0.00     0.000 HD 
BRANCH   9  11
HETATM   11  C   UNL     1     -10.948  13.606  66.680  1.00  0.00    -0.292 C  
HETATM   12  O   UNL     1     -12.111  13.609  66.282  1.00  0.00    -0.395 OA 
BRANCH  11  13
HETATM   13  N   UNL     1     -10.303  14.744  67.116  1.00  0.00    -0.253 N  
HETATM   14  C   UNL     1      -9.527  15.536  66.160  1.00  0.00    -0.341 C  
HETATM   15  C   UNL     1     -10.108  16.949  66.037  1.00  0.00    -0.319 C  
HETATM   16  O   UNL     1     -10.200  17.586  67.324  1.00  0.00    -0.313 OA 
HETATM   17  C   UNL     1     -11.030  16.820  68.210  1.00  0.00    -0.327 C  
HETATM   18  C   UNL     1     -10.463  15.410  68.414  1.00  0.00    -0.239 C  
ENDBRANCH  11  13
ENDBRANCH   9  11
ENDBRANCH   8   9
ENDBRANCH   7   8
ENDBRANCH   5   7
ENDBRANCH   4   5
ENDBRANCH   2   4
BRANCH   2  19
HETATM   19  C   UNL     1     -10.044   6.486  68.143  1.00  0.00    -0.155 C  
BRANCH  19  20
HETATM   20  O   UNL     1      -9.795   6.716  69.537  1.00  0.00    -0.152 OA 
BRANCH  20  21
HETATM   21  C   UNL     1      -9.385   5.612  70.235  1.00  0.00    -0.152 A  
HETATM   22  C   UNL     1      -9.963   4.401  69.850  1.00  0.00    -0.233 A  
HETATM   23  H   UNL     1      -7.644   2.134  72.869  1.00  0.00     0.000 HD 
HETATM   24  O   UNL     1      -8.290   2.113  72.174  1.00  0.00    -0.053 OA 
HETATM   25  C   UNL     1      -9.610   3.212  70.492  1.00  0.00    -0.201 A  
HETATM   26  C   UNL     1      -8.663   3.242  71.510  1.00  0.00    -0.077 A  
HETATM   27  C   UNL     1      -8.419   5.625  71.244  1.00  0.00    -0.128 A  
HETATM   28  C   UNL     1      -8.059   4.437  71.883  1.00  0.00    -0.098 A  
ENDBRANCH  20  21
ENDBRANCH  19  20
ENDBRANCH   2  19
TORSDOF 10
ENDMDL
MODEL      307
REMARK 921   NORMALIZED FREE ENERGY PREDICTED BY IDOCK:   -3.14 KCAL/MOL
REMARK 922        TOTAL FREE ENERGY PREDICTED BY IDOCK:   -6.12 KCAL/MOL
REMARK 923 INTER-LIGAND FREE ENERGY PREDICTED BY IDOCK:   -5.62 KCAL/MOL
REMARK 924 INTRA-LIGAND FREE ENERGY PREDICTED BY IDOCK:   -0.50 KCAL/MOL
REMARK 927      BINDING AFFINITY PREDICTED BY RF-SCORE:    0.00 PKD
ROOT
HETATM    1  O   UNL     1      -8.847   9.857  66.173  1.00  0.00    -0.139 OA 
HETATM    2  C   UNL     1      -8.274   9.880  67.488  1.00  0.00    -0.114 C  
HETATM    3  H   UNL     1      -9.252   9.010  66.030  1.00  0.00     0.000 HD 
ENDROOT
BRANCH   2   4
HETATM    4  C   UNL     1      -7.617  11.252  67.718  1.00  0.00    -0.104 C  
BRANCH   4   5
HETATM    5  N   UNL     1      -8.295  12.299  66.936  1.00  0.00    -0.292 NA 
HETATM    6  H   UNL     1      -9.309  12.188  66.948  1.00  0.00     0.000 HD 
BRANCH   5   7
HETATM    7  C   UNL     1      -7.881  13.625  67.407  1.00  0.00    -0.149 C  
BRANCH   7   8
HETATM    8  C   UNL     1      -8.651  14.030  68.669  1.00  0.00    -0.100 C  
BRANCH   8   9
HETATM    9  N   UNL     1     -10.079  13.921  68.446  1.00  0.00    -0.234 N  
HETATM   10  H   UNL     1     -10.586  13.158  68.895  1.00  0.00     0.000 HD 
BRANCH   9  11
HETATM   11  C   UNL     1     -10.773  14.796  67.660  1.00  0.00    -0.270 C  
HETATM   12  O   UNL     1     -11.226  15.846  68.114  1.00  0.00    -0.338 OA 
BRANCH  11  13
HETATM   13  N   UNL     1     -10.922  14.425  66.341  1.00  0.00    -0.314 N  
HETATM   14  C   UNL     1     -11.674  13.210  66.021  1.00  0.00    -0.379 C  
HETATM   15  C   UNL     1     -12.904  13.547  65.171  1.00  0.00    -0.322 C  
HETATM   16  O   UNL     1     -12.533  14.284  63.992  1.00  0.00    -0.700 OA 
HETATM   17  C   UNL     1     -11.868  15.505  64.347  1.00  0.00    -0.219 C  
HETATM   18  C   UNL     1     -10.594  15.223  65.154  1.00  0.00    -0.430 C  
ENDBRANCH  11  13
ENDBRANCH   9  11
ENDBRANCH   8   9
ENDBRANCH   7   8
ENDBRANCH   5   7
ENDBRANCH   4   5
ENDBRANCH   2   4
BRANCH   2  19
HETATM   19  C   UNL     1      -9.362   9.641  68.544  1.00  0.00    -0.137 C  
BRANCH  19  20
HETATM   20  O   UNL     1     -10.122   8.476  68.194  1.00  0.00    -0.185 OA 
BRANCH  20  21
HETATM   21  C   UNL     1      -9.682   7.313  68.767  1.00  0.00    -0.151 A  
HETATM   22  C   UNL     1     -10.650   6.563  69.437  1.00  0.00    -0.291 A  
HETATM   23  H   UNL     1      -7.717   3.420  70.514  1.00  0.00     0.000 HD 
HETATM   24  O   UNL     1      -8.613   3.732  70.565  1.00  0.00    -0.067 OA 
HETATM   25  C   UNL     1     -10.310   5.355  70.052  1.00  0.00    -0.366 A  
HETATM   26  C   UNL     1      -8.998   4.897  69.976  1.00  0.00    -0.103 A  
HETATM   27  C   UNL     1      -8.374   6.831  68.679  1.00  0.00    -0.120 A  
HETATM   28  C   UNL     1      -8.032   5.621  69.286  1.00  0.00    -0.096 A  
ENDBRANCH  20  21
ENDBRANCH  19  20
ENDBRANCH   2  19
TORSDOF 10
ENDMDL
MODEL      308
REMARK 921   NORMALIZED FREE ENERGY PREDICTED BY IDOCK:   -3.04 KCAL/MOL
REMARK 922        TOTAL FREE ENERGY PREDICTED BY IDOCK:   -5.95 KCAL/MOL
REMARK 923 INTER-LIGAND FREE ENERGY PREDICTED BY IDOCK:   -5.05 KCAL/MOL
REMARK 924 INTRA-LIGAND FREE ENERGY PREDICTED BY IDOCK:   -0.90 KCAL/MOL
REMARK 927      BINDING AFFINITY PREDICTED BY RF-SCORE:    0.00 PKD
ROOT
HETATM    1  O   UNL     1      -8.717   6.717  69.296  1.00  0.00    -0.130 OA 
HETATM    2  C   UNL     1      -8.954   8.045  69.784  1.00  0.00    -0.145 C  
HETATM    3  H   UNL     1      -9.253   6.574  68.525  1.00  0.00     0.000 HD 
ENDROOT
BRANCH   2   4
HETATM    4  C   UNL     1      -8.086   8.276  71.033  1.00  0.00    -0.110 C  
BRANCH   4   5
HETATM    5  N   UNL     1      -7.546   7.004  71.542  1.00  0.00    -0.088 NA 
HETATM    6  H   UNL     1      -6.556   6.895  71.325  1.00  0.00     0.000 HD 
BRANCH   5   7
HETATM    7  C   UNL     1      -7.810   6.887  72.981  1.00  0.00    -0.099 C  
BRANCH   7   8
HETATM    8  C   UNL     1      -8.728   8.014  73.468  1.00  0.00    -0.266 C  
BRANCH   8   9
HETATM    9  N   UNL     1      -9.983   7.471  73.948  1.00  0.00    -0.393 N  
HETATM   10  H   UNL     1     -10.250   7.643  74.917  1.00  0.00     0.000 HD 
BRANCH   9  11
HETATM   11  C   UNL     1     -10.823   6.741  73.157  1.00  0.00    -0.284 C  
HETATM   12  O   UNL     1     -10.872   5.514  73.234  1.00  0.00    -0.253 OA 
BRANCH  11  13
HETATM   13  N   UNL     1     -11.605   7.468  72.284  1.00  0.00    -0.297 N  
HETATM   14  C   UNL     1     -12.383   6.761  71.265  1.00  0.00    -0.344 C  
HETATM   15  C   UNL     1     -13.883   7.012  71.465  1.00  0.00    -0.237 C  
HETATM   16  O   UNL     1     -14.173   8.420  71.493  1.00  0.00    -0.411 OA 
HETATM   17  C   UNL     1     -13.452   9.065  72.553  1.00  0.00    -0.429 C  
HETATM   18  C   UNL     1     -11.939   8.894  72.371  1.00  0.00    -0.250 C  
ENDBRANCH  11  13
ENDBRANCH   9  11
ENDBRANCH   8   9
ENDBRANCH   7   8
ENDBRANCH   5   7
ENDBRANCH   4   5
ENDBRANCH   2   4
BRANCH   2  19
HETATM   19  C   UNL     1      -8.599   9.077  68.706  1.00  0.00    -0.132 C  
BRANCH  19  20
HETATM   20  O   UNL     1      -7.676   8.497  67.773  1.00  0.00    -0.100 OA 
BRANCH  20  21
HETATM   21  C   UNL     1      -7.953   8.758  66.458  1.00  0.00    -0.103 A  
HETATM   22  C   UNL     1      -7.466   7.827  65.539  1.00  0.00    -0.076 A  
HETATM   23  H   UNL     1      -9.183  10.051  62.112  1.00  0.00     0.000 HD 
HETATM   24  O   UNL     1      -8.680   9.303  62.411  1.00  0.00    -0.209 OA 
HETATM   25  C   UNL     1      -7.697   7.993  64.171  1.00  0.00    -0.129 A  
HETATM   26  C   UNL     1      -8.434   9.089  63.733  1.00  0.00    -0.159 A  
HETATM   27  C   UNL     1      -8.709   9.842  66.006  1.00  0.00    -0.156 A  
HETATM   28  C   UNL     1      -8.948  10.007  64.641  1.00  0.00    -0.249 A  
ENDBRANCH  20  21
ENDBRANCH  19  20
ENDBRANCH   2  19
TORSDOF 10
ENDMDL
MODEL      309
REMARK 921   NORMALIZED FREE ENERGY PREDICTED BY IDOCK:   -3.02 KCAL/MOL
REMARK 922        TOTAL FREE ENERGY PREDICTED BY IDOCK:   -5.93 KCAL/MOL
REMARK 923 INTER-LIGAND FREE ENERGY PREDICTED BY IDOCK:   -5.45 KCAL/MOL
REMARK 924 INTRA-LIGAND FREE ENERGY PREDICTED BY IDOCK:   -0.48 KCAL/MOL
REMARK 927      BINDING AFFINITY PREDICTED BY RF-SCORE:    0.00 PKD
ROOT
HETATM    1  O   UNL     1     -11.243   7.549  67.398  1.00  0.00    -0.522 OA 
HETATM    2  C   UNL     1     -10.146   8.470  67.486  1.00  0.00    -0.221 C  
HETATM    3  H   UNL     1     -11.935   7.841  67.980  1.00  0.00     0.000 HD 
ENDROOT
BRANCH   2   4
HETATM    4  C   UNL     1      -9.025   7.997  66.545  1.00  0.00    -0.157 C  
BRANCH   4   5
HETATM    5  N   UNL     1      -9.319   6.658  66.007  1.00  0.00    -0.368 NA 
HETATM    6  H   UNL     1      -9.433   6.670  64.994  1.00  0.00     0.000 HD 
BRANCH   5   7
HETATM    7  C   UNL     1      -8.285   5.708  66.433  1.00  0.00    -0.107 C  
BRANCH   7   8
HETATM    8  C   UNL     1      -8.265   5.560  67.959  1.00  0.00    -0.100 C  
BRANCH   8   9
HETATM    9  N   UNL     1      -7.599   4.331  68.339  1.00  0.00    -0.064 N  
HETATM   10  H   UNL     1      -7.190   3.751  67.606  1.00  0.00     0.000 HD 
BRANCH   9  11
HETATM   11  C   UNL     1      -7.495   3.916  69.636  1.00  0.00    -0.052 C  
HETATM   12  O   UNL     1      -6.562   3.207  70.010  1.00  0.00    -0.032 OA 
BRANCH  11  13
HETATM   13  N   UNL     1      -8.493   4.349  70.483  1.00  0.00    -0.076 N  
HETATM   14  C   UNL     1      -9.710   3.547  70.621  1.00  0.00    -0.125 C  
HETATM   15  C   UNL     1      -9.874   3.064  72.066  1.00  0.00    -0.171 C  
HETATM   16  O   UNL     1      -9.842   4.168  72.988  1.00  0.00    -0.125 OA 
HETATM   17  C   UNL     1      -8.604   4.884  72.878  1.00  0.00    -0.118 C  
HETATM   18  C   UNL     1      -8.414   5.439  71.461  1.00  0.00    -0.127 C  
ENDBRANCH  11  13
ENDBRANCH   9  11
ENDBRANCH   8   9
ENDBRANCH   7   8
ENDBRANCH   5   7
ENDBRANCH   4   5
ENDBRANCH   2   4
BRANCH   2  19
HETATM   19  C   UNL     1     -10.603   9.879  67.084  1.00  0.00    -0.228 C  
BRANCH  19  20
HETATM   20  O   UNL     1     -11.628  10.325  67.983  1.00  0.00    -0.330 OA 
BRANCH  20  21
HETATM   21  C   UNL     1     -11.640  11.675  68.212  1.00  0.00    -0.310 A  
HETATM   22  C   UNL     1     -11.850  12.064  69.536  1.00  0.00    -0.390 A  
HETATM   23  H   UNL     1     -11.552  16.363  68.502  1.00  0.00     0.000 HD 
HETATM   24  O   UNL     1     -11.691  15.708  69.175  1.00  0.00    -0.353 OA 
HETATM   25  C   UNL     1     -11.874  13.418  69.881  1.00  0.00    -0.385 A  
HETATM   26  C   UNL     1     -11.669  14.376  68.894  1.00  0.00    -0.322 A  
HETATM   27  C   UNL     1     -11.413  12.647  67.235  1.00  0.00    -0.402 A  
HETATM   28  C   UNL     1     -11.430  14.000  67.577  1.00  0.00    -0.369 A  
ENDBRANCH  20  21
ENDBRANCH  19  20
ENDBRANCH   2  19
TORSDOF 10
ENDMDL
MODEL      310
REMARK 921   NORMALIZED FREE ENERGY PREDICTED BY IDOCK:   -3.02 KCAL/MOL
REMARK 922        TOTAL FREE ENERGY PREDICTED BY IDOCK:   -5.92 KCAL/MOL
REMARK 923 INTER-LIGAND FREE ENERGY PREDICTED BY IDOCK:   -5.42 KCAL/MOL
REMARK 924 INTRA-LIGAND FREE ENERGY PREDICTED BY IDOCK:   -0.50 KCAL/MOL
REMARK 927      BINDING AFFINITY PREDICTED BY RF-SCORE:    0.00 PKD
ROOT
HETATM    1  O   UNL     1      -8.468   9.842  67.412  1.00  0.00    -0.121 OA 
HETATM    2  C   UNL     1      -7.881  11.131  67.187  1.00  0.00    -0.139 C  
HETATM    3  H   UNL     1      -8.482   9.364  66.592  1.00  0.00     0.000 HD 
ENDROOT
BRANCH   2   4
HETATM    4  C   UNL     1      -7.860  11.906  68.515  1.00  0.00    -0.136 C  
BRANCH   4   5
HETATM    5  N   UNL     1      -8.749  13.078  68.455  1.00  0.00    -0.345 NA 
HETATM    6  H   UNL     1      -8.400  13.851  69.021  1.00  0.00     0.000 HD 
BRANCH   5   7
HETATM    7  C   UNL     1      -8.967  13.472  67.059  1.00  0.00    -0.231 C  
BRANCH   7   8
HETATM    8  C   UNL     1     -10.027  14.575  66.955  1.00  0.00    -0.259 C  
BRANCH   8   9
HETATM    9  N   UNL     1      -9.466  15.757  66.333  1.00  0.00    -0.271 N  
HETATM   10  H   UNL     1      -8.454  15.882  66.348  1.00  0.00     0.000 HD 
BRANCH   9  11
HETATM   11  C   UNL     1     -10.234  16.709  65.726  1.00  0.00    -0.307 C  
HETATM   12  O   UNL     1     -10.761  16.509  64.633  1.00  0.00    -0.713 OA 
BRANCH  11  13
HETATM   13  N   UNL     1     -10.379  17.891  66.421  1.00  0.00    -0.374 N  
HETATM   14  C   UNL     1     -10.282  17.876  67.883  1.00  0.00    -0.371 C  
HETATM   15  C   UNL     1      -9.107  18.742  68.352  1.00  0.00    -0.338 C  
HETATM   16  O   UNL     1      -9.206  20.077  67.827  1.00  0.00    -0.329 OA 
HETATM   17  C   UNL     1      -9.220  20.057  66.392  1.00  0.00    -0.356 C  
HETATM   18  C   UNL     1     -10.412  19.248  65.866  1.00  0.00    -0.451 C  
ENDBRANCH  11  13
ENDBRANCH   9  11
ENDBRANCH   8   9
ENDBRANCH   7   8
ENDBRANCH   5   7
ENDBRANCH   4   5
ENDBRANCH   2   4
BRANCH   2  19
HETATM   19  C   UNL     1      -6.450  10.975  66.654  1.00  0.00    -0.129 C  
BRANCH  19  20
HETATM   20  O   UNL     1      -6.472  10.965  65.219  1.00  0.00     0.002 OA 
BRANCH  20  21
HETATM   21  C   UNL     1      -6.627   9.725  64.659  1.00  0.00    -0.112 A  
HETATM   22  C   UNL     1      -5.717   8.752  65.076  1.00  0.00    -0.051 A  
HETATM   23  H   UNL     1      -7.583   5.659  62.510  1.00  0.00     0.000 HD 
HETATM   24  O   UNL     1      -6.900   5.879  63.132  1.00  0.00    -0.041 OA 
HETATM   25  C   UNL     1      -5.790   7.451  64.572  1.00  0.00    -0.037 A  
HETATM   26  C   UNL     1      -6.790   7.129  63.660  1.00  0.00    -0.052 A  
HETATM   27  C   UNL     1      -7.640   9.382  63.761  1.00  0.00    -0.117 A  
HETATM   28  C   UNL     1      -7.720   8.082  63.260  1.00  0.00    -0.143 A  
ENDBRANCH  20  21
ENDBRANCH  19  20
ENDBRANCH   2  19
TORSDOF 10
ENDMDL
MODEL      311
REMARK 921   NORMALIZED FREE ENERGY PREDICTED BY IDOCK:   -3.01 KCAL/MOL
REMARK 922        TOTAL FREE ENERGY PREDICTED BY IDOCK:   -5.91 KCAL/MOL
REMARK 923 INTER-LIGAND FREE ENERGY PREDICTED BY IDOCK:   -4.97 KCAL/MOL
REMARK 924 INTRA-LIGAND FREE ENERGY PREDICTED BY IDOCK:   -0.93 KCAL/MOL
REMARK 927      BINDING AFFINITY PREDICTED BY RF-SCORE:    0.00 PKD
ROOT
HETATM    1  O   UNL     1     -10.745   6.676  67.934  1.00  0.00    -0.220 OA 
HETATM    2  C   UNL     1      -9.891   7.821  67.809  1.00  0.00    -0.161 C  
HETATM    3  H   UNL     1     -11.543   6.937  68.380  1.00  0.00     0.000 HD 
ENDROOT
BRANCH   2   4
HETATM    4  C   UNL     1      -8.599   7.399  67.089  1.00  0.00    -0.118 C  
BRANCH   4   5
HETATM    5  N   UNL     1      -7.882   6.366  67.855  1.00  0.00    -0.103 NA 
HETATM    6  H   UNL     1      -7.635   5.563  67.275  1.00  0.00     0.000 HD 
BRANCH   5   7
HETATM    7  C   UNL     1      -6.709   6.951  68.513  1.00  0.00    -0.064 C  
BRANCH   7   8
HETATM    8  C   UNL     1      -6.714   6.655  70.017  1.00  0.00    -0.049 C  
BRANCH   8   9
HETATM    9  N   UNL     1      -8.069   6.446  70.487  1.00  0.00    -0.115 N  
HETATM   10  H   UNL     1      -8.551   5.588  70.220  1.00  0.00     0.000 HD 
BRANCH   9  11
HETATM   11  C   UNL     1      -8.728   7.350  71.271  1.00  0.00    -0.126 C  
HETATM   12  O   UNL     1      -8.342   8.513  71.374  1.00  0.00    -0.133 OA 
BRANCH  11  13
HETATM   13  N   UNL     1      -9.844   6.871  71.923  1.00  0.00    -0.165 N  
HETATM   14  C   UNL     1     -10.478   5.640  71.446  1.00  0.00    -0.239 C  
HETATM   15  C   UNL     1     -10.436   4.559  72.532  1.00  0.00    -0.186 C  
HETATM   16  O   UNL     1     -11.022   5.033  73.757  1.00  0.00    -0.297 OA 
HETATM   17  C   UNL     1     -10.327   6.193  74.235  1.00  0.00    -0.274 C  
HETATM   18  C   UNL     1     -10.386   7.330  73.207  1.00  0.00    -0.342 C  
ENDBRANCH  11  13
ENDBRANCH   9  11
ENDBRANCH   8   9
ENDBRANCH   7   8
ENDBRANCH   5   7
ENDBRANCH   4   5
ENDBRANCH   2   4
BRANCH   2  19
HETATM   19  C   UNL     1     -10.596   8.924  67.008  1.00  0.00    -0.209 C  
BRANCH  19  20
HETATM   20  O   UNL     1      -9.827  10.134  67.080  1.00  0.00    -0.176 OA 
BRANCH  20  21
HETATM   21  C   UNL     1     -10.416  11.144  67.792  1.00  0.00    -0.193 A  
HETATM   22  C   UNL     1     -11.484  10.767  68.609  1.00  0.00    -0.365 A  
HETATM   23  H   UNL     1     -12.068  14.917  70.052  1.00  0.00     0.000 HD 
HETATM   24  O   UNL     1     -12.354  14.012  70.077  1.00  0.00    -0.335 OA 
HETATM   25  C   UNL     1     -12.153  11.719  69.384  1.00  0.00    -0.301 A  
HETATM   26  C   UNL     1     -11.733  13.045  69.348  1.00  0.00    -0.326 A  
HETATM   27  C   UNL     1      -9.991  12.474  67.782  1.00  0.00    -0.210 A  
HETATM   28  C   UNL     1     -10.652  13.425  68.561  1.00  0.00    -0.264 A  
ENDBRANCH  20  21
ENDBRANCH  19  20
ENDBRANCH   2  19
TORSDOF 10
ENDMDL
MODEL      312
REMARK 921   NORMALIZED FREE ENERGY PREDICTED BY IDOCK:   -2.99 KCAL/MOL
REMARK 922        TOTAL FREE ENERGY PREDICTED BY IDOCK:   -5.88 KCAL/MOL
REMARK 923 INTER-LIGAND FREE ENERGY PREDICTED BY IDOCK:   -5.24 KCAL/MOL
REMARK 924 INTRA-LIGAND FREE ENERGY PREDICTED BY IDOCK:   -0.64 KCAL/MOL
REMARK 927      BINDING AFFINITY PREDICTED BY RF-SCORE:    0.00 PKD
ROOT
HETATM    1  O   UNL     1      -8.560  14.016  66.288  1.00  0.00    -0.385 OA 
HETATM    2  C   UNL     1      -7.939  12.963  67.039  1.00  0.00    -0.022 C  
HETATM    3  H   UNL     1      -9.189  13.634  65.688  1.00  0.00     0.000 HD 
ENDROOT
BRANCH   2   4
HETATM    4  C   UNL     1      -6.920  13.581  68.011  1.00  0.00    -0.133 C  
BRANCH   4   5
HETATM    5  N   UNL     1      -7.500  13.733  69.356  1.00  0.00    -0.327 NA 
HETATM    6  H   UNL     1      -6.784  13.735  70.082  1.00  0.00     0.000 HD 
BRANCH   5   7
HETATM    7  C   UNL     1      -8.340  14.935  69.407  1.00  0.00    -0.069 C  
BRANCH   7   8
HETATM    8  C   UNL     1      -7.506  16.202  69.185  1.00  0.00    -0.221 C  
BRANCH   8   9
HETATM    9  N   UNL     1      -7.941  16.888  67.985  1.00  0.00    -0.180 N  
HETATM   10  H   UNL     1      -7.480  16.666  67.103  1.00  0.00     0.000 HD 
BRANCH   9  11
HETATM   11  C   UNL     1      -8.940  17.819  67.986  1.00  0.00    -0.263 C  
HETATM   12  O   UNL     1      -8.765  18.949  68.438  1.00  0.00    -0.322 OA 
BRANCH  11  13
HETATM   13  N   UNL     1     -10.139  17.407  67.444  1.00  0.00    -0.310 N  
HETATM   14  C   UNL     1     -10.387  17.616  66.016  1.00  0.00    -0.304 C  
HETATM   15  C   UNL     1     -10.588  16.274  65.303  1.00  0.00    -0.336 C  
HETATM   16  O   UNL     1     -11.630  15.506  65.930  1.00  0.00    -0.025 OA 
HETATM   17  C   UNL     1     -11.316  15.255  67.307  1.00  0.00    -0.269 C  
HETATM   18  C   UNL     1     -11.159  16.568  68.083  1.00  0.00    -0.303 C  
ENDBRANCH  11  13
ENDBRANCH   9  11
ENDBRANCH   8   9
ENDBRANCH   7   8
ENDBRANCH   5   7
ENDBRANCH   4   5
ENDBRANCH   2   4
BRANCH   2  19
HETATM   19  C   UNL     1      -8.997  12.177  67.825  1.00  0.00    -0.179 C  
BRANCH  19  20
HETATM   20  O   UNL     1      -8.397  11.007  68.398  1.00  0.00    -0.125 OA 
BRANCH  20  21
HETATM   21  C   UNL     1      -9.028   9.832  68.091  1.00  0.00    -0.119 A  
HETATM   22  C   UNL     1      -9.952   9.894  67.046  1.00  0.00    -0.254 A  
HETATM   23  H   UNL     1     -10.886   5.575  67.382  1.00  0.00     0.000 HD 
HETATM   24  O   UNL     1     -11.055   6.400  66.943  1.00  0.00    -0.384 OA 
HETATM   25  C   UNL     1     -10.648   8.750  66.646  1.00  0.00    -0.141 A  
HETATM   26  C   UNL     1     -10.399   7.542  67.288  1.00  0.00    -0.296 A  
HETATM   27  C   UNL     1      -8.771   8.607  68.712  1.00  0.00    -0.135 A  
HETATM   28  C   UNL     1      -9.460   7.461  68.310  1.00  0.00    -0.143 A  
ENDBRANCH  20  21
ENDBRANCH  19  20
ENDBRANCH   2  19
TORSDOF 10
ENDMDL
MODEL      313
REMARK 921   NORMALIZED FREE ENERGY PREDICTED BY IDOCK:   -2.96 KCAL/MOL
REMARK 922        TOTAL FREE ENERGY PREDICTED BY IDOCK:   -5.83 KCAL/MOL
REMARK 923 INTER-LIGAND FREE ENERGY PREDICTED BY IDOCK:   -4.80 KCAL/MOL
REMARK 924 INTRA-LIGAND FREE ENERGY PREDICTED BY IDOCK:   -1.03 KCAL/MOL
REMARK 927      BINDING AFFINITY PREDICTED BY RF-SCORE:    0.00 PKD
ROOT
HETATM    1  O   UNL     1      -6.327   7.732  65.182  1.00  0.00    -0.038 OA 
HETATM    2  C   UNL     1      -7.659   7.266  64.923  1.00  0.00    -0.102 C  
HETATM    3  H   UNL     1      -6.016   8.207  64.420  1.00  0.00     0.000 HD 
ENDROOT
BRANCH   2   4
HETATM    4  C   UNL     1      -8.162   6.495  66.156  1.00  0.00    -0.123 C  
BRANCH   4   5
HETATM    5  N   UNL     1      -9.489   5.907  65.904  1.00  0.00    -0.344 NA 
HETATM    6  H   UNL     1      -9.422   4.967  65.513  1.00  0.00     0.000 HD 
BRANCH   5   7
HETATM    7  C   UNL     1     -10.293   5.938  67.131  1.00  0.00    -0.233 C  
BRANCH   7   8
HETATM    8  C   UNL     1     -10.044   4.690  67.986  1.00  0.00    -0.010 C  
BRANCH   8   9
HETATM    9  N   UNL     1      -9.173   5.006  69.100  1.00  0.00    -0.104 N  
HETATM   10  H   UNL     1      -8.169   5.065  68.932  1.00  0.00     0.000 HD 
BRANCH   9  11
HETATM   11  C   UNL     1      -9.639   5.229  70.364  1.00  0.00    -0.179 C  
HETATM   12  O   UNL     1      -9.637   4.341  71.215  1.00  0.00    -0.149 OA 
BRANCH  11  13
HETATM   13  N   UNL     1     -10.099   6.505  70.614  1.00  0.00    -0.184 N  
HETATM   14  C   UNL     1     -11.361   6.680  71.336  1.00  0.00    -0.289 C  
HETATM   15  C   UNL     1     -11.126   7.431  72.652  1.00  0.00    -0.331 C  
HETATM   16  O   UNL     1     -10.453   8.681  72.422  1.00  0.00    -0.320 OA 
HETATM   17  C   UNL     1      -9.187   8.464  71.783  1.00  0.00    -0.220 C  
HETATM   18  C   UNL     1      -9.367   7.763  70.431  1.00  0.00    -0.160 C  
ENDBRANCH  11  13
ENDBRANCH   9  11
ENDBRANCH   8   9
ENDBRANCH   7   8
ENDBRANCH   5   7
ENDBRANCH   4   5
ENDBRANCH   2   4
BRANCH   2  19
HETATM   19  C   UNL     1      -8.589   8.453  64.637  1.00  0.00    -0.018 C  
BRANCH  19  20
HETATM   20  O   UNL     1      -9.117   8.956  65.872  1.00  0.00    -0.190 OA 
BRANCH  20  21
HETATM   21  C   UNL     1      -9.511  10.267  65.833  1.00  0.00    -0.190 A  
HETATM   22  C   UNL     1      -8.868  11.121  66.731  1.00  0.00    -0.162 A  
HETATM   23  H   UNL     1     -11.157  14.634  65.297  1.00  0.00     0.000 HD 
HETATM   24  O   UNL     1     -10.504  14.293  65.896  1.00  0.00    -0.287 OA 
HETATM   25  C   UNL     1      -9.190  12.480  66.770  1.00  0.00    -0.217 A  
HETATM   26  C   UNL     1     -10.147  12.979  65.893  1.00  0.00    -0.288 A  
HETATM   27  C   UNL     1     -10.454  10.785  64.943  1.00  0.00    -0.324 A  
HETATM   28  C   UNL     1     -10.773  12.144  64.975  1.00  0.00    -0.338 A  
ENDBRANCH  20  21
ENDBRANCH  19  20
ENDBRANCH   2  19
TORSDOF 10
ENDMDL
MODEL      314
REMARK 921   NORMALIZED FREE ENERGY PREDICTED BY IDOCK:   -2.96 KCAL/MOL
REMARK 922        TOTAL FREE ENERGY PREDICTED BY IDOCK:   -5.83 KCAL/MOL
REMARK 923 INTER-LIGAND FREE ENERGY PREDICTED BY IDOCK:   -4.87 KCAL/MOL
REMARK 924 INTRA-LIGAND FREE ENERGY PREDICTED BY IDOCK:   -0.96 KCAL/MOL
REMARK 927      BINDING AFFINITY PREDICTED BY RF-SCORE:    0.00 PKD
ROOT
HETATM    1  O   UNL     1      -8.758   9.607  69.133  1.00  0.00    -0.135 OA 
HETATM    2  C   UNL     1      -8.607  10.070  67.784  1.00  0.00    -0.118 C  
HETATM    3  H   UNL     1      -9.446  10.108  69.554  1.00  0.00     0.000 HD 
ENDROOT
BRANCH   2   4
HETATM    4  C   UNL     1      -7.493   9.258  67.102  1.00  0.00    -0.091 C  
BRANCH   4   5
HETATM    5  N   UNL     1      -7.973   8.652  65.849  1.00  0.00    -0.101 NA 
HETATM    6  H   UNL     1      -7.530   9.067  65.029  1.00  0.00     0.000 HD 
BRANCH   5   7
HETATM    7  C   UNL     1      -7.794   7.196  65.894  1.00  0.00    -0.106 C  
BRANCH   7   8
HETATM    8  C   UNL     1      -7.541   6.627  64.493  1.00  0.00    -0.103 C  
BRANCH   8   9
HETATM    9  N   UNL     1      -8.704   5.899  64.026  1.00  0.00    -0.339 N  
HETATM   10  H   UNL     1      -9.510   6.429  63.696  1.00  0.00     0.000 HD 
BRANCH   9  11
HETATM   11  C   UNL     1      -8.766   4.535  64.010  1.00  0.00    -0.139 C  
HETATM   12  O   UNL     1      -8.218   3.878  63.126  1.00  0.00    -0.082 OA 
BRANCH  11  13
HETATM   13  N   UNL     1      -9.470   3.957  65.045  1.00  0.00    -0.159 N  
HETATM   14  C   UNL     1      -9.109   2.609  65.489  1.00  0.00    -0.127 C  
HETATM   15  C   UNL     1      -8.650   2.630  66.952  1.00  0.00    -0.110 C  
HETATM   16  O   UNL     1      -9.645   3.234  67.798  1.00  0.00    -0.200 OA 
HETATM   17  C   UNL     1      -9.917   4.579  67.380  1.00  0.00    -0.120 C  
HETATM   18  C   UNL     1     -10.434   4.612  65.936  1.00  0.00    -0.268 C  
ENDBRANCH  11  13
ENDBRANCH   9  11
ENDBRANCH   8   9
ENDBRANCH   7   8
ENDBRANCH   5   7
ENDBRANCH   4   5
ENDBRANCH   2   4
BRANCH   2  19
HETATM   19  C   UNL     1      -9.923   9.895  67.013  1.00  0.00    -0.200 C  
BRANCH  19  20
HETATM   20  O   UNL     1     -10.103  11.000  66.116  1.00  0.00    -0.221 OA 
BRANCH  20  21
HETATM   21  C   UNL     1     -10.500  12.165  66.717  1.00  0.00    -0.218 A  
HETATM   22  C   UNL     1      -9.819  13.316  66.316  1.00  0.00    -0.288 A  
HETATM   23  H   UNL     1     -12.232  15.885  69.003  1.00  0.00     0.000 HD 
HETATM   24  O   UNL     1     -11.531  15.829  68.365  1.00  0.00    -0.362 OA 
HETATM   25  C   UNL     1     -10.150  14.560  66.861  1.00  0.00    -0.257 A  
HETATM   26  C   UNL     1     -11.176  14.643  67.797  1.00  0.00    -0.308 A  
HETATM   27  C   UNL     1     -11.543  12.266  67.640  1.00  0.00    -0.421 A  
HETATM   28  C   UNL     1     -11.880  13.508  68.181  1.00  0.00    -0.400 A  
ENDBRANCH  20  21
ENDBRANCH  19  20
ENDBRANCH   2  19
TORSDOF 10
ENDMDL
MODEL      315
REMARK 921   NORMALIZED FREE ENERGY PREDICTED BY IDOCK:   -2.95 KCAL/MOL
REMARK 922        TOTAL FREE ENERGY PREDICTED BY IDOCK:   -5.81 KCAL/MOL
REMARK 923 INTER-LIGAND FREE ENERGY PREDICTED BY IDOCK:   -4.76 KCAL/MOL
REMARK 924 INTRA-LIGAND FREE ENERGY PREDICTED BY IDOCK:   -1.05 KCAL/MOL
REMARK 927      BINDING AFFINITY PREDICTED BY RF-SCORE:    0.00 PKD
ROOT
HETATM    1  O   UNL     1     -10.459   6.019  68.073  1.00  0.00    -0.183 OA 
HETATM    2  C   UNL     1      -9.445   6.805  67.431  1.00  0.00    -0.134 C  
HETATM    3  H   UNL     1     -11.022   6.598  68.573  1.00  0.00     0.000 HD 
ENDROOT
BRANCH   2   4
HETATM    4  C   UNL     1      -8.531   5.868  66.621  1.00  0.00    -0.111 C  
BRANCH   4   5
HETATM    5  N   UNL     1      -7.858   4.898  67.502  1.00  0.00    -0.094 NA 
HETATM    6  H   UNL     1      -7.445   4.128  66.976  1.00  0.00     0.000 HD 
BRANCH   5   7
HETATM    7  C   UNL     1      -6.870   5.585  68.342  1.00  0.00    -0.059 C  
BRANCH   7   8
HETATM    8  C   UNL     1      -6.957   5.112  69.797  1.00  0.00    -0.054 C  
BRANCH   8   9
HETATM    9  N   UNL     1      -8.325   5.187  70.271  1.00  0.00    -0.096 N  
HETATM   10  H   UNL     1      -8.998   4.501  69.929  1.00  0.00     0.000 HD 
BRANCH   9  11
HETATM   11  C   UNL     1      -8.750   6.135  71.157  1.00  0.00    -0.132 C  
HETATM   12  O   UNL     1      -8.295   7.278  71.141  1.00  0.00    -0.110 OA 
BRANCH  11  13
HETATM   13  N   UNL     1      -9.717   5.727  72.051  1.00  0.00    -0.154 N  
HETATM   14  C   UNL     1     -10.318   4.400  71.895  1.00  0.00    -0.097 C  
HETATM   15  C   UNL     1     -10.032   3.534  73.127  1.00  0.00    -0.134 C  
HETATM   16  O   UNL     1     -10.463   4.189  74.333  1.00  0.00    -0.213 OA 
HETATM   17  C   UNL     1      -9.796   5.449  74.491  1.00  0.00    -0.218 C  
HETATM   18  C   UNL     1     -10.094   6.380  73.309  1.00  0.00    -0.200 C  
ENDBRANCH  11  13
ENDBRANCH   9  11
ENDBRANCH   8   9
ENDBRANCH   7   8
ENDBRANCH   5   7
ENDBRANCH   4   5
ENDBRANCH   2   4
BRANCH   2  19
HETATM   19  C   UNL     1     -10.087   7.839  66.496  1.00  0.00    -0.154 C  
BRANCH  19  20
HETATM   20  O   UNL     1      -9.368   9.077  66.585  1.00  0.00    -0.154 OA 
BRANCH  20  21
HETATM   21  C   UNL     1     -10.147  10.198  66.489  1.00  0.00    -0.234 A  
HETATM   22  C   UNL     1     -10.077  10.883  65.274  1.00  0.00    -0.340 A  
HETATM   23  H   UNL     1     -13.006  13.923  66.621  1.00  0.00     0.000 HD 
HETATM   24  O   UNL     1     -12.432  13.614  65.931  1.00  0.00    -0.453 OA 
HETATM   25  C   UNL     1     -10.837  12.037  65.067  1.00  0.00    -0.351 A  
HETATM   26  C   UNL     1     -11.678  12.490  66.078  1.00  0.00    -0.417 A  
HETATM   27  C   UNL     1     -11.012  10.652  67.487  1.00  0.00    -0.371 A  
HETATM   28  C   UNL     1     -11.777  11.801  67.281  1.00  0.00    -0.293 A  
ENDBRANCH  20  21
ENDBRANCH  19  20
ENDBRANCH   2  19
TORSDOF 10
ENDMDL
MODEL      316
REMARK 921   NORMALIZED FREE ENERGY PREDICTED BY IDOCK:   -2.91 KCAL/MOL
REMARK 922        TOTAL FREE ENERGY PREDICTED BY IDOCK:   -5.76 KCAL/MOL
REMARK 923 INTER-LIGAND FREE ENERGY PREDICTED BY IDOCK:   -4.98 KCAL/MOL
REMARK 924 INTRA-LIGAND FREE ENERGY PREDICTED BY IDOCK:   -0.77 KCAL/MOL
REMARK 927      BINDING AFFINITY PREDICTED BY RF-SCORE:    0.00 PKD
ROOT
HETATM    1  O   UNL     1      -9.451   8.284  65.215  1.00  0.00    -0.361 OA 
HETATM    2  C   UNL     1      -8.610   7.381  65.945  1.00  0.00    -0.153 C  
HETATM    3  H   UNL     1     -10.100   7.781  64.738  1.00  0.00     0.000 HD 
ENDROOT
BRANCH   2   4
HETATM    4  C   UNL     1      -7.559   8.197  66.717  1.00  0.00    -0.094 C  
BRANCH   4   5
HETATM    5  N   UNL     1      -7.967   9.607  66.832  1.00  0.00    -0.105 NA 
HETATM    6  H   UNL     1      -8.735   9.835  66.200  1.00  0.00     0.000 HD 
BRANCH   5   7
HETATM    7  C   UNL     1      -8.290   9.924  68.228  1.00  0.00    -0.110 C  
BRANCH   7   8
HETATM    8  C   UNL     1      -9.738  10.408  68.364  1.00  0.00    -0.158 C  
BRANCH   8   9
HETATM    9  N   UNL     1     -10.050  11.367  67.324  1.00  0.00    -0.190 N  
HETATM   10  H   UNL     1      -9.290  11.723  66.745  1.00  0.00     0.000 HD 
BRANCH   9  11
HETATM   11  C   UNL     1     -11.318  11.814  67.085  1.00  0.00    -0.322 C  
HETATM   12  O   UNL     1     -12.246  11.549  67.847  1.00  0.00    -0.586 OA 
BRANCH  11  13
HETATM   13  N   UNL     1     -11.478  12.578  65.949  1.00  0.00    -0.353 N  
HETATM   14  C   UNL     1     -12.720  13.331  65.763  1.00  0.00    -0.231 C  
HETATM   15  C   UNL     1     -12.432  14.835  65.697  1.00  0.00     0.019 C  
HETATM   16  O   UNL     1     -11.459  15.131  64.679  1.00  0.00    -0.397 OA 
HETATM   17  C   UNL     1     -10.230  14.437  64.936  1.00  0.00    -0.324 C  
HETATM   18  C   UNL     1     -10.451  12.919  64.958  1.00  0.00    -0.318 C  
ENDBRANCH  11  13
ENDBRANCH   9  11
ENDBRANCH   8   9
ENDBRANCH   7   8
ENDBRANCH   5   7
ENDBRANCH   4   5
ENDBRANCH   2   4
BRANCH   2  19
HETATM   19  C   UNL     1      -9.449   6.552  66.927  1.00  0.00    -0.152 C  
BRANCH  19  20
HETATM   20  O   UNL     1      -8.849   5.260  67.098  1.00  0.00    -0.111 OA 
BRANCH  20  21
HETATM   21  C   UNL     1      -9.167   4.633  68.272  1.00  0.00    -0.128 A  
HETATM   22  C   UNL     1      -9.256   3.241  68.212  1.00  0.00    -0.239 A  
HETATM   23  H   UNL     1     -10.228   2.943  72.525  1.00  0.00     0.000 HD 
HETATM   24  O   UNL     1     -10.088   2.491  71.702  1.00  0.00    -0.144 OA 
HETATM   25  C   UNL     1      -9.569   2.501  69.355  1.00  0.00    -0.042 A  
HETATM   26  C   UNL     1      -9.773   3.164  70.561  1.00  0.00    -0.047 A  
HETATM   27  C   UNL     1      -9.352   5.284  69.494  1.00  0.00    -0.176 A  
HETATM   28  C   UNL     1      -9.658   4.547  70.640  1.00  0.00    -0.260 A  
ENDBRANCH  20  21
ENDBRANCH  19  20
ENDBRANCH   2  19
TORSDOF 10
ENDMDL
MODEL      317
REMARK 921   NORMALIZED FREE ENERGY PREDICTED BY IDOCK:   -2.91 KCAL/MOL
REMARK 922        TOTAL FREE ENERGY PREDICTED BY IDOCK:   -5.74 KCAL/MOL
REMARK 923 INTER-LIGAND FREE ENERGY PREDICTED BY IDOCK:   -4.60 KCAL/MOL
REMARK 924 INTRA-LIGAND FREE ENERGY PREDICTED BY IDOCK:   -1.14 KCAL/MOL
REMARK 927      BINDING AFFINITY PREDICTED BY RF-SCORE:    0.00 PKD
ROOT
HETATM    1  O   UNL     1      -8.816   8.102  68.727  1.00  0.00    -0.137 OA 
HETATM    2  C   UNL     1      -9.403   8.919  69.749  1.00  0.00    -0.166 C  
HETATM    3  H   UNL     1      -9.412   8.060  67.988  1.00  0.00     0.000 HD 
ENDROOT
BRANCH   2   4
HETATM    4  C   UNL     1      -8.439   8.985  70.945  1.00  0.00    -0.208 C  
BRANCH   4   5
HETATM    5  N   UNL     1      -7.806   7.678  71.185  1.00  0.00    -0.088 NA 
HETATM    6  H   UNL     1      -6.858   7.637  70.808  1.00  0.00     0.000 HD 
BRANCH   5   7
HETATM    7  C   UNL     1      -7.843   7.356  72.616  1.00  0.00    -0.096 C  
BRANCH   7   8
HETATM    8  C   UNL     1      -8.777   8.308  73.372  1.00  0.00    -0.204 C  
BRANCH   8   9
HETATM    9  N   UNL     1      -9.932   7.590  73.873  1.00  0.00    -0.393 N  
HETATM   10  H   UNL     1      -9.929   7.279  74.844  1.00  0.00     0.000 HD 
BRANCH   9  11
HETATM   11  C   UNL     1     -11.023   7.312  73.100  1.00  0.00    -0.340 C  
HETATM   12  O   UNL     1     -11.885   8.160  72.878  1.00  0.00    -0.352 OA 
BRANCH  11  13
HETATM   13  N   UNL     1     -11.081   6.033  72.588  1.00  0.00    -0.260 N  
HETATM   14  C   UNL     1     -11.196   5.847  71.140  1.00  0.00    -0.211 C  
HETATM   15  C   UNL     1      -9.981   5.087  70.598  1.00  0.00    -0.230 C  
HETATM   16  O   UNL     1      -9.798   3.841  71.293  1.00  0.00    -0.178 OA 
HETATM   17  C   UNL     1      -9.611   4.067  72.698  1.00  0.00    -0.136 C  
HETATM   18  C   UNL     1     -10.827   4.778  73.306  1.00  0.00    -0.281 C  
ENDBRANCH  11  13
ENDBRANCH   9  11
ENDBRANCH   8   9
ENDBRANCH   7   8
ENDBRANCH   5   7
ENDBRANCH   4   5
ENDBRANCH   2   4
BRANCH   2  19
HETATM   19  C   UNL     1      -9.664  10.333  69.213  1.00  0.00    -0.225 C  
BRANCH  19  20
HETATM   20  O   UNL     1      -8.581  10.729  68.360  1.00  0.00    -0.128 OA 
BRANCH  20  21
HETATM   21  C   UNL     1      -8.244  12.054  68.443  1.00  0.00    -0.151 A  
HETATM   22  C   UNL     1      -9.302  12.957  68.331  1.00  0.00    -0.147 A  
HETATM   23  H   UNL     1      -6.609  16.441  68.830  1.00  0.00     0.000 HD 
HETATM   24  O   UNL     1      -7.493  16.125  68.689  1.00  0.00    -0.158 OA 
HETATM   25  C   UNL     1      -9.070  14.333  68.408  1.00  0.00    -0.194 A  
HETATM   26  C   UNL     1      -7.774  14.795  68.615  1.00  0.00    -0.130 A  
HETATM   27  C   UNL     1      -6.952  12.530  68.672  1.00  0.00    -0.091 A  
HETATM   28  C   UNL     1      -6.717  13.904  68.757  1.00  0.00    -0.102 A  
ENDBRANCH  20  21
ENDBRANCH  19  20
ENDBRANCH   2  19
TORSDOF 10
ENDMDL
MODEL      318
REMARK 921   NORMALIZED FREE ENERGY PREDICTED BY IDOCK:   -2.90 KCAL/MOL
REMARK 922        TOTAL FREE ENERGY PREDICTED BY IDOCK:   -5.73 KCAL/MOL
REMARK 923 INTER-LIGAND FREE ENERGY PREDICTED BY IDOCK:   -5.40 KCAL/MOL
REMARK 924 INTRA-LIGAND FREE ENERGY PREDICTED BY IDOCK:   -0.32 KCAL/MOL
REMARK 927      BINDING AFFINITY PREDICTED BY RF-SCORE:    0.00 PKD
ROOT
HETATM    1  O   UNL     1      -9.219   9.482  71.378  1.00  0.00    -0.311 OA 
HETATM    2  C   UNL     1      -9.628   9.554  70.005  1.00  0.00    -0.238 C  
HETATM    3  H   UNL     1      -9.580  10.227  71.845  1.00  0.00     0.000 HD 
ENDROOT
BRANCH   2   4
HETATM    4  C   UNL     1      -9.042   8.349  69.250  1.00  0.00    -0.150 C  
BRANCH   4   5
HETATM    5  N   UNL     1      -9.654   7.091  69.710  1.00  0.00    -0.152 NA 
HETATM    6  H   UNL     1      -9.791   6.431  68.944  1.00  0.00     0.000 HD 
BRANCH   5   7
HETATM    7  C   UNL     1      -8.858   6.514  70.799  1.00  0.00    -0.144 C  
BRANCH   7   8
HETATM    8  C   UNL     1      -8.011   5.338  70.301  1.00  0.00    -0.084 C  
BRANCH   8   9
HETATM    9  N   UNL     1      -7.883   4.333  71.338  1.00  0.00    -0.078 N  
HETATM   10  H   UNL     1      -7.793   3.356  71.062  1.00  0.00     0.000 HD 
BRANCH   9  11
HETATM   11  C   UNL     1      -7.876   4.640  72.669  1.00  0.00    -0.088 C  
HETATM   12  O   UNL     1      -7.030   5.391  73.150  1.00  0.00    -0.076 OA 
BRANCH  11  13
HETATM   13  N   UNL     1      -8.877   4.062  73.420  1.00  0.00    -0.097 N  
HETATM   14  C   UNL     1      -9.923   4.912  73.992  1.00  0.00    -0.175 C  
HETATM   15  C   UNL     1     -11.297   4.524  73.432  1.00  0.00    -0.286 C  
HETATM   16  O   UNL     1     -11.562   3.124  73.634  1.00  0.00    -0.172 OA 
HETATM   17  C   UNL     1     -10.559   2.321  72.995  1.00  0.00    -0.156 C  
HETATM   18  C   UNL     1      -9.166   2.630  73.558  1.00  0.00    -0.084 C  
ENDBRANCH  11  13
ENDBRANCH   9  11
ENDBRANCH   8   9
ENDBRANCH   7   8
ENDBRANCH   5   7
ENDBRANCH   4   5
ENDBRANCH   2   4
BRANCH   2  19
HETATM   19  C   UNL     1     -11.159   9.536  69.906  1.00  0.00    -0.216 C  
BRANCH  19  20
HETATM   20  O   UNL     1     -11.583  10.439  68.876  1.00  0.00    -0.225 OA 
BRANCH  20  21
HETATM   21  C   UNL     1     -11.859  11.709  69.307  1.00  0.00    -0.331 A  
HETATM   22  C   UNL     1     -11.764  12.712  68.340  1.00  0.00    -0.377 A  
HETATM   23  H   UNL     1     -12.933  15.855  71.238  1.00  0.00     0.000 HD 
HETATM   24  O   UNL     1     -12.674  15.639  70.350  1.00  0.00    -0.425 OA 
HETATM   25  C   UNL     1     -12.032  14.042  68.672  1.00  0.00    -0.389 A  
HETATM   26  C   UNL     1     -12.411  14.358  69.973  1.00  0.00    -0.336 A  
HETATM   27  C   UNL     1     -12.262  12.036  70.603  1.00  0.00    -0.409 A  
HETATM   28  C   UNL     1     -12.537  13.364  70.936  1.00  0.00    -0.406 A  
ENDBRANCH  20  21
ENDBRANCH  19  20
ENDBRANCH   2  19
TORSDOF 10
ENDMDL
MODEL      319
REMARK 921   NORMALIZED FREE ENERGY PREDICTED BY IDOCK:   -2.86 KCAL/MOL
REMARK 922        TOTAL FREE ENERGY PREDICTED BY IDOCK:   -5.67 KCAL/MOL
REMARK 923 INTER-LIGAND FREE ENERGY PREDICTED BY IDOCK:   -5.21 KCAL/MOL
REMARK 924 INTRA-LIGAND FREE ENERGY PREDICTED BY IDOCK:   -0.46 KCAL/MOL
REMARK 927      BINDING AFFINITY PREDICTED BY RF-SCORE:    0.00 PKD
ROOT
HETATM    1  O   UNL     1      -8.873   9.869  66.677  1.00  0.00    -0.133 OA 
HETATM    2  C   UNL     1      -8.445  10.194  68.007  1.00  0.00    -0.118 C  
HETATM    3  H   UNL     1      -9.217   8.983  66.674  1.00  0.00     0.000 HD 
ENDROOT
BRANCH   2   4
HETATM    4  C   UNL     1      -7.887  11.628  68.011  1.00  0.00    -0.128 C  
BRANCH   4   5
HETATM    5  N   UNL     1      -8.346  12.375  66.828  1.00  0.00    -0.366 NA 
HETATM    6  H   UNL     1      -9.223  12.006  66.459  1.00  0.00     0.000 HD 
BRANCH   5   7
HETATM    7  C   UNL     1      -8.441  13.805  67.143  1.00  0.00    -0.175 C  
BRANCH   7   8
HETATM    8  C   UNL     1      -9.520  14.068  68.199  1.00  0.00    -0.215 C  
BRANCH   8   9
HETATM    9  N   UNL     1     -10.612  14.830  67.627  1.00  0.00    -0.259 N  
HETATM   10  H   UNL     1     -11.365  14.325  67.159  1.00  0.00     0.000 HD 
BRANCH   9  11
HETATM   11  C   UNL     1     -10.675  16.192  67.687  1.00  0.00    -0.318 C  
HETATM   12  O   UNL     1     -11.234  16.768  68.619  1.00  0.00    -0.298 OA 
BRANCH  11  13
HETATM   13  N   UNL     1     -10.070  16.865  66.647  1.00  0.00    -0.293 N  
HETATM   14  C   UNL     1     -10.903  17.564  65.667  1.00  0.00     0.013 C  
HETATM   15  C   UNL     1     -10.601  19.067  65.681  1.00  0.00    -0.207 C  
HETATM   16  O   UNL     1      -9.199  19.315  65.478  1.00  0.00    -0.160 OA 
HETATM   17  C   UNL     1      -8.419  18.679  66.500  1.00  0.00    -0.291 C  
HETATM   18  C   UNL     1      -8.641  17.161  66.495  1.00  0.00    -0.271 C  
ENDBRANCH  11  13
ENDBRANCH   9  11
ENDBRANCH   8   9
ENDBRANCH   7   8
ENDBRANCH   5   7
ENDBRANCH   4   5
ENDBRANCH   2   4
BRANCH   2  19
HETATM   19  C   UNL     1      -9.626  10.093  68.983  1.00  0.00    -0.196 C  
BRANCH  19  20
HETATM   20  O   UNL     1     -10.013   8.719  69.125  1.00  0.00    -0.181 OA 
BRANCH  20  21
HETATM   21  C   UNL     1     -10.187   8.305  70.419  1.00  0.00    -0.201 A  
HETATM   22  C   UNL     1     -11.356   7.586  70.673  1.00  0.00    -0.301 A  
HETATM   23  H   UNL     1     -10.314   7.074  74.950  1.00  0.00     0.000 HD 
HETATM   24  O   UNL     1     -10.937   6.913  74.253  1.00  0.00     0.177 OA 
HETATM   25  C   UNL     1     -11.629   7.110  71.959  1.00  0.00    -0.317 A  
HETATM   26  C   UNL     1     -10.715   7.347  72.981  1.00  0.00    -0.364 A  
HETATM   27  C   UNL     1      -9.268   8.516  71.449  1.00  0.00    -0.272 A  
HETATM   28  C   UNL     1      -9.534   8.037  72.733  1.00  0.00    -0.336 A  
ENDBRANCH  20  21
ENDBRANCH  19  20
ENDBRANCH   2  19
TORSDOF 10
ENDMDL
MODEL      320
REMARK 921   NORMALIZED FREE ENERGY PREDICTED BY IDOCK:   -2.85 KCAL/MOL
REMARK 922        TOTAL FREE ENERGY PREDICTED BY IDOCK:   -5.66 KCAL/MOL
REMARK 923 INTER-LIGAND FREE ENERGY PREDICTED BY IDOCK:   -4.95 KCAL/MOL
REMARK 924 INTRA-LIGAND FREE ENERGY PREDICTED BY IDOCK:   -0.70 KCAL/MOL
REMARK 927      BINDING AFFINITY PREDICTED BY RF-SCORE:    0.00 PKD
ROOT
HETATM    1  O   UNL     1      -9.803   7.426  65.894  1.00  0.00    -0.398 OA 
HETATM    2  C   UNL     1      -8.850   8.169  66.667  1.00  0.00    -0.143 C  
HETATM    3  H   UNL     1      -9.675   6.499  66.059  1.00  0.00     0.000 HD 
ENDROOT
BRANCH   2   4
HETATM    4  C   UNL     1      -9.056   9.670  66.399  1.00  0.00    -0.156 C  
BRANCH   4   5
HETATM    5  N   UNL     1     -10.363   9.917  65.768  1.00  0.00    -0.169 NA 
HETATM    6  H   UNL     1     -11.133   9.811  66.429  1.00  0.00     0.000 HD 
BRANCH   5   7
HETATM    7  C   UNL     1     -10.368  11.236  65.125  1.00  0.00    -0.295 C  
BRANCH   7   8
HETATM    8  C   UNL     1     -11.425  12.153  65.751  1.00  0.00    -0.361 C  
BRANCH   8   9
HETATM    9  N   UNL     1     -10.889  12.812  66.925  1.00  0.00    -0.250 N  
HETATM   10  H   UNL     1     -11.260  12.555  67.840  1.00  0.00     0.000 HD 
BRANCH   9  11
HETATM   11  C   UNL     1      -9.910  13.761  66.859  1.00  0.00    -0.264 C  
HETATM   12  O   UNL     1      -8.720  13.464  66.956  1.00  0.00    -0.216 OA 
BRANCH  11  13
HETATM   13  N   UNL     1     -10.345  15.056  66.670  1.00  0.00    -0.272 N  
HETATM   14  C   UNL     1     -11.406  15.585  67.530  1.00  0.00    -0.232 C  
HETATM   15  C   UNL     1     -10.896  16.784  68.336  1.00  0.00    -0.355 C  
HETATM   16  O   UNL     1     -10.343  17.792  67.472  1.00  0.00    -0.340 OA 
HETATM   17  C   UNL     1      -9.256  17.258  66.702  1.00  0.00    -0.257 C  
HETATM   18  C   UNL     1      -9.724  16.086  65.830  1.00  0.00    -0.343 C  
ENDBRANCH  11  13
ENDBRANCH   9  11
ENDBRANCH   8   9
ENDBRANCH   7   8
ENDBRANCH   5   7
ENDBRANCH   4   5
ENDBRANCH   2   4
BRANCH   2  19
HETATM   19  C   UNL     1      -9.038   7.878  68.162  1.00  0.00    -0.133 C  
BRANCH  19  20
HETATM   20  O   UNL     1      -8.570   8.995  68.931  1.00  0.00    -0.128 OA 
BRANCH  20  21
HETATM   21  C   UNL     1      -7.990   8.664  70.126  1.00  0.00    -0.103 A  
HETATM   22  C   UNL     1      -8.511   7.535  70.761  1.00  0.00    -0.126 A  
HETATM   23  H   UNL     1      -5.664   7.909  74.137  1.00  0.00     0.000 HD 
HETATM   24  O   UNL     1      -6.387   7.432  73.747  1.00  0.00    -0.067 OA 
HETATM   25  C   UNL     1      -7.987   7.106  71.983  1.00  0.00    -0.092 A  
HETATM   26  C   UNL     1      -6.928   7.804  72.554  1.00  0.00    -0.074 A  
HETATM   27  C   UNL     1      -6.912   9.342  70.699  1.00  0.00    -0.115 A  
HETATM   28  C   UNL     1      -6.382   8.911  71.916  1.00  0.00    -0.062 A  
ENDBRANCH  20  21
ENDBRANCH  19  20
ENDBRANCH   2  19
TORSDOF 10
ENDMDL
MODEL      321
REMARK 921   NORMALIZED FREE ENERGY PREDICTED BY IDOCK:   -2.74 KCAL/MOL
REMARK 922        TOTAL FREE ENERGY PREDICTED BY IDOCK:   -5.49 KCAL/MOL
REMARK 923 INTER-LIGAND FREE ENERGY PREDICTED BY IDOCK:   -4.58 KCAL/MOL
REMARK 924 INTRA-LIGAND FREE ENERGY PREDICTED BY IDOCK:   -0.91 KCAL/MOL
REMARK 927      BINDING AFFINITY PREDICTED BY RF-SCORE:    0.00 PKD
ROOT
HETATM    1  O   UNL     1      -8.651   7.958  68.899  1.00  0.00    -0.130 OA 
HETATM    2  C   UNL     1      -8.106   9.269  69.105  1.00  0.00    -0.106 C  
HETATM    3  H   UNL     1      -9.445   8.035  68.383  1.00  0.00     0.000 HD 
ENDROOT
BRANCH   2   4
HETATM    4  C   UNL     1      -6.821   9.145  69.942  1.00  0.00    -0.052 C  
BRANCH   4   5
HETATM    5  N   UNL     1      -6.532   7.736  70.257  1.00  0.00    -0.037 NA 
HETATM    6  H   UNL     1      -5.836   7.338  69.626  1.00  0.00     0.000 HD 
BRANCH   5   7
HETATM    7  C   UNL     1      -6.136   7.607  71.664  1.00  0.00    -0.035 C  
BRANCH   7   8
HETATM    8  C   UNL     1      -6.814   8.676  72.529  1.00  0.00     0.000 C  
BRANCH   8   9
HETATM    9  N   UNL     1      -7.855   8.082  73.343  1.00  0.00    -0.161 N  
HETATM   10  H   UNL     1      -8.046   8.485  74.260  1.00  0.00     0.000 HD 
BRANCH   9  11
HETATM   11  C   UNL     1      -8.590   7.006  72.935  1.00  0.00    -0.114 C  
HETATM   12  O   UNL     1      -8.289   5.860  73.265  1.00  0.00    -0.116 OA 
BRANCH  11  13
HETATM   13  N   UNL     1      -9.681   7.295  72.143  1.00  0.00    -0.152 N  
HETATM   14  C   UNL     1     -10.411   6.197  71.505  1.00  0.00    -0.222 C  
HETATM   15  C   UNL     1     -11.862   6.158  72.001  1.00  0.00    -0.280 C  
HETATM   16  O   UNL     1     -12.510   7.427  71.807  1.00  0.00    -0.314 OA 
HETATM   17  C   UNL     1     -11.810   8.465  72.509  1.00  0.00    -0.358 C  
HETATM   18  C   UNL     1     -10.365   8.586  72.012  1.00  0.00    -0.338 C  
ENDBRANCH  11  13
ENDBRANCH   9  11
ENDBRANCH   8   9
ENDBRANCH   7   8
ENDBRANCH   5   7
ENDBRANCH   4   5
ENDBRANCH   2   4
BRANCH   2  19
HETATM   19  C   UNL     1      -7.787   9.929  67.758  1.00  0.00    -0.094 C  
BRANCH  19  20
HETATM   20  O   UNL     1      -8.982  10.005  66.967  1.00  0.00    -0.137 OA 
BRANCH  20  21
HETATM   21  C   UNL     1      -9.608  11.223  66.993  1.00  0.00    -0.178 A  
HETATM   22  C   UNL     1      -8.840  12.290  67.464  1.00  0.00    -0.182 A  
HETATM   23  H   UNL     1     -12.154  15.168  66.854  1.00  0.00     0.000 HD 
HETATM   24  O   UNL     1     -11.263  15.023  67.146  1.00  0.00    -0.331 OA 
HETATM   25  C   UNL     1      -9.380  13.577  67.526  1.00  0.00    -0.220 A  
HETATM   26  C   UNL     1     -10.687  13.790  67.098  1.00  0.00    -0.281 A  
HETATM   27  C   UNL     1     -10.910  11.454  66.546  1.00  0.00    -0.334 A  
HETATM   28  C   UNL     1     -11.450  12.741  66.600  1.00  0.00    -0.404 A  
ENDBRANCH  20  21
ENDBRANCH  19  20
ENDBRANCH   2  19
TORSDOF 10
ENDMDL
MODEL      322
REMARK 921   NORMALIZED FREE ENERGY PREDICTED BY IDOCK:   -2.71 KCAL/MOL
REMARK 922        TOTAL FREE ENERGY PREDICTED BY IDOCK:   -5.44 KCAL/MOL
REMARK 923 INTER-LIGAND FREE ENERGY PREDICTED BY IDOCK:   -4.90 KCAL/MOL
REMARK 924 INTRA-LIGAND FREE ENERGY PREDICTED BY IDOCK:   -0.54 KCAL/MOL
REMARK 927      BINDING AFFINITY PREDICTED BY RF-SCORE:    0.00 PKD
ROOT
HETATM    1  O   UNL     1     -11.649  10.817  68.372  1.00  0.00    -0.395 OA 
HETATM    2  C   UNL     1     -10.366  10.373  67.909  1.00  0.00    -0.190 C  
HETATM    3  H   UNL     1     -12.045  10.125  68.888  1.00  0.00     0.000 HD 
ENDROOT
BRANCH   2   4
HETATM    4  C   UNL     1      -9.726  11.494  67.072  1.00  0.00    -0.184 C  
BRANCH   4   5
HETATM    5  N   UNL     1     -10.318  12.801  67.401  1.00  0.00    -0.221 NA 
HETATM    6  H   UNL     1     -10.359  12.959  68.408  1.00  0.00     0.000 HD 
BRANCH   5   7
HETATM    7  C   UNL     1      -9.594  13.870  66.705  1.00  0.00    -0.289 C  
BRANCH   7   8
HETATM    8  C   UNL     1     -10.470  15.117  66.543  1.00  0.00    -0.291 C  
BRANCH   8   9
HETATM    9  N   UNL     1      -9.766  16.135  65.789  1.00  0.00    -0.324 N  
HETATM   10  H   UNL     1      -9.437  15.906  64.851  1.00  0.00     0.000 HD 
BRANCH   9  11
HETATM   11  C   UNL     1      -9.526  17.386  66.280  1.00  0.00    -0.226 C  
HETATM   12  O   UNL     1     -10.421  18.226  66.364  1.00  0.00    -0.384 OA 
BRANCH  11  13
HETATM   13  N   UNL     1      -8.228  17.633  66.675  1.00  0.00    -0.246 N  
HETATM   14  C   UNL     1      -7.930  18.856  67.424  1.00  0.00    -0.246 C  
HETATM   15  C   UNL     1      -7.380  18.515  68.813  1.00  0.00    -0.290 C  
HETATM   16  O   UNL     1      -6.239  17.643  68.718  1.00  0.00    -0.182 OA 
HETATM   17  C   UNL     1      -6.589  16.423  68.048  1.00  0.00    -0.135 C  
HETATM   18  C   UNL     1      -7.095  16.703  66.627  1.00  0.00    -0.222 C  
ENDBRANCH  11  13
ENDBRANCH   9  11
ENDBRANCH   8   9
ENDBRANCH   7   8
ENDBRANCH   5   7
ENDBRANCH   4   5
ENDBRANCH   2   4
BRANCH   2  19
HETATM   19  C   UNL     1      -9.461  10.033  69.100  1.00  0.00    -0.207 C  
BRANCH  19  20
HETATM   20  O   UNL     1      -9.030   8.668  69.000  1.00  0.00    -0.140 OA 
BRANCH  20  21
HETATM   21  C   UNL     1      -8.575   8.125  70.172  1.00  0.00    -0.129 A  
HETATM   22  C   UNL     1      -9.503   7.370  70.892  1.00  0.00    -0.165 A  
HETATM   23  H   UNL     1      -6.549   6.447  74.064  1.00  0.00     0.000 HD 
HETATM   24  O   UNL     1      -7.437   6.348  73.742  1.00  0.00    -0.086 OA 
HETATM   25  C   UNL     1      -9.140   6.765  72.098  1.00  0.00    -0.140 A  
HETATM   26  C   UNL     1      -7.839   6.909  72.569  1.00  0.00    -0.095 A  
HETATM   27  C   UNL     1      -7.266   8.243  70.644  1.00  0.00    -0.049 A  
HETATM   28  C   UNL     1      -6.899   7.635  71.846  1.00  0.00    -0.062 A  
ENDBRANCH  20  21
ENDBRANCH  19  20
ENDBRANCH   2  19
TORSDOF 10
ENDMDL
MODEL      323
REMARK 921   NORMALIZED FREE ENERGY PREDICTED BY IDOCK:   -2.64 KCAL/MOL
REMARK 922        TOTAL FREE ENERGY PREDICTED BY IDOCK:   -5.32 KCAL/MOL
REMARK 923 INTER-LIGAND FREE ENERGY PREDICTED BY IDOCK:   -4.18 KCAL/MOL
REMARK 924 INTRA-LIGAND FREE ENERGY PREDICTED BY IDOCK:   -1.14 KCAL/MOL
REMARK 927      BINDING AFFINITY PREDICTED BY RF-SCORE:    0.00 PKD
ROOT
HETATM    1  O   UNL     1      -9.080  10.510  69.555  1.00  0.00    -0.356 OA 
HETATM    2  C   UNL     1      -8.010   9.558  69.630  1.00  0.00    -0.120 C  
HETATM    3  H   UNL     1      -9.122  10.855  68.671  1.00  0.00     0.000 HD 
ENDROOT
BRANCH   2   4
HETATM    4  C   UNL     1      -7.942   9.000  71.062  1.00  0.00    -0.150 C  
BRANCH   4   5
HETATM    5  N   UNL     1      -7.913   7.528  71.053  1.00  0.00    -0.094 NA 
HETATM    6  H   UNL     1      -7.082   7.165  70.585  1.00  0.00     0.000 HD 
BRANCH   5   7
HETATM    7  C   UNL     1      -8.043   7.015  72.421  1.00  0.00    -0.102 C  
BRANCH   7   8
HETATM    8  C   UNL     1      -8.556   8.101  73.373  1.00  0.00    -0.247 C  
BRANCH   8   9
HETATM    9  N   UNL     1      -9.785   7.675  74.010  1.00  0.00    -0.368 N  
HETATM   10  H   UNL     1     -10.034   8.083  74.911  1.00  0.00     0.000 HD 
BRANCH   9  11
HETATM   11  C   UNL     1     -10.623   6.750  73.457  1.00  0.00    -0.332 C  
HETATM   12  O   UNL     1     -10.634   5.582  73.841  1.00  0.00    -0.261 OA 
BRANCH  11  13
HETATM   13  N   UNL     1     -11.449   7.216  72.456  1.00  0.00    -0.275 N  
HETATM   14  C   UNL     1     -12.026   8.557  72.573  1.00  0.00    -0.331 C  
HETATM   15  C   UNL     1     -11.552   9.448  71.419  1.00  0.00    -0.381 C  
HETATM   16  O   UNL     1     -11.837   8.842  70.146  1.00  0.00     0.016 OA 
HETATM   17  C   UNL     1     -11.193   7.565  70.037  1.00  0.00    -0.157 C  
HETATM   18  C   UNL     1     -11.674   6.612  71.138  1.00  0.00    -0.346 C  
ENDBRANCH  11  13
ENDBRANCH   9  11
ENDBRANCH   8   9
ENDBRANCH   7   8
ENDBRANCH   5   7
ENDBRANCH   4   5
ENDBRANCH   2   4
BRANCH   2  19
HETATM   19  C   UNL     1      -8.248   8.413  68.637  1.00  0.00    -0.123 C  
BRANCH  19  20
HETATM   20  O   UNL     1      -6.989   7.950  68.129  1.00  0.00    -0.069 OA 
BRANCH  20  21
HETATM   21  C   UNL     1      -6.976   7.690  66.785  1.00  0.00    -0.079 A  
HETATM   22  C   UNL     1      -5.876   6.967  66.317  1.00  0.00    -0.034 A  
HETATM   23  H   UNL     1      -7.398   7.012  62.155  1.00  0.00     0.000 HD 
HETATM   24  O   UNL     1      -6.711   6.747  62.754  1.00  0.00    -0.044 OA 
HETATM   25  C   UNL     1      -5.767   6.642  64.963  1.00  0.00    -0.030 A  
HETATM   26  C   UNL     1      -6.773   7.031  64.085  1.00  0.00    -0.046 A  
HETATM   27  C   UNL     1      -7.990   8.054  65.896  1.00  0.00    -0.107 A  
HETATM   28  C   UNL     1      -7.887   7.725  64.544  1.00  0.00    -0.138 A  
ENDBRANCH  20  21
ENDBRANCH  19  20
ENDBRANCH   2  19
TORSDOF 10
ENDMDL
MODEL      324
REMARK 921   NORMALIZED FREE ENERGY PREDICTED BY IDOCK:   -2.50 KCAL/MOL
REMARK 922        TOTAL FREE ENERGY PREDICTED BY IDOCK:   -5.11 KCAL/MOL
REMARK 923 INTER-LIGAND FREE ENERGY PREDICTED BY IDOCK:   -4.09 KCAL/MOL
REMARK 924 INTRA-LIGAND FREE ENERGY PREDICTED BY IDOCK:   -1.01 KCAL/MOL
REMARK 927      BINDING AFFINITY PREDICTED BY RF-SCORE:    0.00 PKD
ROOT
HETATM    1  O   UNL     1      -9.185   7.334  65.292  1.00  0.00    -0.295 OA 
HETATM    2  C   UNL     1      -7.998   6.612  65.650  1.00  0.00    -0.115 C  
HETATM    3  H   UNL     1      -9.739   6.770  64.765  1.00  0.00     0.000 HD 
ENDROOT
BRANCH   2   4
HETATM    4  C   UNL     1      -7.100   7.526  66.502  1.00  0.00    -0.075 C  
BRANCH   4   5
HETATM    5  N   UNL     1      -7.612   7.630  67.879  1.00  0.00    -0.114 NA 
HETATM    6  H   UNL     1      -8.545   7.227  67.972  1.00  0.00     0.000 HD 
BRANCH   5   7
HETATM    7  C   UNL     1      -6.657   7.029  68.817  1.00  0.00    -0.044 C  
BRANCH   7   8
HETATM    8  C   UNL     1      -6.031   8.092  69.726  1.00  0.00    -0.023 C  
BRANCH   8   9
HETATM    9  N   UNL     1      -6.790   9.324  69.659  1.00  0.00    -0.053 N  
HETATM   10  H   UNL     1      -7.739   9.293  69.287  1.00  0.00     0.000 HD 
BRANCH   9  11
HETATM   11  C   UNL     1      -6.289  10.525  70.074  1.00  0.00    -0.117 C  
HETATM   12  O   UNL     1      -6.091  10.762  71.264  1.00  0.00    -0.345 OA 
BRANCH  11  13
HETATM   13  N   UNL     1      -6.020  11.436  69.074  1.00  0.00    -0.048 N  
HETATM   14  C   UNL     1      -6.476  11.157  67.711  1.00  0.00    -0.063 C  
HETATM   15  C   UNL     1      -7.464  12.232  67.245  1.00  0.00    -0.147 C  
HETATM   16  O   UNL     1      -6.895  13.547  67.369  1.00  0.00    -0.169 OA 
HETATM   17  C   UNL     1      -6.531  13.815  68.731  1.00  0.00    -0.096 C  
HETATM   18  C   UNL     1      -5.498  12.798  69.233  1.00  0.00    -0.073 C  
ENDBRANCH  11  13
ENDBRANCH   9  11
ENDBRANCH   8   9
ENDBRANCH   7   8
ENDBRANCH   5   7
ENDBRANCH   4   5
ENDBRANCH   2   4
BRANCH   2  19
HETATM   19  C   UNL     1      -8.363   5.352  66.446  1.00  0.00    -0.110 C  
BRANCH  19  20
HETATM   20  O   UNL     1      -9.757   5.385  66.782  1.00  0.00    -0.135 OA 
BRANCH  20  21
HETATM   21  C   UNL     1     -10.023   5.371  68.125  1.00  0.00    -0.158 A  
HETATM   22  C   UNL     1     -10.961   6.305  68.568  1.00  0.00    -0.421 A  
HETATM   23  H   UNL     1     -10.626   4.909  72.761  1.00  0.00     0.000 HD 
HETATM   24  O   UNL     1     -11.025   5.514  72.147  1.00  0.00    -0.240 OA 
HETATM   25  C   UNL     1     -11.311   6.371  69.919  1.00  0.00    -0.500 A  
HETATM   26  C   UNL     1     -10.726   5.485  70.819  1.00  0.00    -0.224 A  
HETATM   27  C   UNL     1      -9.460   4.473  69.035  1.00  0.00    -0.229 A  
HETATM   28  C   UNL     1      -9.812   4.532  70.384  1.00  0.00    -0.302 A  
ENDBRANCH  20  21
ENDBRANCH  19  20
ENDBRANCH   2  19
TORSDOF 10
ENDMDL
MODEL      325
REMARK 921   NORMALIZED FREE ENERGY PREDICTED BY IDOCK:   -2.45 KCAL/MOL
REMARK 922        TOTAL FREE ENERGY PREDICTED BY IDOCK:   -5.03 KCAL/MOL
REMARK 923 INTER-LIGAND FREE ENERGY PREDICTED BY IDOCK:   -5.58 KCAL/MOL
REMARK 924 INTRA-LIGAND FREE ENERGY PREDICTED BY IDOCK:    0.55 KCAL/MOL
REMARK 927      BINDING AFFINITY PREDICTED BY RF-SCORE:    0.00 PKD
ROOT
HETATM    1  O   UNL     1     -11.910  10.630  67.782  1.00  0.00    -0.699 OA 
HETATM    2  C   UNL     1     -10.930  10.427  66.755  1.00  0.00    -0.046 C  
HETATM    3  H   UNL     1     -11.860   9.911  68.400  1.00  0.00     0.000 HD 
ENDROOT
BRANCH   2   4
HETATM    4  C   UNL     1     -11.013  11.591  65.754  1.00  0.00    -0.246 C  
BRANCH   4   5
HETATM    5  N   UNL     1     -12.161  12.463  66.053  1.00  0.00    -0.624 NA 
HETATM    6  H   UNL     1     -12.853  11.995  66.640  1.00  0.00     0.000 HD 
BRANCH   5   7
HETATM    7  C   UNL     1     -11.696  13.722  66.646  1.00  0.00    -0.394 C  
BRANCH   7   8
HETATM    8  C   UNL     1     -11.449  14.783  65.568  1.00  0.00    -0.329 C  
BRANCH   8   9
HETATM    9  N   UNL     1     -10.898  15.985  66.159  1.00  0.00    -0.237 N  
HETATM   10  H   UNL     1     -10.905  16.845  65.612  1.00  0.00     0.000 HD 
BRANCH   9  11
HETATM   11  C   UNL     1     -10.370  16.015  67.418  1.00  0.00    -0.294 C  
HETATM   12  O   UNL     1     -10.797  15.286  68.311  1.00  0.00    -0.246 OA 
BRANCH  11  13
HETATM   13  N   UNL     1      -9.335  16.905  67.610  1.00  0.00    -0.231 N  
HETATM   14  C   UNL     1      -8.510  17.299  66.465  1.00  0.00    -0.271 C  
HETATM   15  C   UNL     1      -8.622  18.808  66.218  1.00  0.00    -0.234 C  
HETATM   16  O   UNL     1      -8.297  19.553  67.405  1.00  0.00    -0.280 OA 
HETATM   17  C   UNL     1      -9.174  19.196  68.483  1.00  0.00    -0.376 C  
HETATM   18  C   UNL     1      -9.062  17.703  68.811  1.00  0.00    -0.206 C  
ENDBRANCH  11  13
ENDBRANCH   9  11
ENDBRANCH   8   9
ENDBRANCH   7   8
ENDBRANCH   5   7
ENDBRANCH   4   5
ENDBRANCH   2   4
BRANCH   2  19
HETATM   19  C   UNL     1      -9.525  10.367  67.368  1.00  0.00    -0.149 C  
BRANCH  19  20
HETATM   20  O   UNL     1      -9.321   9.082  67.974  1.00  0.00    -0.141 OA 
BRANCH  20  21
HETATM   21  C   UNL     1      -8.514   8.236  67.262  1.00  0.00    -0.124 A  
HETATM   22  C   UNL     1      -9.016   6.949  67.057  1.00  0.00    -0.124 A  
HETATM   23  H   UNL     1      -5.433   5.733  64.750  1.00  0.00     0.000 HD 
HETATM   24  O   UNL     1      -6.276   5.486  65.110  1.00  0.00    -0.028 OA 
HETATM   25  C   UNL     1      -8.276   6.007  66.338  1.00  0.00    -0.112 A  
HETATM   26  C   UNL     1      -7.040   6.368  65.811  1.00  0.00    -0.062 A  
HETATM   27  C   UNL     1      -7.282   8.592  66.709  1.00  0.00    -0.078 A  
HETATM   28  C   UNL     1      -6.544   7.655  65.983  1.00  0.00    -0.046 A  
ENDBRANCH  20  21
ENDBRANCH  19  20
ENDBRANCH   2  19
TORSDOF 10
ENDMDL
MODEL      326
REMARK 921   NORMALIZED FREE ENERGY PREDICTED BY IDOCK:   -1.82 KCAL/MOL
REMARK 922        TOTAL FREE ENERGY PREDICTED BY IDOCK:   -4.03 KCAL/MOL
REMARK 923 INTER-LIGAND FREE ENERGY PREDICTED BY IDOCK:   -5.42 KCAL/MOL
REMARK 924 INTRA-LIGAND FREE ENERGY PREDICTED BY IDOCK:    1.40 KCAL/MOL
REMARK 927      BINDING AFFINITY PREDICTED BY RF-SCORE:    0.00 PKD
ROOT
HETATM    1  O   UNL     1     -11.804  15.856  69.614  1.00  0.00    -0.333 OA 
HETATM    2  C   UNL     1     -11.263  15.868  68.285  1.00  0.00    -0.354 C  
HETATM    3  H   UNL     1     -12.264  15.037  69.750  1.00  0.00     0.000 HD 
ENDROOT
BRANCH   2   4
HETATM    4  C   UNL     1     -10.518  17.195  68.065  1.00  0.00    -0.369 C  
BRANCH   4   5
HETATM    5  N   UNL     1     -10.440  17.524  66.631  1.00  0.00    -0.305 NA 
HETATM    6  H   UNL     1     -10.282  18.519  66.476  1.00  0.00     0.000 HD 
BRANCH   5   7
HETATM    7  C   UNL     1      -9.416  16.696  65.982  1.00  0.00    -0.251 C  
BRANCH   7   8
HETATM    8  C   UNL     1      -8.094  17.458  65.847  1.00  0.00    -0.015 C  
BRANCH   8   9
HETATM    9  N   UNL     1      -8.142  18.692  66.605  1.00  0.00    -0.262 N  
HETATM   10  H   UNL     1      -8.457  19.541  66.136  1.00  0.00     0.000 HD 
BRANCH   9  11
HETATM   11  C   UNL     1      -7.783  18.767  67.920  1.00  0.00    -0.256 C  
HETATM   12  O   UNL     1      -8.465  19.381  68.738  1.00  0.00    -0.366 OA 
BRANCH  11  13
HETATM   13  N   UNL     1      -6.621  18.107  68.260  1.00  0.00    -0.201 N  
HETATM   14  C   UNL     1      -6.357  17.804  69.669  1.00  0.00    -0.174 C  
HETATM   15  C   UNL     1      -6.266  16.289  69.885  1.00  0.00    -0.161 C  
HETATM   16  O   UNL     1      -5.289  15.699  69.009  1.00  0.00    -0.102 OA 
HETATM   17  C   UNL     1      -5.622  15.950  67.636  1.00  0.00    -0.132 C  
HETATM   18  C   UNL     1      -5.672  17.456  67.350  1.00  0.00    -0.135 C  
ENDBRANCH  11  13
ENDBRANCH   9  11
ENDBRANCH   8   9
ENDBRANCH   7   8
ENDBRANCH   5   7
ENDBRANCH   4   5
ENDBRANCH   2   4
BRANCH   2  19
HETATM   19  C   UNL     1     -10.296  14.692  68.096  1.00  0.00    -0.230 C  
BRANCH  19  20
HETATM   20  O   UNL     1     -10.835  13.779  67.129  1.00  0.00    -0.279 OA 
BRANCH  20  21
HETATM   21  C   UNL     1     -10.439  12.479  67.287  1.00  0.00    -0.220 A  
HETATM   22  C   UNL     1      -9.106  12.208  66.973  1.00  0.00    -0.198 A  
HETATM   23  H   UNL     1      -9.546   7.926  68.026  1.00  0.00     0.000 HD 
HETATM   24  O   UNL     1      -8.980   8.619  67.709  1.00  0.00    -0.135 OA 
HETATM   25  C   UNL     1      -8.596  10.914  67.105  1.00  0.00    -0.130 A  
HETATM   26  C   UNL     1      -9.425   9.898  67.570  1.00  0.00    -0.151 A  
HETATM   27  C   UNL     1     -11.254  11.455  67.774  1.00  0.00    -0.346 A  
HETATM   28  C   UNL     1     -10.746  10.162  67.914  1.00  0.00    -0.317 A  
ENDBRANCH  20  21
ENDBRANCH  19  20
ENDBRANCH   2  19
TORSDOF 10
ENDMDL
MODEL      327
REMARK 921   NORMALIZED FREE ENERGY PREDICTED BY IDOCK:   -1.81 KCAL/MOL
REMARK 922        TOTAL FREE ENERGY PREDICTED BY IDOCK:   -4.01 KCAL/MOL
REMARK 923 INTER-LIGAND FREE ENERGY PREDICTED BY IDOCK:   -3.35 KCAL/MOL
REMARK 924 INTRA-LIGAND FREE ENERGY PREDICTED BY IDOCK:   -0.66 KCAL/MOL
REMARK 927      BINDING AFFINITY PREDICTED BY RF-SCORE:    0.00 PKD
ROOT
HETATM    1  O   UNL     1     -11.573  14.174  63.556  1.00  0.00    -0.408 OA 
HETATM    2  C   UNL     1     -10.290  14.445  64.137  1.00  0.00     1.042 C  
HETATM    3  H   UNL     1     -11.459  13.577  62.826  1.00  0.00     0.000 HD 
ENDROOT
BRANCH   2   4
HETATM    4  C   UNL     1     -10.475  15.413  65.318  1.00  0.00    -0.415 C  
BRANCH   4   5
HETATM    5  N   UNL     1     -11.143  14.744  66.447  1.00  0.00    -0.336 NA 
HETATM    6  H   UNL     1     -10.575  13.990  66.835  1.00  0.00     0.000 HD 
BRANCH   5   7
HETATM    7  C   UNL     1     -11.519  15.731  67.465  1.00  0.00    -0.063 C  
BRANCH   7   8
HETATM    8  C   UNL     1     -12.109  15.050  68.705  1.00  0.00    -0.180 C  
BRANCH   8   9
HETATM    9  N   UNL     1     -12.669  16.037  69.605  1.00  0.00    -0.507 N  
HETATM   10  H   UNL     1     -13.504  16.545  69.314  1.00  0.00     0.000 HD 
BRANCH   9  11
HETATM   11  C   UNL     1     -12.127  16.316  70.827  1.00  0.00     0.096 C  
HETATM   12  O   UNL     1     -11.107  16.993  70.938  1.00  0.00     0.194 OA 
BRANCH  11  13
HETATM   13  N   UNL     1     -12.803  15.798  71.912  1.00  0.00    -0.448 N  
HETATM   14  C   UNL     1     -13.976  14.951  71.685  1.00  0.00    -0.485 C  
HETATM   15  C   UNL     1     -13.740  13.544  72.247  1.00  0.00    -0.602 C  
HETATM   16  O   UNL     1     -13.367  13.597  73.635  1.00  0.00     0.363 OA 
HETATM   17  C   UNL     1     -12.171  14.370  73.810  1.00  0.00     0.322 C  
HETATM   18  C   UNL     1     -12.369  15.808  73.314  1.00  0.00    -0.502 C  
ENDBRANCH  11  13
ENDBRANCH   9  11
ENDBRANCH   8   9
ENDBRANCH   7   8
ENDBRANCH   5   7
ENDBRANCH   4   5
ENDBRANCH   2   4
BRANCH   2  19
HETATM   19  C   UNL     1      -9.644  13.143  64.628  1.00  0.00     0.378 C  
BRANCH  19  20
HETATM   20  O   UNL     1     -10.615  12.087  64.603  1.00  0.00    -0.279 OA 
BRANCH  20  21
HETATM   21  C   UNL     1     -10.140  10.864  64.991  1.00  0.00    -0.300 A  
HETATM   22  C   UNL     1      -9.340  10.200  64.059  1.00  0.00    -0.339 A  
HETATM   23  H   UNL     1      -8.721   6.759  66.781  1.00  0.00     0.000 HD 
HETATM   24  O   UNL     1      -8.550   7.151  65.934  1.00  0.00    -0.146 OA 
HETATM   25  C   UNL     1      -8.797   8.947  64.356  1.00  0.00    -0.047 A  
HETATM   26  C   UNL     1      -9.047   8.373  65.598  1.00  0.00    -0.097 A  
HETATM   27  C   UNL     1     -10.364  10.286  66.242  1.00  0.00    -0.256 A  
HETATM   28  C   UNL     1      -9.818   9.037  66.545  1.00  0.00    -0.338 A  
ENDBRANCH  20  21
ENDBRANCH  19  20
ENDBRANCH   2  19
TORSDOF 10
ENDMDL
MODEL      328
REMARK 921   NORMALIZED FREE ENERGY PREDICTED BY IDOCK:   -1.78 KCAL/MOL
REMARK 922        TOTAL FREE ENERGY PREDICTED BY IDOCK:   -3.96 KCAL/MOL
REMARK 923 INTER-LIGAND FREE ENERGY PREDICTED BY IDOCK:   -3.90 KCAL/MOL
REMARK 924 INTRA-LIGAND FREE ENERGY PREDICTED BY IDOCK:   -0.05 KCAL/MOL
REMARK 927      BINDING AFFINITY PREDICTED BY RF-SCORE:    0.00 PKD
ROOT
HETATM    1  O   UNL     1      -5.957   7.784  71.837  1.00  0.00    -0.036 OA 
HETATM    2  C   UNL     1      -7.134   7.050  72.202  1.00  0.00    -0.072 C  
HETATM    3  H   UNL     1      -5.322   7.713  72.540  1.00  0.00     0.000 HD 
ENDROOT
BRANCH   2   4
HETATM    4  C   UNL     1      -8.162   7.164  71.063  1.00  0.00    -0.109 C  
BRANCH   4   5
HETATM    5  N   UNL     1      -9.237   8.106  71.417  1.00  0.00    -0.144 NA 
HETATM    6  H   UNL     1      -9.294   8.260  72.424  1.00  0.00     0.000 HD 
BRANCH   5   7
HETATM    7  C   UNL     1      -9.068   9.362  70.677  1.00  0.00    -0.233 C  
BRANCH   7   8
HETATM    8  C   UNL     1     -10.424   9.973  70.309  1.00  0.00    -0.272 C  
BRANCH   8   9
HETATM    9  N   UNL     1     -10.242  11.267  69.683  1.00  0.00    -0.401 N  
HETATM   10  H   UNL     1     -10.710  12.076  70.091  1.00  0.00     0.000 HD 
BRANCH   9  11
HETATM   11  C   UNL     1      -9.470  11.449  68.571  1.00  0.00    -0.183 C  
HETATM   12  O   UNL     1      -8.262  11.663  68.656  1.00  0.00    -0.151 OA 
BRANCH  11  13
HETATM   13  N   UNL     1     -10.134  11.370  67.365  1.00  0.00    -0.182 N  
HETATM   14  C   UNL     1     -11.593  11.497  67.343  1.00  0.00    -0.228 C  
HETATM   15  C   UNL     1     -12.013  12.718  66.516  1.00  0.00    -0.358 C  
HETATM   16  O   UNL     1     -11.451  12.665  65.193  1.00  0.00    -0.305 OA 
HETATM   17  C   UNL     1     -10.018  12.619  65.252  1.00  0.00    -0.197 C  
HETATM   18  C   UNL     1      -9.540  11.383  66.024  1.00  0.00    -0.221 C  
ENDBRANCH  11  13
ENDBRANCH   9  11
ENDBRANCH   8   9
ENDBRANCH   7   8
ENDBRANCH   5   7
ENDBRANCH   4   5
ENDBRANCH   2   4
BRANCH   2  19
HETATM   19  C   UNL     1      -6.785   5.574  72.441  1.00  0.00    -0.071 C  
BRANCH  19  20
HETATM   20  O   UNL     1      -7.981   4.784  72.379  1.00  0.00    -0.096 OA 
BRANCH  20  21
HETATM   21  C   UNL     1      -8.071   3.969  71.283  1.00  0.00    -0.072 A  
HETATM   22  C   UNL     1      -6.937   3.917  70.470  1.00  0.00    -0.034 A  
HETATM   23  H   UNL     1      -8.841   1.028  67.701  1.00  0.00     0.000 HD 
HETATM   24  O   UNL     1      -8.077   1.550  67.913  1.00  0.00    -0.057 OA 
HETATM   25  C   UNL     1      -6.919   3.111  69.329  1.00  0.00    -0.041 A  
HETATM   26  C   UNL     1      -8.039   2.346  69.018  1.00  0.00    -0.051 A  
HETATM   27  C   UNL     1      -9.179   3.178  70.971  1.00  0.00    -0.200 A  
HETATM   28  C   UNL     1      -9.163   2.367  69.836  1.00  0.00    -0.192 A  
ENDBRANCH  20  21
ENDBRANCH  19  20
ENDBRANCH   2  19
TORSDOF 10
ENDMDL
MODEL      329
REMARK 921   NORMALIZED FREE ENERGY PREDICTED BY IDOCK:   -1.63 KCAL/MOL
REMARK 922        TOTAL FREE ENERGY PREDICTED BY IDOCK:   -3.72 KCAL/MOL
REMARK 923 INTER-LIGAND FREE ENERGY PREDICTED BY IDOCK:   -3.04 KCAL/MOL
REMARK 924 INTRA-LIGAND FREE ENERGY PREDICTED BY IDOCK:   -0.68 KCAL/MOL
REMARK 927      BINDING AFFINITY PREDICTED BY RF-SCORE:    0.00 PKD
ROOT
HETATM    1  O   UNL     1     -10.717   4.687  70.242  1.00  0.00     0.141 OA 
HETATM    2  C   UNL     1      -9.701   5.667  69.992  1.00  0.00    -0.173 C  
HETATM    3  H   UNL     1     -10.900   4.667  71.174  1.00  0.00     0.000 HD 
ENDROOT
BRANCH   2   4
HETATM    4  C   UNL     1      -9.405   5.700  68.482  1.00  0.00    -0.123 C  
BRANCH   4   5
HETATM    5  N   UNL     1      -8.063   6.248  68.220  1.00  0.00    -0.111 NA 
HETATM    6  H   UNL     1      -7.368   5.512  68.092  1.00  0.00     0.000 HD 
BRANCH   5   7
HETATM    7  C   UNL     1      -8.111   7.166  67.077  1.00  0.00    -0.117 C  
BRANCH   7   8
HETATM    8  C   UNL     1      -9.555   7.416  66.628  1.00  0.00    -0.190 C  
BRANCH   8   9
HETATM    9  N   UNL     1      -9.588   8.380  65.547  1.00  0.00    -0.383 N  
HETATM   10  H   UNL     1      -9.532   8.039  64.588  1.00  0.00     0.000 HD 
BRANCH   9  11
HETATM   11  C   UNL     1      -9.693   9.725  65.758  1.00  0.00    -0.273 C  
HETATM   12  O   UNL     1     -10.714  10.225  66.226  1.00  0.00    -0.123 OA 
BRANCH  11  13
HETATM   13  N   UNL     1      -8.583  10.470  65.419  1.00  0.00    -0.177 N  
HETATM   14  C   UNL     1      -8.118  11.516  66.333  1.00  0.00    -0.069 C  
HETATM   15  C   UNL     1      -6.699  11.208  66.825  1.00  0.00    -0.135 C  
HETATM   16  O   UNL     1      -5.799  11.012  65.719  1.00  0.00    -0.137 OA 
HETATM   17  C   UNL     1      -6.245   9.930  64.889  1.00  0.00    -0.105 C  
HETATM   18  C   UNL     1      -7.642  10.212  64.323  1.00  0.00    -0.124 C  
ENDBRANCH  11  13
ENDBRANCH   9  11
ENDBRANCH   8   9
ENDBRANCH   7   8
ENDBRANCH   5   7
ENDBRANCH   4   5
ENDBRANCH   2   4
BRANCH   2  19
HETATM   19  C   UNL     1     -10.172   7.051  70.458  1.00  0.00    -0.196 C  
BRANCH  19  20
HETATM   20  O   UNL     1      -9.080   7.746  71.075  1.00  0.00    -0.145 OA 
BRANCH  20  21
HETATM   21  C   UNL     1      -8.298   6.974  71.892  1.00  0.00    -0.106 A  
HETATM   22  C   UNL     1      -8.832   6.688  73.150  1.00  0.00    -0.135 A  
HETATM   23  H   UNL     1      -5.294   4.278  74.296  1.00  0.00     0.000 HD 
HETATM   24  O   UNL     1      -6.141   4.627  74.545  1.00  0.00    -0.046 OA 
HETATM   25  C   UNL     1      -8.120   5.902  74.060  1.00  0.00    -0.104 A  
HETATM   26  C   UNL     1      -6.879   5.391  73.694  1.00  0.00    -0.083 A  
HETATM   27  C   UNL     1      -7.062   6.436  71.529  1.00  0.00    -0.078 A  
HETATM   28  C   UNL     1      -6.351   5.644  72.433  1.00  0.00    -0.052 A  
ENDBRANCH  20  21
ENDBRANCH  19  20
ENDBRANCH   2  19
TORSDOF 10
ENDMDL
MODEL      330
REMARK 921   NORMALIZED FREE ENERGY PREDICTED BY IDOCK:    1.37 KCAL/MOL
REMARK 922        TOTAL FREE ENERGY PREDICTED BY IDOCK:    1.03 KCAL/MOL
REMARK 923 INTER-LIGAND FREE ENERGY PREDICTED BY IDOCK:   -0.37 KCAL/MOL
REMARK 924 INTRA-LIGAND FREE ENERGY PREDICTED BY IDOCK:    1.40 KCAL/MOL
REMARK 927      BINDING AFFINITY PREDICTED BY RF-SCORE:    0.00 PKD
ROOT
HETATM    1  O   UNL     1     -10.903   3.943  69.810  1.00  0.00     1.863 OA 
HETATM    2  C   UNL     1      -9.690   4.708  69.784  1.00  0.00    -0.209 C  
HETATM    3  H   UNL     1     -11.394   4.174  70.591  1.00  0.00     0.000 HD 
ENDROOT
BRANCH   2   4
HETATM    4  C   UNL     1      -8.895   4.334  68.522  1.00  0.00    -0.103 C  
BRANCH   4   5
HETATM    5  N   UNL     1      -7.523   4.863  68.587  1.00  0.00    -0.069 NA 
HETATM    6  H   UNL     1      -6.826   4.118  68.589  1.00  0.00     0.000 HD 
BRANCH   5   7
HETATM    7  C   UNL     1      -7.302   5.821  67.497  1.00  0.00    -0.077 C  
BRANCH   7   8
HETATM    8  C   UNL     1      -8.629   6.265  66.874  1.00  0.00    -0.113 C  
BRANCH   8   9
HETATM    9  N   UNL     1      -8.399   6.889  65.586  1.00  0.00    -0.144 N  
HETATM   10  H   UNL     1      -8.385   7.908  65.534  1.00  0.00     0.000 HD 
BRANCH   9  11
HETATM   11  C   UNL     1      -8.201   6.172  64.441  1.00  0.00    -0.063 C  
HETATM   12  O   UNL     1      -7.235   6.385  63.710  1.00  0.00    -0.047 OA 
BRANCH  11  13
HETATM   13  N   UNL     1      -9.144   5.203  64.173  1.00  0.00     0.051 N  
HETATM   14  C   UNL     1      -9.126   4.529  62.873  1.00  0.00    -0.124 C  
HETATM   15  C   UNL     1      -8.881   3.026  63.050  1.00  0.00    -0.092 C  
HETATM   16  O   UNL     1      -9.844   2.448  63.949  1.00  0.00    -0.137 OA 
HETATM   17  C   UNL     1      -9.779   3.081  65.235  1.00  0.00     0.058 C  
HETATM   18  C   UNL     1     -10.072   4.582  65.124  1.00  0.00    -0.127 C  
ENDBRANCH  11  13
ENDBRANCH   9  11
ENDBRANCH   8   9
ENDBRANCH   7   8
ENDBRANCH   5   7
ENDBRANCH   4   5
ENDBRANCH   2   4
BRANCH   2  19
HETATM   19  C   UNL     1     -10.010   6.209  69.771  1.00  0.00    -0.170 C  
BRANCH  19  20
HETATM   20  O   UNL     1      -9.371   6.844  70.888  1.00  0.00    -0.157 OA 
BRANCH  20  21
HETATM   21  C   UNL     1      -8.750   5.986  71.755  1.00  0.00    -0.138 A  
HETATM   22  C   UNL     1      -9.594   5.165  72.506  1.00  0.00    -0.173 A  
HETATM   23  H   UNL     1      -6.173   3.208  74.532  1.00  0.00     0.000 HD 
HETATM   24  O   UNL     1      -7.115   3.276  74.436  1.00  0.00    -0.044 OA 
HETATM   25  C   UNL     1      -9.063   4.248  73.417  1.00  0.00    -0.107 A  
HETATM   26  C   UNL     1      -7.683   4.147  73.557  1.00  0.00    -0.081 A  
HETATM   27  C   UNL     1      -7.366   5.859  71.890  1.00  0.00    -0.094 A  
HETATM   28  C   UNL     1      -6.832   4.939  72.794  1.00  0.00    -0.071 A  
ENDBRANCH  20  21
ENDBRANCH  19  20
ENDBRANCH   2  19
TORSDOF 10
ENDMDL
MODEL      331
REMARK 921   NORMALIZED FREE ENERGY PREDICTED BY IDOCK:    6.29 KCAL/MOL
REMARK 922        TOTAL FREE ENERGY PREDICTED BY IDOCK:    8.82 KCAL/MOL
REMARK 923 INTER-LIGAND FREE ENERGY PREDICTED BY IDOCK:    6.48 KCAL/MOL
REMARK 924 INTRA-LIGAND FREE ENERGY PREDICTED BY IDOCK:    2.35 KCAL/MOL
REMARK 927      BINDING AFFINITY PREDICTED BY RF-SCORE:    0.00 PKD
ROOT
HETATM    1  O   UNL     1      -9.233  12.426  65.844  1.00  0.00    -0.417 OA 
HETATM    2  C   UNL     1      -9.689  13.608  66.517  1.00  0.00    -0.292 C  
HETATM    3  H   UNL     1      -9.829  11.713  66.040  1.00  0.00     0.000 HD 
ENDROOT
BRANCH   2   4
HETATM    4  C   UNL     1      -8.724  14.763  66.201  1.00  0.00     0.257 C  
BRANCH   4   5
HETATM    5  N   UNL     1      -9.232  16.036  66.738  1.00  0.00    -0.225 NA 
HETATM    6  H   UNL     1      -9.568  16.655  66.000  1.00  0.00     0.000 HD 
BRANCH   5   7
HETATM    7  C   UNL     1     -10.262  15.778  67.751  1.00  0.00    -0.251 C  
BRANCH   7   8
HETATM    8  C   UNL     1     -10.925  17.082  68.209  1.00  0.00    -0.269 C  
BRANCH   8   9
HETATM    9  N   UNL     1     -12.178  16.803  68.881  1.00  0.00     0.321 N  
HETATM   10  H   UNL     1     -13.018  17.289  68.569  1.00  0.00     0.000 HD 
BRANCH   9  11
HETATM   11  C   UNL     1     -12.281  15.916  69.915  1.00  0.00    -0.167 C  
HETATM   12  O   UNL     1     -13.197  15.098  69.970  1.00  0.00     0.004 OA 
BRANCH  11  13
HETATM   13  N   UNL     1     -11.294  16.000  70.874  1.00  0.00    -0.388 N  
HETATM   14  C   UNL     1     -11.645  16.447  72.223  1.00  0.00    -0.231 C  
HETATM   15  C   UNL     1     -11.352  15.344  73.247  1.00  0.00     0.384 C  
HETATM   16  O   UNL     1      -9.985  14.905  73.158  1.00  0.00     3.870 OA 
HETATM   17  C   UNL     1      -9.699  14.403  71.844  1.00  0.00     5.614 C  
HETATM   18  C   UNL     1      -9.923  15.486  70.782  1.00  0.00     0.795 C  
ENDBRANCH  11  13
ENDBRANCH   9  11
ENDBRANCH   8   9
ENDBRANCH   7   8
ENDBRANCH   5   7
ENDBRANCH   4   5
ENDBRANCH   2   4
BRANCH   2  19
HETATM   19  C   UNL     1     -11.105  13.971  66.050  1.00  0.00    -0.303 C  
BRANCH  19  20
HETATM   20  O   UNL     1     -11.978  12.850  66.250  1.00  0.00    -0.397 OA 
BRANCH  20  21
HETATM   21  C   UNL     1     -11.720  12.119  67.378  1.00  0.00    -0.304 A  
HETATM   22  C   UNL     1     -11.760  12.826  68.582  1.00  0.00    -0.360 A  
HETATM   23  H   UNL     1     -10.824   9.197  70.946  1.00  0.00     0.000 HD 
HETATM   24  O   UNL     1     -11.004  10.129  70.946  1.00  0.00    -0.318 OA 
HETATM   25  C   UNL     1     -11.518  12.175  69.794  1.00  0.00    -0.261 A  
HETATM   26  C   UNL     1     -11.254  10.809  69.794  1.00  0.00    -0.297 A  
HETATM   27  C   UNL     1     -11.477  10.744  67.394  1.00  0.00    -0.113 A  
HETATM   28  C   UNL     1     -11.242  10.089  68.605  1.00  0.00    -0.175 A  
ENDBRANCH  20  21
ENDBRANCH  19  20
ENDBRANCH   2  19
TORSDOF 10
ENDMDL
