MODEL        1
REMARK 921   NORMALIZED FREE ENERGY PREDICTED BY IDOCK:   -6.12 KCAL/MOL
REMARK 922        TOTAL FREE ENERGY PREDICTED BY IDOCK:   -7.68 KCAL/MOL
REMARK 923 INTER-LIGAND FREE ENERGY PREDICTED BY IDOCK:   -7.20 KCAL/MOL
REMARK 924 INTRA-LIGAND FREE ENERGY PREDICTED BY IDOCK:   -0.49 KCAL/MOL
REMARK 927      BINDING AFFINITY PREDICTED BY RF-SCORE:    0.00 PKD
ROOT
HETATM    1  C   UNL     1     -10.872  11.143  68.748  1.00  0.00    -0.256 C  
HETATM    2  C   UNL     1     -11.181  12.580  69.076  1.00  0.00    -0.321 A  
HETATM    3  C   UNL     1     -11.949  12.829  70.226  1.00  0.00    -0.358 A  
HETATM    4  C   UNL     1     -12.301  14.117  70.652  1.00  0.00    -0.435 A  
HETATM    5  C   UNL     1     -10.718  16.180  67.853  1.00  0.00    -0.321 C  
HETATM    6  C   UNL     1     -11.871  15.178  69.842  1.00  0.00    -0.363 A  
HETATM    7  C   UNL     1     -10.746  13.659  68.276  1.00  0.00    -0.266 A  
HETATM    8  C   UNL     1     -11.102  14.973  68.672  1.00  0.00    -0.272 A  
ENDROOT
BRANCH   4   9
HETATM    9  C   UNL     1     -13.143  14.326  71.927  1.00  0.00    -0.445 C  
HETATM   10  C   UNL     1     -13.757  13.000  72.444  1.00  0.00    -0.593 C  
HETATM   11  C   UNL     1     -14.298  15.301  71.621  1.00  0.00    -0.666 C  
HETATM   12  C   UNL     1     -12.315  14.899  73.099  1.00  0.00    -0.473 C  
ENDBRANCH   4   9
BRANCH   7  13
HETATM   13  C   UNL     1     -10.001  13.410  66.973  1.00  0.00    -0.246 C  
BRANCH  13  14
HETATM   14  C   UNL     1     -10.812  13.084  65.736  1.00  0.00    -0.272 A  
HETATM   15  N   UNL     1     -10.215  13.046  64.570  1.00  0.00    -0.547 NA 
HETATM   16  C   UNL     1     -11.273  12.660  63.599  1.00  0.00    -0.466 A  
HETATM   17  H   UNL     1      -9.233  13.240  64.371  1.00  0.00     0.000 HD 
HETATM   18  C   UNL     1     -12.574  12.495  64.391  1.00  0.00    -0.410 A  
HETATM   19  N   UNL     1     -12.140  12.745  65.745  1.00  0.00    -0.487 NA 
ENDBRANCH  13  14
ENDBRANCH   7  13
TORSDOF 3
ENDMDL
MODEL        2
REMARK 921   NORMALIZED FREE ENERGY PREDICTED BY IDOCK:   -6.12 KCAL/MOL
REMARK 922        TOTAL FREE ENERGY PREDICTED BY IDOCK:   -7.68 KCAL/MOL
REMARK 923 INTER-LIGAND FREE ENERGY PREDICTED BY IDOCK:   -7.17 KCAL/MOL
REMARK 924 INTRA-LIGAND FREE ENERGY PREDICTED BY IDOCK:   -0.51 KCAL/MOL
REMARK 927      BINDING AFFINITY PREDICTED BY RF-SCORE:    0.00 PKD
ROOT
HETATM    1  C   UNL     1     -10.765  16.188  67.546  1.00  0.00    -0.304 C  
HETATM    2  C   UNL     1     -11.158  14.983  68.359  1.00  0.00    -0.284 A  
HETATM    3  C   UNL     1     -11.838  15.214  69.567  1.00  0.00    -0.358 A  
HETATM    4  C   UNL     1     -12.270  14.186  70.416  1.00  0.00    -0.427 A  
HETATM    5  C   UNL     1     -10.951  11.161  68.490  1.00  0.00    -0.267 C  
HETATM    6  C   UNL     1     -11.957  12.879  70.016  1.00  0.00    -0.380 A  
HETATM    7  C   UNL     1     -10.859  13.661  67.965  1.00  0.00    -0.261 A  
HETATM    8  C   UNL     1     -11.267  12.601  68.812  1.00  0.00    -0.325 A  
ENDROOT
BRANCH   4   9
HETATM    9  C   UNL     1     -13.017  14.504  71.727  1.00  0.00    -0.413 C  
HETATM   10  C   UNL     1     -14.268  15.386  71.485  1.00  0.00    -0.584 C  
HETATM   11  C   UNL     1     -12.073  15.262  72.680  1.00  0.00    -0.522 C  
HETATM   12  C   UNL     1     -13.523  13.233  72.445  1.00  0.00    -0.670 C  
ENDBRANCH   4   9
BRANCH   7  13
HETATM   13  C   UNL     1     -10.034  13.390  66.715  1.00  0.00    -0.264 C  
BRANCH  13  14
HETATM   14  C   UNL     1     -10.764  13.002  65.446  1.00  0.00    -0.291 A  
HETATM   15  N   UNL     1     -10.072  12.648  64.391  1.00  0.00    -0.541 NA 
HETATM   16  C   UNL     1     -11.082  12.294  63.359  1.00  0.00    -0.418 A  
HETATM   17  H   UNL     1      -9.056  12.621  64.298  1.00  0.00     0.000 HD 
HETATM   18  C   UNL     1     -12.463  12.514  63.984  1.00  0.00    -0.435 A  
HETATM   19  N   UNL     1     -12.127  12.918  65.329  1.00  0.00    -0.425 NA 
ENDBRANCH  13  14
ENDBRANCH   7  13
TORSDOF 3
ENDMDL
MODEL        3
REMARK 921   NORMALIZED FREE ENERGY PREDICTED BY IDOCK:   -5.96 KCAL/MOL
REMARK 922        TOTAL FREE ENERGY PREDICTED BY IDOCK:   -7.49 KCAL/MOL
REMARK 923 INTER-LIGAND FREE ENERGY PREDICTED BY IDOCK:   -6.96 KCAL/MOL
REMARK 924 INTRA-LIGAND FREE ENERGY PREDICTED BY IDOCK:   -0.53 KCAL/MOL
REMARK 927      BINDING AFFINITY PREDICTED BY RF-SCORE:    0.00 PKD
ROOT
HETATM    1  C   UNL     1     -10.404   8.889  68.055  1.00  0.00    -0.271 C  
HETATM    2  C   UNL     1     -10.922  10.302  68.124  1.00  0.00    -0.328 A  
HETATM    3  C   UNL     1     -11.000  11.020  66.919  1.00  0.00    -0.311 A  
HETATM    4  C   UNL     1     -11.471  12.338  66.837  1.00  0.00    -0.418 A  
HETATM    5  C   UNL     1     -12.165  13.005  70.535  1.00  0.00    -0.392 C  
HETATM    6  C   UNL     1     -11.842  12.940  68.049  1.00  0.00    -0.390 A  
HETATM    7  C   UNL     1     -11.309  10.918  69.334  1.00  0.00    -0.347 A  
HETATM    8  C   UNL     1     -11.774  12.256  69.286  1.00  0.00    -0.388 A  
ENDROOT
BRANCH   4   9
HETATM    9  C   UNL     1     -11.536  13.073  65.483  1.00  0.00    -0.382 C  
HETATM   10  C   UNL     1     -10.350  14.052  65.294  1.00  0.00    -0.403 C  
HETATM   11  C   UNL     1     -12.844  13.885  65.408  1.00  0.00    -0.466 C  
HETATM   12  C   UNL     1     -11.489  12.106  64.279  1.00  0.00    -0.437 C  
ENDBRANCH   4   9
BRANCH   7  13
HETATM   13  C   UNL     1     -11.139  10.196  70.663  1.00  0.00    -0.397 C  
BRANCH  13  14
HETATM   14  C   UNL     1     -12.289   9.355  71.174  1.00  0.00    -0.308 A  
HETATM   15  N   UNL     1     -12.370   8.097  70.819  1.00  0.00    -0.496 NA 
HETATM   16  C   UNL     1     -13.569   7.566  71.522  1.00  0.00    -0.363 A  
HETATM   17  H   UNL     1     -11.744   7.588  70.194  1.00  0.00     0.000 HD 
HETATM   18  C   UNL     1     -14.171   8.724  72.324  1.00  0.00    -0.420 A  
HETATM   19  N   UNL     1     -13.239   9.794  72.059  1.00  0.00    -0.444 NA 
ENDBRANCH  13  14
ENDBRANCH   7  13
TORSDOF 3
ENDMDL
MODEL        4
REMARK 921   NORMALIZED FREE ENERGY PREDICTED BY IDOCK:   -5.83 KCAL/MOL
REMARK 922        TOTAL FREE ENERGY PREDICTED BY IDOCK:   -7.34 KCAL/MOL
REMARK 923 INTER-LIGAND FREE ENERGY PREDICTED BY IDOCK:   -6.82 KCAL/MOL
REMARK 924 INTRA-LIGAND FREE ENERGY PREDICTED BY IDOCK:   -0.52 KCAL/MOL
REMARK 927      BINDING AFFINITY PREDICTED BY RF-SCORE:    0.00 PKD
ROOT
HETATM    1  C   UNL     1     -12.175  12.894  70.576  1.00  0.00    -0.395 C  
HETATM    2  C   UNL     1     -11.730  12.152  69.344  1.00  0.00    -0.391 A  
HETATM    3  C   UNL     1     -11.871  12.808  68.109  1.00  0.00    -0.372 A  
HETATM    4  C   UNL     1     -11.489  12.238  66.887  1.00  0.00    -0.418 A  
HETATM    5  C   UNL     1     -10.288   8.824  68.113  1.00  0.00    -0.266 C  
HETATM    6  C   UNL     1     -10.975  10.934  66.944  1.00  0.00    -0.286 A  
HETATM    7  C   UNL     1     -11.200  10.844  69.386  1.00  0.00    -0.335 A  
HETATM    8  C   UNL     1     -10.821  10.235  68.164  1.00  0.00    -0.312 A  
ENDROOT
BRANCH   4   9
HETATM    9  C   UNL     1     -11.666  13.010  65.564  1.00  0.00    -0.408 C  
HETATM   10  C   UNL     1     -11.848  12.058  64.354  1.00  0.00    -0.395 C  
HETATM   11  C   UNL     1     -10.416  13.875  65.308  1.00  0.00    -0.386 C  
HETATM   12  C   UNL     1     -12.906  13.931  65.574  1.00  0.00    -0.471 C  
ENDBRANCH   4   9
BRANCH   7  13
HETATM   13  C   UNL     1     -11.132  10.075  70.698  1.00  0.00    -0.408 C  
BRANCH  13  14
HETATM   14  C   UNL     1     -12.317   9.218  71.088  1.00  0.00    -0.293 A  
HETATM   15  N   UNL     1     -12.301   7.938  70.810  1.00  0.00    -0.509 NA 
HETATM   16  C   UNL     1     -13.573   7.400  71.361  1.00  0.00    -0.325 A  
HETATM   17  H   UNL     1     -11.572   7.420  70.319  1.00  0.00     0.000 HD 
HETATM   18  C   UNL     1     -14.327   8.577  71.987  1.00  0.00    -0.447 A  
HETATM   19  N   UNL     1     -13.403   9.668  71.793  1.00  0.00    -0.405 NA 
ENDBRANCH  13  14
ENDBRANCH   7  13
TORSDOF 3
ENDMDL
MODEL        5
REMARK 921   NORMALIZED FREE ENERGY PREDICTED BY IDOCK:   -5.73 KCAL/MOL
REMARK 922        TOTAL FREE ENERGY PREDICTED BY IDOCK:   -7.23 KCAL/MOL
REMARK 923 INTER-LIGAND FREE ENERGY PREDICTED BY IDOCK:   -6.70 KCAL/MOL
REMARK 924 INTRA-LIGAND FREE ENERGY PREDICTED BY IDOCK:   -0.53 KCAL/MOL
REMARK 927      BINDING AFFINITY PREDICTED BY RF-SCORE:    0.00 PKD
ROOT
HETATM    1  C   UNL     1     -12.147  15.164  69.666  1.00  0.00    -0.336 C  
HETATM    2  C   UNL     1     -11.482  15.530  68.366  1.00  0.00    -0.370 A  
HETATM    3  C   UNL     1     -10.905  16.808  68.273  1.00  0.00    -0.366 A  
HETATM    4  C   UNL     1     -10.247  17.275  67.127  1.00  0.00    -0.319 A  
HETATM    5  C   UNL     1     -10.729  14.256  64.833  1.00  0.00    -0.448 C  
HETATM    6  C   UNL     1     -10.216  16.399  66.030  1.00  0.00    -0.373 A  
HETATM    7  C   UNL     1     -11.432  14.657  67.258  1.00  0.00    -0.386 A  
HETATM    8  C   UNL     1     -10.789  15.107  66.078  1.00  0.00    -0.335 A  
ENDROOT
BRANCH   4   9
HETATM    9  C   UNL     1      -9.630  18.687  67.087  1.00  0.00    -0.315 C  
HETATM   10  C   UNL     1      -8.169  18.670  66.569  1.00  0.00    -0.301 C  
HETATM   11  C   UNL     1      -9.627  19.281  68.510  1.00  0.00    -0.465 C  
HETATM   12  C   UNL     1     -10.403  19.647  66.156  1.00  0.00    -0.627 C  
ENDBRANCH   4   9
BRANCH   7  13
HETATM   13  C   UNL     1     -12.137  13.309  67.299  1.00  0.00    -0.341 C  
BRANCH  13  14
HETATM   14  C   UNL     1     -11.418  12.144  67.946  1.00  0.00    -0.328 A  
HETATM   15  N   UNL     1     -12.085  11.049  68.215  1.00  0.00    -0.788 NA 
HETATM   16  C   UNL     1     -11.085  10.112  68.792  1.00  0.00    -0.203 A  
HETATM   17  H   UNL     1     -13.078  10.875  68.061  1.00  0.00     0.000 HD 
HETATM   18  C   UNL     1      -9.742  10.848  68.824  1.00  0.00    -0.189 A  
HETATM   19  N   UNL     1     -10.074  12.114  68.215  1.00  0.00    -0.206 NA 
ENDBRANCH  13  14
ENDBRANCH   7  13
TORSDOF 3
ENDMDL
MODEL        6
REMARK 921   NORMALIZED FREE ENERGY PREDICTED BY IDOCK:   -5.71 KCAL/MOL
REMARK 922        TOTAL FREE ENERGY PREDICTED BY IDOCK:   -7.19 KCAL/MOL
REMARK 923 INTER-LIGAND FREE ENERGY PREDICTED BY IDOCK:   -6.66 KCAL/MOL
REMARK 924 INTRA-LIGAND FREE ENERGY PREDICTED BY IDOCK:   -0.54 KCAL/MOL
REMARK 927      BINDING AFFINITY PREDICTED BY RF-SCORE:    0.00 PKD
ROOT
HETATM    1  C   UNL     1     -12.269  12.991  70.537  1.00  0.00    -0.392 C  
HETATM    2  C   UNL     1     -11.741  12.276  69.321  1.00  0.00    -0.388 A  
HETATM    3  C   UNL     1     -11.881  12.922  68.081  1.00  0.00    -0.380 A  
HETATM    4  C   UNL     1     -11.426  12.376  66.873  1.00  0.00    -0.423 A  
HETATM    5  C   UNL     1     -10.065   9.039  68.146  1.00  0.00    -0.229 C  
HETATM    6  C   UNL     1     -10.837  11.104  66.950  1.00  0.00    -0.333 A  
HETATM    7  C   UNL     1     -11.137  11.002  69.384  1.00  0.00    -0.320 A  
HETATM    8  C   UNL     1     -10.682  10.416  68.176  1.00  0.00    -0.277 A  
ENDROOT
BRANCH   4   9
HETATM    9  C   UNL     1     -11.605  13.135  65.544  1.00  0.00    -0.365 C  
HETATM   10  C   UNL     1     -12.927  13.944  65.508  1.00  0.00    -0.375 C  
HETATM   11  C   UNL     1     -11.631  12.125  64.379  1.00  0.00    -0.422 C  
HETATM   12  C   UNL     1     -10.473  14.154  65.284  1.00  0.00    -0.402 C  
ENDBRANCH   4   9
BRANCH   7  13
HETATM   13  C   UNL     1     -11.065  10.239  70.699  1.00  0.00    -0.358 C  
BRANCH  13  14
HETATM   14  C   UNL     1     -12.242   9.367  71.086  1.00  0.00    -0.323 A  
HETATM   15  N   UNL     1     -12.210   8.088  70.807  1.00  0.00    -0.502 NA 
HETATM   16  C   UNL     1     -13.477   7.535  71.355  1.00  0.00    -0.317 A  
HETATM   17  H   UNL     1     -11.473   7.579  70.318  1.00  0.00     0.000 HD 
HETATM   18  C   UNL     1     -14.247   8.703  71.980  1.00  0.00    -0.443 A  
HETATM   19  N   UNL     1     -13.335   9.805  71.787  1.00  0.00    -0.407 NA 
ENDBRANCH  13  14
ENDBRANCH   7  13
TORSDOF 3
ENDMDL
MODEL        7
REMARK 921   NORMALIZED FREE ENERGY PREDICTED BY IDOCK:   -5.63 KCAL/MOL
REMARK 922        TOTAL FREE ENERGY PREDICTED BY IDOCK:   -7.10 KCAL/MOL
REMARK 923 INTER-LIGAND FREE ENERGY PREDICTED BY IDOCK:   -6.58 KCAL/MOL
REMARK 924 INTRA-LIGAND FREE ENERGY PREDICTED BY IDOCK:   -0.53 KCAL/MOL
REMARK 927      BINDING AFFINITY PREDICTED BY RF-SCORE:    0.00 PKD
ROOT
HETATM    1  C   UNL     1     -10.791  14.398  64.826  1.00  0.00    -0.415 C  
HETATM    2  C   UNL     1     -10.892  15.155  66.123  1.00  0.00    -0.330 A  
HETATM    3  C   UNL     1     -10.279  16.418  66.183  1.00  0.00    -0.363 A  
HETATM    4  C   UNL     1     -10.304  17.233  67.323  1.00  0.00    -0.331 A  
HETATM    5  C   UNL     1     -12.225  14.948  69.708  1.00  0.00    -0.328 C  
HETATM    6  C   UNL     1     -10.956  16.706  68.448  1.00  0.00    -0.345 A  
HETATM    7  C   UNL     1     -11.553  14.642  67.260  1.00  0.00    -0.404 A  
HETATM    8  C   UNL     1     -11.580  15.436  68.434  1.00  0.00    -0.368 A  
ENDROOT
BRANCH   4   9
HETATM    9  C   UNL     1      -9.617  18.613  67.324  1.00  0.00    -0.316 C  
HETATM   10  C   UNL     1      -9.787  19.347  68.679  1.00  0.00    -0.522 C  
HETATM   11  C   UNL     1     -10.240  19.494  66.222  1.00  0.00    -0.582 C  
HETATM   12  C   UNL     1      -8.095  18.520  67.077  1.00  0.00    -0.254 C  
ENDBRANCH   4   9
BRANCH   7  13
HETATM   13  C   UNL     1     -12.134  13.236  67.254  1.00  0.00    -0.341 C  
BRANCH  13  14
HETATM   14  C   UNL     1     -11.291  12.110  67.814  1.00  0.00    -0.307 A  
HETATM   15  N   UNL     1     -11.852  10.952  68.063  1.00  0.00    -0.759 NA 
HETATM   16  C   UNL     1     -10.752  10.079  68.551  1.00  0.00    -0.231 A  
HETATM   17  H   UNL     1     -12.835  10.703  67.947  1.00  0.00     0.000 HD 
HETATM   18  C   UNL     1      -9.474  10.923  68.555  1.00  0.00    -0.185 A  
HETATM   19  N   UNL     1      -9.938  12.181  68.020  1.00  0.00    -0.197 NA 
ENDBRANCH  13  14
ENDBRANCH   7  13
TORSDOF 3
ENDMDL
MODEL        8
REMARK 921   NORMALIZED FREE ENERGY PREDICTED BY IDOCK:   -5.58 KCAL/MOL
REMARK 922        TOTAL FREE ENERGY PREDICTED BY IDOCK:   -7.04 KCAL/MOL
REMARK 923 INTER-LIGAND FREE ENERGY PREDICTED BY IDOCK:   -6.51 KCAL/MOL
REMARK 924 INTRA-LIGAND FREE ENERGY PREDICTED BY IDOCK:   -0.53 KCAL/MOL
REMARK 927      BINDING AFFINITY PREDICTED BY RF-SCORE:    0.00 PKD
ROOT
HETATM    1  C   UNL     1     -12.394  13.371  70.323  1.00  0.00    -0.354 C  
HETATM    2  C   UNL     1     -11.861  11.991  70.042  1.00  0.00    -0.392 A  
HETATM    3  C   UNL     1     -12.270  10.954  70.899  1.00  0.00    -0.485 A  
HETATM    4  C   UNL     1     -11.859   9.623  70.747  1.00  0.00    -0.378 A  
HETATM    5  C   UNL     1      -9.543  10.002  67.732  1.00  0.00    -0.168 C  
HETATM    6  C   UNL     1     -10.969   9.365  69.694  1.00  0.00    -0.216 A  
HETATM    7  C   UNL     1     -10.974  11.713  68.980  1.00  0.00    -0.283 A  
HETATM    8  C   UNL     1     -10.526  10.379  68.812  1.00  0.00    -0.219 A  
ENDROOT
BRANCH   4   9
HETATM    9  C   UNL     1     -12.346   8.528  71.717  1.00  0.00    -0.388 C  
HETATM   10  C   UNL     1     -12.638   7.192  70.988  1.00  0.00    -0.335 C  
HETATM   11  C   UNL     1     -13.648   8.995  72.400  1.00  0.00    -0.533 C  
HETATM   12  C   UNL     1     -11.308   8.200  72.813  1.00  0.00    -0.406 C  
ENDBRANCH   4   9
BRANCH   7  13
HETATM   13  C   UNL     1     -10.436  12.835  68.103  1.00  0.00    -0.244 C  
BRANCH  13  14
HETATM   14  C   UNL     1     -11.194  13.180  66.838  1.00  0.00    -0.296 A  
HETATM   15  N   UNL     1     -12.047  12.316  66.345  1.00  0.00    -0.612 NA 
HETATM   16  C   UNL     1     -12.635  12.981  65.153  1.00  0.00    -0.469 A  
HETATM   17  H   UNL     1     -12.261  11.385  66.704  1.00  0.00     0.000 HD 
HETATM   18  C   UNL     1     -11.975  14.358  65.031  1.00  0.00    -0.412 A  
HETATM   19  N   UNL     1     -11.113  14.385  66.189  1.00  0.00    -0.323 NA 
ENDBRANCH  13  14
ENDBRANCH   7  13
TORSDOF 3
ENDMDL
MODEL        9
REMARK 921   NORMALIZED FREE ENERGY PREDICTED BY IDOCK:   -5.56 KCAL/MOL
REMARK 922        TOTAL FREE ENERGY PREDICTED BY IDOCK:   -7.02 KCAL/MOL
REMARK 923 INTER-LIGAND FREE ENERGY PREDICTED BY IDOCK:   -6.48 KCAL/MOL
REMARK 924 INTRA-LIGAND FREE ENERGY PREDICTED BY IDOCK:   -0.53 KCAL/MOL
REMARK 927      BINDING AFFINITY PREDICTED BY RF-SCORE:    0.00 PKD
ROOT
HETATM    1  C   UNL     1      -9.499   9.962  67.797  1.00  0.00    -0.158 C  
HETATM    2  C   UNL     1     -10.448  10.339  68.904  1.00  0.00    -0.231 A  
HETATM    3  C   UNL     1     -10.874   9.314  69.766  1.00  0.00    -0.239 A  
HETATM    4  C   UNL     1     -11.747   9.526  70.841  1.00  0.00    -0.391 A  
HETATM    5  C   UNL     1     -12.413  13.264  70.404  1.00  0.00    -0.295 C  
HETATM    6  C   UNL     1     -12.219  10.837  71.007  1.00  0.00    -0.485 A  
HETATM    7  C   UNL     1     -10.923  11.655  69.091  1.00  0.00    -0.270 A  
HETATM    8  C   UNL     1     -11.822  11.897  70.160  1.00  0.00    -0.390 A  
ENDROOT
BRANCH   4   9
HETATM    9  C   UNL     1     -12.176   8.361  71.755  1.00  0.00    -0.377 C  
HETATM   10  C   UNL     1     -12.429   7.057  70.956  1.00  0.00    -0.373 C  
HETATM   11  C   UNL     1     -13.482   8.737  72.482  1.00  0.00    -0.406 C  
HETATM   12  C   UNL     1     -11.107   8.013  72.815  1.00  0.00    -0.448 C  
ENDBRANCH   4   9
BRANCH   7  13
HETATM   13  C   UNL     1     -10.557  12.760  68.111  1.00  0.00    -0.242 C  
BRANCH  13  14
HETATM   14  C   UNL     1     -11.454  12.980  66.911  1.00  0.00    -0.339 A  
HETATM   15  N   UNL     1     -12.018  14.149  66.737  1.00  0.00    -0.431 NA 
HETATM   16  C   UNL     1     -12.779  14.034  65.465  1.00  0.00    -0.486 A  
HETATM   17  H   UNL     1     -11.950  14.965  67.346  1.00  0.00     0.000 HD 
HETATM   18  C   UNL     1     -12.573  12.609  64.943  1.00  0.00    -0.450 A  
HETATM   19  N   UNL     1     -11.673  12.053  65.925  1.00  0.00    -0.473 NA 
ENDBRANCH  13  14
ENDBRANCH   7  13
TORSDOF 3
ENDMDL
MODEL       10
REMARK 921   NORMALIZED FREE ENERGY PREDICTED BY IDOCK:   -5.53 KCAL/MOL
REMARK 922        TOTAL FREE ENERGY PREDICTED BY IDOCK:   -6.99 KCAL/MOL
REMARK 923 INTER-LIGAND FREE ENERGY PREDICTED BY IDOCK:   -6.44 KCAL/MOL
REMARK 924 INTRA-LIGAND FREE ENERGY PREDICTED BY IDOCK:   -0.55 KCAL/MOL
REMARK 927      BINDING AFFINITY PREDICTED BY RF-SCORE:    0.00 PKD
ROOT
HETATM    1  C   UNL     1     -12.381  13.117  70.332  1.00  0.00    -0.351 C  
HETATM    2  C   UNL     1     -11.805  11.756  70.042  1.00  0.00    -0.422 A  
HETATM    3  C   UNL     1     -12.118  10.718  70.937  1.00  0.00    -0.475 A  
HETATM    4  C   UNL     1     -11.658   9.404  70.783  1.00  0.00    -0.364 A  
HETATM    5  C   UNL     1      -9.540   9.826  67.631  1.00  0.00    -0.169 C  
HETATM    6  C   UNL     1     -10.820   9.165  69.683  1.00  0.00    -0.210 A  
HETATM    7  C   UNL     1     -10.969  11.497  68.934  1.00  0.00    -0.279 A  
HETATM    8  C   UNL     1     -10.474  10.180  68.761  1.00  0.00    -0.223 A  
ENDROOT
BRANCH   4   9
HETATM    9  C   UNL     1     -12.040   8.307  71.798  1.00  0.00    -0.364 C  
HETATM   10  C   UNL     1     -13.253   8.718  72.670  1.00  0.00    -0.331 C  
HETATM   11  C   UNL     1     -10.845   8.042  72.734  1.00  0.00    -0.438 C  
HETATM   12  C   UNL     1     -12.434   6.978  71.116  1.00  0.00    -0.407 C  
ENDBRANCH   4   9
BRANCH   7  13
HETATM   13  C   UNL     1     -10.534  12.624  68.009  1.00  0.00    -0.232 C  
BRANCH  13  14
HETATM   14  C   UNL     1     -11.430  12.979  66.841  1.00  0.00    -0.339 A  
HETATM   15  N   UNL     1     -11.843  14.214  66.702  1.00  0.00    -0.406 NA 
HETATM   16  C   UNL     1     -12.650  14.221  65.453  1.00  0.00    -0.410 A  
HETATM   17  H   UNL     1     -11.652  15.004  67.319  1.00  0.00     0.000 HD 
HETATM   18  C   UNL     1     -12.646  12.791  64.905  1.00  0.00    -0.470 A  
HETATM   19  N   UNL     1     -11.796  12.105  65.850  1.00  0.00    -0.546 NA 
ENDBRANCH  13  14
ENDBRANCH   7  13
TORSDOF 3
ENDMDL
MODEL       11
REMARK 921   NORMALIZED FREE ENERGY PREDICTED BY IDOCK:   -5.52 KCAL/MOL
REMARK 922        TOTAL FREE ENERGY PREDICTED BY IDOCK:   -6.97 KCAL/MOL
REMARK 923 INTER-LIGAND FREE ENERGY PREDICTED BY IDOCK:   -6.46 KCAL/MOL
REMARK 924 INTRA-LIGAND FREE ENERGY PREDICTED BY IDOCK:   -0.51 KCAL/MOL
REMARK 927      BINDING AFFINITY PREDICTED BY RF-SCORE:    0.00 PKD
ROOT
HETATM    1  C   UNL     1      -9.328  10.126  67.782  1.00  0.00    -0.153 C  
HETATM    2  C   UNL     1     -10.360  10.287  68.867  1.00  0.00    -0.221 A  
HETATM    3  C   UNL     1     -10.743   9.131  69.569  1.00  0.00    -0.226 A  
HETATM    4  C   UNL     1     -11.684   9.138  70.608  1.00  0.00    -0.256 A  
HETATM    5  C   UNL     1     -12.634  12.839  70.593  1.00  0.00    -0.248 C  
HETATM    6  C   UNL     1     -12.271  10.378  70.905  1.00  0.00    -0.484 A  
HETATM    7  C   UNL     1     -10.951  11.528  69.185  1.00  0.00    -0.276 A  
HETATM    8  C   UNL     1     -11.920  11.564  70.219  1.00  0.00    -0.455 A  
ENDROOT
BRANCH   4   9
HETATM    9  C   UNL     1     -12.060   7.837  71.344  1.00  0.00    -0.335 C  
HETATM   10  C   UNL     1     -11.362   7.726  72.724  1.00  0.00    -0.446 C  
HETATM   11  C   UNL     1     -11.629   6.626  70.492  1.00  0.00    -0.448 C  
HETATM   12  C   UNL     1     -13.575   7.728  71.622  1.00  0.00    -0.416 C  
ENDBRANCH   4   9
BRANCH   7  13
HETATM   13  C   UNL     1     -10.629  12.774  68.372  1.00  0.00    -0.262 C  
BRANCH  13  14
HETATM   14  C   UNL     1     -11.456  13.056  67.135  1.00  0.00    -0.331 A  
HETATM   15  N   UNL     1     -11.736  14.296  66.820  1.00  0.00    -0.388 NA 
HETATM   16  C   UNL     1     -12.507  14.215  65.551  1.00  0.00    -0.476 A  
HETATM   17  H   UNL     1     -11.480  15.138  67.335  1.00  0.00     0.000 HD 
HETATM   18  C   UNL     1     -12.637  12.730  65.196  1.00  0.00    -0.444 A  
HETATM   19  N   UNL     1     -11.886  12.097  66.254  1.00  0.00    -0.594 NA 
ENDBRANCH  13  14
ENDBRANCH   7  13
TORSDOF 3
ENDMDL
MODEL       12
REMARK 921   NORMALIZED FREE ENERGY PREDICTED BY IDOCK:   -5.48 KCAL/MOL
REMARK 922        TOTAL FREE ENERGY PREDICTED BY IDOCK:   -6.92 KCAL/MOL
REMARK 923 INTER-LIGAND FREE ENERGY PREDICTED BY IDOCK:   -6.38 KCAL/MOL
REMARK 924 INTRA-LIGAND FREE ENERGY PREDICTED BY IDOCK:   -0.54 KCAL/MOL
REMARK 927      BINDING AFFINITY PREDICTED BY RF-SCORE:    0.00 PKD
ROOT
HETATM    1  C   UNL     1     -12.211  13.271  70.146  1.00  0.00    -0.376 C  
HETATM    2  C   UNL     1     -11.729  11.873  69.863  1.00  0.00    -0.383 A  
HETATM    3  C   UNL     1     -12.092  10.868  70.776  1.00  0.00    -0.469 A  
HETATM    4  C   UNL     1     -11.721   9.525  70.630  1.00  0.00    -0.330 A  
HETATM    5  C   UNL     1      -9.635   9.775  67.438  1.00  0.00    -0.187 C  
HETATM    6  C   UNL     1     -10.919   9.220  69.519  1.00  0.00    -0.169 A  
HETATM    7  C   UNL     1     -10.931  11.549  68.744  1.00  0.00    -0.271 A  
HETATM    8  C   UNL     1     -10.525  10.201  68.579  1.00  0.00    -0.221 A  
ENDROOT
BRANCH   4   9
HETATM    9  C   UNL     1     -12.154   8.466  71.664  1.00  0.00    -0.359 C  
HETATM   10  C   UNL     1     -12.529   7.119  70.996  1.00  0.00    -0.359 C  
HETATM   11  C   UNL     1     -13.389   8.980  72.431  1.00  0.00    -0.516 C  
HETATM   12  C   UNL     1     -11.041   8.142  72.685  1.00  0.00    -0.450 C  
ENDBRANCH   4   9
BRANCH   7  13
HETATM   13  C   UNL     1     -10.440  12.635  67.798  1.00  0.00    -0.228 C  
BRANCH  13  14
HETATM   14  C   UNL     1     -11.298  12.982  66.599  1.00  0.00    -0.325 A  
HETATM   15  N   UNL     1     -11.423  14.236  66.242  1.00  0.00    -0.347 NA 
HETATM   16  C   UNL     1     -12.278  14.215  65.026  1.00  0.00    -0.441 A  
HETATM   17  H   UNL     1     -11.019  15.053  66.700  1.00  0.00     0.000 HD 
HETATM   18  C   UNL     1     -12.636  12.751  64.751  1.00  0.00    -0.446 A  
HETATM   19  N   UNL     1     -11.913  12.060  65.792  1.00  0.00    -0.498 NA 
ENDBRANCH  13  14
ENDBRANCH   7  13
TORSDOF 3
ENDMDL
MODEL       13
REMARK 921   NORMALIZED FREE ENERGY PREDICTED BY IDOCK:   -5.47 KCAL/MOL
REMARK 922        TOTAL FREE ENERGY PREDICTED BY IDOCK:   -6.92 KCAL/MOL
REMARK 923 INTER-LIGAND FREE ENERGY PREDICTED BY IDOCK:   -6.40 KCAL/MOL
REMARK 924 INTRA-LIGAND FREE ENERGY PREDICTED BY IDOCK:   -0.52 KCAL/MOL
REMARK 927      BINDING AFFINITY PREDICTED BY RF-SCORE:    0.00 PKD
ROOT
HETATM    1  C   UNL     1     -13.831   9.069  72.371  1.00  0.00    -0.540 C  
HETATM    2  C   UNL     1     -12.386   8.952  71.965  1.00  0.00    -0.460 A  
HETATM    3  C   UNL     1     -11.607   7.983  72.619  1.00  0.00    -0.448 A  
HETATM    4  C   UNL     1     -10.253   7.761  72.334  1.00  0.00    -0.305 A  
HETATM    5  C   UNL     1      -9.705  10.452  69.677  1.00  0.00    -0.158 C  
HETATM    6  C   UNL     1      -9.680   8.594  71.361  1.00  0.00    -0.314 A  
HETATM    7  C   UNL     1     -11.797   9.776  70.981  1.00  0.00    -0.442 A  
HETATM    8  C   UNL     1     -10.425   9.587  70.682  1.00  0.00    -0.374 A  
ENDROOT
BRANCH   4   9
HETATM    9  C   UNL     1      -9.453   6.678  73.084  1.00  0.00    -0.160 C  
HETATM   10  C   UNL     1      -8.697   7.255  74.308  1.00  0.00    -0.250 C  
HETATM   11  C   UNL     1      -8.414   6.058  72.128  1.00  0.00    -0.124 C  
HETATM   12  C   UNL     1     -10.352   5.547  73.632  1.00  0.00    -0.261 C  
ENDBRANCH   4   9
BRANCH   7  13
HETATM   13  C   UNL     1     -12.592  10.900  70.331  1.00  0.00    -0.376 C  
BRANCH  13  14
HETATM   14  C   UNL     1     -12.658  12.235  71.043  1.00  0.00    -0.257 A  
HETATM   15  N   UNL     1     -11.917  13.227  70.616  1.00  0.00    -0.532 NA 
HETATM   16  C   UNL     1     -12.255  14.377  71.495  1.00  0.00    -0.334 A  
HETATM   17  H   UNL     1     -11.250  13.213  69.844  1.00  0.00     0.000 HD 
HETATM   18  C   UNL     1     -13.297  13.884  72.503  1.00  0.00    -0.554 A  
HETATM   19  N   UNL     1     -13.506  12.519  72.082  1.00  0.00    -0.513 NA 
ENDBRANCH  13  14
ENDBRANCH   7  13
TORSDOF 3
ENDMDL
MODEL       14
REMARK 921   NORMALIZED FREE ENERGY PREDICTED BY IDOCK:   -5.43 KCAL/MOL
REMARK 922        TOTAL FREE ENERGY PREDICTED BY IDOCK:   -6.86 KCAL/MOL
REMARK 923 INTER-LIGAND FREE ENERGY PREDICTED BY IDOCK:   -6.33 KCAL/MOL
REMARK 924 INTRA-LIGAND FREE ENERGY PREDICTED BY IDOCK:   -0.54 KCAL/MOL
REMARK 927      BINDING AFFINITY PREDICTED BY RF-SCORE:    0.00 PKD
ROOT
HETATM    1  C   UNL     1     -11.628  15.216  68.693  1.00  0.00    -0.358 C  
HETATM    2  C   UNL     1     -11.615  13.781  69.151  1.00  0.00    -0.363 A  
HETATM    3  C   UNL     1     -10.796  12.886  68.443  1.00  0.00    -0.276 A  
HETATM    4  C   UNL     1     -10.682  11.527  68.767  1.00  0.00    -0.247 A  
HETATM    5  C   UNL     1     -13.143  11.350  71.685  1.00  0.00    -0.498 C  
HETATM    6  C   UNL     1     -11.469  11.076  69.837  1.00  0.00    -0.400 A  
HETATM    7  C   UNL     1     -12.394  13.315  70.232  1.00  0.00    -0.334 A  
HETATM    8  C   UNL     1     -12.313  11.941  70.572  1.00  0.00    -0.372 A  
ENDROOT
BRANCH   4   9
HETATM    9  C   UNL     1      -9.761  10.594  67.955  1.00  0.00    -0.170 C  
HETATM   10  C   UNL     1     -10.513   9.343  67.433  1.00  0.00    -0.343 C  
HETATM   11  C   UNL     1      -8.602  10.115  68.852  1.00  0.00    -0.141 C  
HETATM   12  C   UNL     1      -9.164  11.285  66.709  1.00  0.00    -0.186 C  
ENDBRANCH   4   9
BRANCH   7  13
HETATM   13  C   UNL     1     -13.365  14.242  70.948  1.00  0.00    -0.266 C  
BRANCH  13  14
HETATM   14  C   UNL     1     -12.865  15.012  72.152  1.00  0.00    -0.335 A  
HETATM   15  N   UNL     1     -12.355  16.207  71.983  1.00  0.00    -0.550 NA 
HETATM   16  C   UNL     1     -12.014  16.685  73.349  1.00  0.00    -0.268 A  
HETATM   17  H   UNL     1     -12.221  16.703  71.102  1.00  0.00     0.000 HD 
HETATM   18  C   UNL     1     -12.396  15.570  74.327  1.00  0.00    -0.671 A  
HETATM   19  N   UNL     1     -12.971  14.579  73.449  1.00  0.00    -0.547 NA 
ENDBRANCH  13  14
ENDBRANCH   7  13
TORSDOF 3
ENDMDL
MODEL       15
REMARK 921   NORMALIZED FREE ENERGY PREDICTED BY IDOCK:   -5.43 KCAL/MOL
REMARK 922        TOTAL FREE ENERGY PREDICTED BY IDOCK:   -6.86 KCAL/MOL
REMARK 923 INTER-LIGAND FREE ENERGY PREDICTED BY IDOCK:   -6.32 KCAL/MOL
REMARK 924 INTRA-LIGAND FREE ENERGY PREDICTED BY IDOCK:   -0.54 KCAL/MOL
REMARK 927      BINDING AFFINITY PREDICTED BY RF-SCORE:    0.00 PKD
ROOT
HETATM    1  C   UNL     1     -12.910  10.183  71.372  1.00  0.00    -0.530 C  
HETATM    2  C   UNL     1     -12.486  11.548  70.898  1.00  0.00    -0.464 A  
HETATM    3  C   UNL     1     -12.814  12.645  71.713  1.00  0.00    -0.343 A  
HETATM    4  C   UNL     1     -12.473  13.967  71.398  1.00  0.00    -0.438 A  
HETATM    5  C   UNL     1     -10.759  13.407  68.029  1.00  0.00    -0.261 C  
HETATM    6  C   UNL     1     -11.799  14.162  70.183  1.00  0.00    -0.382 A  
HETATM    7  C   UNL     1     -11.798  11.759  69.683  1.00  0.00    -0.407 A  
HETATM    8  C   UNL     1     -11.455  13.087  69.329  1.00  0.00    -0.348 A  
ENDROOT
BRANCH   4   9
HETATM    9  C   UNL     1     -12.858  15.129  72.336  1.00  0.00    -0.443 C  
HETATM   10  C   UNL     1     -12.645  14.768  73.828  1.00  0.00    -0.465 C  
HETATM   11  C   UNL     1     -14.347  15.474  72.135  1.00  0.00    -0.598 C  
HETATM   12  C   UNL     1     -12.021  16.402  72.080  1.00  0.00    -0.437 C  
ENDBRANCH   4   9
BRANCH   7  13
HETATM   13  C   UNL     1     -11.521  10.600  68.736  1.00  0.00    -0.330 C  
BRANCH  13  14
HETATM   14  C   UNL     1     -10.289   9.754  68.979  1.00  0.00    -0.208 A  
HETATM   15  N   UNL     1      -9.163  10.340  69.304  1.00  0.00    -0.200 NA 
HETATM   16  C   UNL     1      -8.190   9.235  69.510  1.00  0.00    -0.121 A  
HETATM   17  H   UNL     1      -8.991  11.342  69.395  1.00  0.00     0.000 HD 
HETATM   18  C   UNL     1      -8.933   7.923  69.240  1.00  0.00    -0.145 A  
HETATM   19  N   UNL     1     -10.272   8.384  68.958  1.00  0.00    -0.204 NA 
ENDBRANCH  13  14
ENDBRANCH   7  13
TORSDOF 3
ENDMDL
MODEL       16
REMARK 921   NORMALIZED FREE ENERGY PREDICTED BY IDOCK:   -5.41 KCAL/MOL
REMARK 922        TOTAL FREE ENERGY PREDICTED BY IDOCK:   -6.84 KCAL/MOL
REMARK 923 INTER-LIGAND FREE ENERGY PREDICTED BY IDOCK:   -6.34 KCAL/MOL
REMARK 924 INTRA-LIGAND FREE ENERGY PREDICTED BY IDOCK:   -0.50 KCAL/MOL
REMARK 927      BINDING AFFINITY PREDICTED BY RF-SCORE:    0.00 PKD
ROOT
HETATM    1  C   UNL     1     -10.467   8.749  68.163  1.00  0.00    -0.243 C  
HETATM    2  C   UNL     1     -10.966  10.166  68.272  1.00  0.00    -0.299 A  
HETATM    3  C   UNL     1     -11.065  10.908  67.083  1.00  0.00    -0.308 A  
HETATM    4  C   UNL     1     -11.522  12.232  67.038  1.00  0.00    -0.419 A  
HETATM    5  C   UNL     1     -12.117  12.837  70.764  1.00  0.00    -0.246 C  
HETATM    6  C   UNL     1     -11.856  12.815  68.269  1.00  0.00    -0.357 A  
HETATM    7  C   UNL     1     -11.316  10.763  69.502  1.00  0.00    -0.355 A  
HETATM    8  C   UNL     1     -11.765  12.107  69.491  1.00  0.00    -0.402 A  
ENDROOT
BRANCH   4   9
HETATM    9  C   UNL     1     -11.612  12.994  65.700  1.00  0.00    -0.391 C  
HETATM   10  C   UNL     1     -12.196  12.112  64.566  1.00  0.00    -0.404 C  
HETATM   11  C   UNL     1     -10.201  13.447  65.276  1.00  0.00    -0.312 C  
HETATM   12  C   UNL     1     -12.523  14.239  65.785  1.00  0.00    -0.421 C  
ENDBRANCH   4   9
BRANCH   7  13
HETATM   13  C   UNL     1     -11.121  10.015  70.813  1.00  0.00    -0.407 C  
BRANCH  13  14
HETATM   14  C   UNL     1     -12.119   8.935  71.176  1.00  0.00    -0.277 A  
HETATM   15  N   UNL     1     -13.398   9.213  71.161  1.00  0.00    -0.547 NA 
HETATM   16  C   UNL     1     -14.082   7.941  71.517  1.00  0.00    -0.395 A  
HETATM   17  H   UNL     1     -13.834  10.111  70.949  1.00  0.00     0.000 HD 
HETATM   18  C   UNL     1     -12.990   6.893  71.753  1.00  0.00    -0.277 A  
HETATM   19  N   UNL     1     -11.787   7.635  71.458  1.00  0.00    -0.284 NA 
ENDBRANCH  13  14
ENDBRANCH   7  13
TORSDOF 3
ENDMDL
MODEL       17
REMARK 921   NORMALIZED FREE ENERGY PREDICTED BY IDOCK:   -5.37 KCAL/MOL
REMARK 922        TOTAL FREE ENERGY PREDICTED BY IDOCK:   -6.80 KCAL/MOL
REMARK 923 INTER-LIGAND FREE ENERGY PREDICTED BY IDOCK:   -6.35 KCAL/MOL
REMARK 924 INTRA-LIGAND FREE ENERGY PREDICTED BY IDOCK:   -0.45 KCAL/MOL
REMARK 927      BINDING AFFINITY PREDICTED BY RF-SCORE:    0.00 PKD
ROOT
HETATM    1  C   UNL     1      -9.804  10.289  69.651  1.00  0.00    -0.230 C  
HETATM    2  C   UNL     1     -10.578   9.492  70.666  1.00  0.00    -0.374 A  
HETATM    3  C   UNL     1      -9.934   8.385  71.245  1.00  0.00    -0.261 A  
HETATM    4  C   UNL     1     -10.534   7.563  72.209  1.00  0.00    -0.275 A  
HETATM    5  C   UNL     1     -13.974   9.214  72.415  1.00  0.00    -0.488 C  
HETATM    6  C   UNL     1     -11.856   7.879  72.558  1.00  0.00    -0.390 A  
HETATM    7  C   UNL     1     -11.905   9.804  71.036  1.00  0.00    -0.442 A  
HETATM    8  C   UNL     1     -12.544   8.980  71.995  1.00  0.00    -0.464 A  
ENDROOT
BRANCH   4   9
HETATM    9  C   UNL     1      -9.774   6.364  72.811  1.00  0.00    -0.163 C  
HETATM   10  C   UNL     1     -10.235   5.016  72.202  1.00  0.00    -0.259 C  
HETATM   11  C   UNL     1     -10.026   6.313  74.332  1.00  0.00    -0.346 C  
HETATM   12  C   UNL     1      -8.250   6.445  72.569  1.00  0.00    -0.105 C  
ENDBRANCH   4   9
BRANCH   7  13
HETATM   13  C   UNL     1     -12.658  10.934  70.349  1.00  0.00    -0.376 C  
BRANCH  13  14
HETATM   14  C   UNL     1     -12.717  12.279  71.041  1.00  0.00    -0.225 A  
HETATM   15  N   UNL     1     -12.020  13.279  70.559  1.00  0.00    -0.523 NA 
HETATM   16  C   UNL     1     -12.337  14.437  71.435  1.00  0.00    -0.360 A  
HETATM   17  H   UNL     1     -11.392  13.265  69.755  1.00  0.00     0.000 HD 
HETATM   18  C   UNL     1     -13.316  13.941  72.503  1.00  0.00    -0.554 A  
HETATM   19  N   UNL     1     -13.517  12.565  72.116  1.00  0.00    -0.513 NA 
ENDBRANCH  13  14
ENDBRANCH   7  13
TORSDOF 3
ENDMDL
MODEL       18
REMARK 921   NORMALIZED FREE ENERGY PREDICTED BY IDOCK:   -5.36 KCAL/MOL
REMARK 922        TOTAL FREE ENERGY PREDICTED BY IDOCK:   -6.78 KCAL/MOL
REMARK 923 INTER-LIGAND FREE ENERGY PREDICTED BY IDOCK:   -6.28 KCAL/MOL
REMARK 924 INTRA-LIGAND FREE ENERGY PREDICTED BY IDOCK:   -0.50 KCAL/MOL
REMARK 927      BINDING AFFINITY PREDICTED BY RF-SCORE:    0.00 PKD
ROOT
HETATM    1  C   UNL     1     -13.166  12.004  72.062  1.00  0.00    -0.481 C  
HETATM    2  C   UNL     1     -12.371  11.899  70.788  1.00  0.00    -0.416 A  
HETATM    3  C   UNL     1     -12.058  13.097  70.122  1.00  0.00    -0.392 A  
HETATM    4  C   UNL     1     -11.318  13.145  68.934  1.00  0.00    -0.335 A  
HETATM    5  C   UNL     1     -10.767   9.408  68.362  1.00  0.00    -0.213 C  
HETATM    6  C   UNL     1     -10.917  11.911  68.401  1.00  0.00    -0.273 A  
HETATM    7  C   UNL     1     -11.952  10.665  70.245  1.00  0.00    -0.425 A  
HETATM    8  C   UNL     1     -11.216  10.681  69.034  1.00  0.00    -0.324 A  
ENDROOT
BRANCH   4   9
HETATM    9  C   UNL     1     -11.002  14.492  68.252  1.00  0.00    -0.258 C  
HETATM   10  C   UNL     1     -11.752  15.673  68.920  1.00  0.00    -0.396 C  
HETATM   11  C   UNL     1     -11.433  14.427  66.773  1.00  0.00    -0.381 C  
HETATM   12  C   UNL     1      -9.501  14.851  68.311  1.00  0.00    -0.210 C  
ENDBRANCH   4   9
BRANCH   7  13
HETATM   13  C   UNL     1     -12.365   9.351  70.892  1.00  0.00    -0.263 C  
BRANCH  13  14
HETATM   14  C   UNL     1     -11.396   8.688  71.849  1.00  0.00    -0.347 A  
HETATM   15  N   UNL     1     -11.844   7.802  72.703  1.00  0.00    -0.568 NA 
HETATM   16  C   UNL     1     -10.645   7.327  73.443  1.00  0.00    -0.389 A  
HETATM   17  H   UNL     1     -12.811   7.500  72.832  1.00  0.00     0.000 HD 
HETATM   18  C   UNL     1      -9.440   8.093  72.888  1.00  0.00    -0.275 A  
HETATM   19  N   UNL     1     -10.041   8.892  71.847  1.00  0.00    -0.340 NA 
ENDBRANCH  13  14
ENDBRANCH   7  13
TORSDOF 3
ENDMDL
MODEL       19
REMARK 921   NORMALIZED FREE ENERGY PREDICTED BY IDOCK:   -5.35 KCAL/MOL
REMARK 922        TOTAL FREE ENERGY PREDICTED BY IDOCK:   -6.78 KCAL/MOL
REMARK 923 INTER-LIGAND FREE ENERGY PREDICTED BY IDOCK:   -6.31 KCAL/MOL
REMARK 924 INTRA-LIGAND FREE ENERGY PREDICTED BY IDOCK:   -0.46 KCAL/MOL
REMARK 927      BINDING AFFINITY PREDICTED BY RF-SCORE:    0.00 PKD
ROOT
HETATM    1  C   UNL     1     -10.635  14.572  64.924  1.00  0.00    -0.450 C  
HETATM    2  C   UNL     1     -10.727  15.380  66.192  1.00  0.00    -0.316 A  
HETATM    3  C   UNL     1     -10.044  16.608  66.226  1.00  0.00    -0.342 A  
HETATM    4  C   UNL     1     -10.052  17.463  67.336  1.00  0.00    -0.321 A  
HETATM    5  C   UNL     1     -12.167  15.378  69.741  1.00  0.00    -0.336 C  
HETATM    6  C   UNL     1     -10.764  17.014  68.459  1.00  0.00    -0.352 A  
HETATM    7  C   UNL     1     -11.448  14.947  67.326  1.00  0.00    -0.350 A  
HETATM    8  C   UNL     1     -11.460  15.783  68.471  1.00  0.00    -0.381 A  
ENDROOT
BRANCH   4   9
HETATM    9  C   UNL     1      -9.286  18.801  67.311  1.00  0.00    -0.310 C  
HETATM   10  C   UNL     1      -9.964  19.842  66.384  1.00  0.00    -0.593 C  
HETATM   11  C   UNL     1      -7.855  18.559  66.792  1.00  0.00    -0.257 C  
HETATM   12  C   UNL     1      -9.199  19.462  68.704  1.00  0.00    -0.432 C  
ENDBRANCH   4   9
BRANCH   7  13
HETATM   13  C   UNL     1     -12.110  13.577  67.350  1.00  0.00    -0.360 C  
BRANCH  13  14
HETATM   14  C   UNL     1     -11.301  12.400  67.853  1.00  0.00    -0.289 A  
HETATM   15  N   UNL     1     -10.213  12.619  68.548  1.00  0.00    -0.296 NA 
HETATM   16  C   UNL     1      -9.701  11.272  68.913  1.00  0.00    -0.127 A  
HETATM   17  H   UNL     1      -9.804  13.523  68.789  1.00  0.00     0.000 HD 
HETATM   18  C   UNL     1     -10.660  10.244  68.305  1.00  0.00    -0.221 A  
HETATM   19  N   UNL     1     -11.662  11.086  67.697  1.00  0.00    -0.580 NA 
ENDBRANCH  13  14
ENDBRANCH   7  13
TORSDOF 3
ENDMDL
MODEL       20
REMARK 921   NORMALIZED FREE ENERGY PREDICTED BY IDOCK:   -5.22 KCAL/MOL
REMARK 922        TOTAL FREE ENERGY PREDICTED BY IDOCK:   -6.62 KCAL/MOL
REMARK 923 INTER-LIGAND FREE ENERGY PREDICTED BY IDOCK:   -6.14 KCAL/MOL
REMARK 924 INTRA-LIGAND FREE ENERGY PREDICTED BY IDOCK:   -0.48 KCAL/MOL
REMARK 927      BINDING AFFINITY PREDICTED BY RF-SCORE:    0.00 PKD
ROOT
HETATM    1  C   UNL     1     -10.780  19.611  67.266  1.00  0.00    -0.583 C  
HETATM    2  C   UNL     1      -9.852  18.486  66.892  1.00  0.00    -0.350 A  
HETATM    3  C   UNL     1     -10.403  17.196  66.808  1.00  0.00    -0.302 A  
HETATM    4  C   UNL     1      -9.657  16.062  66.462  1.00  0.00    -0.283 A  
HETATM    5  C   UNL     1      -6.206  17.655  66.067  1.00  0.00    -0.247 C  
HETATM    6  C   UNL     1      -8.289  16.267  66.227  1.00  0.00    -0.343 A  
HETATM    7  C   UNL     1      -8.476  18.679  66.642  1.00  0.00    -0.301 A  
HETATM    8  C   UNL     1      -7.691  17.547  66.306  1.00  0.00    -0.334 A  
ENDROOT
BRANCH   4   9
HETATM    9  C   UNL     1     -10.319  14.672  66.383  1.00  0.00    -0.293 C  
HETATM   10  C   UNL     1     -11.595  14.584  67.258  1.00  0.00    -0.405 C  
HETATM   11  C   UNL     1      -9.324  13.604  66.878  1.00  0.00    -0.261 C  
HETATM   12  C   UNL     1     -10.759  14.304  64.948  1.00  0.00    -0.448 C  
ENDBRANCH   4   9
BRANCH   7  13
HETATM   13  C   UNL     1      -7.837  20.048  66.825  1.00  0.00    -0.341 C  
BRANCH  13  14
HETATM   14  C   UNL     1      -7.020  20.295  68.076  1.00  0.00    -0.292 A  
HETATM   15  N   UNL     1      -7.346  19.681  69.186  1.00  0.00    -0.346 NA 
HETATM   16  C   UNL     1      -6.330  20.107  70.184  1.00  0.00    -0.324 A  
HETATM   17  H   UNL     1      -8.130  19.045  69.334  1.00  0.00     0.000 HD 
HETATM   18  C   UNL     1      -5.378  21.074  69.475  1.00  0.00    -0.352 A  
HETATM   19  N   UNL     1      -5.893  21.074  68.126  1.00  0.00    -0.334 NA 
ENDBRANCH  13  14
ENDBRANCH   7  13
TORSDOF 3
ENDMDL
MODEL       21
REMARK 921   NORMALIZED FREE ENERGY PREDICTED BY IDOCK:   -5.22 KCAL/MOL
REMARK 922        TOTAL FREE ENERGY PREDICTED BY IDOCK:   -6.62 KCAL/MOL
REMARK 923 INTER-LIGAND FREE ENERGY PREDICTED BY IDOCK:   -6.12 KCAL/MOL
REMARK 924 INTRA-LIGAND FREE ENERGY PREDICTED BY IDOCK:   -0.50 KCAL/MOL
REMARK 927      BINDING AFFINITY PREDICTED BY RF-SCORE:    0.00 PKD
ROOT
HETATM    1  C   UNL     1     -10.734  11.123  67.245  1.00  0.00    -0.304 C  
HETATM    2  C   UNL     1     -11.259  11.099  68.656  1.00  0.00    -0.314 A  
HETATM    3  C   UNL     1     -11.170   9.884  69.357  1.00  0.00    -0.196 A  
HETATM    4  C   UNL     1     -11.611   9.724  70.677  1.00  0.00    -0.389 A  
HETATM    5  C   UNL     1     -12.977  13.232  71.333  1.00  0.00    -0.398 C  
HETATM    6  C   UNL     1     -12.192  10.850  71.279  1.00  0.00    -0.395 A  
HETATM    7  C   UNL     1     -11.836  12.227  69.278  1.00  0.00    -0.363 A  
HETATM    8  C   UNL     1     -12.307  12.091  70.608  1.00  0.00    -0.394 A  
ENDROOT
BRANCH   4   9
HETATM    9  C   UNL     1     -11.483   8.365  71.395  1.00  0.00    -0.328 C  
HETATM   10  C   UNL     1     -11.254   7.200  70.399  1.00  0.00    -0.320 C  
HETATM   11  C   UNL     1     -12.779   8.079  72.178  1.00  0.00    -0.293 C  
HETATM   12  C   UNL     1     -10.294   8.324  72.381  1.00  0.00    -0.402 C  
ENDBRANCH   4   9
BRANCH   7  13
HETATM   13  C   UNL     1     -12.035  13.524  68.507  1.00  0.00    -0.379 C  
BRANCH  13  14
HETATM   14  C   UNL     1     -11.107  14.683  68.802  1.00  0.00    -0.260 A  
HETATM   15  N   UNL     1      -9.866  14.439  69.144  1.00  0.00    -0.406 NA 
HETATM   16  C   UNL     1      -9.235  15.775  69.313  1.00  0.00    -0.266 A  
HETATM   17  H   UNL     1      -9.426  13.527  69.267  1.00  0.00     0.000 HD 
HETATM   18  C   UNL     1     -10.315  16.824  69.028  1.00  0.00    -0.326 A  
HETATM   19  N   UNL     1     -11.447  16.004  68.668  1.00  0.00    -0.387 NA 
ENDBRANCH  13  14
ENDBRANCH   7  13
TORSDOF 3
ENDMDL
MODEL       22
REMARK 921   NORMALIZED FREE ENERGY PREDICTED BY IDOCK:   -5.21 KCAL/MOL
REMARK 922        TOTAL FREE ENERGY PREDICTED BY IDOCK:   -6.61 KCAL/MOL
REMARK 923 INTER-LIGAND FREE ENERGY PREDICTED BY IDOCK:   -6.11 KCAL/MOL
REMARK 924 INTRA-LIGAND FREE ENERGY PREDICTED BY IDOCK:   -0.49 KCAL/MOL
REMARK 927      BINDING AFFINITY PREDICTED BY RF-SCORE:    0.00 PKD
ROOT
HETATM    1  C   UNL     1     -12.836  13.538  71.157  1.00  0.00    -0.387 C  
HETATM    2  C   UNL     1     -12.252  12.386  70.382  1.00  0.00    -0.370 A  
HETATM    3  C   UNL     1     -12.101  11.164  71.059  1.00  0.00    -0.380 A  
HETATM    4  C   UNL     1     -11.581  10.010  70.457  1.00  0.00    -0.403 A  
HETATM    5  C   UNL     1     -10.803  11.391  66.980  1.00  0.00    -0.331 C  
HETATM    6  C   UNL     1     -11.173  10.138  69.120  1.00  0.00    -0.234 A  
HETATM    7  C   UNL     1     -11.848  12.496  69.034  1.00  0.00    -0.344 A  
HETATM    8  C   UNL     1     -11.301  11.350  68.403  1.00  0.00    -0.346 A  
ENDROOT
BRANCH   4   9
HETATM    9  C   UNL     1     -11.443   8.696  71.251  1.00  0.00    -0.341 C  
HETATM   10  C   UNL     1     -11.521   7.449  70.333  1.00  0.00    -0.250 C  
HETATM   11  C   UNL     1     -12.585   8.602  72.283  1.00  0.00    -0.457 C  
HETATM   12  C   UNL     1     -10.096   8.592  72.000  1.00  0.00    -0.386 C  
ENDBRANCH   4   9
BRANCH   7  13
HETATM   13  C   UNL     1     -11.907  13.834  68.311  1.00  0.00    -0.413 C  
BRANCH  13  14
HETATM   14  C   UNL     1     -10.837  14.861  68.618  1.00  0.00    -0.251 A  
HETATM   15  N   UNL     1      -9.666  14.459  69.047  1.00  0.00    -0.381 NA 
HETATM   16  C   UNL     1      -8.858  15.698  69.202  1.00  0.00    -0.251 A  
HETATM   17  H   UNL     1      -9.372  13.501  69.234  1.00  0.00     0.000 HD 
HETATM   18  C   UNL     1      -9.755  16.875  68.807  1.00  0.00    -0.265 A  
HETATM   19  N   UNL     1     -10.973  16.209  68.409  1.00  0.00    -0.326 NA 
ENDBRANCH  13  14
ENDBRANCH   7  13
TORSDOF 3
ENDMDL
MODEL       23
REMARK 921   NORMALIZED FREE ENERGY PREDICTED BY IDOCK:   -5.17 KCAL/MOL
REMARK 922        TOTAL FREE ENERGY PREDICTED BY IDOCK:   -6.57 KCAL/MOL
REMARK 923 INTER-LIGAND FREE ENERGY PREDICTED BY IDOCK:   -6.08 KCAL/MOL
REMARK 924 INTRA-LIGAND FREE ENERGY PREDICTED BY IDOCK:   -0.49 KCAL/MOL
REMARK 927      BINDING AFFINITY PREDICTED BY RF-SCORE:    0.00 PKD
ROOT
HETATM    1  C   UNL     1     -10.990   9.514  68.221  1.00  0.00    -0.131 C  
HETATM    2  C   UNL     1     -11.440  10.762  68.933  1.00  0.00    -0.362 A  
HETATM    3  C   UNL     1     -11.096  11.995  68.353  1.00  0.00    -0.290 A  
HETATM    4  C   UNL     1     -11.458  13.232  68.904  1.00  0.00    -0.342 A  
HETATM    5  C   UNL     1     -13.268  12.034  72.048  1.00  0.00    -0.481 C  
HETATM    6  C   UNL     1     -12.170  13.189  70.112  1.00  0.00    -0.360 A  
HETATM    7  C   UNL     1     -12.166  10.734  70.143  1.00  0.00    -0.425 A  
HETATM    8  C   UNL     1     -12.531  11.970  70.734  1.00  0.00    -0.372 A  
ENDROOT
BRANCH   4   9
HETATM    9  C   UNL     1     -11.054  14.553  68.218  1.00  0.00    -0.275 C  
HETATM   10  C   UNL     1     -11.541  14.617  66.748  1.00  0.00    -0.370 C  
HETATM   11  C   UNL     1      -9.518  14.679  68.219  1.00  0.00    -0.211 C  
HETATM   12  C   UNL     1     -11.649  15.793  68.921  1.00  0.00    -0.400 C  
ENDBRANCH   4   9
BRANCH   7  13
HETATM   13  C   UNL     1     -12.461   9.416  70.843  1.00  0.00    -0.234 C  
BRANCH  13  14
HETATM   14  C   UNL     1     -11.411   8.848  71.774  1.00  0.00    -0.353 A  
HETATM   15  N   UNL     1     -11.778   8.039  72.737  1.00  0.00    -0.569 NA 
HETATM   16  C   UNL     1     -10.518   7.641  73.418  1.00  0.00    -0.301 A  
HETATM   17  H   UNL     1     -12.727   7.744  72.969  1.00  0.00     0.000 HD 
HETATM   18  C   UNL     1      -9.371   8.362  72.703  1.00  0.00    -0.264 A  
HETATM   19  N   UNL     1     -10.063   9.060  71.646  1.00  0.00    -0.338 NA 
ENDBRANCH  13  14
ENDBRANCH   7  13
TORSDOF 3
ENDMDL
MODEL       24
REMARK 921   NORMALIZED FREE ENERGY PREDICTED BY IDOCK:   -5.09 KCAL/MOL
REMARK 922        TOTAL FREE ENERGY PREDICTED BY IDOCK:   -6.47 KCAL/MOL
REMARK 923 INTER-LIGAND FREE ENERGY PREDICTED BY IDOCK:   -5.96 KCAL/MOL
REMARK 924 INTRA-LIGAND FREE ENERGY PREDICTED BY IDOCK:   -0.51 KCAL/MOL
REMARK 927      BINDING AFFINITY PREDICTED BY RF-SCORE:    0.00 PKD
ROOT
HETATM    1  C   UNL     1     -13.460   9.946  71.519  1.00  0.00    -0.393 C  
HETATM    2  C   UNL     1     -12.006   9.673  71.236  1.00  0.00    -0.462 A  
HETATM    3  C   UNL     1     -11.331   8.803  72.109  1.00  0.00    -0.411 A  
HETATM    4  C   UNL     1      -9.982   8.455  71.958  1.00  0.00    -0.354 A  
HETATM    5  C   UNL     1      -9.113  10.560  68.889  1.00  0.00    -0.180 C  
HETATM    6  C   UNL     1      -9.303   9.056  70.887  1.00  0.00    -0.326 A  
HETATM    7  C   UNL     1     -11.312  10.261  70.157  1.00  0.00    -0.388 A  
HETATM    8  C   UNL     1      -9.941   9.942  69.988  1.00  0.00    -0.302 A  
ENDROOT
BRANCH   4   9
HETATM    9  C   UNL     1      -9.297   7.490  72.947  1.00  0.00    -0.232 C  
HETATM   10  C   UNL     1      -8.616   6.301  72.222  1.00  0.00    -0.118 C  
HETATM   11  C   UNL     1     -10.352   6.920  73.915  1.00  0.00    -0.398 C  
HETATM   12  C   UNL     1      -8.190   8.177  73.777  1.00  0.00    -0.303 C  
ENDBRANCH   4   9
BRANCH   7  13
HETATM   13  C   UNL     1     -11.993  11.285  69.260  1.00  0.00    -0.411 C  
BRANCH  13  14
HETATM   14  C   UNL     1     -11.846  12.751  69.606  1.00  0.00    -0.317 A  
HETATM   15  N   UNL     1     -12.073  13.145  70.835  1.00  0.00    -0.474 NA 
HETATM   16  C   UNL     1     -11.799  14.607  70.836  1.00  0.00    -0.313 A  
HETATM   17  H   UNL     1     -12.373  12.571  71.624  1.00  0.00     0.000 HD 
HETATM   18  C   UNL     1     -11.393  14.991  69.410  1.00  0.00    -0.297 A  
HETATM   19  N   UNL     1     -11.415  13.716  68.733  1.00  0.00    -0.285 NA 
ENDBRANCH  13  14
ENDBRANCH   7  13
TORSDOF 3
ENDMDL
MODEL       25
REMARK 921   NORMALIZED FREE ENERGY PREDICTED BY IDOCK:   -5.09 KCAL/MOL
REMARK 922        TOTAL FREE ENERGY PREDICTED BY IDOCK:   -6.47 KCAL/MOL
REMARK 923 INTER-LIGAND FREE ENERGY PREDICTED BY IDOCK:   -6.00 KCAL/MOL
REMARK 924 INTRA-LIGAND FREE ENERGY PREDICTED BY IDOCK:   -0.46 KCAL/MOL
REMARK 927      BINDING AFFINITY PREDICTED BY RF-SCORE:    0.00 PKD
ROOT
HETATM    1  C   UNL     1     -10.750  11.018  67.060  1.00  0.00    -0.319 C  
HETATM    2  C   UNL     1     -11.258  11.067  68.476  1.00  0.00    -0.329 A  
HETATM    3  C   UNL     1     -11.227   9.871  69.214  1.00  0.00    -0.174 A  
HETATM    4  C   UNL     1     -11.659   9.776  70.544  1.00  0.00    -0.365 A  
HETATM    5  C   UNL     1     -12.826  13.371  71.103  1.00  0.00    -0.372 C  
HETATM    6  C   UNL     1     -12.171  10.951  71.116  1.00  0.00    -0.441 A  
HETATM    7  C   UNL     1     -11.766  12.243  69.069  1.00  0.00    -0.376 A  
HETATM    8  C   UNL     1     -12.227  12.174  70.407  1.00  0.00    -0.378 A  
ENDROOT
BRANCH   4   9
HETATM    9  C   UNL     1     -11.596   8.435  71.303  1.00  0.00    -0.326 C  
HETATM   10  C   UNL     1     -12.798   8.253  72.264  1.00  0.00    -0.313 C  
HETATM   11  C   UNL     1     -10.302   8.384  72.140  1.00  0.00    -0.397 C  
HETATM   12  C   UNL     1     -11.617   7.215  70.356  1.00  0.00    -0.300 C  
ENDBRANCH   4   9
BRANCH   7  13
HETATM   13  C   UNL     1     -11.905  13.524  68.259  1.00  0.00    -0.401 C  
BRANCH  13  14
HETATM   14  C   UNL     1     -10.916  14.642  68.513  1.00  0.00    -0.252 A  
HETATM   15  N   UNL     1      -9.789  14.375  69.126  1.00  0.00    -0.406 NA 
HETATM   16  C   UNL     1      -9.050  15.664  69.169  1.00  0.00    -0.256 A  
HETATM   17  H   UNL     1      -9.484  13.474  69.495  1.00  0.00     0.000 HD 
HETATM   18  C   UNL     1      -9.936  16.716  68.495  1.00  0.00    -0.261 A  
HETATM   19  N   UNL     1     -11.074  15.933  68.078  1.00  0.00    -0.338 NA 
ENDBRANCH  13  14
ENDBRANCH   7  13
TORSDOF 3
ENDMDL
MODEL       26
REMARK 921   NORMALIZED FREE ENERGY PREDICTED BY IDOCK:   -5.09 KCAL/MOL
REMARK 922        TOTAL FREE ENERGY PREDICTED BY IDOCK:   -6.46 KCAL/MOL
REMARK 923 INTER-LIGAND FREE ENERGY PREDICTED BY IDOCK:   -5.93 KCAL/MOL
REMARK 924 INTRA-LIGAND FREE ENERGY PREDICTED BY IDOCK:   -0.54 KCAL/MOL
REMARK 927      BINDING AFFINITY PREDICTED BY RF-SCORE:    0.00 PKD
ROOT
HETATM    1  C   UNL     1      -9.146  10.435  69.026  1.00  0.00    -0.193 C  
HETATM    2  C   UNL     1      -9.980   9.834  70.126  1.00  0.00    -0.315 A  
HETATM    3  C   UNL     1      -9.356   8.904  70.975  1.00  0.00    -0.313 A  
HETATM    4  C   UNL     1     -10.011   8.275  72.042  1.00  0.00    -0.327 A  
HETATM    5  C   UNL     1     -13.503   9.772  71.628  1.00  0.00    -0.436 C  
HETATM    6  C   UNL     1     -11.366   8.597  72.214  1.00  0.00    -0.411 A  
HETATM    7  C   UNL     1     -11.341  10.155  70.318  1.00  0.00    -0.387 A  
HETATM    8  C   UNL     1     -12.036   9.522  71.379  1.00  0.00    -0.464 A  
ENDROOT
BRANCH   4   9
HETATM    9  C   UNL     1      -9.270   7.266  72.942  1.00  0.00    -0.185 C  
HETATM   10  C   UNL     1      -8.685   6.082  72.131  1.00  0.00    -0.132 C  
HETATM   11  C   UNL     1     -10.254   6.694  73.983  1.00  0.00    -0.395 C  
HETATM   12  C   UNL     1      -8.078   7.902  73.692  1.00  0.00    -0.248 C  
ENDBRANCH   4   9
BRANCH   7  13
HETATM   13  C   UNL     1     -12.066  11.080  69.350  1.00  0.00    -0.389 C  
BRANCH  13  14
HETATM   14  C   UNL     1     -11.988  12.572  69.593  1.00  0.00    -0.272 A  
HETATM   15  N   UNL     1     -12.109  13.031  70.814  1.00  0.00    -0.497 NA 
HETATM   16  C   UNL     1     -11.941  14.504  70.699  1.00  0.00    -0.319 A  
HETATM   17  H   UNL     1     -12.281  12.492  71.663  1.00  0.00     0.000 HD 
HETATM   18  C   UNL     1     -11.718  14.819  69.217  1.00  0.00    -0.316 A  
HETATM   19  N   UNL     1     -11.722  13.503  68.622  1.00  0.00    -0.332 NA 
ENDBRANCH  13  14
ENDBRANCH   7  13
TORSDOF 3
ENDMDL
MODEL       27
REMARK 921   NORMALIZED FREE ENERGY PREDICTED BY IDOCK:   -5.08 KCAL/MOL
REMARK 922        TOTAL FREE ENERGY PREDICTED BY IDOCK:   -6.46 KCAL/MOL
REMARK 923 INTER-LIGAND FREE ENERGY PREDICTED BY IDOCK:   -5.92 KCAL/MOL
REMARK 924 INTRA-LIGAND FREE ENERGY PREDICTED BY IDOCK:   -0.53 KCAL/MOL
REMARK 927      BINDING AFFINITY PREDICTED BY RF-SCORE:    0.00 PKD
ROOT
HETATM    1  C   UNL     1     -10.567  11.826  63.574  1.00  0.00    -0.499 C  
HETATM    2  C   UNL     1     -10.593  11.230  64.957  1.00  0.00    -0.353 A  
HETATM    3  C   UNL     1      -9.954   9.992  65.139  1.00  0.00    -0.350 A  
HETATM    4  C   UNL     1      -9.894   9.330  66.372  1.00  0.00    -0.347 A  
HETATM    5  C   UNL     1     -11.903  11.775  68.514  1.00  0.00    -0.365 C  
HETATM    6  C   UNL     1     -10.545   9.958  67.445  1.00  0.00    -0.338 A  
HETATM    7  C   UNL     1     -11.234  11.855  66.049  1.00  0.00    -0.377 A  
HETATM    8  C   UNL     1     -11.205  11.201  67.306  1.00  0.00    -0.347 A  
ENDROOT
BRANCH   4   9
HETATM    9  C   UNL     1      -9.175   7.973  66.509  1.00  0.00    -0.236 C  
HETATM   10  C   UNL     1     -10.165   6.814  66.785  1.00  0.00    -0.273 C  
HETATM   11  C   UNL     1      -8.178   8.041  67.684  1.00  0.00    -0.124 C  
HETATM   12  C   UNL     1      -8.401   7.579  65.231  1.00  0.00    -0.112 C  
ENDBRANCH   4   9
BRANCH   7  13
HETATM   13  C   UNL     1     -12.018  13.145  65.856  1.00  0.00    -0.479 C  
BRANCH  13  14
HETATM   14  C   UNL     1     -11.323  14.457  66.151  1.00  0.00    -0.350 A  
HETATM   15  N   UNL     1     -10.759  15.118  65.170  1.00  0.00    -0.392 NA 
HETATM   16  C   UNL     1     -10.220  16.357  65.791  1.00  0.00    -0.348 A  
HETATM   17  H   UNL     1     -10.703  14.842  64.189  1.00  0.00     0.000 HD 
HETATM   18  C   UNL     1     -10.551  16.295  67.285  1.00  0.00    -0.298 A  
HETATM   19  N   UNL     1     -11.295  15.062  67.380  1.00  0.00    -0.337 NA 
ENDBRANCH  13  14
ENDBRANCH   7  13
TORSDOF 3
ENDMDL
MODEL       28
REMARK 921   NORMALIZED FREE ENERGY PREDICTED BY IDOCK:   -5.08 KCAL/MOL
REMARK 922        TOTAL FREE ENERGY PREDICTED BY IDOCK:   -6.46 KCAL/MOL
REMARK 923 INTER-LIGAND FREE ENERGY PREDICTED BY IDOCK:   -6.00 KCAL/MOL
REMARK 924 INTRA-LIGAND FREE ENERGY PREDICTED BY IDOCK:   -0.45 KCAL/MOL
REMARK 927      BINDING AFFINITY PREDICTED BY RF-SCORE:    0.00 PKD
ROOT
HETATM    1  C   UNL     1      -6.193  17.158  66.428  1.00  0.00    -0.202 C  
HETATM    2  C   UNL     1      -7.694  17.230  66.525  1.00  0.00    -0.325 A  
HETATM    3  C   UNL     1      -8.410  16.035  66.339  1.00  0.00    -0.344 A  
HETATM    4  C   UNL     1      -9.808  15.956  66.411  1.00  0.00    -0.302 A  
HETATM    5  C   UNL     1     -10.629  19.632  67.056  1.00  0.00    -0.602 C  
HETATM    6  C   UNL     1     -10.485  17.161  66.651  1.00  0.00    -0.259 A  
HETATM    7  C   UNL     1      -8.390  18.432  66.775  1.00  0.00    -0.271 A  
HETATM    8  C   UNL     1      -9.805  18.388  66.837  1.00  0.00    -0.347 A  
ENDROOT
BRANCH   4   9
HETATM    9  C   UNL     1     -10.537  14.614  66.203  1.00  0.00    -0.314 C  
HETATM   10  C   UNL     1     -11.756  14.460  67.148  1.00  0.00    -0.424 C  
HETATM   11  C   UNL     1      -9.561  13.455  66.488  1.00  0.00    -0.277 C  
HETATM   12  C   UNL     1     -11.085  14.452  64.767  1.00  0.00    -0.402 C  
ENDBRANCH   4   9
BRANCH   7  13
HETATM   13  C   UNL     1      -7.644  19.755  66.878  1.00  0.00    -0.287 C  
BRANCH  13  14
HETATM   14  C   UNL     1      -6.854  20.036  68.139  1.00  0.00    -0.294 A  
HETATM   15  N   UNL     1      -5.853  20.880  68.095  1.00  0.00    -0.312 NA 
HETATM   16  C   UNL     1      -5.338  20.953  69.487  1.00  0.00    -0.375 A  
HETATM   17  H   UNL     1      -5.502  21.380  67.278  1.00  0.00     0.000 HD 
HETATM   18  C   UNL     1      -6.193  20.007  70.336  1.00  0.00    -0.333 A  
HETATM   19  N   UNL     1      -7.153  19.520  69.374  1.00  0.00    -0.336 NA 
ENDBRANCH  13  14
ENDBRANCH   7  13
TORSDOF 3
ENDMDL
MODEL       29
REMARK 921   NORMALIZED FREE ENERGY PREDICTED BY IDOCK:   -5.07 KCAL/MOL
REMARK 922        TOTAL FREE ENERGY PREDICTED BY IDOCK:   -6.45 KCAL/MOL
REMARK 923 INTER-LIGAND FREE ENERGY PREDICTED BY IDOCK:   -5.89 KCAL/MOL
REMARK 924 INTRA-LIGAND FREE ENERGY PREDICTED BY IDOCK:   -0.55 KCAL/MOL
REMARK 927      BINDING AFFINITY PREDICTED BY RF-SCORE:    0.00 PKD
ROOT
HETATM    1  C   UNL     1     -11.012  11.598  65.995  1.00  0.00    -0.338 C  
HETATM    2  C   UNL     1     -11.246  11.637  67.482  1.00  0.00    -0.355 A  
HETATM    3  C   UNL     1     -11.025  10.450  68.202  1.00  0.00    -0.334 A  
HETATM    4  C   UNL     1     -11.195  10.348  69.589  1.00  0.00    -0.333 A  
HETATM    5  C   UNL     1     -12.391  13.895  70.355  1.00  0.00    -0.433 C  
HETATM    6  C   UNL     1     -11.641  11.505  70.246  1.00  0.00    -0.305 A  
HETATM    7  C   UNL     1     -11.684  12.796  68.159  1.00  0.00    -0.392 A  
HETATM    8  C   UNL     1     -11.882  12.719  69.560  1.00  0.00    -0.379 A  
ENDROOT
BRANCH   4   9
HETATM    9  C   UNL     1     -10.932   9.018  70.323  1.00  0.00    -0.274 C  
HETATM   10  C   UNL     1     -12.127   8.600  71.218  1.00  0.00    -0.333 C  
HETATM   11  C   UNL     1      -9.690   9.171  71.224  1.00  0.00    -0.351 C  
HETATM   12  C   UNL     1     -10.692   7.841  69.352  1.00  0.00    -0.177 C  
ENDBRANCH   4   9
BRANCH   7  13
HETATM   13  C   UNL     1     -12.028  14.063  67.389  1.00  0.00    -0.439 C  
BRANCH  13  14
HETATM   14  C   UNL     1     -10.930  15.078  67.153  1.00  0.00    -0.329 A  
HETATM   15  N   UNL     1     -10.357  15.141  65.977  1.00  0.00    -0.293 NA 
HETATM   16  C   UNL     1      -9.376  16.254  66.077  1.00  0.00    -0.326 A  
HETATM   17  H   UNL     1     -10.544  14.552  65.165  1.00  0.00     0.000 HD 
HETATM   18  C   UNL     1      -9.467  16.810  67.501  1.00  0.00    -0.237 A  
HETATM   19  N   UNL     1     -10.525  16.011  68.072  1.00  0.00    -0.266 NA 
ENDBRANCH  13  14
ENDBRANCH   7  13
TORSDOF 3
ENDMDL
MODEL       30
REMARK 921   NORMALIZED FREE ENERGY PREDICTED BY IDOCK:   -5.03 KCAL/MOL
REMARK 922        TOTAL FREE ENERGY PREDICTED BY IDOCK:   -6.39 KCAL/MOL
REMARK 923 INTER-LIGAND FREE ENERGY PREDICTED BY IDOCK:   -6.01 KCAL/MOL
REMARK 924 INTRA-LIGAND FREE ENERGY PREDICTED BY IDOCK:   -0.38 KCAL/MOL
REMARK 927      BINDING AFFINITY PREDICTED BY RF-SCORE:    0.00 PKD
ROOT
HETATM    1  C   UNL     1      -7.913  14.731  67.096  1.00  0.00    -0.205 C  
HETATM    2  C   UNL     1      -9.220  13.985  67.051  1.00  0.00    -0.262 A  
HETATM    3  C   UNL     1      -9.297  12.775  67.761  1.00  0.00    -0.199 A  
HETATM    4  C   UNL     1     -10.454  11.985  67.812  1.00  0.00    -0.223 A  
HETATM    5  C   UNL     1     -12.745  14.049  65.556  1.00  0.00    -0.517 C  
HETATM    6  C   UNL     1     -11.554  12.448  67.075  1.00  0.00    -0.434 A  
HETATM    7  C   UNL     1     -10.339  14.444  66.323  1.00  0.00    -0.300 A  
HETATM    8  C   UNL     1     -11.518  13.657  66.341  1.00  0.00    -0.358 A  
ENDROOT
BRANCH   4   9
HETATM    9  C   UNL     1     -10.478  10.667  68.613  1.00  0.00    -0.211 C  
HETATM   10  C   UNL     1     -11.574  10.673  69.709  1.00  0.00    -0.385 C  
HETATM   11  C   UNL     1      -9.114  10.464  69.301  1.00  0.00    -0.188 C  
HETATM   12  C   UNL     1     -10.768   9.437  67.724  1.00  0.00    -0.290 C  
ENDBRANCH   4   9
BRANCH   7  13
HETATM   13  C   UNL     1     -10.248  15.697  65.465  1.00  0.00    -0.414 C  
BRANCH  13  14
HETATM   14  C   UNL     1     -10.397  17.042  66.143  1.00  0.00    -0.319 A  
HETATM   15  N   UNL     1     -10.468  17.097  67.450  1.00  0.00    -0.343 NA 
HETATM   16  C   UNL     1     -10.562  18.544  67.779  1.00  0.00    -0.385 A  
HETATM   17  H   UNL     1     -10.459  16.313  68.104  1.00  0.00     0.000 HD 
HETATM   18  C   UNL     1     -10.549  19.310  66.453  1.00  0.00    -0.450 A  
HETATM   19  N   UNL     1     -10.392  18.247  65.489  1.00  0.00    -0.531 NA 
ENDBRANCH  13  14
ENDBRANCH   7  13
TORSDOF 3
ENDMDL
MODEL       31
REMARK 921   NORMALIZED FREE ENERGY PREDICTED BY IDOCK:   -5.02 KCAL/MOL
REMARK 922        TOTAL FREE ENERGY PREDICTED BY IDOCK:   -6.38 KCAL/MOL
REMARK 923 INTER-LIGAND FREE ENERGY PREDICTED BY IDOCK:   -5.84 KCAL/MOL
REMARK 924 INTRA-LIGAND FREE ENERGY PREDICTED BY IDOCK:   -0.54 KCAL/MOL
REMARK 927      BINDING AFFINITY PREDICTED BY RF-SCORE:    0.00 PKD
ROOT
HETATM    1  C   UNL     1      -9.899   7.819  69.031  1.00  0.00    -0.169 C  
HETATM    2  C   UNL     1     -10.735   8.970  69.524  1.00  0.00    -0.215 A  
HETATM    3  C   UNL     1     -10.584  10.205  68.871  1.00  0.00    -0.237 A  
HETATM    4  C   UNL     1     -11.305  11.354  69.221  1.00  0.00    -0.355 A  
HETATM    5  C   UNL     1     -13.315   9.983  72.167  1.00  0.00    -0.469 C  
HETATM    6  C   UNL     1     -12.187  11.227  70.305  1.00  0.00    -0.428 A  
HETATM    7  C   UNL     1     -11.635   8.855  70.606  1.00  0.00    -0.251 A  
HETATM    8  C   UNL     1     -12.366  10.005  70.995  1.00  0.00    -0.458 A  
ENDROOT
BRANCH   4   9
HETATM    9  C   UNL     1     -11.097  12.681  68.463  1.00  0.00    -0.300 C  
HETATM   10  C   UNL     1      -9.598  12.972  68.199  1.00  0.00    -0.227 C  
HETATM   11  C   UNL     1     -11.669  13.842  69.301  1.00  0.00    -0.376 C  
HETATM   12  C   UNL     1     -11.785  12.689  67.080  1.00  0.00    -0.438 C  
ENDBRANCH   4   9
BRANCH   7  13
HETATM   13  C   UNL     1     -11.742   7.557  71.394  1.00  0.00    -0.310 C  
BRANCH  13  14
HETATM   14  C   UNL     1     -10.824   7.363  72.582  1.00  0.00    -0.303 A  
HETATM   15  N   UNL     1     -11.086   6.413  73.446  1.00  0.00    -0.472 NA 
HETATM   16  C   UNL     1      -9.982   6.471  74.440  1.00  0.00    -0.351 A  
HETATM   17  H   UNL     1     -11.879   5.771  73.438  1.00  0.00     0.000 HD 
HETATM   18  C   UNL     1      -9.053   7.613  74.018  1.00  0.00    -0.225 A  
HETATM   19  N   UNL     1      -9.670   8.071  72.795  1.00  0.00    -0.255 NA 
ENDBRANCH  13  14
ENDBRANCH   7  13
TORSDOF 3
ENDMDL
MODEL       32
REMARK 921   NORMALIZED FREE ENERGY PREDICTED BY IDOCK:   -4.98 KCAL/MOL
REMARK 922        TOTAL FREE ENERGY PREDICTED BY IDOCK:   -6.34 KCAL/MOL
REMARK 923 INTER-LIGAND FREE ENERGY PREDICTED BY IDOCK:   -5.83 KCAL/MOL
REMARK 924 INTRA-LIGAND FREE ENERGY PREDICTED BY IDOCK:   -0.51 KCAL/MOL
REMARK 927      BINDING AFFINITY PREDICTED BY RF-SCORE:    0.00 PKD
ROOT
HETATM    1  C   UNL     1     -13.390   9.870  71.853  1.00  0.00    -0.524 C  
HETATM    2  C   UNL     1     -12.824  11.093  71.180  1.00  0.00    -0.473 A  
HETATM    3  C   UNL     1     -13.021  12.330  71.816  1.00  0.00    -0.431 A  
HETATM    4  C   UNL     1     -12.541  13.543  71.306  1.00  0.00    -0.427 A  
HETATM    5  C   UNL     1     -10.935  12.294  68.072  1.00  0.00    -0.265 C  
HETATM    6  C   UNL     1     -11.863  13.476  70.080  1.00  0.00    -0.371 A  
HETATM    7  C   UNL     1     -12.130  11.039  69.951  1.00  0.00    -0.435 A  
HETATM    8  C   UNL     1     -11.647  12.253  69.401  1.00  0.00    -0.378 A  
ENDROOT
BRANCH   4   9
HETATM    9  C   UNL     1     -12.786  14.869  72.055  1.00  0.00    -0.394 C  
HETATM   10  C   UNL     1     -11.767  15.964  71.647  1.00  0.00    -0.563 C  
HETATM   11  C   UNL     1     -12.651  14.630  73.572  1.00  0.00    -0.459 C  
HETATM   12  C   UNL     1     -14.185  15.460  71.773  1.00  0.00    -0.632 C  
ENDBRANCH   4   9
BRANCH   7  13
HETATM   13  C   UNL     1     -11.993   9.728  69.192  1.00  0.00     0.568 C  
BRANCH  13  14
HETATM   14  C   UNL     1     -10.906   8.763  69.620  1.00  0.00    -0.169 A  
HETATM   15  N   UNL     1     -11.241   7.597  70.112  1.00  0.00    -0.396 NA 
HETATM   16  C   UNL     1      -9.956   6.899  70.380  1.00  0.00    -0.179 A  
HETATM   17  H   UNL     1     -12.184   7.243  70.277  1.00  0.00     0.000 HD 
HETATM   18  C   UNL     1      -8.830   7.855  69.976  1.00  0.00    -0.141 A  
HETATM   19  N   UNL     1      -9.563   8.988  69.463  1.00  0.00    -0.162 NA 
ENDBRANCH  13  14
ENDBRANCH   7  13
TORSDOF 3
ENDMDL
MODEL       33
REMARK 921   NORMALIZED FREE ENERGY PREDICTED BY IDOCK:   -4.97 KCAL/MOL
REMARK 922        TOTAL FREE ENERGY PREDICTED BY IDOCK:   -6.33 KCAL/MOL
REMARK 923 INTER-LIGAND FREE ENERGY PREDICTED BY IDOCK:   -6.53 KCAL/MOL
REMARK 924 INTRA-LIGAND FREE ENERGY PREDICTED BY IDOCK:    0.20 KCAL/MOL
REMARK 927      BINDING AFFINITY PREDICTED BY RF-SCORE:    0.00 PKD
ROOT
HETATM    1  C   UNL     1     -11.281  14.641  69.363  1.00  0.00    -0.307 C  
HETATM    2  C   UNL     1     -10.964  15.507  68.173  1.00  0.00    -0.312 A  
HETATM    3  C   UNL     1     -10.236  16.686  68.409  1.00  0.00    -0.284 A  
HETATM    4  C   UNL     1      -9.865  17.577  67.393  1.00  0.00    -0.297 A  
HETATM    5  C   UNL     1     -11.469  15.840  64.392  1.00  0.00    -0.268 C  
HETATM    6  C   UNL     1     -10.292  17.253  66.097  1.00  0.00    -0.320 A  
HETATM    7  C   UNL     1     -11.376  15.188  66.862  1.00  0.00    -0.264 A  
HETATM    8  C   UNL     1     -11.031  16.080  65.815  1.00  0.00    -0.142 A  
ENDROOT
BRANCH   4   9
HETATM    9  C   UNL     1      -9.062  18.854  67.715  1.00  0.00    -0.322 C  
HETATM   10  C   UNL     1      -7.796  18.549  68.556  1.00  0.00    -0.341 C  
HETATM   11  C   UNL     1      -9.949  19.825  68.519  1.00  0.00    -0.538 C  
HETATM   12  C   UNL     1      -8.567  19.580  66.444  1.00  0.00    -0.384 C  
ENDBRANCH   4   9
BRANCH   7  13
HETATM   13  C   UNL     1     -12.251  13.972  66.596  1.00  0.00    -0.463 C  
BRANCH  13  14
HETATM   14  C   UNL     1     -11.928  13.105  65.396  1.00  0.00    -0.406 A  
HETATM   15  N   UNL     1     -10.765  12.506  65.334  1.00  0.00    -0.273 NA 
HETATM   16  C   UNL     1     -10.797  11.718  64.073  1.00  0.00    -0.385 A  
HETATM   17  H   UNL     1     -10.000  12.567  66.006  1.00  0.00     0.000 HD 
HETATM   18  C   UNL     1     -12.157  11.971  63.416  1.00  0.00    -0.493 A  
HETATM   19  N   UNL     1     -12.804  12.831  64.378  1.00  0.00    -0.735 NA 
ENDBRANCH  13  14
ENDBRANCH   7  13
TORSDOF 3
ENDMDL
MODEL       34
REMARK 921   NORMALIZED FREE ENERGY PREDICTED BY IDOCK:   -4.96 KCAL/MOL
REMARK 922        TOTAL FREE ENERGY PREDICTED BY IDOCK:   -6.31 KCAL/MOL
REMARK 923 INTER-LIGAND FREE ENERGY PREDICTED BY IDOCK:   -5.85 KCAL/MOL
REMARK 924 INTRA-LIGAND FREE ENERGY PREDICTED BY IDOCK:   -0.46 KCAL/MOL
REMARK 927      BINDING AFFINITY PREDICTED BY RF-SCORE:    0.00 PKD
ROOT
HETATM    1  C   UNL     1     -10.945  11.347  66.997  1.00  0.00    -0.347 C  
HETATM    2  C   UNL     1     -11.437  11.443  68.417  1.00  0.00    -0.367 A  
HETATM    3  C   UNL     1     -11.458  10.260  69.175  1.00  0.00    -0.210 A  
HETATM    4  C   UNL     1     -11.882  10.208  70.510  1.00  0.00    -0.408 A  
HETATM    5  C   UNL     1     -12.867  13.866  71.016  1.00  0.00    -0.394 C  
HETATM    6  C   UNL     1     -12.331  11.416  71.065  1.00  0.00    -0.448 A  
HETATM    7  C   UNL     1     -11.882  12.653  68.993  1.00  0.00    -0.341 A  
HETATM    8  C   UNL     1     -12.334  12.629  70.337  1.00  0.00    -0.315 A  
ENDROOT
BRANCH   4   9
HETATM    9  C   UNL     1     -11.878   8.879  71.291  1.00  0.00    -0.371 C  
HETATM   10  C   UNL     1     -13.118   8.739  72.210  1.00  0.00    -0.458 C  
HETATM   11  C   UNL     1     -10.617   8.813  72.176  1.00  0.00    -0.386 C  
HETATM   12  C   UNL     1     -11.892   7.644  70.363  1.00  0.00    -0.014 C  
ENDBRANCH   4   9
BRANCH   7  13
HETATM   13  C   UNL     1     -11.965  13.926  68.163  1.00  0.00    -0.385 C  
BRANCH  13  14
HETATM   14  C   UNL     1     -10.964  15.028  68.439  1.00  0.00    -0.264 A  
HETATM   15  N   UNL     1     -11.391  16.255  68.603  1.00  0.00    -0.361 NA 
HETATM   16  C   UNL     1     -10.174  17.059  68.896  1.00  0.00    -0.322 A  
HETATM   17  H   UNL     1     -12.353  16.589  68.544  1.00  0.00     0.000 HD 
HETATM   18  C   UNL     1      -8.980  16.100  68.860  1.00  0.00    -0.247 A  
HETATM   19  N   UNL     1      -9.618  14.829  68.607  1.00  0.00    -0.213 NA 
ENDBRANCH  13  14
ENDBRANCH   7  13
TORSDOF 3
ENDMDL
MODEL       35
REMARK 921   NORMALIZED FREE ENERGY PREDICTED BY IDOCK:   -4.95 KCAL/MOL
REMARK 922        TOTAL FREE ENERGY PREDICTED BY IDOCK:   -6.30 KCAL/MOL
REMARK 923 INTER-LIGAND FREE ENERGY PREDICTED BY IDOCK:   -6.06 KCAL/MOL
REMARK 924 INTRA-LIGAND FREE ENERGY PREDICTED BY IDOCK:   -0.24 KCAL/MOL
REMARK 927      BINDING AFFINITY PREDICTED BY RF-SCORE:    0.00 PKD
ROOT
HETATM    1  C   UNL     1     -12.321  13.882  70.994  1.00  0.00    -0.453 C  
HETATM    2  C   UNL     1     -11.738  13.547  69.646  1.00  0.00    -0.378 A  
HETATM    3  C   UNL     1     -11.259  14.614  68.867  1.00  0.00    -0.285 A  
HETATM    4  C   UNL     1     -10.685  14.445  67.600  1.00  0.00    -0.263 A  
HETATM    5  C   UNL     1     -11.043  10.659  67.229  1.00  0.00    -0.313 C  
HETATM    6  C   UNL     1     -10.636  13.130  67.112  1.00  0.00    -0.259 A  
HETATM    7  C   UNL     1     -11.672  12.229  69.146  1.00  0.00    -0.377 A  
HETATM    8  C   UNL     1     -11.112  12.028  67.859  1.00  0.00    -0.289 A  
ENDROOT
BRANCH   4   9
HETATM    9  C   UNL     1     -10.172  15.656  66.795  1.00  0.00    -0.278 C  
HETATM   10  C   UNL     1     -10.667  15.629  65.326  1.00  0.00    -0.444 C  
HETATM   11  C   UNL     1      -8.631  15.643  66.781  1.00  0.00    -0.309 C  
HETATM   12  C   UNL     1     -10.647  17.004  67.382  1.00  0.00    -0.289 C  
ENDBRANCH   4   9
BRANCH   7  13
HETATM   13  C   UNL     1     -12.276  11.070  69.926  1.00  0.00    -0.408 C  
BRANCH  13  14
HETATM   14  C   UNL     1     -11.338  10.130  70.654  1.00  0.00    -0.352 A  
HETATM   15  N   UNL     1     -10.051  10.200  70.419  1.00  0.00    -0.401 NA 
HETATM   16  C   UNL     1      -9.432   9.189  71.316  1.00  0.00    -0.243 A  
HETATM   17  H   UNL     1      -9.575  10.818  69.761  1.00  0.00     0.000 HD 
HETATM   18  C   UNL     1     -10.569   8.518  72.092  1.00  0.00    -0.349 A  
HETATM   19  N   UNL     1     -11.728   9.237  71.617  1.00  0.00    -0.369 NA 
ENDBRANCH  13  14
ENDBRANCH   7  13
TORSDOF 3
ENDMDL
MODEL       36
REMARK 921   NORMALIZED FREE ENERGY PREDICTED BY IDOCK:   -4.94 KCAL/MOL
REMARK 922        TOTAL FREE ENERGY PREDICTED BY IDOCK:   -6.29 KCAL/MOL
REMARK 923 INTER-LIGAND FREE ENERGY PREDICTED BY IDOCK:   -5.75 KCAL/MOL
REMARK 924 INTRA-LIGAND FREE ENERGY PREDICTED BY IDOCK:   -0.54 KCAL/MOL
REMARK 927      BINDING AFFINITY PREDICTED BY RF-SCORE:    0.00 PKD
ROOT
HETATM    1  C   UNL     1     -11.946  11.710  68.475  1.00  0.00    -0.284 C  
HETATM    2  C   UNL     1     -11.265  11.208  67.230  1.00  0.00    -0.347 A  
HETATM    3  C   UNL     1     -10.550  10.001  67.327  1.00  0.00    -0.319 A  
HETATM    4  C   UNL     1      -9.878   9.416  66.246  1.00  0.00    -0.351 A  
HETATM    5  C   UNL     1     -10.578  12.037  63.555  1.00  0.00    -0.514 C  
HETATM    6  C   UNL     1      -9.920  10.121  65.034  1.00  0.00    -0.375 A  
HETATM    7  C   UNL     1     -11.307  11.900  66.001  1.00  0.00    -0.375 A  
HETATM    8  C   UNL     1     -10.622  11.342  64.893  1.00  0.00    -0.364 A  
ENDROOT
BRANCH   4   9
HETATM    9  C   UNL     1      -9.114   8.087  66.414  1.00  0.00    -0.226 C  
HETATM   10  C   UNL     1      -8.252   7.750  65.171  1.00  0.00    -0.135 C  
HETATM   11  C   UNL     1     -10.125   6.942  66.621  1.00  0.00    -0.211 C  
HETATM   12  C   UNL     1      -8.143   8.108  67.615  1.00  0.00    -0.127 C  
ENDBRANCH   4   9
BRANCH   7  13
HETATM   13  C   UNL     1     -11.988  13.258  65.896  1.00  0.00    -0.466 C  
BRANCH  13  14
HETATM   14  C   UNL     1     -11.187  14.490  66.259  1.00  0.00    -0.342 A  
HETATM   15  N   UNL     1     -11.401  15.079  67.409  1.00  0.00    -0.337 NA 
HETATM   16  C   UNL     1     -10.433  16.206  67.461  1.00  0.00    -0.302 A  
HETATM   17  H   UNL     1     -12.087  14.820  68.118  1.00  0.00     0.000 HD 
HETATM   18  C   UNL     1      -9.638  16.179  66.152  1.00  0.00    -0.327 A  
HETATM   19  N   UNL     1     -10.177  15.013  65.493  1.00  0.00    -0.351 NA 
ENDBRANCH  13  14
ENDBRANCH   7  13
TORSDOF 3
ENDMDL
MODEL       37
REMARK 921   NORMALIZED FREE ENERGY PREDICTED BY IDOCK:   -4.93 KCAL/MOL
REMARK 922        TOTAL FREE ENERGY PREDICTED BY IDOCK:   -6.28 KCAL/MOL
REMARK 923 INTER-LIGAND FREE ENERGY PREDICTED BY IDOCK:   -5.75 KCAL/MOL
REMARK 924 INTRA-LIGAND FREE ENERGY PREDICTED BY IDOCK:   -0.54 KCAL/MOL
REMARK 927      BINDING AFFINITY PREDICTED BY RF-SCORE:    0.00 PKD
ROOT
HETATM    1  C   UNL     1     -10.607  18.660  66.004  1.00  0.00    -0.410 C  
HETATM    2  C   UNL     1      -9.947  17.321  66.194  1.00  0.00    -0.288 A  
HETATM    3  C   UNL     1     -10.710  16.177  65.902  1.00  0.00    -0.261 A  
HETATM    4  C   UNL     1     -10.217  14.871  66.025  1.00  0.00    -0.317 A  
HETATM    5  C   UNL     1      -6.710  15.625  67.342  1.00  0.00    -0.218 C  
HETATM    6  C   UNL     1      -8.902  14.746  66.498  1.00  0.00    -0.223 A  
HETATM    7  C   UNL     1      -8.621  17.179  66.658  1.00  0.00    -0.284 A  
HETATM    8  C   UNL     1      -8.100  15.870  66.810  1.00  0.00    -0.301 A  
ENDROOT
BRANCH   4   9
HETATM    9  C   UNL     1     -11.103  13.656  65.685  1.00  0.00    -0.300 C  
HETATM   10  C   UNL     1     -12.212  14.011  64.662  1.00  0.00    -0.460 C  
HETATM   11  C   UNL     1     -11.784  13.146  66.971  1.00  0.00    -0.431 C  
HETATM   12  C   UNL     1     -10.301  12.493  65.060  1.00  0.00    -0.323 C  
ENDBRANCH   4   9
BRANCH   7  13
HETATM   13  C   UNL     1      -7.809  18.397  67.077  1.00  0.00    -0.238 C  
BRANCH  13  14
HETATM   14  C   UNL     1      -7.091  19.183  66.002  1.00  0.00    -0.266 A  
HETATM   15  N   UNL     1      -7.066  20.491  66.072  1.00  0.00    -0.447 NA 
HETATM   16  C   UNL     1      -6.256  20.933  64.906  1.00  0.00    -0.252 A  
HETATM   17  H   UNL     1      -7.510  21.081  66.777  1.00  0.00     0.000 HD 
HETATM   18  C   UNL     1      -5.830  19.672  64.148  1.00  0.00    -0.271 A  
HETATM   19  N   UNL     1      -6.383  18.622  64.971  1.00  0.00    -0.455 NA 
ENDBRANCH  13  14
ENDBRANCH   7  13
TORSDOF 3
ENDMDL
MODEL       38
REMARK 921   NORMALIZED FREE ENERGY PREDICTED BY IDOCK:   -4.92 KCAL/MOL
REMARK 922        TOTAL FREE ENERGY PREDICTED BY IDOCK:   -6.27 KCAL/MOL
REMARK 923 INTER-LIGAND FREE ENERGY PREDICTED BY IDOCK:   -5.78 KCAL/MOL
REMARK 924 INTRA-LIGAND FREE ENERGY PREDICTED BY IDOCK:   -0.50 KCAL/MOL
REMARK 927      BINDING AFFINITY PREDICTED BY RF-SCORE:    0.00 PKD
ROOT
HETATM    1  C   UNL     1     -12.132  11.567  70.080  1.00  0.00    -0.432 C  
HETATM    2  C   UNL     1     -11.359  11.383  68.801  1.00  0.00    -0.334 A  
HETATM    3  C   UNL     1     -11.786  12.113  67.679  1.00  0.00    -0.386 A  
HETATM    4  C   UNL     1     -11.153  12.045  66.430  1.00  0.00    -0.365 A  
HETATM    5  C   UNL     1      -8.445   9.467  67.218  1.00  0.00    -0.125 C  
HETATM    6  C   UNL     1     -10.064  11.166  66.334  1.00  0.00    -0.269 A  
HETATM    7  C   UNL     1     -10.254  10.511  68.691  1.00  0.00    -0.197 A  
HETATM    8  C   UNL     1      -9.604  10.407  67.436  1.00  0.00    -0.178 A  
ENDROOT
BRANCH   4   9
HETATM    9  C   UNL     1     -11.666  12.875  65.236  1.00  0.00    -0.399 C  
HETATM   10  C   UNL     1     -12.526  12.027  64.264  1.00  0.00    -0.388 C  
HETATM   11  C   UNL     1     -10.464  13.432  64.449  1.00  0.00    -0.403 C  
HETATM   12  C   UNL     1     -12.557  14.059  65.674  1.00  0.00    -0.542 C  
ENDBRANCH   4   9
BRANCH   7  13
HETATM   13  C   UNL     1      -9.836   9.634  69.863  1.00  0.00    -0.271 C  
BRANCH  13  14
HETATM   14  C   UNL     1     -10.489   8.275  70.009  1.00  0.00    -0.231 A  
HETATM   15  N   UNL     1     -11.689   8.192  70.525  1.00  0.00    -0.458 NA 
HETATM   16  C   UNL     1     -12.038   6.748  70.480  1.00  0.00    -0.274 A  
HETATM   17  H   UNL     1     -12.263   8.957  70.883  1.00  0.00     0.000 HD 
HETATM   18  C   UNL     1     -10.842   6.013  69.868  1.00  0.00    -0.363 A  
HETATM   19  N   UNL     1      -9.940   7.099  69.566  1.00  0.00    -0.162 NA 
ENDBRANCH  13  14
ENDBRANCH   7  13
TORSDOF 3
ENDMDL
MODEL       39
REMARK 921   NORMALIZED FREE ENERGY PREDICTED BY IDOCK:   -4.92 KCAL/MOL
REMARK 922        TOTAL FREE ENERGY PREDICTED BY IDOCK:   -6.27 KCAL/MOL
REMARK 923 INTER-LIGAND FREE ENERGY PREDICTED BY IDOCK:   -6.67 KCAL/MOL
REMARK 924 INTRA-LIGAND FREE ENERGY PREDICTED BY IDOCK:    0.40 KCAL/MOL
REMARK 927      BINDING AFFINITY PREDICTED BY RF-SCORE:    0.00 PKD
ROOT
HETATM    1  C   UNL     1     -12.065  13.172  69.937  1.00  0.00    -0.357 C  
HETATM    2  C   UNL     1     -11.666  14.102  68.822  1.00  0.00    -0.380 A  
HETATM    3  C   UNL     1     -11.774  13.617  67.507  1.00  0.00    -0.406 A  
HETATM    4  C   UNL     1     -11.446  14.378  66.377  1.00  0.00    -0.365 A  
HETATM    5  C   UNL     1     -10.261  17.587  68.080  1.00  0.00    -0.359 C  
HETATM    6  C   UNL     1     -10.958  15.671  66.620  1.00  0.00    -0.212 A  
HETATM    7  C   UNL     1     -11.184  15.409  69.050  1.00  0.00    -0.295 A  
HETATM    8  C   UNL     1     -10.827  16.197  67.927  1.00  0.00    -0.332 A  
ENDROOT
BRANCH   4   9
HETATM    9  C   UNL     1     -11.591  13.791  64.958  1.00  0.00    -0.350 C  
HETATM   10  C   UNL     1     -12.508  12.542  64.935  1.00  0.00    -0.524 C  
HETATM   11  C   UNL     1     -10.202  13.374  64.435  1.00  0.00    -0.262 C  
HETATM   12  C   UNL     1     -12.210  14.795  63.960  1.00  0.00    -0.185 C  
ENDBRANCH   4   9
BRANCH   7  13
HETATM   13  C   UNL     1     -10.961  15.920  70.466  1.00  0.00    -0.346 C  
BRANCH  13  14
HETATM   14  C   UNL     1     -12.045  15.675  71.494  1.00  0.00    -0.425 A  
HETATM   15  N   UNL     1     -13.299  15.848  71.158  1.00  0.00    -0.524 NA 
HETATM   16  C   UNL     1     -14.084  15.484  72.367  1.00  0.00    -0.536 A  
HETATM   17  H   UNL     1     -13.660  16.164  70.258  1.00  0.00     0.000 HD 
HETATM   18  C   UNL     1     -13.081  15.088  73.455  1.00  0.00    -0.425 A  
HETATM   19  N   UNL     1     -11.820  15.204  72.762  1.00  0.00    -0.384 NA 
ENDBRANCH  13  14
ENDBRANCH   7  13
TORSDOF 3
ENDMDL
MODEL       40
REMARK 921   NORMALIZED FREE ENERGY PREDICTED BY IDOCK:   -4.88 KCAL/MOL
REMARK 922        TOTAL FREE ENERGY PREDICTED BY IDOCK:   -6.22 KCAL/MOL
REMARK 923 INTER-LIGAND FREE ENERGY PREDICTED BY IDOCK:   -5.73 KCAL/MOL
REMARK 924 INTRA-LIGAND FREE ENERGY PREDICTED BY IDOCK:   -0.49 KCAL/MOL
REMARK 927      BINDING AFFINITY PREDICTED BY RF-SCORE:    0.00 PKD
ROOT
HETATM    1  C   UNL     1     -12.246  13.740  69.812  1.00  0.00    -0.368 C  
HETATM    2  C   UNL     1     -11.769  12.559  69.010  1.00  0.00    -0.368 A  
HETATM    3  C   UNL     1     -11.443  11.388  69.717  1.00  0.00    -0.376 A  
HETATM    4  C   UNL     1     -10.995  10.214  69.096  1.00  0.00    -0.270 A  
HETATM    5  C   UNL     1     -10.937  11.387  65.460  1.00  0.00    -0.248 C  
HETATM    6  C   UNL     1     -10.850  10.266  67.702  1.00  0.00    -0.363 A  
HETATM    7  C   UNL     1     -11.627  12.592  67.606  1.00  0.00    -0.414 A  
HETATM    8  C   UNL     1     -11.160  11.425  66.951  1.00  0.00    -0.356 A  
ENDROOT
BRANCH   4   9
HETATM    9  C   UNL     1     -10.658   8.960  69.926  1.00  0.00    -0.229 C  
HETATM   10  C   UNL     1     -11.753   8.643  70.976  1.00  0.00    -0.319 C  
HETATM   11  C   UNL     1      -9.329   9.186  70.674  1.00  0.00    -0.312 C  
HETATM   12  C   UNL     1     -10.520   7.690  69.056  1.00  0.00    -0.214 C  
ENDBRANCH   4   9
BRANCH   7  13
HETATM   13  C   UNL     1     -11.876  13.877  66.830  1.00  0.00    -0.452 C  
BRANCH  13  14
HETATM   14  C   UNL     1     -10.755  14.892  66.746  1.00  0.00    -0.312 A  
HETATM   15  N   UNL     1      -9.561  14.499  66.375  1.00  0.00    -0.290 NA 
HETATM   16  C   UNL     1      -8.730  15.731  66.357  1.00  0.00    -0.337 A  
HETATM   17  H   UNL     1      -9.265  13.549  66.147  1.00  0.00     0.000 HD 
HETATM   18  C   UNL     1      -9.632  16.891  66.790  1.00  0.00    -0.262 A  
HETATM   19  N   UNL     1     -10.907  16.237  66.962  1.00  0.00    -0.236 NA 
ENDBRANCH  13  14
ENDBRANCH   7  13
TORSDOF 3
ENDMDL
MODEL       41
REMARK 921   NORMALIZED FREE ENERGY PREDICTED BY IDOCK:   -4.88 KCAL/MOL
REMARK 922        TOTAL FREE ENERGY PREDICTED BY IDOCK:   -6.22 KCAL/MOL
REMARK 923 INTER-LIGAND FREE ENERGY PREDICTED BY IDOCK:   -5.70 KCAL/MOL
REMARK 924 INTRA-LIGAND FREE ENERGY PREDICTED BY IDOCK:   -0.52 KCAL/MOL
REMARK 927      BINDING AFFINITY PREDICTED BY RF-SCORE:    0.00 PKD
ROOT
HETATM    1  C   UNL     1      -9.450  15.858  68.374  1.00  0.00    -0.201 C  
HETATM    2  C   UNL     1     -10.354  14.763  68.873  1.00  0.00    -0.243 A  
HETATM    3  C   UNL     1     -11.158  15.048  69.989  1.00  0.00    -0.290 A  
HETATM    4  C   UNL     1     -12.051  14.125  70.551  1.00  0.00    -0.420 A  
HETATM    5  C   UNL     1     -11.377  11.118  68.291  1.00  0.00    -0.365 C  
HETATM    6  C   UNL     1     -12.086  12.855  69.956  1.00  0.00    -0.357 A  
HETATM    7  C   UNL     1     -10.408  13.483  68.278  1.00  0.00    -0.253 A  
HETATM    8  C   UNL     1     -11.288  12.522  68.835  1.00  0.00    -0.346 A  
ENDROOT
BRANCH   4   9
HETATM    9  C   UNL     1     -12.911  14.499  71.774  1.00  0.00    -0.413 C  
HETATM   10  C   UNL     1     -12.091  15.246  72.857  1.00  0.00    -0.522 C  
HETATM   11  C   UNL     1     -13.481  13.214  72.408  1.00  0.00    -0.643 C  
HETATM   12  C   UNL     1     -14.088  15.431  71.411  1.00  0.00    -0.539 C  
ENDBRANCH   4   9
BRANCH   7  13
HETATM   13  C   UNL     1      -9.473  13.118  67.134  1.00  0.00    -0.239 C  
BRANCH  13  14
HETATM   14  C   UNL     1      -8.107  12.561  67.475  1.00  0.00    -0.176 A  
HETATM   15  N   UNL     1      -7.053  13.023  66.850  1.00  0.00    -0.358 NA 
HETATM   16  C   UNL     1      -5.896  12.305  67.448  1.00  0.00    -0.143 A  
HETATM   17  H   UNL     1      -7.030  13.726  66.111  1.00  0.00     0.000 HD 
HETATM   18  C   UNL     1      -6.455  11.348  68.505  1.00  0.00    -0.056 A  
HETATM   19  N   UNL     1      -7.869  11.638  68.461  1.00  0.00    -0.136 NA 
ENDBRANCH  13  14
ENDBRANCH   7  13
TORSDOF 3
ENDMDL
MODEL       42
REMARK 921   NORMALIZED FREE ENERGY PREDICTED BY IDOCK:   -4.88 KCAL/MOL
REMARK 922        TOTAL FREE ENERGY PREDICTED BY IDOCK:   -6.22 KCAL/MOL
REMARK 923 INTER-LIGAND FREE ENERGY PREDICTED BY IDOCK:   -5.73 KCAL/MOL
REMARK 924 INTRA-LIGAND FREE ENERGY PREDICTED BY IDOCK:   -0.49 KCAL/MOL
REMARK 927      BINDING AFFINITY PREDICTED BY RF-SCORE:    0.00 PKD
ROOT
HETATM    1  C   UNL     1     -11.489  13.611  66.763  1.00  0.00    -0.370 C  
HETATM    2  C   UNL     1     -11.712  13.011  68.126  1.00  0.00    -0.391 A  
HETATM    3  C   UNL     1     -12.140  13.874  69.150  1.00  0.00    -0.377 A  
HETATM    4  C   UNL     1     -12.393  13.447  70.460  1.00  0.00    -0.401 A  
HETATM    5  C   UNL     1     -11.478   9.752  70.125  1.00  0.00    -0.272 C  
HETATM    6  C   UNL     1     -12.164  12.089  70.726  1.00  0.00    -0.382 A  
HETATM    7  C   UNL     1     -11.496  11.644  68.406  1.00  0.00    -0.360 A  
HETATM    8  C   UNL     1     -11.727  11.186  69.728  1.00  0.00    -0.419 A  
ENDROOT
BRANCH   4   9
HETATM    9  C   UNL     1     -12.866  14.442  71.539  1.00  0.00    -0.411 C  
HETATM   10  C   UNL     1     -11.686  15.235  72.157  1.00  0.00    -0.537 C  
HETATM   11  C   UNL     1     -13.568  13.668  72.673  1.00  0.00    -0.596 C  
HETATM   12  C   UNL     1     -13.847  15.499  70.985  1.00  0.00    -0.239 C  
ENDBRANCH   4   9
BRANCH   7  13
HETATM   13  C   UNL     1     -10.935  10.712  67.342  1.00  0.00    -0.361 C  
BRANCH  13  14
HETATM   14  C   UNL     1      -9.447  10.434  67.345  1.00  0.00    -0.149 A  
HETATM   15  N   UNL     1      -8.945   9.619  66.450  1.00  0.00    -0.149 NA 
HETATM   16  C   UNL     1      -7.480   9.608  66.706  1.00  0.00    -0.094 A  
HETATM   17  H   UNL     1      -9.451   9.102  65.731  1.00  0.00     0.000 HD 
HETATM   18  C   UNL     1      -7.223  10.534  67.898  1.00  0.00    -0.084 A  
HETATM   19  N   UNL     1      -8.546  11.037  68.184  1.00  0.00    -0.134 NA 
ENDBRANCH  13  14
ENDBRANCH   7  13
TORSDOF 3
ENDMDL
MODEL       43
REMARK 921   NORMALIZED FREE ENERGY PREDICTED BY IDOCK:   -4.87 KCAL/MOL
REMARK 922        TOTAL FREE ENERGY PREDICTED BY IDOCK:   -6.21 KCAL/MOL
REMARK 923 INTER-LIGAND FREE ENERGY PREDICTED BY IDOCK:   -5.66 KCAL/MOL
REMARK 924 INTRA-LIGAND FREE ENERGY PREDICTED BY IDOCK:   -0.56 KCAL/MOL
REMARK 927      BINDING AFFINITY PREDICTED BY RF-SCORE:    0.00 PKD
ROOT
HETATM    1  C   UNL     1     -10.834  14.731  64.942  1.00  0.00    -0.433 C  
HETATM    2  C   UNL     1     -10.111  15.488  66.025  1.00  0.00    -0.354 A  
HETATM    3  C   UNL     1     -10.202  16.890  66.003  1.00  0.00    -0.350 A  
HETATM    4  C   UNL     1      -9.587  17.716  66.954  1.00  0.00    -0.286 A  
HETATM    5  C   UNL     1      -7.834  15.064  69.075  1.00  0.00    -0.170 C  
HETATM    6  C   UNL     1      -8.826  17.068  67.939  1.00  0.00    -0.224 A  
HETATM    7  C   UNL     1      -9.351  14.850  67.029  1.00  0.00    -0.240 A  
HETATM    8  C   UNL     1      -8.702  15.660  67.994  1.00  0.00    -0.167 A  
ENDROOT
BRANCH   4   9
HETATM    9  C   UNL     1      -9.727  19.249  66.879  1.00  0.00    -0.406 C  
HETATM   10  C   UNL     1      -8.389  19.939  66.508  1.00  0.00    -0.372 C  
HETATM   11  C   UNL     1     -10.178  19.787  68.252  1.00  0.00    -0.569 C  
HETATM   12  C   UNL     1     -10.751  19.702  65.814  1.00  0.00    -0.493 C  
ENDBRANCH   4   9
BRANCH   7  13
HETATM   13  C   UNL     1      -9.154  13.341  67.014  1.00  0.00    -0.232 C  
BRANCH  13  14
HETATM   14  C   UNL     1     -10.055  12.492  67.886  1.00  0.00    -0.214 A  
HETATM   15  N   UNL     1      -9.520  11.690  68.772  1.00  0.00    -0.378 NA 
HETATM   16  C   UNL     1     -10.668  11.054  69.471  1.00  0.00    -0.183 A  
HETATM   17  H   UNL     1      -8.527  11.534  68.946  1.00  0.00     0.000 HD 
HETATM   18  C   UNL     1     -11.947  11.608  68.836  1.00  0.00    -0.292 A  
HETATM   19  N   UNL     1     -11.425  12.549  67.873  1.00  0.00    -0.294 NA 
ENDBRANCH  13  14
ENDBRANCH   7  13
TORSDOF 3
ENDMDL
MODEL       44
REMARK 921   NORMALIZED FREE ENERGY PREDICTED BY IDOCK:   -4.84 KCAL/MOL
REMARK 922        TOTAL FREE ENERGY PREDICTED BY IDOCK:   -6.18 KCAL/MOL
REMARK 923 INTER-LIGAND FREE ENERGY PREDICTED BY IDOCK:   -5.65 KCAL/MOL
REMARK 924 INTRA-LIGAND FREE ENERGY PREDICTED BY IDOCK:   -0.52 KCAL/MOL
REMARK 927      BINDING AFFINITY PREDICTED BY RF-SCORE:    0.00 PKD
ROOT
HETATM    1  C   UNL     1     -12.894  13.779  65.845  1.00  0.00    -0.369 C  
HETATM    2  C   UNL     1     -11.502  13.371  66.247  1.00  0.00    -0.354 A  
HETATM    3  C   UNL     1     -10.959  12.232  65.629  1.00  0.00    -0.338 A  
HETATM    4  C   UNL     1      -9.673  11.747  65.902  1.00  0.00    -0.259 A  
HETATM    5  C   UNL     1      -8.592  14.255  68.575  1.00  0.00    -0.175 C  
HETATM    6  C   UNL     1      -8.939  12.447  66.872  1.00  0.00    -0.212 A  
HETATM    7  C   UNL     1     -10.747  14.071  67.213  1.00  0.00    -0.278 A  
HETATM    8  C   UNL     1      -9.449  13.594  67.523  1.00  0.00    -0.222 A  
ENDROOT
BRANCH   4   9
HETATM    9  C   UNL     1      -9.132  10.492  65.187  1.00  0.00    -0.227 C  
HETATM   10  C   UNL     1      -7.582  10.462  65.160  1.00  0.00    -0.103 C  
HETATM   11  C   UNL     1      -9.637  10.478  63.731  1.00  0.00    -0.363 C  
HETATM   12  C   UNL     1      -9.573   9.180  65.873  1.00  0.00    -0.343 C  
ENDBRANCH   4   9
BRANCH   7  13
HETATM   13  C   UNL     1     -11.350  15.246  67.969  1.00  0.00    -0.345 C  
BRANCH  13  14
HETATM   14  C   UNL     1     -12.025  14.973  69.297  1.00  0.00    -0.289 A  
HETATM   15  N   UNL     1     -12.686  15.936  69.891  1.00  0.00    -0.591 NA 
HETATM   16  C   UNL     1     -13.249  15.324  71.123  1.00  0.00    -0.498 A  
HETATM   17  H   UNL     1     -12.792  16.900  69.574  1.00  0.00     0.000 HD 
HETATM   18  C   UNL     1     -12.795  13.861  71.150  1.00  0.00    -0.351 A  
HETATM   19  N   UNL     1     -12.064  13.747  69.910  1.00  0.00    -0.337 NA 
ENDBRANCH  13  14
ENDBRANCH   7  13
TORSDOF 3
ENDMDL
MODEL       45
REMARK 921   NORMALIZED FREE ENERGY PREDICTED BY IDOCK:   -4.83 KCAL/MOL
REMARK 922        TOTAL FREE ENERGY PREDICTED BY IDOCK:   -6.17 KCAL/MOL
REMARK 923 INTER-LIGAND FREE ENERGY PREDICTED BY IDOCK:   -5.65 KCAL/MOL
REMARK 924 INTRA-LIGAND FREE ENERGY PREDICTED BY IDOCK:   -0.51 KCAL/MOL
REMARK 927      BINDING AFFINITY PREDICTED BY RF-SCORE:    0.00 PKD
ROOT
HETATM    1  C   UNL     1     -12.169  14.101  64.253  1.00  0.00    -0.449 C  
HETATM    2  C   UNL     1     -11.044  14.257  65.242  1.00  0.00    -0.335 A  
HETATM    3  C   UNL     1     -10.670  15.565  65.594  1.00  0.00    -0.378 A  
HETATM    4  C   UNL     1      -9.647  15.854  66.508  1.00  0.00    -0.291 A  
HETATM    5  C   UNL     1      -8.493  12.305  67.328  1.00  0.00    -0.181 C  
HETATM    6  C   UNL     1      -8.969  14.751  67.048  1.00  0.00    -0.258 A  
HETATM    7  C   UNL     1     -10.358  13.157  65.802  1.00  0.00    -0.294 A  
HETATM    8  C   UNL     1      -9.307  13.418  66.716  1.00  0.00    -0.260 A  
ENDROOT
BRANCH   4   9
HETATM    9  C   UNL     1      -9.286  17.312  66.857  1.00  0.00    -0.264 C  
HETATM   10  C   UNL     1      -9.522  17.626  68.357  1.00  0.00    -0.298 C  
HETATM   11  C   UNL     1     -10.164  18.267  66.024  1.00  0.00    -0.334 C  
HETATM   12  C   UNL     1      -7.803  17.639  66.579  1.00  0.00    -0.307 C  
ENDBRANCH   4   9
BRANCH   7  13
HETATM   13  C   UNL     1     -10.675  11.736  65.360  1.00  0.00    -0.333 C  
BRANCH  13  14
HETATM   14  C   UNL     1      -9.848  11.131  64.245  1.00  0.00    -0.286 A  
HETATM   15  N   UNL     1      -9.571  11.853  63.188  1.00  0.00    -0.604 NA 
HETATM   16  C   UNL     1      -8.722  10.985  62.330  1.00  0.00    -0.303 A  
HETATM   17  H   UNL     1      -9.873  12.808  62.994  1.00  0.00     0.000 HD 
HETATM   18  C   UNL     1      -8.567   9.645  63.057  1.00  0.00    -0.207 A  
HETATM   19  N   UNL     1      -9.288   9.880  64.285  1.00  0.00    -0.274 NA 
ENDBRANCH  13  14
ENDBRANCH   7  13
TORSDOF 3
ENDMDL
MODEL       46
REMARK 921   NORMALIZED FREE ENERGY PREDICTED BY IDOCK:   -4.83 KCAL/MOL
REMARK 922        TOTAL FREE ENERGY PREDICTED BY IDOCK:   -6.16 KCAL/MOL
REMARK 923 INTER-LIGAND FREE ENERGY PREDICTED BY IDOCK:   -5.64 KCAL/MOL
REMARK 924 INTRA-LIGAND FREE ENERGY PREDICTED BY IDOCK:   -0.53 KCAL/MOL
REMARK 927      BINDING AFFINITY PREDICTED BY RF-SCORE:    0.00 PKD
ROOT
HETATM    1  C   UNL     1     -11.791  11.538  69.840  1.00  0.00    -0.430 C  
HETATM    2  C   UNL     1     -11.316  11.209  68.450  1.00  0.00    -0.357 A  
HETATM    3  C   UNL     1     -11.564  12.156  67.442  1.00  0.00    -0.410 A  
HETATM    4  C   UNL     1     -11.169  11.983  66.109  1.00  0.00    -0.394 A  
HETATM    5  C   UNL     1      -9.593   8.510  66.348  1.00  0.00    -0.314 C  
HETATM    6  C   UNL     1     -10.526  10.774  65.804  1.00  0.00    -0.256 A  
HETATM    7  C   UNL     1     -10.658  10.002  68.130  1.00  0.00    -0.268 A  
HETATM    8  C   UNL     1     -10.262   9.790  66.786  1.00  0.00    -0.300 A  
ENDROOT
BRANCH   4   9
HETATM    9  C   UNL     1     -11.466  13.062  65.048  1.00  0.00    -0.345 C  
HETATM   10  C   UNL     1     -12.718  13.903  65.408  1.00  0.00    -0.525 C  
HETATM   11  C   UNL     1     -11.721  12.383  63.688  1.00  0.00    -0.596 C  
HETATM   12  C   UNL     1     -10.307  14.070  64.885  1.00  0.00    -0.434 C  
ENDBRANCH   4   9
BRANCH   7  13
HETATM   13  C   UNL     1     -10.468   8.917  69.181  1.00  0.00    -0.236 C  
BRANCH  13  14
HETATM   14  C   UNL     1      -9.119   8.804  69.858  1.00  0.00    -0.157 A  
HETATM   15  N   UNL     1      -8.447   9.894  70.135  1.00  0.00    -0.307 NA 
HETATM   16  C   UNL     1      -7.214   9.432  70.824  1.00  0.00    -0.113 A  
HETATM   17  H   UNL     1      -8.714  10.856  69.924  1.00  0.00     0.000 HD 
HETATM   18  C   UNL     1      -7.277   7.902  70.886  1.00  0.00    -0.053 A  
HETATM   19  N   UNL     1      -8.559   7.627  70.282  1.00  0.00    -0.141 NA 
ENDBRANCH  13  14
ENDBRANCH   7  13
TORSDOF 3
ENDMDL
MODEL       47
REMARK 921   NORMALIZED FREE ENERGY PREDICTED BY IDOCK:   -4.82 KCAL/MOL
REMARK 922        TOTAL FREE ENERGY PREDICTED BY IDOCK:   -6.16 KCAL/MOL
REMARK 923 INTER-LIGAND FREE ENERGY PREDICTED BY IDOCK:   -5.68 KCAL/MOL
REMARK 924 INTRA-LIGAND FREE ENERGY PREDICTED BY IDOCK:   -0.48 KCAL/MOL
REMARK 927      BINDING AFFINITY PREDICTED BY RF-SCORE:    0.00 PKD
ROOT
HETATM    1  C   UNL     1     -11.524  16.267  64.672  1.00  0.00    -0.168 C  
HETATM    2  C   UNL     1     -10.624  15.906  65.824  1.00  0.00    -0.368 A  
HETATM    3  C   UNL     1      -9.477  16.695  66.019  1.00  0.00    -0.286 A  
HETATM    4  C   UNL     1      -8.560  16.476  67.056  1.00  0.00    -0.219 A  
HETATM    5  C   UNL     1     -10.136  13.393  68.672  1.00  0.00    -0.162 C  
HETATM    6  C   UNL     1      -8.824  15.385  67.897  1.00  0.00    -0.168 A  
HETATM    7  C   UNL     1     -10.881  14.818  66.685  1.00  0.00    -0.319 A  
HETATM    8  C   UNL     1      -9.962  14.561  67.733  1.00  0.00    -0.225 A  
ENDROOT
BRANCH   4   9
HETATM    9  C   UNL     1      -7.322  17.380  67.221  1.00  0.00    -0.194 C  
HETATM   10  C   UNL     1      -6.097  16.596  67.759  1.00  0.00    -0.157 C  
HETATM   11  C   UNL     1      -7.644  18.508  68.220  1.00  0.00    -0.305 C  
HETATM   12  C   UNL     1      -6.870  18.018  65.888  1.00  0.00    -0.332 C  
ENDBRANCH   4   9
BRANCH   7  13
HETATM   13  C   UNL     1     -12.060  13.888  66.434  1.00  0.00    -0.489 C  
BRANCH  13  14
HETATM   14  C   UNL     1     -11.983  12.937  65.258  1.00  0.00    -0.419 A  
HETATM   15  N   UNL     1     -13.060  12.706  64.549  1.00  0.00    -0.820 NA 
HETATM   16  C   UNL     1     -12.628  11.780  63.469  1.00  0.00    -0.367 A  
HETATM   17  H   UNL     1     -13.996  13.082  64.705  1.00  0.00     0.000 HD 
HETATM   18  C   UNL     1     -11.136  11.505  63.679  1.00  0.00    -0.385 A  
HETATM   19  N   UNL     1     -10.832  12.336  64.819  1.00  0.00    -0.292 NA 
ENDBRANCH  13  14
ENDBRANCH   7  13
TORSDOF 3
ENDMDL
MODEL       48
REMARK 921   NORMALIZED FREE ENERGY PREDICTED BY IDOCK:   -4.82 KCAL/MOL
REMARK 922        TOTAL FREE ENERGY PREDICTED BY IDOCK:   -6.15 KCAL/MOL
REMARK 923 INTER-LIGAND FREE ENERGY PREDICTED BY IDOCK:   -5.62 KCAL/MOL
REMARK 924 INTRA-LIGAND FREE ENERGY PREDICTED BY IDOCK:   -0.54 KCAL/MOL
REMARK 927      BINDING AFFINITY PREDICTED BY RF-SCORE:    0.00 PKD
ROOT
HETATM    1  C   UNL     1     -13.203  10.062  72.072  1.00  0.00    -0.545 C  
HETATM    2  C   UNL     1     -12.235  10.131  70.920  1.00  0.00    -0.455 A  
HETATM    3  C   UNL     1     -12.075  11.374  70.285  1.00  0.00    -0.459 A  
HETATM    4  C   UNL     1     -11.203  11.582  69.208  1.00  0.00    -0.336 A  
HETATM    5  C   UNL     1      -9.856   8.032  68.775  1.00  0.00    -0.176 C  
HETATM    6  C   UNL     1     -10.499  10.456  68.754  1.00  0.00    -0.219 A  
HETATM    7  C   UNL     1     -11.512   9.010  70.459  1.00  0.00    -0.248 A  
HETATM    8  C   UNL     1     -10.634   9.185  69.360  1.00  0.00    -0.232 A  
ENDROOT
BRANCH   4   9
HETATM    9  C   UNL     1     -11.068  12.972  68.555  1.00  0.00    -0.298 C  
HETATM   10  C   UNL     1      -9.621  13.251  68.074  1.00  0.00    -0.220 C  
HETATM   11  C   UNL     1     -11.448  14.056  69.582  1.00  0.00    -0.317 C  
HETATM   12  C   UNL     1     -11.971  13.135  67.312  1.00  0.00    -0.389 C  
ENDBRANCH   4   9
BRANCH   7  13
HETATM   13  C   UNL     1     -11.743   7.633  71.064  1.00  0.00    -0.306 C  
BRANCH  13  14
HETATM   14  C   UNL     1     -10.798   7.158  72.147  1.00  0.00    -0.224 A  
HETATM   15  N   UNL     1     -11.060   7.446  73.398  1.00  0.00    -0.569 NA 
HETATM   16  C   UNL     1      -9.975   6.801  74.185  1.00  0.00    -0.342 A  
HETATM   17  H   UNL     1     -11.841   7.995  73.756  1.00  0.00     0.000 HD 
HETATM   18  C   UNL     1      -9.042   6.110  73.186  1.00  0.00    -0.129 A  
HETATM   19  N   UNL     1      -9.699   6.368  71.927  1.00  0.00    -0.153 NA 
ENDBRANCH  13  14
ENDBRANCH   7  13
TORSDOF 3
ENDMDL
MODEL       49
REMARK 921   NORMALIZED FREE ENERGY PREDICTED BY IDOCK:   -4.79 KCAL/MOL
REMARK 922        TOTAL FREE ENERGY PREDICTED BY IDOCK:   -6.11 KCAL/MOL
REMARK 923 INTER-LIGAND FREE ENERGY PREDICTED BY IDOCK:   -5.56 KCAL/MOL
REMARK 924 INTRA-LIGAND FREE ENERGY PREDICTED BY IDOCK:   -0.55 KCAL/MOL
REMARK 927      BINDING AFFINITY PREDICTED BY RF-SCORE:    0.00 PKD
ROOT
HETATM    1  C   UNL     1     -10.884  19.319  67.507  1.00  0.00    -0.524 C  
HETATM    2  C   UNL     1     -10.124  18.102  67.963  1.00  0.00    -0.376 A  
HETATM    3  C   UNL     1     -10.812  16.876  67.971  1.00  0.00    -0.338 A  
HETATM    4  C   UNL     1     -10.225  15.666  68.362  1.00  0.00    -0.222 A  
HETATM    5  C   UNL     1      -6.742  16.918  69.315  1.00  0.00    -0.238 C  
HETATM    6  C   UNL     1      -8.890  15.734  68.791  1.00  0.00    -0.207 A  
HETATM    7  C   UNL     1      -8.778  18.153  68.386  1.00  0.00    -0.302 A  
HETATM    8  C   UNL     1      -8.162  16.947  68.805  1.00  0.00    -0.244 A  
ENDROOT
BRANCH   4   9
HETATM    9  C   UNL     1     -11.031  14.352  68.345  1.00  0.00    -0.261 C  
HETATM   10  C   UNL     1     -10.112  13.105  68.317  1.00  0.00    -0.247 C  
HETATM   11  C   UNL     1     -11.923  14.318  67.088  1.00  0.00    -0.449 C  
HETATM   12  C   UNL     1     -11.932  14.192  69.591  1.00  0.00    -0.389 C  
ENDBRANCH   4   9
BRANCH   7  13
HETATM   13  C   UNL     1      -8.043  19.482  68.483  1.00  0.00    -0.376 C  
BRANCH  13  14
HETATM   14  C   UNL     1      -7.316  19.989  67.256  1.00  0.00    -0.257 A  
HETATM   15  N   UNL     1      -6.610  21.090  67.338  1.00  0.00    -0.351 NA 
HETATM   16  C   UNL     1      -6.005  21.271  65.992  1.00  0.00    -0.232 A  
HETATM   17  H   UNL     1      -6.499  21.694  68.153  1.00  0.00     0.000 HD 
HETATM   18  C   UNL     1      -6.487  20.107  65.121  1.00  0.00    -0.286 A  
HETATM   19  N   UNL     1      -7.275  19.335  66.052  1.00  0.00    -0.264 NA 
ENDBRANCH  13  14
ENDBRANCH   7  13
TORSDOF 3
ENDMDL
MODEL       50
REMARK 921   NORMALIZED FREE ENERGY PREDICTED BY IDOCK:   -4.78 KCAL/MOL
REMARK 922        TOTAL FREE ENERGY PREDICTED BY IDOCK:   -6.11 KCAL/MOL
REMARK 923 INTER-LIGAND FREE ENERGY PREDICTED BY IDOCK:   -5.57 KCAL/MOL
REMARK 924 INTRA-LIGAND FREE ENERGY PREDICTED BY IDOCK:   -0.53 KCAL/MOL
REMARK 927      BINDING AFFINITY PREDICTED BY RF-SCORE:    0.00 PKD
ROOT
HETATM    1  C   UNL     1     -10.597  10.139  66.775  1.00  0.00    -0.239 C  
HETATM    2  C   UNL     1     -10.981  10.268  68.225  1.00  0.00    -0.315 A  
HETATM    3  C   UNL     1     -10.770   9.150  69.051  1.00  0.00    -0.176 A  
HETATM    4  C   UNL     1     -11.073   9.136  70.419  1.00  0.00    -0.293 A  
HETATM    5  C   UNL     1     -12.527  12.649  70.795  1.00  0.00    -0.357 C  
HETATM    6  C   UNL     1     -11.643  10.307  70.941  1.00  0.00    -0.454 A  
HETATM    7  C   UNL     1     -11.546  11.443  68.767  1.00  0.00    -0.378 A  
HETATM    8  C   UNL     1     -11.879  11.453  70.145  1.00  0.00    -0.440 A  
ENDROOT
BRANCH   4   9
HETATM    9  C   UNL     1     -10.814   7.879  71.274  1.00  0.00    -0.263 C  
HETATM   10  C   UNL     1     -11.588   7.919  72.616  1.00  0.00    -0.435 C  
HETATM   11  C   UNL     1      -9.309   7.781  71.593  1.00  0.00    -0.174 C  
HETATM   12  C   UNL     1     -11.252   6.578  70.566  1.00  0.00    -0.401 C  
ENDBRANCH   4   9
BRANCH   7  13
HETATM   13  C   UNL     1     -11.878  12.629  67.873  1.00  0.00    -0.388 C  
BRANCH  13  14
HETATM   14  C   UNL     1     -10.770  13.606  67.539  1.00  0.00    -0.259 A  
HETATM   15  N   UNL     1     -10.524  13.891  66.285  1.00  0.00    -0.282 NA 
HETATM   16  C   UNL     1      -9.429  14.896  66.318  1.00  0.00    -0.309 A  
HETATM   17  H   UNL     1     -10.985  13.505  65.460  1.00  0.00     0.000 HD 
HETATM   18  C   UNL     1      -9.077  15.133  67.789  1.00  0.00    -0.179 A  
HETATM   19  N   UNL     1     -10.032  14.291  68.470  1.00  0.00    -0.232 NA 
ENDBRANCH  13  14
ENDBRANCH   7  13
TORSDOF 3
ENDMDL
MODEL       51
REMARK 921   NORMALIZED FREE ENERGY PREDICTED BY IDOCK:   -4.78 KCAL/MOL
REMARK 922        TOTAL FREE ENERGY PREDICTED BY IDOCK:   -6.10 KCAL/MOL
REMARK 923 INTER-LIGAND FREE ENERGY PREDICTED BY IDOCK:   -5.56 KCAL/MOL
REMARK 924 INTRA-LIGAND FREE ENERGY PREDICTED BY IDOCK:   -0.54 KCAL/MOL
REMARK 927      BINDING AFFINITY PREDICTED BY RF-SCORE:    0.00 PKD
ROOT
HETATM    1  C   UNL     1      -7.824  14.607  67.646  1.00  0.00    -0.196 C  
HETATM    2  C   UNL     1      -8.856  15.422  66.912  1.00  0.00    -0.281 A  
HETATM    3  C   UNL     1      -8.865  16.809  67.142  1.00  0.00    -0.217 A  
HETATM    4  C   UNL     1      -9.763  17.686  66.519  1.00  0.00    -0.310 A  
HETATM    5  C   UNL     1     -11.805  15.181  64.481  1.00  0.00    -0.335 C  
HETATM    6  C   UNL     1     -10.702  17.102  65.656  1.00  0.00    -0.140 A  
HETATM    7  C   UNL     1      -9.800  14.851  66.032  1.00  0.00    -0.345 A  
HETATM    8  C   UNL     1     -10.733  15.711  65.401  1.00  0.00    -0.424 A  
ENDROOT
BRANCH   4   9
HETATM    9  C   UNL     1      -9.721  19.200  66.809  1.00  0.00    -0.396 C  
HETATM   10  C   UNL     1     -10.572  20.010  65.799  1.00  0.00    -0.428 C  
HETATM   11  C   UNL     1      -8.264  19.696  66.713  1.00  0.00    -0.331 C  
HETATM   12  C   UNL     1     -10.268  19.552  68.210  1.00  0.00    -0.552 C  
ENDBRANCH   4   9
BRANCH   7  13
HETATM   13  C   UNL     1      -9.876  13.343  65.846  1.00  0.00    -0.251 C  
BRANCH  13  14
HETATM   14  C   UNL     1     -10.592  12.525  66.901  1.00  0.00    -0.236 A  
HETATM   15  N   UNL     1     -10.378  11.235  66.966  1.00  0.00    -0.218 NA 
HETATM   16  C   UNL     1     -11.187  10.760  68.120  1.00  0.00    -0.302 A  
HETATM   17  H   UNL     1      -9.784  10.674  66.355  1.00  0.00     0.000 HD 
HETATM   18  C   UNL     1     -11.910  11.981  68.697  1.00  0.00    -0.311 A  
HETATM   19  N   UNL     1     -11.411  13.051  67.866  1.00  0.00    -0.290 NA 
ENDBRANCH  13  14
ENDBRANCH   7  13
TORSDOF 3
ENDMDL
MODEL       52
REMARK 921   NORMALIZED FREE ENERGY PREDICTED BY IDOCK:   -4.72 KCAL/MOL
REMARK 922        TOTAL FREE ENERGY PREDICTED BY IDOCK:   -6.03 KCAL/MOL
REMARK 923 INTER-LIGAND FREE ENERGY PREDICTED BY IDOCK:   -5.49 KCAL/MOL
REMARK 924 INTRA-LIGAND FREE ENERGY PREDICTED BY IDOCK:   -0.54 KCAL/MOL
REMARK 927      BINDING AFFINITY PREDICTED BY RF-SCORE:    0.00 PKD
ROOT
HETATM    1  C   UNL     1     -10.307  11.207  68.071  1.00  0.00    -0.208 C  
HETATM    2  C   UNL     1     -10.283  11.272  66.567  1.00  0.00    -0.269 A  
HETATM    3  C   UNL     1      -9.272  10.553  65.906  1.00  0.00    -0.210 A  
HETATM    4  C   UNL     1      -9.138  10.519  64.512  1.00  0.00    -0.251 A  
HETATM    5  C   UNL     1     -12.012  12.837  63.529  1.00  0.00    -0.633 C  
HETATM    6  C   UNL     1     -10.061  11.281  63.781  1.00  0.00    -0.412 A  
HETATM    7  C   UNL     1     -11.212  12.026  65.817  1.00  0.00    -0.383 A  
HETATM    8  C   UNL     1     -11.091  12.024  64.405  1.00  0.00    -0.399 A  
ENDROOT
BRANCH   4   9
HETATM    9  C   UNL     1      -8.009   9.708  63.845  1.00  0.00    -0.143 C  
HETATM   10  C   UNL     1      -6.635   9.958  64.518  1.00  0.00    -0.124 C  
HETATM   11  C   UNL     1      -7.896  10.116  62.362  1.00  0.00    -0.152 C  
HETATM   12  C   UNL     1      -8.250   8.184  63.917  1.00  0.00    -0.066 C  
ENDBRANCH   4   9
BRANCH   7  13
HETATM   13  C   UNL     1     -12.251  12.893  66.512  1.00  0.00    -0.258 C  
BRANCH  13  14
HETATM   14  C   UNL     1     -11.807  14.220  67.089  1.00  0.00    -0.425 A  
HETATM   15  N   UNL     1     -12.280  14.606  68.248  1.00  0.00    -0.604 NA 
HETATM   16  C   UNL     1     -11.614  15.905  68.531  1.00  0.00    -0.349 A  
HETATM   17  H   UNL     1     -12.959  14.119  68.833  1.00  0.00     0.000 HD 
HETATM   18  C   UNL     1     -10.696  16.211  67.344  1.00  0.00    -0.291 A  
HETATM   19  N   UNL     1     -10.870  15.041  66.516  1.00  0.00    -0.316 NA 
ENDBRANCH  13  14
ENDBRANCH   7  13
TORSDOF 3
ENDMDL
MODEL       53
REMARK 921   NORMALIZED FREE ENERGY PREDICTED BY IDOCK:   -4.71 KCAL/MOL
REMARK 922        TOTAL FREE ENERGY PREDICTED BY IDOCK:   -6.02 KCAL/MOL
REMARK 923 INTER-LIGAND FREE ENERGY PREDICTED BY IDOCK:   -5.48 KCAL/MOL
REMARK 924 INTRA-LIGAND FREE ENERGY PREDICTED BY IDOCK:   -0.54 KCAL/MOL
REMARK 927      BINDING AFFINITY PREDICTED BY RF-SCORE:    0.00 PKD
ROOT
HETATM    1  C   UNL     1      -7.609  15.749  66.818  1.00  0.00    -0.177 C  
HETATM    2  C   UNL     1      -9.014  15.252  67.036  1.00  0.00    -0.254 A  
HETATM    3  C   UNL     1      -9.459  14.198  66.219  1.00  0.00    -0.264 A  
HETATM    4  C   UNL     1     -10.738  13.633  66.321  1.00  0.00    -0.285 A  
HETATM    5  C   UNL     1     -12.196  15.829  69.087  1.00  0.00    -0.095 C  
HETATM    6  C   UNL     1     -11.593  14.202  67.277  1.00  0.00    -0.399 A  
HETATM    7  C   UNL     1      -9.882  15.806  68.000  1.00  0.00    -0.217 A  
HETATM    8  C   UNL     1     -11.188  15.268  68.115  1.00  0.00    -0.328 A  
ENDROOT
BRANCH   4   9
HETATM    9  C   UNL     1     -11.167  12.475  65.398  1.00  0.00    -0.343 C  
HETATM   10  C   UNL     1     -10.306  12.405  64.111  1.00  0.00    -0.409 C  
HETATM   11  C   UNL     1     -12.637  12.674  64.980  1.00  0.00    -0.504 C  
HETATM   12  C   UNL     1     -11.033  11.094  66.078  1.00  0.00    -0.189 C  
ENDBRANCH   4   9
BRANCH   7  13
HETATM   13  C   UNL     1      -9.459  17.013  68.825  1.00  0.00    -0.263 C  
BRANCH  13  14
HETATM   14  C   UNL     1      -9.497  18.378  68.170  1.00  0.00    -0.310 A  
HETATM   15  N   UNL     1      -8.483  19.192  68.326  1.00  0.00    -0.319 NA 
HETATM   16  C   UNL     1      -8.822  20.400  67.528  1.00  0.00    -0.282 A  
HETATM   17  H   UNL     1      -7.639  19.031  68.877  1.00  0.00     0.000 HD 
HETATM   18  C   UNL     1     -10.199  20.155  66.902  1.00  0.00    -0.430 A  
HETATM   19  N   UNL     1     -10.501  18.815  67.345  1.00  0.00    -0.410 NA 
ENDBRANCH  13  14
ENDBRANCH   7  13
TORSDOF 3
ENDMDL
MODEL       54
REMARK 921   NORMALIZED FREE ENERGY PREDICTED BY IDOCK:   -4.69 KCAL/MOL
REMARK 922        TOTAL FREE ENERGY PREDICTED BY IDOCK:   -6.00 KCAL/MOL
REMARK 923 INTER-LIGAND FREE ENERGY PREDICTED BY IDOCK:   -5.51 KCAL/MOL
REMARK 924 INTRA-LIGAND FREE ENERGY PREDICTED BY IDOCK:   -0.50 KCAL/MOL
REMARK 927      BINDING AFFINITY PREDICTED BY RF-SCORE:    0.00 PKD
ROOT
HETATM    1  C   UNL     1     -10.047  11.570  68.698  1.00  0.00    -0.214 C  
HETATM    2  C   UNL     1     -10.501  10.537  69.694  1.00  0.00    -0.257 A  
HETATM    3  C   UNL     1      -9.672   9.418  69.887  1.00  0.00    -0.236 A  
HETATM    4  C   UNL     1      -9.967   8.387  70.789  1.00  0.00    -0.222 A  
HETATM    5  C   UNL     1     -13.339   9.621  72.097  1.00  0.00    -0.545 C  
HETATM    6  C   UNL     1     -11.178   8.504  71.489  1.00  0.00    -0.345 A  
HETATM    7  C   UNL     1     -11.710  10.645  70.414  1.00  0.00    -0.446 A  
HETATM    8  C   UNL     1     -12.046   9.608  71.321  1.00  0.00    -0.457 A  
ENDROOT
BRANCH   4   9
HETATM    9  C   UNL     1      -9.015   7.187  70.960  1.00  0.00    -0.150 C  
HETATM   10  C   UNL     1      -7.947   7.127  69.838  1.00  0.00    -0.122 C  
HETATM   11  C   UNL     1      -9.830   5.879  70.915  1.00  0.00    -0.224 C  
HETATM   12  C   UNL     1      -8.233   7.233  72.292  1.00  0.00    -0.111 C  
ENDBRANCH   4   9
BRANCH   7  13
HETATM   13  C   UNL     1     -12.673  11.793  70.148  1.00  0.00     0.068 C  
BRANCH  13  14
HETATM   14  C   UNL     1     -12.655  12.976  71.094  1.00  0.00    -0.297 A  
HETATM   15  N   UNL     1     -11.897  14.007  70.816  1.00  0.00    -0.491 NA 
HETATM   16  C   UNL     1     -12.150  14.986  71.906  1.00  0.00    -0.372 A  
HETATM   17  H   UNL     1     -11.267  14.116  70.021  1.00  0.00     0.000 HD 
HETATM   18  C   UNL     1     -13.163  14.347  72.861  1.00  0.00    -0.517 A  
HETATM   19  N   UNL     1     -13.444  13.089  72.209  1.00  0.00    -0.569 NA 
ENDBRANCH  13  14
ENDBRANCH   7  13
TORSDOF 3
ENDMDL
MODEL       55
REMARK 921   NORMALIZED FREE ENERGY PREDICTED BY IDOCK:   -4.69 KCAL/MOL
REMARK 922        TOTAL FREE ENERGY PREDICTED BY IDOCK:   -6.00 KCAL/MOL
REMARK 923 INTER-LIGAND FREE ENERGY PREDICTED BY IDOCK:   -5.44 KCAL/MOL
REMARK 924 INTRA-LIGAND FREE ENERGY PREDICTED BY IDOCK:   -0.56 KCAL/MOL
REMARK 927      BINDING AFFINITY PREDICTED BY RF-SCORE:    0.00 PKD
ROOT
HETATM    1  C   UNL     1     -10.946  12.267  64.854  1.00  0.00    -0.344 C  
HETATM    2  C   UNL     1     -10.968  11.604  66.206  1.00  0.00    -0.338 A  
HETATM    3  C   UNL     1     -10.463  10.295  66.292  1.00  0.00    -0.214 A  
HETATM    4  C   UNL     1     -10.415   9.566  67.487  1.00  0.00    -0.336 A  
HETATM    5  C   UNL     1     -12.030  12.095  69.853  1.00  0.00    -0.380 C  
HETATM    6  C   UNL     1     -10.937  10.201  68.623  1.00  0.00    -0.273 A  
HETATM    7  C   UNL     1     -11.481  12.234  67.360  1.00  0.00    -0.422 A  
HETATM    8  C   UNL     1     -11.462  11.515  68.581  1.00  0.00    -0.354 A  
ENDROOT
BRANCH   4   9
HETATM    9  C   UNL     1      -9.844   8.133  67.518  1.00  0.00    -0.230 C  
HETATM   10  C   UNL     1      -8.839   7.882  66.365  1.00  0.00    -0.184 C  
HETATM   11  C   UNL     1     -10.999   7.122  67.374  1.00  0.00    -0.296 C  
HETATM   12  C   UNL     1      -9.082   7.826  68.826  1.00  0.00    -0.140 C  
ENDBRANCH   4   9
BRANCH   7  13
HETATM   13  C   UNL     1     -12.125  13.610  67.274  1.00  0.00    -0.385 C  
BRANCH  13  14
HETATM   14  C   UNL     1     -11.265  14.824  67.559  1.00  0.00    -0.332 A  
HETATM   15  N   UNL     1     -11.715  15.754  68.364  1.00  0.00    -0.399 NA 
HETATM   16  C   UNL     1     -10.622  16.757  68.456  1.00  0.00    -0.354 A  
HETATM   17  H   UNL     1     -12.623  15.783  68.829  1.00  0.00     0.000 HD 
HETATM   18  C   UNL     1      -9.479  16.262  67.565  1.00  0.00    -0.227 A  
HETATM   19  N   UNL     1      -9.990  14.999  67.087  1.00  0.00    -0.236 NA 
ENDBRANCH  13  14
ENDBRANCH   7  13
TORSDOF 3
ENDMDL
MODEL       56
REMARK 921   NORMALIZED FREE ENERGY PREDICTED BY IDOCK:   -4.67 KCAL/MOL
REMARK 922        TOTAL FREE ENERGY PREDICTED BY IDOCK:   -5.97 KCAL/MOL
REMARK 923 INTER-LIGAND FREE ENERGY PREDICTED BY IDOCK:   -5.43 KCAL/MOL
REMARK 924 INTRA-LIGAND FREE ENERGY PREDICTED BY IDOCK:   -0.54 KCAL/MOL
REMARK 927      BINDING AFFINITY PREDICTED BY RF-SCORE:    0.00 PKD
ROOT
HETATM    1  C   UNL     1     -12.874   8.735  72.310  1.00  0.00    -0.465 C  
HETATM    2  C   UNL     1     -11.564   9.033  71.631  1.00  0.00    -0.426 A  
HETATM    3  C   UNL     1     -11.605   9.806  70.459  1.00  0.00    -0.365 A  
HETATM    4  C   UNL     1     -10.461  10.165  69.733  1.00  0.00    -0.301 A  
HETATM    5  C   UNL     1      -7.793   8.390  71.813  1.00  0.00    -0.161 C  
HETATM    6  C   UNL     1      -9.239   9.678  70.220  1.00  0.00    -0.285 A  
HETATM    7  C   UNL     1     -10.325   8.559  72.115  1.00  0.00    -0.409 A  
HETATM    8  C   UNL     1      -9.152   8.891  71.393  1.00  0.00    -0.318 A  
ENDROOT
BRANCH   4   9
HETATM    9  C   UNL     1     -10.571  11.020  68.454  1.00  0.00    -0.224 C  
HETATM   10  C   UNL     1     -11.889  11.835  68.410  1.00  0.00    -0.347 C  
HETATM   11  C   UNL     1     -10.537  10.098  67.220  1.00  0.00    -0.321 C  
HETATM   12  C   UNL     1      -9.427  12.051  68.329  1.00  0.00    -0.199 C  
ENDBRANCH   4   9
BRANCH   7  13
HETATM   13  C   UNL     1     -10.264   7.636  73.324  1.00  0.00    -0.398 C  
BRANCH  13  14
HETATM   14  C   UNL     1     -10.414   6.147  73.096  1.00  0.00    -0.236 A  
HETATM   15  N   UNL     1     -11.084   5.430  73.964  1.00  0.00    -0.417 NA 
HETATM   16  C   UNL     1     -11.075   4.046  73.421  1.00  0.00    -0.246 A  
HETATM   17  H   UNL     1     -11.519   5.752  74.828  1.00  0.00     0.000 HD 
HETATM   18  C   UNL     1     -10.282   4.080  72.111  1.00  0.00    -0.140 A  
HETATM   19  N   UNL     1      -9.956   5.481  71.989  1.00  0.00    -0.176 NA 
ENDBRANCH  13  14
ENDBRANCH   7  13
TORSDOF 3
ENDMDL
MODEL       57
REMARK 921   NORMALIZED FREE ENERGY PREDICTED BY IDOCK:   -4.67 KCAL/MOL
REMARK 922        TOTAL FREE ENERGY PREDICTED BY IDOCK:   -5.97 KCAL/MOL
REMARK 923 INTER-LIGAND FREE ENERGY PREDICTED BY IDOCK:   -5.42 KCAL/MOL
REMARK 924 INTRA-LIGAND FREE ENERGY PREDICTED BY IDOCK:   -0.56 KCAL/MOL
REMARK 927      BINDING AFFINITY PREDICTED BY RF-SCORE:    0.00 PKD
ROOT
HETATM    1  C   UNL     1     -11.259  16.074  64.594  1.00  0.00    -0.340 C  
HETATM    2  C   UNL     1     -10.744  15.265  65.755  1.00  0.00    -0.357 A  
HETATM    3  C   UNL     1     -10.556  13.888  65.549  1.00  0.00    -0.318 A  
HETATM    4  C   UNL     1     -10.074  13.020  66.539  1.00  0.00    -0.270 A  
HETATM    5  C   UNL     1      -9.711  15.485  69.437  1.00  0.00    -0.283 C  
HETATM    6  C   UNL     1      -9.811  13.594  67.792  1.00  0.00    -0.232 A  
HETATM    7  C   UNL     1     -10.465  15.829  67.018  1.00  0.00    -0.309 A  
HETATM    8  C   UNL     1      -9.992  14.974  68.045  1.00  0.00    -0.219 A  
ENDROOT
BRANCH   4   9
HETATM    9  C   UNL     1      -9.884  11.517  66.250  1.00  0.00    -0.245 C  
HETATM   10  C   UNL     1      -8.405  11.078  66.403  1.00  0.00    -0.165 C  
HETATM   11  C   UNL     1     -10.326  11.216  64.805  1.00  0.00    -0.387 C  
HETATM   12  C   UNL     1     -10.698  10.621  67.210  1.00  0.00    -0.338 C  
ENDBRANCH   4   9
BRANCH   7  13
HETATM   13  C   UNL     1     -10.757  17.297  67.296  1.00  0.00    -0.215 C  
BRANCH  13  14
HETATM   14  C   UNL     1      -9.641  18.300  67.094  1.00  0.00    -0.281 A  
HETATM   15  N   UNL     1      -9.424  19.212  68.010  1.00  0.00    -0.316 NA 
HETATM   16  C   UNL     1      -8.252  19.986  67.524  1.00  0.00    -0.329 A  
HETATM   17  H   UNL     1      -9.948  19.358  68.873  1.00  0.00     0.000 HD 
HETATM   18  C   UNL     1      -7.839  19.384  66.177  1.00  0.00    -0.307 A  
HETATM   19  N   UNL     1      -8.769  18.288  66.036  1.00  0.00    -0.505 NA 
ENDBRANCH  13  14
ENDBRANCH   7  13
TORSDOF 3
ENDMDL
MODEL       58
REMARK 921   NORMALIZED FREE ENERGY PREDICTED BY IDOCK:   -4.61 KCAL/MOL
REMARK 922        TOTAL FREE ENERGY PREDICTED BY IDOCK:   -5.90 KCAL/MOL
REMARK 923 INTER-LIGAND FREE ENERGY PREDICTED BY IDOCK:   -5.34 KCAL/MOL
REMARK 924 INTRA-LIGAND FREE ENERGY PREDICTED BY IDOCK:   -0.56 KCAL/MOL
REMARK 927      BINDING AFFINITY PREDICTED BY RF-SCORE:    0.00 PKD
ROOT
HETATM    1  C   UNL     1     -12.610  12.540  70.762  1.00  0.00    -0.299 C  
HETATM    2  C   UNL     1     -11.911  11.354  70.151  1.00  0.00    -0.440 A  
HETATM    3  C   UNL     1     -11.528  10.315  71.016  1.00  0.00    -0.386 A  
HETATM    4  C   UNL     1     -10.879   9.151  70.581  1.00  0.00    -0.321 A  
HETATM    5  C   UNL     1     -10.562   9.942  66.856  1.00  0.00    -0.248 C  
HETATM    6  C   UNL     1     -10.589   9.078  69.211  1.00  0.00    -0.226 A  
HETATM    7  C   UNL     1     -11.621  11.261  68.773  1.00  0.00    -0.383 A  
HETATM    8  C   UNL     1     -10.950  10.104  68.305  1.00  0.00    -0.299 A  
ENDROOT
BRANCH   4   9
HETATM    9  C   UNL     1     -10.488   8.043  71.579  1.00  0.00    -0.265 C  
HETATM   10  C   UNL     1      -9.043   8.221  72.110  1.00  0.00    -0.279 C  
HETATM   11  C   UNL     1     -10.575   6.672  70.878  1.00  0.00    -0.263 C  
HETATM   12  C   UNL     1     -11.401   8.016  72.825  1.00  0.00    -0.439 C  
ENDBRANCH   4   9
BRANCH   7  13
HETATM   13  C   UNL     1     -11.934  12.417  67.833  1.00  0.00    -0.260 C  
BRANCH  13  14
HETATM   14  C   UNL     1     -10.911  13.525  67.696  1.00  0.00    -0.263 A  
HETATM   15  N   UNL     1     -11.284  14.685  67.215  1.00  0.00    -0.325 NA 
HETATM   16  C   UNL     1     -10.067  15.538  67.259  1.00  0.00    -0.250 A  
HETATM   17  H   UNL     1     -12.212  14.947  66.880  1.00  0.00     0.000 HD 
HETATM   18  C   UNL     1      -8.934  14.680  67.829  1.00  0.00    -0.181 A  
HETATM   19  N   UNL     1      -9.608  13.435  68.112  1.00  0.00    -0.218 NA 
ENDBRANCH  13  14
ENDBRANCH   7  13
TORSDOF 3
ENDMDL
MODEL       59
REMARK 921   NORMALIZED FREE ENERGY PREDICTED BY IDOCK:   -4.60 KCAL/MOL
REMARK 922        TOTAL FREE ENERGY PREDICTED BY IDOCK:   -5.89 KCAL/MOL
REMARK 923 INTER-LIGAND FREE ENERGY PREDICTED BY IDOCK:   -5.36 KCAL/MOL
REMARK 924 INTRA-LIGAND FREE ENERGY PREDICTED BY IDOCK:   -0.52 KCAL/MOL
REMARK 927      BINDING AFFINITY PREDICTED BY RF-SCORE:    0.00 PKD
ROOT
HETATM    1  C   UNL     1     -10.056   8.823  66.597  1.00  0.00    -0.358 C  
HETATM    2  C   UNL     1     -10.641  10.048  67.248  1.00  0.00    -0.319 A  
HETATM    3  C   UNL     1     -10.730  11.214  66.467  1.00  0.00    -0.314 A  
HETATM    4  C   UNL     1     -11.261  12.420  66.943  1.00  0.00    -0.359 A  
HETATM    5  C   UNL     1     -12.053  11.402  70.540  1.00  0.00    -0.487 C  
HETATM    6  C   UNL     1     -11.682  12.427  68.282  1.00  0.00    -0.398 A  
HETATM    7  C   UNL     1     -11.078  10.068  68.590  1.00  0.00    -0.223 A  
HETATM    8  C   UNL     1     -11.604  11.280  69.105  1.00  0.00    -0.387 A  
ENDROOT
BRANCH   4   9
HETATM    9  C   UNL     1     -11.337  13.664  66.036  1.00  0.00    -0.322 C  
HETATM   10  C   UNL     1     -11.066  14.974  66.820  1.00  0.00    -0.326 C  
HETATM   11  C   UNL     1     -12.746  13.759  65.418  1.00  0.00    -0.513 C  
HETATM   12  C   UNL     1     -10.300  13.629  64.891  1.00  0.00    -0.408 C  
ENDBRANCH   4   9
BRANCH   7  13
HETATM   13  C   UNL     1     -10.898   8.851  69.485  1.00  0.00    -0.163 C  
BRANCH  13  14
HETATM   14  C   UNL     1      -9.524   8.585  70.064  1.00  0.00    -0.164 A  
HETATM   15  N   UNL     1      -8.931   9.520  70.762  1.00  0.00    -0.291 NA 
HETATM   16  C   UNL     1      -7.645   8.922  71.210  1.00  0.00    -0.103 A  
HETATM   17  H   UNL     1      -9.277  10.460  70.958  1.00  0.00     0.000 HD 
HETATM   18  C   UNL     1      -7.589   7.499  70.646  1.00  0.00    -0.085 A  
HETATM   19  N   UNL     1      -8.863   7.387  69.976  1.00  0.00    -0.141 NA 
ENDBRANCH  13  14
ENDBRANCH   7  13
TORSDOF 3
ENDMDL
MODEL       60
REMARK 921   NORMALIZED FREE ENERGY PREDICTED BY IDOCK:   -4.59 KCAL/MOL
REMARK 922        TOTAL FREE ENERGY PREDICTED BY IDOCK:   -5.88 KCAL/MOL
REMARK 923 INTER-LIGAND FREE ENERGY PREDICTED BY IDOCK:   -5.33 KCAL/MOL
REMARK 924 INTRA-LIGAND FREE ENERGY PREDICTED BY IDOCK:   -0.55 KCAL/MOL
REMARK 927      BINDING AFFINITY PREDICTED BY RF-SCORE:    0.00 PKD
ROOT
HETATM    1  C   UNL     1      -8.337  10.438  66.926  1.00  0.00    -0.124 C  
HETATM    2  C   UNL     1      -9.357  10.213  68.011  1.00  0.00    -0.149 A  
HETATM    3  C   UNL     1      -9.511   8.902  68.490  1.00  0.00    -0.152 A  
HETATM    4  C   UNL     1     -10.416   8.554  69.502  1.00  0.00    -0.222 A  
HETATM    5  C   UNL     1     -12.015  11.965  70.140  1.00  0.00    -0.413 C  
HETATM    6  C   UNL     1     -11.209   9.594  70.010  1.00  0.00    -0.271 A  
HETATM    7  C   UNL     1     -10.155  11.251  68.539  1.00  0.00    -0.210 A  
HETATM    8  C   UNL     1     -11.092  10.927  69.551  1.00  0.00    -0.326 A  
ENDROOT
BRANCH   4   9
HETATM    9  C   UNL     1     -10.536   7.096  69.990  1.00  0.00    -0.248 C  
HETATM   10  C   UNL     1      -9.199   6.560  70.561  1.00  0.00    -0.156 C  
HETATM   11  C   UNL     1     -10.946   6.195  68.808  1.00  0.00    -0.421 C  
HETATM   12  C   UNL     1     -11.579   6.930  71.118  1.00  0.00    -0.363 C  
ENDBRANCH   4   9
BRANCH   7  13
HETATM   13  C   UNL     1     -10.079  12.659  67.965  1.00  0.00    -0.229 C  
BRANCH  13  14
HETATM   14  C   UNL     1     -10.868  12.964  66.709  1.00  0.00    -0.267 A  
HETATM   15  N   UNL     1     -10.377  13.805  65.833  1.00  0.00    -0.301 NA 
HETATM   16  C   UNL     1     -11.366  13.838  64.723  1.00  0.00    -0.360 A  
HETATM   17  H   UNL     1      -9.502  14.326  65.897  1.00  0.00     0.000 HD 
HETATM   18  C   UNL     1     -12.509  12.894  65.108  1.00  0.00    -0.501 A  
HETATM   19  N   UNL     1     -12.052  12.363  66.370  1.00  0.00    -0.614 NA 
ENDBRANCH  13  14
ENDBRANCH   7  13
TORSDOF 3
ENDMDL
MODEL       61
REMARK 921   NORMALIZED FREE ENERGY PREDICTED BY IDOCK:   -4.57 KCAL/MOL
REMARK 922        TOTAL FREE ENERGY PREDICTED BY IDOCK:   -5.86 KCAL/MOL
REMARK 923 INTER-LIGAND FREE ENERGY PREDICTED BY IDOCK:   -5.46 KCAL/MOL
REMARK 924 INTRA-LIGAND FREE ENERGY PREDICTED BY IDOCK:   -0.40 KCAL/MOL
REMARK 927      BINDING AFFINITY PREDICTED BY RF-SCORE:    0.00 PKD
ROOT
HETATM    1  C   UNL     1     -12.101  14.507  67.182  1.00  0.00    -0.301 C  
HETATM    2  C   UNL     1     -10.731  15.126  67.275  1.00  0.00    -0.305 A  
HETATM    3  C   UNL     1     -10.656  16.529  67.286  1.00  0.00    -0.285 A  
HETATM    4  C   UNL     1      -9.449  17.234  67.377  1.00  0.00    -0.245 A  
HETATM    5  C   UNL     1      -6.993  14.307  67.434  1.00  0.00    -0.077 C  
HETATM    6  C   UNL     1      -8.280  16.460  67.426  1.00  0.00    -0.178 A  
HETATM    7  C   UNL     1      -9.547  14.360  67.336  1.00  0.00    -0.216 A  
HETATM    8  C   UNL     1      -8.309  15.045  67.411  1.00  0.00    -0.210 A  
ENDROOT
BRANCH   4   9
HETATM    9  C   UNL     1      -9.431  18.776  67.389  1.00  0.00    -0.324 C  
HETATM   10  C   UNL     1      -8.789  19.342  68.681  1.00  0.00    -0.415 C  
HETATM   11  C   UNL     1     -10.877  19.303  67.303  1.00  0.00    -0.554 C  
HETATM   12  C   UNL     1      -8.622  19.370  66.214  1.00  0.00    -0.360 C  
ENDBRANCH   4   9
BRANCH   7  13
HETATM   13  C   UNL     1      -9.596  12.843  67.223  1.00  0.00    -0.220 C  
BRANCH  13  14
HETATM   14  C   UNL     1      -9.826  12.233  65.856  1.00  0.00    -0.251 A  
HETATM   15  N   UNL     1      -9.837  13.010  64.801  1.00  0.00    -0.563 NA 
HETATM   16  C   UNL     1     -10.039  12.098  63.644  1.00  0.00    -0.385 A  
HETATM   17  H   UNL     1      -9.730  14.024  64.779  1.00  0.00     0.000 HD 
HETATM   18  C   UNL     1     -10.156  10.677  64.204  1.00  0.00    -0.334 A  
HETATM   19  N   UNL     1      -9.956  10.889  65.617  1.00  0.00    -0.239 NA 
ENDBRANCH  13  14
ENDBRANCH   7  13
TORSDOF 3
ENDMDL
MODEL       62
REMARK 921   NORMALIZED FREE ENERGY PREDICTED BY IDOCK:   -4.55 KCAL/MOL
REMARK 922        TOTAL FREE ENERGY PREDICTED BY IDOCK:   -5.83 KCAL/MOL
REMARK 923 INTER-LIGAND FREE ENERGY PREDICTED BY IDOCK:   -5.32 KCAL/MOL
REMARK 924 INTRA-LIGAND FREE ENERGY PREDICTED BY IDOCK:   -0.51 KCAL/MOL
REMARK 927      BINDING AFFINITY PREDICTED BY RF-SCORE:    0.00 PKD
ROOT
HETATM    1  C   UNL     1     -12.643  13.409  65.104  1.00  0.00    -0.495 C  
HETATM    2  C   UNL     1     -11.616  13.452  66.204  1.00  0.00    -0.378 A  
HETATM    3  C   UNL     1     -11.405  14.686  66.842  1.00  0.00    -0.361 A  
HETATM    4  C   UNL     1     -10.487  14.866  67.886  1.00  0.00    -0.250 A  
HETATM    5  C   UNL     1      -9.041  11.335  68.090  1.00  0.00    -0.166 C  
HETATM    6  C   UNL     1      -9.741  13.737  68.258  1.00  0.00    -0.231 A  
HETATM    7  C   UNL     1     -10.865  12.323  66.597  1.00  0.00    -0.296 A  
HETATM    8  C   UNL     1      -9.916  12.477  67.639  1.00  0.00    -0.201 A  
ENDROOT
BRANCH   4   9
HETATM    9  C   UNL     1     -10.303  16.245  68.550  1.00  0.00    -0.261 C  
HETATM   10  C   UNL     1     -10.732  17.404  67.614  1.00  0.00    -0.310 C  
HETATM   11  C   UNL     1      -8.817  16.444  68.908  1.00  0.00    -0.256 C  
HETATM   12  C   UNL     1     -11.144  16.402  69.837  1.00  0.00    -0.313 C  
ENDBRANCH   4   9
BRANCH   7  13
HETATM   13  C   UNL     1     -11.002  11.001  65.854  1.00  0.00    -0.115 C  
BRANCH  13  14
HETATM   14  C   UNL     1     -10.126  10.767  64.641  1.00  0.00    -0.344 A  
HETATM   15  N   UNL     1      -9.500   9.623  64.514  1.00  0.00    -0.432 NA 
HETATM   16  C   UNL     1      -8.781   9.711  63.215  1.00  0.00    -0.230 A  
HETATM   17  H   UNL     1      -9.506   8.839  65.166  1.00  0.00     0.000 HD 
HETATM   18  C   UNL     1      -9.082  11.092  62.625  1.00  0.00    -0.330 A  
HETATM   19  N   UNL     1      -9.987  11.650  63.602  1.00  0.00    -0.348 NA 
ENDBRANCH  13  14
ENDBRANCH   7  13
TORSDOF 3
ENDMDL
MODEL       63
REMARK 921   NORMALIZED FREE ENERGY PREDICTED BY IDOCK:   -4.53 KCAL/MOL
REMARK 922        TOTAL FREE ENERGY PREDICTED BY IDOCK:   -5.81 KCAL/MOL
REMARK 923 INTER-LIGAND FREE ENERGY PREDICTED BY IDOCK:   -5.39 KCAL/MOL
REMARK 924 INTRA-LIGAND FREE ENERGY PREDICTED BY IDOCK:   -0.42 KCAL/MOL
REMARK 927      BINDING AFFINITY PREDICTED BY RF-SCORE:    0.00 PKD
ROOT
HETATM    1  C   UNL     1     -10.730  19.453  67.441  1.00  0.00    -0.594 C  
HETATM    2  C   UNL     1     -10.021  18.126  67.374  1.00  0.00    -0.329 A  
HETATM    3  C   UNL     1     -10.779  16.975  67.647  1.00  0.00    -0.295 A  
HETATM    4  C   UNL     1     -10.248  15.678  67.611  1.00  0.00    -0.261 A  
HETATM    5  C   UNL     1      -6.611  16.491  66.767  1.00  0.00    -0.167 C  
HETATM    6  C   UNL     1      -8.881  15.575  67.315  1.00  0.00    -0.218 A  
HETATM    7  C   UNL     1      -8.648  18.006  67.068  1.00  0.00    -0.254 A  
HETATM    8  C   UNL     1      -8.079  16.708  67.041  1.00  0.00    -0.228 A  
ENDROOT
BRANCH   4   9
HETATM    9  C   UNL     1     -11.133  14.452  67.915  1.00  0.00    -0.288 C  
HETATM   10  C   UNL     1     -10.293  13.167  68.127  1.00  0.00    -0.247 C  
HETATM   11  C   UNL     1     -12.091  14.209  66.732  1.00  0.00    -0.474 C  
HETATM   12  C   UNL     1     -11.974  14.630  69.199  1.00  0.00    -0.329 C  
ENDBRANCH   4   9
BRANCH   7  13
HETATM   13  C   UNL     1      -7.784  19.243  66.870  1.00  0.00    -0.262 C  
BRANCH  13  14
HETATM   14  C   UNL     1      -6.955  19.733  68.039  1.00  0.00    -0.273 A  
HETATM   15  N   UNL     1      -6.370  20.902  67.964  1.00  0.00    -0.335 NA 
HETATM   16  C   UNL     1      -5.691  21.086  69.274  1.00  0.00    -0.231 A  
HETATM   17  H   UNL     1      -6.378  21.549  67.175  1.00  0.00     0.000 HD 
HETATM   18  C   UNL     1      -5.968  19.831  70.107  1.00  0.00    -0.304 A  
HETATM   19  N   UNL     1      -6.822  19.066  69.229  1.00  0.00    -0.303 NA 
ENDBRANCH  13  14
ENDBRANCH   7  13
TORSDOF 3
ENDMDL
MODEL       64
REMARK 921   NORMALIZED FREE ENERGY PREDICTED BY IDOCK:   -4.53 KCAL/MOL
REMARK 922        TOTAL FREE ENERGY PREDICTED BY IDOCK:   -5.81 KCAL/MOL
REMARK 923 INTER-LIGAND FREE ENERGY PREDICTED BY IDOCK:   -5.35 KCAL/MOL
REMARK 924 INTRA-LIGAND FREE ENERGY PREDICTED BY IDOCK:   -0.46 KCAL/MOL
REMARK 927      BINDING AFFINITY PREDICTED BY RF-SCORE:    0.00 PKD
ROOT
HETATM    1  C   UNL     1     -10.330  17.660  65.586  1.00  0.00    -0.120 C  
HETATM    2  C   UNL     1     -10.604  16.384  66.339  1.00  0.00    -0.236 A  
HETATM    3  C   UNL     1     -10.870  15.232  65.580  1.00  0.00    -0.382 A  
HETATM    4  C   UNL     1     -11.131  13.979  66.149  1.00  0.00    -0.302 A  
HETATM    5  C   UNL     1     -10.971  14.907  69.853  1.00  0.00    -0.257 C  
HETATM    6  C   UNL     1     -11.150  13.926  67.551  1.00  0.00    -0.302 A  
HETATM    7  C   UNL     1     -10.616  16.314  67.748  1.00  0.00    -0.314 A  
HETATM    8  C   UNL     1     -10.894  15.063  68.354  1.00  0.00    -0.256 A  
ENDROOT
BRANCH   4   9
HETATM    9  C   UNL     1     -11.412  12.749  65.262  1.00  0.00    -0.360 C  
HETATM   10  C   UNL     1     -11.118  11.419  66.001  1.00  0.00    -0.235 C  
HETATM   11  C   UNL     1     -10.516  12.809  64.010  1.00  0.00    -0.433 C  
HETATM   12  C   UNL     1     -12.886  12.668  64.808  1.00  0.00    -0.349 C  
ENDBRANCH   4   9
BRANCH   7  13
HETATM   13  C   UNL     1     -10.431  17.567  68.592  1.00  0.00    -0.338 C  
BRANCH  13  14
HETATM   14  C   UNL     1      -9.048  18.178  68.674  1.00  0.00    -0.277 A  
HETATM   15  N   UNL     1      -8.002  17.392  68.719  1.00  0.00    -0.266 NA 
HETATM   16  C   UNL     1      -6.827  18.303  68.748  1.00  0.00    -0.260 A  
HETATM   17  H   UNL     1      -7.994  16.372  68.731  1.00  0.00     0.000 HD 
HETATM   18  C   UNL     1      -7.366  19.736  68.728  1.00  0.00    -0.304 A  
HETATM   19  N   UNL     1      -8.791  19.524  68.631  1.00  0.00    -0.364 NA 
ENDBRANCH  13  14
ENDBRANCH   7  13
TORSDOF 3
ENDMDL
MODEL       65
REMARK 921   NORMALIZED FREE ENERGY PREDICTED BY IDOCK:   -4.48 KCAL/MOL
REMARK 922        TOTAL FREE ENERGY PREDICTED BY IDOCK:   -5.75 KCAL/MOL
REMARK 923 INTER-LIGAND FREE ENERGY PREDICTED BY IDOCK:   -5.76 KCAL/MOL
REMARK 924 INTRA-LIGAND FREE ENERGY PREDICTED BY IDOCK:    0.00 KCAL/MOL
REMARK 927      BINDING AFFINITY PREDICTED BY RF-SCORE:    0.00 PKD
ROOT
HETATM    1  C   UNL     1     -12.277  12.691  70.577  1.00  0.00    -0.383 C  
HETATM    2  C   UNL     1     -11.775  11.831  69.448  1.00  0.00    -0.405 A  
HETATM    3  C   UNL     1     -11.673  12.427  68.179  1.00  0.00    -0.408 A  
HETATM    4  C   UNL     1     -11.213  11.746  67.044  1.00  0.00    -0.382 A  
HETATM    5  C   UNL     1     -10.624   8.288  68.559  1.00  0.00    -0.143 C  
HETATM    6  C   UNL     1     -10.880  10.395  67.223  1.00  0.00    -0.324 A  
HETATM    7  C   UNL     1     -11.427  10.473  69.614  1.00  0.00    -0.349 A  
HETATM    8  C   UNL     1     -10.975   9.753  68.480  1.00  0.00    -0.195 A  
ENDROOT
BRANCH   4   9
HETATM    9  C   UNL     1     -11.118  12.457  65.679  1.00  0.00    -0.343 C  
HETATM   10  C   UNL     1     -10.376  11.597  64.625  1.00  0.00    -0.341 C  
HETATM   11  C   UNL     1     -10.346  13.781  65.846  1.00  0.00    -0.315 C  
HETATM   12  C   UNL     1     -12.505  12.771  65.075  1.00  0.00    -0.572 C  
ENDBRANCH   4   9
BRANCH   7  13
HETATM   13  C   UNL     1     -11.626   9.778  70.954  1.00  0.00    -0.441 C  
BRANCH  13  14
HETATM   14  C   UNL     1     -10.462   9.007  71.540  1.00  0.00    -0.339 A  
HETATM   15  N   UNL     1      -9.253   9.501  71.445  1.00  0.00    -0.303 NA 
HETATM   16  C   UNL     1      -8.375   8.530  72.151  1.00  0.00    -0.132 A  
HETATM   17  H   UNL     1      -8.973  10.368  70.985  1.00  0.00     0.000 HD 
HETATM   18  C   UNL     1      -9.271   7.394  72.654  1.00  0.00    -0.145 A  
HETATM   19  N   UNL     1     -10.582   7.837  72.245  1.00  0.00    -0.239 NA 
ENDBRANCH  13  14
ENDBRANCH   7  13
TORSDOF 3
ENDMDL
MODEL       66
REMARK 921   NORMALIZED FREE ENERGY PREDICTED BY IDOCK:   -4.48 KCAL/MOL
REMARK 922        TOTAL FREE ENERGY PREDICTED BY IDOCK:   -5.75 KCAL/MOL
REMARK 923 INTER-LIGAND FREE ENERGY PREDICTED BY IDOCK:   -5.30 KCAL/MOL
REMARK 924 INTRA-LIGAND FREE ENERGY PREDICTED BY IDOCK:   -0.45 KCAL/MOL
REMARK 927      BINDING AFFINITY PREDICTED BY RF-SCORE:    0.00 PKD
ROOT
HETATM    1  C   UNL     1     -12.764  13.673  65.488  1.00  0.00    -0.514 C  
HETATM    2  C   UNL     1     -11.435  13.235  66.046  1.00  0.00    -0.360 A  
HETATM    3  C   UNL     1     -10.862  12.069  65.509  1.00  0.00    -0.336 A  
HETATM    4  C   UNL     1      -9.628  11.556  65.928  1.00  0.00    -0.254 A  
HETATM    5  C   UNL     1      -8.768  14.086  68.659  1.00  0.00    -0.103 C  
HETATM    6  C   UNL     1      -8.982  12.255  66.960  1.00  0.00    -0.204 A  
HETATM    7  C   UNL     1     -10.769  13.934  67.076  1.00  0.00    -0.283 A  
HETATM    8  C   UNL     1      -9.526  13.429  67.533  1.00  0.00    -0.219 A  
ENDROOT
BRANCH   4   9
HETATM    9  C   UNL     1      -9.048  10.273  65.298  1.00  0.00    -0.228 C  
HETATM   10  C   UNL     1      -7.503  10.217  65.407  1.00  0.00    -0.145 C  
HETATM   11  C   UNL     1      -9.425  10.226  63.804  1.00  0.00    -0.352 C  
HETATM   12  C   UNL     1      -9.572   8.988  65.977  1.00  0.00    -0.342 C  
ENDBRANCH   4   9
BRANCH   7  13
HETATM   13  C   UNL     1     -11.416  15.139  67.742  1.00  0.00    -0.329 C  
BRANCH  13  14
HETATM   14  C   UNL     1     -10.814  16.506  67.490  1.00  0.00    -0.237 A  
HETATM   15  N   UNL     1     -10.411  16.816  66.283  1.00  0.00    -0.319 NA 
HETATM   16  C   UNL     1      -9.926  18.218  66.379  1.00  0.00    -0.380 A  
HETATM   17  H   UNL     1     -10.426  16.222  65.454  1.00  0.00     0.000 HD 
HETATM   18  C   UNL     1     -10.102  18.659  67.835  1.00  0.00    -0.369 A  
HETATM   19  N   UNL     1     -10.721  17.499  68.431  1.00  0.00    -0.328 NA 
ENDBRANCH  13  14
ENDBRANCH   7  13
TORSDOF 3
ENDMDL
MODEL       67
REMARK 921   NORMALIZED FREE ENERGY PREDICTED BY IDOCK:   -4.46 KCAL/MOL
REMARK 922        TOTAL FREE ENERGY PREDICTED BY IDOCK:   -5.73 KCAL/MOL
REMARK 923 INTER-LIGAND FREE ENERGY PREDICTED BY IDOCK:   -5.20 KCAL/MOL
REMARK 924 INTRA-LIGAND FREE ENERGY PREDICTED BY IDOCK:   -0.53 KCAL/MOL
REMARK 927      BINDING AFFINITY PREDICTED BY RF-SCORE:    0.00 PKD
ROOT
HETATM    1  C   UNL     1     -11.284  11.381  68.172  1.00  0.00    -0.343 C  
HETATM    2  C   UNL     1     -10.512  10.329  67.420  1.00  0.00    -0.303 A  
HETATM    3  C   UNL     1     -10.590   9.009  67.893  1.00  0.00    -0.256 A  
HETATM    4  C   UNL     1      -9.931   7.932  67.285  1.00  0.00    -0.280 A  
HETATM    5  C   UNL     1      -8.123   9.788  64.476  1.00  0.00    -0.146 C  
HETATM    6  C   UNL     1      -9.139   8.241  66.168  1.00  0.00    -0.238 A  
HETATM    7  C   UNL     1      -9.720  10.623  66.289  1.00  0.00    -0.245 A  
HETATM    8  C   UNL     1      -9.027   9.557  65.662  1.00  0.00    -0.224 A  
ENDROOT
BRANCH   4   9
HETATM    9  C   UNL     1     -10.059   6.503  67.849  1.00  0.00    -0.170 C  
HETATM   10  C   UNL     1     -11.049   6.435  69.041  1.00  0.00    -0.424 C  
HETATM   11  C   UNL     1      -8.680   6.026  68.345  1.00  0.00    -0.113 C  
HETATM   12  C   UNL     1     -10.581   5.495  66.802  1.00  0.00    -0.360 C  
ENDBRANCH   4   9
BRANCH   7  13
HETATM   13  C   UNL     1      -9.538  12.059  65.818  1.00  0.00    -0.227 C  
BRANCH  13  14
HETATM   14  C   UNL     1     -10.632  12.680  64.975  1.00  0.00    -0.303 A  
HETATM   15  N   UNL     1     -11.148  11.993  63.987  1.00  0.00    -0.352 NA 
HETATM   16  C   UNL     1     -12.204  12.866  63.410  1.00  0.00    -0.490 A  
HETATM   17  H   UNL     1     -10.882  11.057  63.679  1.00  0.00     0.000 HD 
HETATM   18  C   UNL     1     -12.202  14.169  64.215  1.00  0.00    -0.420 A  
HETATM   19  N   UNL     1     -11.191  13.909  65.212  1.00  0.00    -0.304 NA 
ENDBRANCH  13  14
ENDBRANCH   7  13
TORSDOF 3
ENDMDL
MODEL       68
REMARK 921   NORMALIZED FREE ENERGY PREDICTED BY IDOCK:   -4.46 KCAL/MOL
REMARK 922        TOTAL FREE ENERGY PREDICTED BY IDOCK:   -5.73 KCAL/MOL
REMARK 923 INTER-LIGAND FREE ENERGY PREDICTED BY IDOCK:   -5.63 KCAL/MOL
REMARK 924 INTRA-LIGAND FREE ENERGY PREDICTED BY IDOCK:   -0.10 KCAL/MOL
REMARK 927      BINDING AFFINITY PREDICTED BY RF-SCORE:    0.00 PKD
ROOT
HETATM    1  C   UNL     1     -13.654   9.630  71.894  1.00  0.00    -0.446 C  
HETATM    2  C   UNL     1     -12.296   9.147  71.459  1.00  0.00    -0.421 A  
HETATM    3  C   UNL     1     -11.930   7.839  71.821  1.00  0.00    -0.332 A  
HETATM    4  C   UNL     1     -10.702   7.260  71.474  1.00  0.00    -0.241 A  
HETATM    5  C   UNL     1      -9.096  10.200  69.637  1.00  0.00    -0.195 C  
HETATM    6  C   UNL     1      -9.812   8.074  70.757  1.00  0.00    -0.197 A  
HETATM    7  C   UNL     1     -11.394   9.950  70.728  1.00  0.00    -0.430 A  
HETATM    8  C   UNL     1     -10.137   9.398  70.378  1.00  0.00    -0.310 A  
ENDROOT
BRANCH   4   9
HETATM    9  C   UNL     1     -10.360   5.817  71.897  1.00  0.00    -0.263 C  
HETATM   10  C   UNL     1     -11.427   5.221  72.850  1.00  0.00    -0.339 C  
HETATM   11  C   UNL     1      -9.005   5.810  72.632  1.00  0.00    -0.131 C  
HETATM   12  C   UNL     1     -10.272   4.850  70.695  1.00  0.00    -0.282 C  
ENDBRANCH   4   9
BRANCH   7  13
HETATM   13  C   UNL     1     -11.726  11.402  70.413  1.00  0.00    -0.362 C  
BRANCH  13  14
HETATM   14  C   UNL     1     -11.627  11.862  68.973  1.00  0.00    -0.317 A  
HETATM   15  N   UNL     1     -12.089  11.092  68.020  1.00  0.00    -0.727 NA 
HETATM   16  C   UNL     1     -11.877  11.854  66.761  1.00  0.00    -0.087 A  
HETATM   17  H   UNL     1     -12.506  10.166  68.121  1.00  0.00     0.000 HD 
HETATM   18  C   UNL     1     -11.208  13.178  67.142  1.00  0.00    -0.294 A  
HETATM   19  N   UNL     1     -11.146  13.085  68.581  1.00  0.00    -0.257 NA 
ENDBRANCH  13  14
ENDBRANCH   7  13
TORSDOF 3
ENDMDL
MODEL       69
REMARK 921   NORMALIZED FREE ENERGY PREDICTED BY IDOCK:   -4.46 KCAL/MOL
REMARK 922        TOTAL FREE ENERGY PREDICTED BY IDOCK:   -5.72 KCAL/MOL
REMARK 923 INTER-LIGAND FREE ENERGY PREDICTED BY IDOCK:   -5.32 KCAL/MOL
REMARK 924 INTRA-LIGAND FREE ENERGY PREDICTED BY IDOCK:   -0.40 KCAL/MOL
REMARK 927      BINDING AFFINITY PREDICTED BY RF-SCORE:    0.00 PKD
ROOT
HETATM    1  C   UNL     1      -9.685  16.276  65.906  1.00  0.00    -0.354 C  
HETATM    2  C   UNL     1     -10.171  15.584  67.151  1.00  0.00    -0.260 A  
HETATM    3  C   UNL     1     -10.281  14.183  67.109  1.00  0.00    -0.258 A  
HETATM    4  C   UNL     1     -10.711  13.412  68.198  1.00  0.00    -0.267 A  
HETATM    5  C   UNL     1     -11.417  16.194  70.721  1.00  0.00    -0.408 C  
HETATM    6  C   UNL     1     -11.068  14.119  69.356  1.00  0.00    -0.261 A  
HETATM    7  C   UNL     1     -10.523  16.280  68.327  1.00  0.00    -0.284 A  
HETATM    8  C   UNL     1     -10.978  15.528  69.440  1.00  0.00    -0.276 A  
ENDROOT
BRANCH   4   9
HETATM    9  C   UNL     1     -10.807  11.877  68.092  1.00  0.00    -0.259 C  
HETATM   10  C   UNL     1     -11.947  11.303  68.972  1.00  0.00    -0.393 C  
HETATM   11  C   UNL     1      -9.479  11.249  68.559  1.00  0.00    -0.191 C  
HETATM   12  C   UNL     1     -11.097  11.398  66.652  1.00  0.00    -0.333 C  
ENDBRANCH   4   9
BRANCH   7  13
HETATM   13  C   UNL     1     -10.509  17.801  68.364  1.00  0.00    -0.351 C  
BRANCH  13  14
HETATM   14  C   UNL     1      -9.169  18.506  68.342  1.00  0.00    -0.324 A  
HETATM   15  N   UNL     1      -8.132  17.929  68.896  1.00  0.00    -0.213 NA 
HETATM   16  C   UNL     1      -6.993  18.855  68.658  1.00  0.00    -0.285 A  
HETATM   17  H   UNL     1      -8.111  17.035  69.388  1.00  0.00     0.000 HD 
HETATM   18  C   UNL     1      -7.544  20.060  67.891  1.00  0.00    -0.290 A  
HETATM   19  N   UNL     1      -8.929  19.697  67.708  1.00  0.00    -0.315 NA 
ENDBRANCH  13  14
ENDBRANCH   7  13
TORSDOF 3
ENDMDL
MODEL       70
REMARK 921   NORMALIZED FREE ENERGY PREDICTED BY IDOCK:   -4.45 KCAL/MOL
REMARK 922        TOTAL FREE ENERGY PREDICTED BY IDOCK:   -5.72 KCAL/MOL
REMARK 923 INTER-LIGAND FREE ENERGY PREDICTED BY IDOCK:   -5.24 KCAL/MOL
REMARK 924 INTRA-LIGAND FREE ENERGY PREDICTED BY IDOCK:   -0.48 KCAL/MOL
REMARK 927      BINDING AFFINITY PREDICTED BY RF-SCORE:    0.00 PKD
ROOT
HETATM    1  C   UNL     1     -11.904  11.789  69.149  1.00  0.00    -0.389 C  
HETATM    2  C   UNL     1     -11.252  11.057  68.006  1.00  0.00    -0.372 A  
HETATM    3  C   UNL     1     -10.641   9.825  68.294  1.00  0.00    -0.271 A  
HETATM    4  C   UNL     1     -10.007   9.036  67.325  1.00  0.00    -0.275 A  
HETATM    5  C   UNL     1     -10.455  11.283  64.267  1.00  0.00    -0.419 C  
HETATM    6  C   UNL     1      -9.976   9.557  66.023  1.00  0.00    -0.348 A  
HETATM    7  C   UNL     1     -11.222  11.564  66.689  1.00  0.00    -0.336 A  
HETATM    8  C   UNL     1     -10.572  10.796  65.690  1.00  0.00    -0.199 A  
ENDROOT
BRANCH   4   9
HETATM    9  C   UNL     1      -9.358   7.689  67.702  1.00  0.00    -0.158 C  
HETATM   10  C   UNL     1      -9.176   7.538  69.234  1.00  0.00    -0.144 C  
HETATM   11  C   UNL     1      -7.967   7.592  67.044  1.00  0.00    -0.116 C  
HETATM   12  C   UNL     1     -10.200   6.476  67.249  1.00  0.00    -0.242 C  
ENDBRANCH   4   9
BRANCH   7  13
HETATM   13  C   UNL     1     -11.786  12.942  66.373  1.00  0.00    -0.478 C  
BRANCH  13  14
HETATM   14  C   UNL     1     -10.825  14.109  66.296  1.00  0.00    -0.300 A  
HETATM   15  N   UNL     1     -11.286  15.301  66.007  1.00  0.00    -0.284 NA 
HETATM   16  C   UNL     1     -10.104  16.202  66.059  1.00  0.00    -0.351 A  
HETATM   17  H   UNL     1     -12.250  15.556  65.792  1.00  0.00     0.000 HD 
HETATM   18  C   UNL     1      -8.890  15.336  66.409  1.00  0.00    -0.276 A  
HETATM   19  N   UNL     1      -9.487  14.033  66.582  1.00  0.00    -0.280 NA 
ENDBRANCH  13  14
ENDBRANCH   7  13
TORSDOF 3
ENDMDL
MODEL       71
REMARK 921   NORMALIZED FREE ENERGY PREDICTED BY IDOCK:   -4.45 KCAL/MOL
REMARK 922        TOTAL FREE ENERGY PREDICTED BY IDOCK:   -5.71 KCAL/MOL
REMARK 923 INTER-LIGAND FREE ENERGY PREDICTED BY IDOCK:   -5.16 KCAL/MOL
REMARK 924 INTRA-LIGAND FREE ENERGY PREDICTED BY IDOCK:   -0.55 KCAL/MOL
REMARK 927      BINDING AFFINITY PREDICTED BY RF-SCORE:    0.00 PKD
ROOT
HETATM    1  C   UNL     1     -10.756  18.529  65.867  1.00  0.00    -0.237 C  
HETATM    2  C   UNL     1      -9.665  18.052  66.788  1.00  0.00    -0.323 A  
HETATM    3  C   UNL     1      -8.472  18.795  66.815  1.00  0.00    -0.292 A  
HETATM    4  C   UNL     1      -7.381  18.469  67.632  1.00  0.00    -0.223 A  
HETATM    5  C   UNL     1      -8.732  15.298  69.281  1.00  0.00    -0.237 C  
HETATM    6  C   UNL     1      -7.518  17.317  68.421  1.00  0.00    -0.234 A  
HETATM    7  C   UNL     1      -9.792  16.901  67.596  1.00  0.00    -0.259 A  
HETATM    8  C   UNL     1      -8.698  16.536  68.420  1.00  0.00    -0.218 A  
ENDROOT
BRANCH   4   9
HETATM    9  C   UNL     1      -6.099  19.327  67.620  1.00  0.00    -0.216 C  
HETATM   10  C   UNL     1      -5.143  18.961  68.784  1.00  0.00    -0.188 C  
HETATM   11  C   UNL     1      -6.480  20.814  67.764  1.00  0.00    -0.380 C  
HETATM   12  C   UNL     1      -5.280  19.153  66.322  1.00  0.00    -0.163 C  
ENDBRANCH   4   9
BRANCH   7  13
HETATM   13  C   UNL     1     -11.032  16.024  67.509  1.00  0.00    -0.261 C  
BRANCH  13  14
HETATM   14  C   UNL     1     -11.062  14.926  66.466  1.00  0.00    -0.341 A  
HETATM   15  N   UNL     1     -12.098  14.127  66.405  1.00  0.00    -0.441 NA 
HETATM   16  C   UNL     1     -11.824  13.215  65.263  1.00  0.00    -0.365 A  
HETATM   17  H   UNL     1     -12.918  14.130  67.012  1.00  0.00     0.000 HD 
HETATM   18  C   UNL     1     -10.461  13.609  64.687  1.00  0.00    -0.423 A  
HETATM   19  N   UNL     1     -10.099  14.740  65.508  1.00  0.00    -0.360 NA 
ENDBRANCH  13  14
ENDBRANCH   7  13
TORSDOF 3
ENDMDL
MODEL       72
REMARK 921   NORMALIZED FREE ENERGY PREDICTED BY IDOCK:   -4.43 KCAL/MOL
REMARK 922        TOTAL FREE ENERGY PREDICTED BY IDOCK:   -5.69 KCAL/MOL
REMARK 923 INTER-LIGAND FREE ENERGY PREDICTED BY IDOCK:   -5.18 KCAL/MOL
REMARK 924 INTRA-LIGAND FREE ENERGY PREDICTED BY IDOCK:   -0.51 KCAL/MOL
REMARK 927      BINDING AFFINITY PREDICTED BY RF-SCORE:    0.00 PKD
ROOT
HETATM    1  C   UNL     1      -6.741  14.797  67.624  1.00  0.00    -0.198 C  
HETATM    2  C   UNL     1      -8.183  15.160  67.391  1.00  0.00    -0.215 A  
HETATM    3  C   UNL     1      -8.999  14.197  66.773  1.00  0.00    -0.229 A  
HETATM    4  C   UNL     1     -10.360  14.399  66.505  1.00  0.00    -0.281 A  
HETATM    5  C   UNL     1     -10.747  17.977  67.790  1.00  0.00    -0.350 C  
HETATM    6  C   UNL     1     -10.883  15.652  66.860  1.00  0.00    -0.282 A  
HETATM    7  C   UNL     1      -8.727  16.412  67.752  1.00  0.00    -0.182 A  
HETATM    8  C   UNL     1     -10.096  16.652  67.478  1.00  0.00    -0.273 A  
ENDROOT
BRANCH   4   9
HETATM    9  C   UNL     1     -11.205  13.301  65.827  1.00  0.00    -0.313 C  
HETATM   10  C   UNL     1     -11.446  12.090  66.764  1.00  0.00    -0.410 C  
HETATM   11  C   UNL     1     -10.469  12.795  64.571  1.00  0.00    -0.392 C  
HETATM   12  C   UNL     1     -12.604  13.803  65.408  1.00  0.00    -0.534 C  
ENDBRANCH   4   9
BRANCH   7  13
HETATM   13  C   UNL     1      -7.841  17.507  68.329  1.00  0.00    -0.253 C  
BRANCH  13  14
HETATM   14  C   UNL     1      -7.349  18.595  67.398  1.00  0.00    -0.218 A  
HETATM   15  N   UNL     1      -7.225  19.818  67.850  1.00  0.00    -0.270 NA 
HETATM   16  C   UNL     1      -6.687  20.606  66.710  1.00  0.00    -0.277 A  
HETATM   17  H   UNL     1      -7.450  20.157  68.786  1.00  0.00     0.000 HD 
HETATM   18  C   UNL     1      -6.535  19.644  65.528  1.00  0.00    -0.257 A  
HETATM   19  N   UNL     1      -6.942  18.385  66.106  1.00  0.00    -0.244 NA 
ENDBRANCH  13  14
ENDBRANCH   7  13
TORSDOF 3
ENDMDL
MODEL       73
REMARK 921   NORMALIZED FREE ENERGY PREDICTED BY IDOCK:   -4.41 KCAL/MOL
REMARK 922        TOTAL FREE ENERGY PREDICTED BY IDOCK:   -5.67 KCAL/MOL
REMARK 923 INTER-LIGAND FREE ENERGY PREDICTED BY IDOCK:   -5.21 KCAL/MOL
REMARK 924 INTRA-LIGAND FREE ENERGY PREDICTED BY IDOCK:   -0.47 KCAL/MOL
REMARK 927      BINDING AFFINITY PREDICTED BY RF-SCORE:    0.00 PKD
ROOT
HETATM    1  C   UNL     1     -10.270  10.629  64.753  1.00  0.00    -0.401 C  
HETATM    2  C   UNL     1     -10.456  10.536  66.245  1.00  0.00    -0.250 A  
HETATM    3  C   UNL     1     -10.033   9.354  66.876  1.00  0.00    -0.293 A  
HETATM    4  C   UNL     1     -10.137   9.138  68.256  1.00  0.00    -0.221 A  
HETATM    5  C   UNL     1     -11.829  12.403  69.293  1.00  0.00    -0.361 C  
HETATM    6  C   UNL     1     -10.730  10.168  69.002  1.00  0.00    -0.249 A  
HETATM    7  C   UNL     1     -11.040  11.568  67.010  1.00  0.00    -0.365 A  
HETATM    8  C   UNL     1     -11.176  11.372  68.407  1.00  0.00    -0.324 A  
ENDROOT
BRANCH   4   9
HETATM    9  C   UNL     1      -9.650   7.820  68.891  1.00  0.00    -0.154 C  
HETATM   10  C   UNL     1      -9.903   6.601  67.968  1.00  0.00    -0.140 C  
HETATM   11  C   UNL     1     -10.405   7.582  70.214  1.00  0.00    -0.215 C  
HETATM   12  C   UNL     1      -8.134   7.826  69.185  1.00  0.00    -0.125 C  
ENDBRANCH   4   9
BRANCH   7  13
HETATM   13  C   UNL     1     -11.599  12.814  66.337  1.00  0.00    -0.435 C  
BRANCH  13  14
HETATM   14  C   UNL     1     -10.773  14.082  66.381  1.00  0.00    -0.278 A  
HETATM   15  N   UNL     1      -9.875  14.295  65.451  1.00  0.00    -0.554 NA 
HETATM   16  C   UNL     1      -9.292  15.627  65.765  1.00  0.00    -0.268 A  
HETATM   17  H   UNL     1      -9.629  13.679  64.676  1.00  0.00     0.000 HD 
HETATM   18  C   UNL     1      -9.988  16.137  67.031  1.00  0.00    -0.258 A  
HETATM   19  N   UNL     1     -10.942  15.088  67.298  1.00  0.00    -0.318 NA 
ENDBRANCH  13  14
ENDBRANCH   7  13
TORSDOF 3
ENDMDL
MODEL       74
REMARK 921   NORMALIZED FREE ENERGY PREDICTED BY IDOCK:   -4.41 KCAL/MOL
REMARK 922        TOTAL FREE ENERGY PREDICTED BY IDOCK:   -5.67 KCAL/MOL
REMARK 923 INTER-LIGAND FREE ENERGY PREDICTED BY IDOCK:   -5.18 KCAL/MOL
REMARK 924 INTRA-LIGAND FREE ENERGY PREDICTED BY IDOCK:   -0.49 KCAL/MOL
REMARK 927      BINDING AFFINITY PREDICTED BY RF-SCORE:    0.00 PKD
ROOT
HETATM    1  C   UNL     1     -10.902  15.669  64.885  1.00  0.00    -0.438 C  
HETATM    2  C   UNL     1     -10.113  15.059  66.014  1.00  0.00    -0.322 A  
HETATM    3  C   UNL     1     -10.585  13.849  66.551  1.00  0.00    -0.279 A  
HETATM    4  C   UNL     1      -9.945  13.169  67.595  1.00  0.00    -0.219 A  
HETATM    5  C   UNL     1      -7.066  15.589  68.273  1.00  0.00    -0.116 C  
HETATM    6  C   UNL     1      -8.796  13.779  68.121  1.00  0.00    -0.185 A  
HETATM    7  C   UNL     1      -8.950  15.656  66.546  1.00  0.00    -0.343 A  
HETATM    8  C   UNL     1      -8.289  15.000  67.615  1.00  0.00    -0.175 A  
ENDROOT
BRANCH   4   9
HETATM    9  C   UNL     1     -10.510  11.841  68.139  1.00  0.00    -0.221 C  
HETATM   10  C   UNL     1     -11.616  12.071  69.200  1.00  0.00    -0.370 C  
HETATM   11  C   UNL     1      -9.373  11.036  68.800  1.00  0.00    -0.185 C  
HETATM   12  C   UNL     1     -11.150  10.971  67.035  1.00  0.00    -0.311 C  
ENDBRANCH   4   9
BRANCH   7  13
HETATM   13  C   UNL     1      -8.476  17.015  66.051  1.00  0.00    -0.171 C  
BRANCH  13  14
HETATM   14  C   UNL     1      -9.088  18.255  66.669  1.00  0.00    -0.288 A  
HETATM   15  N   UNL     1     -10.041  18.125  67.558  1.00  0.00    -0.332 NA 
HETATM   16  C   UNL     1     -10.374  19.510  67.983  1.00  0.00    -0.445 A  
HETATM   17  H   UNL     1     -10.464  17.257  67.889  1.00  0.00     0.000 HD 
HETATM   18  C   UNL     1      -9.470  20.456  67.186  1.00  0.00    -0.429 A  
HETATM   19  N   UNL     1      -8.664  19.535  66.421  1.00  0.00    -0.350 NA 
ENDBRANCH  13  14
ENDBRANCH   7  13
TORSDOF 3
ENDMDL
MODEL       75
REMARK 921   NORMALIZED FREE ENERGY PREDICTED BY IDOCK:   -4.35 KCAL/MOL
REMARK 922        TOTAL FREE ENERGY PREDICTED BY IDOCK:   -5.60 KCAL/MOL
REMARK 923 INTER-LIGAND FREE ENERGY PREDICTED BY IDOCK:   -5.07 KCAL/MOL
REMARK 924 INTRA-LIGAND FREE ENERGY PREDICTED BY IDOCK:   -0.53 KCAL/MOL
REMARK 927      BINDING AFFINITY PREDICTED BY RF-SCORE:    0.00 PKD
ROOT
HETATM    1  C   UNL     1      -9.042  10.210  67.370  1.00  0.00    -0.149 C  
HETATM    2  C   UNL     1     -10.037  10.555  68.446  1.00  0.00    -0.181 A  
HETATM    3  C   UNL     1     -10.383   9.541  69.355  1.00  0.00    -0.225 A  
HETATM    4  C   UNL     1     -11.288   9.727  70.409  1.00  0.00    -0.362 A  
HETATM    5  C   UNL     1     -12.278  13.363  69.775  1.00  0.00    -0.307 C  
HETATM    6  C   UNL     1     -11.877  10.997  70.503  1.00  0.00    -0.464 A  
HETATM    7  C   UNL     1     -10.630  11.831  68.560  1.00  0.00    -0.242 A  
HETATM    8  C   UNL     1     -11.563  12.045  69.606  1.00  0.00    -0.371 A  
ENDROOT
BRANCH   4   9
HETATM    9  C   UNL     1     -11.624   8.575  71.377  1.00  0.00    -0.344 C  
HETATM   10  C   UNL     1     -11.715   7.210  70.648  1.00  0.00    -0.348 C  
HETATM   11  C   UNL     1     -12.985   8.852  72.045  1.00  0.00    -0.454 C  
HETATM   12  C   UNL     1     -10.560   8.399  72.483  1.00  0.00    -0.368 C  
ENDBRANCH   4   9
BRANCH   7  13
HETATM   13  C   UNL     1     -10.350  12.915  67.529  1.00  0.00    -0.223 C  
BRANCH  13  14
HETATM   14  C   UNL     1      -9.121  13.780  67.716  1.00  0.00    -0.193 A  
HETATM   15  N   UNL     1      -8.093  13.614  66.921  1.00  0.00    -0.398 NA 
HETATM   16  C   UNL     1      -7.100  14.636  67.344  1.00  0.00    -0.128 A  
HETATM   17  H   UNL     1      -7.995  12.928  66.171  1.00  0.00     0.000 HD 
HETATM   18  C   UNL     1      -7.715  15.406  68.517  1.00  0.00    -0.132 A  
HETATM   19  N   UNL     1      -9.021  14.800  68.626  1.00  0.00    -0.181 NA 
ENDBRANCH  13  14
ENDBRANCH   7  13
TORSDOF 3
ENDMDL
MODEL       76
REMARK 921   NORMALIZED FREE ENERGY PREDICTED BY IDOCK:   -4.35 KCAL/MOL
REMARK 922        TOTAL FREE ENERGY PREDICTED BY IDOCK:   -5.60 KCAL/MOL
REMARK 923 INTER-LIGAND FREE ENERGY PREDICTED BY IDOCK:   -5.07 KCAL/MOL
REMARK 924 INTRA-LIGAND FREE ENERGY PREDICTED BY IDOCK:   -0.53 KCAL/MOL
REMARK 927      BINDING AFFINITY PREDICTED BY RF-SCORE:    0.00 PKD
ROOT
HETATM    1  C   UNL     1     -10.742  10.502  68.863  1.00  0.00    -0.253 C  
HETATM    2  C   UNL     1     -10.416  10.802  67.424  1.00  0.00    -0.268 A  
HETATM    3  C   UNL     1     -11.097  11.871  66.817  1.00  0.00    -0.359 A  
HETATM    4  C   UNL     1     -10.884  12.265  65.489  1.00  0.00    -0.319 A  
HETATM    5  C   UNL     1      -8.310   9.642  64.443  1.00  0.00    -0.171 C  
HETATM    6  C   UNL     1      -9.960  11.504  64.757  1.00  0.00    -0.304 A  
HETATM    7  C   UNL     1      -9.481  10.052  66.678  1.00  0.00    -0.215 A  
HETATM    8  C   UNL     1      -9.257  10.416  65.326  1.00  0.00    -0.240 A  
ENDROOT
BRANCH   4   9
HETATM    9  C   UNL     1     -11.660  13.451  64.881  1.00  0.00    -0.354 C  
HETATM   10  C   UNL     1     -12.905  13.826  65.724  1.00  0.00    -0.430 C  
HETATM   11  C   UNL     1     -12.136  13.074  63.464  1.00  0.00    -0.617 C  
HETATM   12  C   UNL     1     -10.805  14.734  64.787  1.00  0.00    -0.395 C  
ENDBRANCH   4   9
BRANCH   7  13
HETATM   13  C   UNL     1      -8.808   8.828  67.280  1.00  0.00    -0.141 C  
BRANCH  13  14
HETATM   14  C   UNL     1      -9.388   7.465  66.968  1.00  0.00    -0.149 A  
HETATM   15  N   UNL     1      -8.595   6.514  66.538  1.00  0.00    -0.119 NA 
HETATM   16  C   UNL     1      -9.466   5.320  66.376  1.00  0.00    -0.153 A  
HETATM   17  H   UNL     1      -7.594   6.580  66.353  1.00  0.00     0.000 HD 
HETATM   18  C   UNL     1     -10.886   5.739  66.769  1.00  0.00    -0.248 A  
HETATM   19  N   UNL     1     -10.697   7.113  67.172  1.00  0.00    -0.340 NA 
ENDBRANCH  13  14
ENDBRANCH   7  13
TORSDOF 3
ENDMDL
MODEL       77
REMARK 921   NORMALIZED FREE ENERGY PREDICTED BY IDOCK:   -4.34 KCAL/MOL
REMARK 922        TOTAL FREE ENERGY PREDICTED BY IDOCK:   -5.59 KCAL/MOL
REMARK 923 INTER-LIGAND FREE ENERGY PREDICTED BY IDOCK:   -5.04 KCAL/MOL
REMARK 924 INTRA-LIGAND FREE ENERGY PREDICTED BY IDOCK:   -0.55 KCAL/MOL
REMARK 927      BINDING AFFINITY PREDICTED BY RF-SCORE:    0.00 PKD
ROOT
HETATM    1  C   UNL     1      -8.859   7.933  73.682  1.00  0.00    -0.336 C  
HETATM    2  C   UNL     1      -9.422   6.933  72.707  1.00  0.00    -0.161 A  
HETATM    3  C   UNL     1      -9.400   5.580  73.086  1.00  0.00    -0.141 A  
HETATM    4  C   UNL     1      -9.899   4.547  72.280  1.00  0.00    -0.227 A  
HETATM    5  C   UNL     1     -10.977   6.575  69.226  1.00  0.00    -0.389 C  
HETATM    6  C   UNL     1     -10.406   4.927  71.029  1.00  0.00    -0.217 A  
HETATM    7  C   UNL     1      -9.945   7.301  71.449  1.00  0.00    -0.193 A  
HETATM    8  C   UNL     1     -10.442   6.276  70.605  1.00  0.00    -0.276 A  
ENDROOT
BRANCH   4   9
HETATM    9  C   UNL     1      -9.851   3.081  72.753  1.00  0.00    -0.197 C  
HETATM   10  C   UNL     1     -11.083   2.706  73.617  1.00  0.00    -0.319 C  
HETATM   11  C   UNL     1      -8.585   2.861  73.606  1.00  0.00    -0.073 C  
HETATM   12  C   UNL     1      -9.831   2.078  71.578  1.00  0.00    -0.205 C  
ENDBRANCH   4   9
BRANCH   7  13
HETATM   13  C   UNL     1      -9.887   8.746  70.975  1.00  0.00    -0.293 C  
BRANCH  13  14
HETATM   14  C   UNL     1     -11.119   9.608  71.150  1.00  0.00    -0.374 A  
HETATM   15  N   UNL     1     -11.184  10.765  70.540  1.00  0.00    -0.446 NA 
HETATM   16  C   UNL     1     -12.521  11.317  70.886  1.00  0.00    -0.394 A  
HETATM   17  H   UNL     1     -10.469  11.196  69.953  1.00  0.00     0.000 HD 
HETATM   18  C   UNL     1     -13.207  10.299  71.801  1.00  0.00    -0.430 A  
HETATM   19  N   UNL     1     -12.234   9.234  71.855  1.00  0.00    -0.374 NA 
ENDBRANCH  13  14
ENDBRANCH   7  13
TORSDOF 3
ENDMDL
MODEL       78
REMARK 921   NORMALIZED FREE ENERGY PREDICTED BY IDOCK:   -4.30 KCAL/MOL
REMARK 922        TOTAL FREE ENERGY PREDICTED BY IDOCK:   -5.53 KCAL/MOL
REMARK 923 INTER-LIGAND FREE ENERGY PREDICTED BY IDOCK:   -5.03 KCAL/MOL
REMARK 924 INTRA-LIGAND FREE ENERGY PREDICTED BY IDOCK:   -0.50 KCAL/MOL
REMARK 927      BINDING AFFINITY PREDICTED BY RF-SCORE:    0.00 PKD
ROOT
HETATM    1  C   UNL     1      -7.326  15.466  67.143  1.00  0.00    -0.203 C  
HETATM    2  C   UNL     1      -8.559  14.981  67.858  1.00  0.00    -0.155 A  
HETATM    3  C   UNL     1      -8.970  13.659  67.612  1.00  0.00    -0.202 A  
HETATM    4  C   UNL     1     -10.092  13.077  68.217  1.00  0.00    -0.239 A  
HETATM    5  C   UNL     1     -11.339  16.053  70.265  1.00  0.00    -0.391 C  
HETATM    6  C   UNL     1     -10.831  13.903  69.079  1.00  0.00    -0.253 A  
HETATM    7  C   UNL     1      -9.307  15.796  68.735  1.00  0.00    -0.218 A  
HETATM    8  C   UNL     1     -10.457  15.240  69.349  1.00  0.00    -0.253 A  
ENDROOT
BRANCH   4   9
HETATM    9  C   UNL     1     -10.490  11.619  67.911  1.00  0.00    -0.217 C  
HETATM   10  C   UNL     1     -10.765  11.396  66.402  1.00  0.00    -0.325 C  
HETATM   11  C   UNL     1     -11.773  11.267  68.688  1.00  0.00    -0.391 C  
HETATM   12  C   UNL     1      -9.388  10.609  68.299  1.00  0.00    -0.156 C  
ENDBRANCH   4   9
BRANCH   7  13
HETATM   13  C   UNL     1      -8.942  17.259  68.939  1.00  0.00    -0.173 C  
BRANCH  13  14
HETATM   14  C   UNL     1      -9.461  18.272  67.940  1.00  0.00    -0.282 A  
HETATM   15  N   UNL     1     -10.309  17.887  67.018  1.00  0.00    -0.357 NA 
HETATM   16  C   UNL     1     -10.640  19.117  66.251  1.00  0.00    -0.434 A  
HETATM   17  H   UNL     1     -10.666  16.945  66.861  1.00  0.00     0.000 HD 
HETATM   18  C   UNL     1      -9.837  20.265  66.869  1.00  0.00    -0.457 A  
HETATM   19  N   UNL     1      -9.163  19.610  67.965  1.00  0.00    -0.328 NA 
ENDBRANCH  13  14
ENDBRANCH   7  13
TORSDOF 3
ENDMDL
MODEL       79
REMARK 921   NORMALIZED FREE ENERGY PREDICTED BY IDOCK:   -4.28 KCAL/MOL
REMARK 922        TOTAL FREE ENERGY PREDICTED BY IDOCK:   -5.52 KCAL/MOL
REMARK 923 INTER-LIGAND FREE ENERGY PREDICTED BY IDOCK:   -4.97 KCAL/MOL
REMARK 924 INTRA-LIGAND FREE ENERGY PREDICTED BY IDOCK:   -0.55 KCAL/MOL
REMARK 927      BINDING AFFINITY PREDICTED BY RF-SCORE:    0.00 PKD
ROOT
HETATM    1  C   UNL     1     -12.165   9.819  71.562  1.00  0.00    -0.493 C  
HETATM    2  C   UNL     1     -11.488   9.116  70.414  1.00  0.00    -0.228 A  
HETATM    3  C   UNL     1     -11.033   9.911  69.349  1.00  0.00    -0.263 A  
HETATM    4  C   UNL     1     -10.379   9.390  68.224  1.00  0.00    -0.251 A  
HETATM    5  C   UNL     1     -10.483   5.669  69.084  1.00  0.00    -0.339 C  
HETATM    6  C   UNL     1     -10.222   7.996  68.188  1.00  0.00    -0.251 A  
HETATM    7  C   UNL     1     -11.313   7.716  70.369  1.00  0.00    -0.235 A  
HETATM    8  C   UNL     1     -10.671   7.158  69.235  1.00  0.00    -0.231 A  
ENDROOT
BRANCH   4   9
HETATM    9  C   UNL     1      -9.898  10.316  67.088  1.00  0.00    -0.228 C  
HETATM   10  C   UNL     1     -10.981  11.347  66.679  1.00  0.00    -0.341 C  
HETATM   11  C   UNL     1      -9.555   9.465  65.849  1.00  0.00    -0.338 C  
HETATM   12  C   UNL     1      -8.650  11.138  67.480  1.00  0.00    -0.129 C  
ENDBRANCH   4   9
BRANCH   7  13
HETATM   13  C   UNL     1     -11.888   6.825  71.460  1.00  0.00    -0.378 C  
BRANCH  13  14
HETATM   14  C   UNL     1     -10.988   6.436  72.614  1.00  0.00    -0.253 A  
HETATM   15  N   UNL     1     -10.473   5.232  72.648  1.00  0.00    -0.208 NA 
HETATM   16  C   UNL     1      -9.622   5.202  73.867  1.00  0.00    -0.135 A  
HETATM   17  H   UNL     1     -10.624   4.475  71.980  1.00  0.00     0.000 HD 
HETATM   18  C   UNL     1      -9.741   6.575  74.534  1.00  0.00    -0.309 A  
HETATM   19  N   UNL     1     -10.599   7.286  73.617  1.00  0.00    -0.364 NA 
ENDBRANCH  13  14
ENDBRANCH   7  13
TORSDOF 3
ENDMDL
MODEL       80
REMARK 921   NORMALIZED FREE ENERGY PREDICTED BY IDOCK:   -4.28 KCAL/MOL
REMARK 922        TOTAL FREE ENERGY PREDICTED BY IDOCK:   -5.52 KCAL/MOL
REMARK 923 INTER-LIGAND FREE ENERGY PREDICTED BY IDOCK:   -4.96 KCAL/MOL
REMARK 924 INTRA-LIGAND FREE ENERGY PREDICTED BY IDOCK:   -0.56 KCAL/MOL
REMARK 927      BINDING AFFINITY PREDICTED BY RF-SCORE:    0.00 PKD
ROOT
HETATM    1  C   UNL     1      -9.016   7.641  70.255  1.00  0.00    -0.146 C  
HETATM    2  C   UNL     1      -9.552   8.700  69.328  1.00  0.00    -0.166 A  
HETATM    3  C   UNL     1      -9.022   8.747  68.027  1.00  0.00    -0.141 A  
HETATM    4  C   UNL     1      -9.436   9.674  67.061  1.00  0.00    -0.195 A  
HETATM    5  C   UNL     1     -11.975  11.658  69.114  1.00  0.00    -0.378 C  
HETATM    6  C   UNL     1     -10.406  10.603  67.467  1.00  0.00    -0.254 A  
HETATM    7  C   UNL     1     -10.535   9.634  69.719  1.00  0.00    -0.263 A  
HETATM    8  C   UNL     1     -10.962  10.595  68.768  1.00  0.00    -0.292 A  
ENDROOT
BRANCH   4   9
HETATM    9  C   UNL     1      -8.819   9.673  65.647  1.00  0.00    -0.189 C  
HETATM   10  C   UNL     1      -9.744  10.357  64.608  1.00  0.00    -0.392 C  
HETATM   11  C   UNL     1      -8.586   8.218  65.195  1.00  0.00    -0.132 C  
HETATM   12  C   UNL     1      -7.473  10.428  65.585  1.00  0.00    -0.149 C  
ENDBRANCH   4   9
BRANCH   7  13
HETATM   13  C   UNL     1     -11.050   9.669  71.151  1.00  0.00    -0.444 C  
BRANCH  13  14
HETATM   14  C   UNL     1     -12.310   8.896  71.477  1.00  0.00    -0.324 A  
HETATM   15  N   UNL     1     -13.348   9.535  71.956  1.00  0.00    -0.424 NA 
HETATM   16  C   UNL     1     -14.406   8.502  72.118  1.00  0.00    -0.436 A  
HETATM   17  H   UNL     1     -13.417  10.530  72.171  1.00  0.00     0.000 HD 
HETATM   18  C   UNL     1     -13.805   7.166  71.670  1.00  0.00    -0.302 A  
HETATM   19  N   UNL     1     -12.483   7.557  71.240  1.00  0.00    -0.333 NA 
ENDBRANCH  13  14
ENDBRANCH   7  13
TORSDOF 3
ENDMDL
MODEL       81
REMARK 921   NORMALIZED FREE ENERGY PREDICTED BY IDOCK:   -4.26 KCAL/MOL
REMARK 922        TOTAL FREE ENERGY PREDICTED BY IDOCK:   -5.50 KCAL/MOL
REMARK 923 INTER-LIGAND FREE ENERGY PREDICTED BY IDOCK:   -5.00 KCAL/MOL
REMARK 924 INTRA-LIGAND FREE ENERGY PREDICTED BY IDOCK:   -0.49 KCAL/MOL
REMARK 927      BINDING AFFINITY PREDICTED BY RF-SCORE:    0.00 PKD
ROOT
HETATM    1  C   UNL     1      -8.967   9.632  64.206  1.00  0.00    -0.269 C  
HETATM    2  C   UNL     1      -9.395   9.467  65.640  1.00  0.00    -0.302 A  
HETATM    3  C   UNL     1      -9.590   8.157  66.109  1.00  0.00    -0.188 A  
HETATM    4  C   UNL     1      -9.979   7.859  67.422  1.00  0.00    -0.261 A  
HETATM    5  C   UNL     1     -10.331  11.402  68.810  1.00  0.00    -0.222 C  
HETATM    6  C   UNL     1     -10.206   8.957  68.266  1.00  0.00    -0.239 A  
HETATM    7  C   UNL     1      -9.618  10.561  66.504  1.00  0.00    -0.216 A  
HETATM    8  C   UNL     1     -10.029  10.293  67.834  1.00  0.00    -0.191 A  
ENDROOT
BRANCH   4   9
HETATM    9  C   UNL     1     -10.171   6.399  67.879  1.00  0.00    -0.200 C  
HETATM   10  C   UNL     1     -11.172   6.285  69.057  1.00  0.00    -0.415 C  
HETATM   11  C   UNL     1      -8.817   5.829  68.345  1.00  0.00    -0.109 C  
HETATM   12  C   UNL     1     -10.726   5.494  66.757  1.00  0.00    -0.329 C  
ENDBRANCH   4   9
BRANCH   7  13
HETATM   13  C   UNL     1      -9.513  11.991  65.992  1.00  0.00    -0.229 C  
BRANCH  13  14
HETATM   14  C   UNL     1     -10.759  12.643  65.430  1.00  0.00    -0.280 A  
HETATM   15  N   UNL     1     -11.903  12.008  65.501  1.00  0.00    -0.410 NA 
HETATM   16  C   UNL     1     -12.904  12.934  64.909  1.00  0.00    -0.295 A  
HETATM   17  H   UNL     1     -12.070  11.076  65.881  1.00  0.00     0.000 HD 
HETATM   18  C   UNL     1     -12.151  14.195  64.475  1.00  0.00    -0.468 A  
HETATM   19  N   UNL     1     -10.803  13.908  64.904  1.00  0.00    -0.381 NA 
ENDBRANCH  13  14
ENDBRANCH   7  13
TORSDOF 3
ENDMDL
MODEL       82
REMARK 921   NORMALIZED FREE ENERGY PREDICTED BY IDOCK:   -4.25 KCAL/MOL
REMARK 922        TOTAL FREE ENERGY PREDICTED BY IDOCK:   -5.48 KCAL/MOL
REMARK 923 INTER-LIGAND FREE ENERGY PREDICTED BY IDOCK:   -4.97 KCAL/MOL
REMARK 924 INTRA-LIGAND FREE ENERGY PREDICTED BY IDOCK:   -0.51 KCAL/MOL
REMARK 927      BINDING AFFINITY PREDICTED BY RF-SCORE:    0.00 PKD
ROOT
HETATM    1  C   UNL     1     -12.070  13.705  70.197  1.00  0.00    -0.431 C  
HETATM    2  C   UNL     1     -11.294  14.023  68.946  1.00  0.00    -0.314 A  
HETATM    3  C   UNL     1     -10.857  15.347  68.777  1.00  0.00    -0.252 A  
HETATM    4  C   UNL     1     -10.119  15.778  67.666  1.00  0.00    -0.247 A  
HETATM    5  C   UNL     1      -9.976  12.517  65.680  1.00  0.00    -0.259 C  
HETATM    6  C   UNL     1      -9.855  14.812  66.683  1.00  0.00    -0.270 A  
HETATM    7  C   UNL     1     -11.012  13.059  67.953  1.00  0.00    -0.264 A  
HETATM    8  C   UNL     1     -10.282  13.469  66.809  1.00  0.00    -0.264 A  
ENDROOT
BRANCH   4   9
HETATM    9  C   UNL     1      -9.663  17.246  67.540  1.00  0.00    -0.264 C  
HETATM   10  C   UNL     1     -10.360  18.164  68.576  1.00  0.00    -0.352 C  
HETATM   11  C   UNL     1     -10.008  17.767  66.131  1.00  0.00    -0.283 C  
HETATM   12  C   UNL     1      -8.145  17.418  67.768  1.00  0.00    -0.216 C  
ENDBRANCH   4   9
BRANCH   7  13
HETATM   13  C   UNL     1     -11.562  11.644  68.064  1.00  0.00    -0.383 C  
BRANCH  13  14
HETATM   14  C   UNL     1     -10.622  10.544  68.509  1.00  0.00    -0.206 A  
HETATM   15  N   UNL     1      -9.725  10.799  69.429  1.00  0.00    -0.415 NA 
HETATM   16  C   UNL     1      -9.016   9.512  69.655  1.00  0.00    -0.188 A  
HETATM   17  H   UNL     1      -9.550  11.692  69.891  1.00  0.00     0.000 HD 
HETATM   18  C   UNL     1      -9.639   8.481  68.710  1.00  0.00    -0.149 A  
HETATM   19  N   UNL     1     -10.682   9.247  68.068  1.00  0.00    -0.211 NA 
ENDBRANCH  13  14
ENDBRANCH   7  13
TORSDOF 3
ENDMDL
MODEL       83
REMARK 921   NORMALIZED FREE ENERGY PREDICTED BY IDOCK:   -4.25 KCAL/MOL
REMARK 922        TOTAL FREE ENERGY PREDICTED BY IDOCK:   -5.48 KCAL/MOL
REMARK 923 INTER-LIGAND FREE ENERGY PREDICTED BY IDOCK:   -5.00 KCAL/MOL
REMARK 924 INTRA-LIGAND FREE ENERGY PREDICTED BY IDOCK:   -0.48 KCAL/MOL
REMARK 927      BINDING AFFINITY PREDICTED BY RF-SCORE:    0.00 PKD
ROOT
HETATM    1  C   UNL     1     -11.314  15.463  70.448  1.00  0.00    -0.350 C  
HETATM    2  C   UNL     1     -11.021  14.955  69.061  1.00  0.00    -0.251 A  
HETATM    3  C   UNL     1     -10.786  13.578  68.915  1.00  0.00    -0.255 A  
HETATM    4  C   UNL     1     -10.511  12.971  67.682  1.00  0.00    -0.228 A  
HETATM    5  C   UNL     1     -10.539  16.053  65.424  1.00  0.00    -0.428 C  
HETATM    6  C   UNL     1     -10.444  13.825  66.571  1.00  0.00    -0.282 A  
HETATM    7  C   UNL     1     -10.960  15.801  67.932  1.00  0.00    -0.324 A  
HETATM    8  C   UNL     1     -10.667  15.218  66.674  1.00  0.00    -0.309 A  
ENDROOT
BRANCH   4   9
HETATM    9  C   UNL     1     -10.267  11.451  67.584  1.00  0.00    -0.204 C  
HETATM   10  C   UNL     1     -11.445  10.633  68.171  1.00  0.00    -0.303 C  
HETATM   11  C   UNL     1      -8.993  11.089  68.373  1.00  0.00    -0.158 C  
HETATM   12  C   UNL     1     -10.095  10.970  66.127  1.00  0.00    -0.286 C  
ENDBRANCH   4   9
BRANCH   7  13
HETATM   13  C   UNL     1     -11.110  17.308  68.081  1.00  0.00    -0.070 C  
BRANCH  13  14
HETATM   14  C   UNL     1      -9.861  18.162  68.012  1.00  0.00    -0.325 A  
HETATM   15  N   UNL     1      -8.757  17.729  68.571  1.00  0.00    -0.287 NA 
HETATM   16  C   UNL     1      -7.736  18.771  68.282  1.00  0.00    -0.299 A  
HETATM   17  H   UNL     1      -8.627  16.862  69.093  1.00  0.00     0.000 HD 
HETATM   18  C   UNL     1      -8.432  19.876  67.482  1.00  0.00    -0.329 A  
HETATM   19  N   UNL     1      -9.768  19.349  67.333  1.00  0.00    -0.316 NA 
ENDBRANCH  13  14
ENDBRANCH   7  13
TORSDOF 3
ENDMDL
MODEL       84
REMARK 921   NORMALIZED FREE ENERGY PREDICTED BY IDOCK:   -4.24 KCAL/MOL
REMARK 922        TOTAL FREE ENERGY PREDICTED BY IDOCK:   -5.47 KCAL/MOL
REMARK 923 INTER-LIGAND FREE ENERGY PREDICTED BY IDOCK:   -5.13 KCAL/MOL
REMARK 924 INTRA-LIGAND FREE ENERGY PREDICTED BY IDOCK:   -0.33 KCAL/MOL
REMARK 927      BINDING AFFINITY PREDICTED BY RF-SCORE:    0.00 PKD
ROOT
HETATM    1  C   UNL     1     -13.587   7.549  71.585  1.00  0.00    -0.442 C  
HETATM    2  C   UNL     1     -12.104   7.303  71.667  1.00  0.00    -0.359 A  
HETATM    3  C   UNL     1     -11.683   6.001  71.989  1.00  0.00    -0.315 A  
HETATM    4  C   UNL     1     -10.335   5.632  72.090  1.00  0.00    -0.256 A  
HETATM    5  C   UNL     1      -8.686   9.008  71.393  1.00  0.00    -0.198 C  
HETATM    6  C   UNL     1      -9.394   6.653  71.883  1.00  0.00    -0.147 A  
HETATM    7  C   UNL     1     -11.146   8.317  71.452  1.00  0.00    -0.302 A  
HETATM    8  C   UNL     1      -9.774   7.977  71.564  1.00  0.00    -0.213 A  
ENDROOT
BRANCH   4   9
HETATM    9  C   UNL     1      -9.935   4.185  72.442  1.00  0.00    -0.229 C  
HETATM   10  C   UNL     1      -8.637   4.129  73.288  1.00  0.00    -0.089 C  
HETATM   11  C   UNL     1      -9.693   3.392  71.142  1.00  0.00    -0.222 C  
HETATM   12  C   UNL     1     -11.016   3.454  73.269  1.00  0.00    -0.268 C  
ENDBRANCH   4   9
BRANCH   7  13
HETATM   13  C   UNL     1     -11.578   9.755  71.203  1.00  0.00    -0.469 C  
BRANCH  13  14
HETATM   14  C   UNL     1     -11.435  10.314  69.803  1.00  0.00    -0.256 A  
HETATM   15  N   UNL     1     -11.040   9.524  68.835  1.00  0.00    -0.446 NA 
HETATM   16  C   UNL     1     -11.052  10.368  67.610  1.00  0.00    -0.293 A  
HETATM   17  H   UNL     1     -10.780   8.540  68.906  1.00  0.00     0.000 HD 
HETATM   18  C   UNL     1     -11.502  11.770  68.032  1.00  0.00    -0.319 A  
HETATM   19  N   UNL     1     -11.762  11.595  69.441  1.00  0.00    -0.311 NA 
ENDBRANCH  13  14
ENDBRANCH   7  13
TORSDOF 3
ENDMDL
MODEL       85
REMARK 921   NORMALIZED FREE ENERGY PREDICTED BY IDOCK:   -4.22 KCAL/MOL
REMARK 922        TOTAL FREE ENERGY PREDICTED BY IDOCK:   -5.44 KCAL/MOL
REMARK 923 INTER-LIGAND FREE ENERGY PREDICTED BY IDOCK:   -4.92 KCAL/MOL
REMARK 924 INTRA-LIGAND FREE ENERGY PREDICTED BY IDOCK:   -0.53 KCAL/MOL
REMARK 927      BINDING AFFINITY PREDICTED BY RF-SCORE:    0.00 PKD
ROOT
HETATM    1  C   UNL     1     -11.747  11.843  68.117  1.00  0.00    -0.388 C  
HETATM    2  C   UNL     1     -10.887  10.955  68.976  1.00  0.00    -0.275 A  
HETATM    3  C   UNL     1     -11.542  10.097  69.876  1.00  0.00    -0.290 A  
HETATM    4  C   UNL     1     -10.866   9.213  70.727  1.00  0.00    -0.331 A  
HETATM    5  C   UNL     1      -7.256  10.073  69.816  1.00  0.00    -0.127 C  
HETATM    6  C   UNL     1      -9.464   9.242  70.666  1.00  0.00    -0.333 A  
HETATM    7  C   UNL     1      -9.477  10.966  68.919  1.00  0.00    -0.182 A  
HETATM    8  C   UNL     1      -8.764  10.094  69.780  1.00  0.00    -0.148 A  
ENDROOT
BRANCH   4   9
HETATM    9  C   UNL     1     -11.642   8.292  71.691  1.00  0.00    -0.337 C  
HETATM   10  C   UNL     1     -10.786   7.877  72.915  1.00  0.00    -0.440 C  
HETATM   11  C   UNL     1     -12.062   7.011  70.944  1.00  0.00    -0.403 C  
HETATM   12  C   UNL     1     -12.909   8.965  72.264  1.00  0.00    -0.475 C  
ENDBRANCH   4   9
BRANCH   7  13
HETATM   13  C   UNL     1      -8.742  11.956  68.027  1.00  0.00    -0.173 C  
BRANCH  13  14
HETATM   14  C   UNL     1      -8.471  13.344  68.569  1.00  0.00    -0.079 A  
HETATM   15  N   UNL     1      -7.326  13.590  69.155  1.00  0.00    -0.299 NA 
HETATM   16  C   UNL     1      -7.373  15.031  69.520  1.00  0.00    -0.202 A  
HETATM   17  H   UNL     1      -6.564  12.933  69.325  1.00  0.00     0.000 HD 
HETATM   18  C   UNL     1      -8.732  15.568  69.063  1.00  0.00    -0.235 A  
HETATM   19  N   UNL     1      -9.319  14.412  68.430  1.00  0.00    -0.202 NA 
ENDBRANCH  13  14
ENDBRANCH   7  13
TORSDOF 3
ENDMDL
MODEL       86
REMARK 921   NORMALIZED FREE ENERGY PREDICTED BY IDOCK:   -4.21 KCAL/MOL
REMARK 922        TOTAL FREE ENERGY PREDICTED BY IDOCK:   -5.44 KCAL/MOL
REMARK 923 INTER-LIGAND FREE ENERGY PREDICTED BY IDOCK:   -4.88 KCAL/MOL
REMARK 924 INTRA-LIGAND FREE ENERGY PREDICTED BY IDOCK:   -0.56 KCAL/MOL
REMARK 927      BINDING AFFINITY PREDICTED BY RF-SCORE:    0.00 PKD
ROOT
HETATM    1  C   UNL     1      -9.219  15.558  67.801  1.00  0.00    -0.179 C  
HETATM    2  C   UNL     1      -9.450  14.097  68.081  1.00  0.00    -0.213 A  
HETATM    3  C   UNL     1      -8.379  13.218  67.849  1.00  0.00    -0.163 A  
HETATM    4  C   UNL     1      -8.454  11.837  68.076  1.00  0.00    -0.157 A  
HETATM    5  C   UNL     1     -12.090  11.566  69.218  1.00  0.00    -0.344 C  
HETATM    6  C   UNL     1      -9.690  11.348  68.526  1.00  0.00    -0.199 A  
HETATM    7  C   UNL     1     -10.684  13.592  68.544  1.00  0.00    -0.270 A  
HETATM    8  C   UNL     1     -10.796  12.196  68.766  1.00  0.00    -0.265 A  
ENDROOT
BRANCH   4   9
HETATM    9  C   UNL     1      -7.241  10.924  67.806  1.00  0.00    -0.091 C  
HETATM   10  C   UNL     1      -6.519  10.514  69.115  1.00  0.00    -0.054 C  
HETATM   11  C   UNL     1      -6.229  11.670  66.915  1.00  0.00    -0.149 C  
HETATM   12  C   UNL     1      -7.635   9.605  67.104  1.00  0.00    -0.091 C  
ENDBRANCH   4   9
BRANCH   7  13
HETATM   13  C   UNL     1     -11.889  14.508  68.705  1.00  0.00    -0.350 C  
BRANCH  13  14
HETATM   14  C   UNL     1     -12.184  15.068  70.081  1.00  0.00    -0.343 A  
HETATM   15  N   UNL     1     -13.426  15.148  70.488  1.00  0.00    -0.691 NA 
HETATM   16  C   UNL     1     -13.353  15.689  71.871  1.00  0.00    -0.450 A  
HETATM   17  H   UNL     1     -14.266  14.894  69.966  1.00  0.00     0.000 HD 
HETATM   18  C   UNL     1     -11.873  15.919  72.188  1.00  0.00    -0.517 A  
HETATM   19  N   UNL     1     -11.227  15.441  70.989  1.00  0.00    -0.355 NA 
ENDBRANCH  13  14
ENDBRANCH   7  13
TORSDOF 3
ENDMDL
MODEL       87
REMARK 921   NORMALIZED FREE ENERGY PREDICTED BY IDOCK:   -4.21 KCAL/MOL
REMARK 922        TOTAL FREE ENERGY PREDICTED BY IDOCK:   -5.44 KCAL/MOL
REMARK 923 INTER-LIGAND FREE ENERGY PREDICTED BY IDOCK:   -5.00 KCAL/MOL
REMARK 924 INTRA-LIGAND FREE ENERGY PREDICTED BY IDOCK:   -0.44 KCAL/MOL
REMARK 927      BINDING AFFINITY PREDICTED BY RF-SCORE:    0.00 PKD
ROOT
HETATM    1  C   UNL     1      -9.115  11.205  67.131  1.00  0.00    -0.151 C  
HETATM    2  C   UNL     1     -10.080  11.892  68.061  1.00  0.00    -0.199 A  
HETATM    3  C   UNL     1     -10.778  11.086  68.976  1.00  0.00    -0.258 A  
HETATM    4  C   UNL     1     -11.698  11.595  69.903  1.00  0.00    -0.414 A  
HETATM    5  C   UNL     1     -11.590  15.295  68.956  1.00  0.00    -0.360 C  
HETATM    6  C   UNL     1     -11.925  12.979  69.856  1.00  0.00    -0.381 A  
HETATM    7  C   UNL     1     -10.311  13.284  68.033  1.00  0.00    -0.243 A  
HETATM    8  C   UNL     1     -11.249  13.826  68.947  1.00  0.00    -0.309 A  
ENDROOT
BRANCH   4   9
HETATM    9  C   UNL     1     -12.430  10.660  70.886  1.00  0.00    -0.495 C  
HETATM   10  C   UNL     1     -13.082  11.440  72.057  1.00  0.00    -0.423 C  
HETATM   11  C   UNL     1     -11.422   9.657  71.483  1.00  0.00    -0.439 C  
HETATM   12  C   UNL     1     -13.572   9.866  70.213  1.00  0.00     0.612 C  
ENDBRANCH   4   9
BRANCH   7  13
HETATM   13  C   UNL     1      -9.644  14.162  66.984  1.00  0.00    -0.264 C  
BRANCH  13  14
HETATM   14  C   UNL     1     -10.499  14.713  65.862  1.00  0.00    -0.314 A  
HETATM   15  N   UNL     1     -11.365  13.927  65.271  1.00  0.00    -0.306 NA 
HETATM   16  C   UNL     1     -12.053  14.783  64.269  1.00  0.00    -0.394 A  
HETATM   17  H   UNL     1     -11.531  12.937  65.458  1.00  0.00     0.000 HD 
HETATM   18  C   UNL     1     -11.436  16.181  64.369  1.00  0.00    -0.193 A  
HETATM   19  N   UNL     1     -10.493  16.020  65.451  1.00  0.00    -0.466 NA 
ENDBRANCH  13  14
ENDBRANCH   7  13
TORSDOF 3
ENDMDL
MODEL       88
REMARK 921   NORMALIZED FREE ENERGY PREDICTED BY IDOCK:   -4.21 KCAL/MOL
REMARK 922        TOTAL FREE ENERGY PREDICTED BY IDOCK:   -5.43 KCAL/MOL
REMARK 923 INTER-LIGAND FREE ENERGY PREDICTED BY IDOCK:   -5.01 KCAL/MOL
REMARK 924 INTRA-LIGAND FREE ENERGY PREDICTED BY IDOCK:   -0.42 KCAL/MOL
REMARK 927      BINDING AFFINITY PREDICTED BY RF-SCORE:    0.00 PKD
ROOT
HETATM    1  C   UNL     1     -10.847   6.404  67.012  1.00  0.00    -0.464 C  
HETATM    2  C   UNL     1     -10.455   7.368  68.101  1.00  0.00    -0.241 A  
HETATM    3  C   UNL     1     -11.071   7.212  69.354  1.00  0.00    -0.141 A  
HETATM    4  C   UNL     1     -10.793   8.031  70.456  1.00  0.00    -0.241 A  
HETATM    5  C   UNL     1      -8.280  10.427  68.862  1.00  0.00    -0.132 C  
HETATM    6  C   UNL     1      -9.871   9.067  70.243  1.00  0.00    -0.227 A  
HETATM    7  C   UNL     1      -9.521   8.408  67.904  1.00  0.00    -0.164 A  
HETATM    8  C   UNL     1      -9.232   9.264  68.996  1.00  0.00    -0.144 A  
ENDROOT
BRANCH   4   9
HETATM    9  C   UNL     1     -11.500   7.807  71.808  1.00  0.00    -0.307 C  
HETATM   10  C   UNL     1     -12.283   6.469  71.841  1.00  0.00    -0.373 C  
HETATM   11  C   UNL     1     -12.501   8.953  72.056  1.00  0.00    -0.461 C  
HETATM   12  C   UNL     1     -10.511   7.753  72.994  1.00  0.00    -0.432 C  
ENDBRANCH   4   9
BRANCH   7  13
HETATM   13  C   UNL     1      -8.916   8.661  66.531  1.00  0.00    -0.187 C  
BRANCH  13  14
HETATM   14  C   UNL     1      -9.569   9.697  65.641  1.00  0.00    -0.271 A  
HETATM   15  N   UNL     1      -9.398   9.628  64.344  1.00  0.00    -0.415 NA 
HETATM   16  C   UNL     1     -10.198  10.749  63.782  1.00  0.00    -0.288 A  
HETATM   17  H   UNL     1      -8.836   8.950  63.829  1.00  0.00     0.000 HD 
HETATM   18  C   UNL     1     -10.843  11.480  64.963  1.00  0.00    -0.274 A  
HETATM   19  N   UNL     1     -10.407  10.687  66.087  1.00  0.00    -0.244 NA 
ENDBRANCH  13  14
ENDBRANCH   7  13
TORSDOF 3
ENDMDL
MODEL       89
REMARK 921   NORMALIZED FREE ENERGY PREDICTED BY IDOCK:   -4.20 KCAL/MOL
REMARK 922        TOTAL FREE ENERGY PREDICTED BY IDOCK:   -5.42 KCAL/MOL
REMARK 923 INTER-LIGAND FREE ENERGY PREDICTED BY IDOCK:   -5.16 KCAL/MOL
REMARK 924 INTRA-LIGAND FREE ENERGY PREDICTED BY IDOCK:   -0.26 KCAL/MOL
REMARK 927      BINDING AFFINITY PREDICTED BY RF-SCORE:    0.00 PKD
ROOT
HETATM    1  C   UNL     1      -8.876   8.569  66.876  1.00  0.00    -0.153 C  
HETATM    2  C   UNL     1      -9.838   9.727  66.898  1.00  0.00    -0.256 A  
HETATM    3  C   UNL     1     -10.074  10.394  65.683  1.00  0.00    -0.337 A  
HETATM    4  C   UNL     1     -10.951  11.480  65.559  1.00  0.00    -0.290 A  
HETATM    5  C   UNL     1     -12.063  11.831  69.198  1.00  0.00    -0.290 C  
HETATM    6  C   UNL     1     -11.578  11.909  66.739  1.00  0.00    -0.341 A  
HETATM    7  C   UNL     1     -10.485  10.163  68.074  1.00  0.00    -0.249 A  
HETATM    8  C   UNL     1     -11.365  11.271  67.983  1.00  0.00    -0.372 A  
ENDROOT
BRANCH   4   9
HETATM    9  C   UNL     1     -11.171  12.168  64.197  1.00  0.00    -0.433 C  
HETATM   10  C   UNL     1     -10.152  11.689  63.131  1.00  0.00    -0.409 C  
HETATM   11  C   UNL     1     -11.009  13.692  64.364  1.00  0.00    -0.379 C  
HETATM   12  C   UNL     1     -12.571  11.884  63.607  1.00  0.00    -0.555 C  
ENDBRANCH   4   9
BRANCH   7  13
HETATM   13  C   UNL     1     -10.169   9.524  69.418  1.00  0.00    -0.215 C  
BRANCH  13  14
HETATM   14  C   UNL     1      -8.745   9.593  69.927  1.00  0.00    -0.219 A  
HETATM   15  N   UNL     1      -8.033  10.667  69.696  1.00  0.00    -0.365 NA 
HETATM   16  C   UNL     1      -6.725  10.423  70.360  1.00  0.00    -0.100 A  
HETATM   17  H   UNL     1      -8.315  11.496  69.172  1.00  0.00     0.000 HD 
HETATM   18  C   UNL     1      -6.795   9.032  70.997  1.00  0.00    -0.092 A  
HETATM   19  N   UNL     1      -8.146   8.626  70.693  1.00  0.00    -0.107 NA 
ENDBRANCH  13  14
ENDBRANCH   7  13
TORSDOF 3
ENDMDL
MODEL       90
REMARK 921   NORMALIZED FREE ENERGY PREDICTED BY IDOCK:   -4.20 KCAL/MOL
REMARK 922        TOTAL FREE ENERGY PREDICTED BY IDOCK:   -5.42 KCAL/MOL
REMARK 923 INTER-LIGAND FREE ENERGY PREDICTED BY IDOCK:   -4.92 KCAL/MOL
REMARK 924 INTRA-LIGAND FREE ENERGY PREDICTED BY IDOCK:   -0.49 KCAL/MOL
REMARK 927      BINDING AFFINITY PREDICTED BY RF-SCORE:    0.00 PKD
ROOT
HETATM    1  C   UNL     1     -10.243  16.918  66.007  1.00  0.00    -0.350 C  
HETATM    2  C   UNL     1      -9.703  15.859  66.931  1.00  0.00    -0.241 A  
HETATM    3  C   UNL     1      -8.366  15.983  67.344  1.00  0.00    -0.188 A  
HETATM    4  C   UNL     1      -7.740  15.076  68.209  1.00  0.00    -0.111 A  
HETATM    5  C   UNL     1     -10.599  12.593  68.719  1.00  0.00    -0.214 C  
HETATM    6  C   UNL     1      -8.516  13.985  68.631  1.00  0.00    -0.103 A  
HETATM    7  C   UNL     1     -10.475  14.762  67.373  1.00  0.00    -0.256 A  
HETATM    8  C   UNL     1      -9.863  13.817  68.235  1.00  0.00    -0.232 A  
ENDROOT
BRANCH   4   9
HETATM    9  C   UNL     1      -6.269  15.269  68.630  1.00  0.00    -0.088 C  
HETATM   10  C   UNL     1      -6.143  16.068  69.952  1.00  0.00    -0.166 C  
HETATM   11  C   UNL     1      -5.522  16.045  67.528  1.00  0.00    -0.136 C  
HETATM   12  C   UNL     1      -5.538  13.929  68.869  1.00  0.00    -0.082 C  
ENDBRANCH   4   9
BRANCH   7  13
HETATM   13  C   UNL     1     -11.891  14.550  66.859  1.00  0.00    -0.399 C  
BRANCH  13  14
HETATM   14  C   UNL     1     -12.081  13.738  65.595  1.00  0.00    -0.418 A  
HETATM   15  N   UNL     1     -11.780  14.273  64.438  1.00  0.00    -0.557 NA 
HETATM   16  C   UNL     1     -12.037  13.208  63.433  1.00  0.00    -0.486 A  
HETATM   17  H   UNL     1     -11.441  15.220  64.264  1.00  0.00     0.000 HD 
HETATM   18  C   UNL     1     -12.546  11.981  64.195  1.00  0.00    -0.308 A  
HETATM   19  N   UNL     1     -12.483  12.428  65.567  1.00  0.00    -0.591 NA 
ENDBRANCH  13  14
ENDBRANCH   7  13
TORSDOF 3
ENDMDL
MODEL       91
REMARK 921   NORMALIZED FREE ENERGY PREDICTED BY IDOCK:   -4.19 KCAL/MOL
REMARK 922        TOTAL FREE ENERGY PREDICTED BY IDOCK:   -5.41 KCAL/MOL
REMARK 923 INTER-LIGAND FREE ENERGY PREDICTED BY IDOCK:   -4.88 KCAL/MOL
REMARK 924 INTRA-LIGAND FREE ENERGY PREDICTED BY IDOCK:   -0.54 KCAL/MOL
REMARK 927      BINDING AFFINITY PREDICTED BY RF-SCORE:    0.00 PKD
ROOT
HETATM    1  C   UNL     1     -12.231  11.193  70.196  1.00  0.00    -0.417 C  
HETATM    2  C   UNL     1     -11.159  10.228  69.767  1.00  0.00    -0.340 A  
HETATM    3  C   UNL     1     -11.177   8.945  70.342  1.00  0.00    -0.259 A  
HETATM    4  C   UNL     1     -10.246   7.947  70.027  1.00  0.00    -0.208 A  
HETATM    5  C   UNL     1      -8.045   9.871  67.565  1.00  0.00    -0.110 C  
HETATM    6  C   UNL     1      -9.244   8.300  69.111  1.00  0.00    -0.151 A  
HETATM    7  C   UNL     1     -10.150  10.565  68.839  1.00  0.00    -0.215 A  
HETATM    8  C   UNL     1      -9.183   9.581  68.513  1.00  0.00    -0.131 A  
ENDROOT
BRANCH   4   9
HETATM    9  C   UNL     1     -10.322   6.556  70.689  1.00  0.00    -0.239 C  
HETATM   10  C   UNL     1     -11.742   6.242  71.224  1.00  0.00    -0.300 C  
HETATM   11  C   UNL     1      -9.340   6.504  71.876  1.00  0.00    -0.148 C  
HETATM   12  C   UNL     1      -9.970   5.413  69.711  1.00  0.00    -0.294 C  
ENDBRANCH   4   9
BRANCH   7  13
HETATM   13  C   UNL     1     -10.048  11.977  68.280  1.00  0.00    -0.201 C  
BRANCH  13  14
HETATM   14  C   UNL     1     -10.675  12.260  66.931  1.00  0.00    -0.232 A  
HETATM   15  N   UNL     1     -11.976  12.384  66.842  1.00  0.00    -0.575 NA 
HETATM   16  C   UNL     1     -12.245  12.698  65.414  1.00  0.00    -0.459 A  
HETATM   17  H   UNL     1     -12.660  12.287  67.593  1.00  0.00     0.000 HD 
HETATM   18  C   UNL     1     -10.892  12.720  64.694  1.00  0.00    -0.335 A  
HETATM   19  N   UNL     1      -9.968  12.476  65.776  1.00  0.00    -0.263 NA 
ENDBRANCH  13  14
ENDBRANCH   7  13
TORSDOF 3
ENDMDL
MODEL       92
REMARK 921   NORMALIZED FREE ENERGY PREDICTED BY IDOCK:   -4.19 KCAL/MOL
REMARK 922        TOTAL FREE ENERGY PREDICTED BY IDOCK:   -5.41 KCAL/MOL
REMARK 923 INTER-LIGAND FREE ENERGY PREDICTED BY IDOCK:   -5.68 KCAL/MOL
REMARK 924 INTRA-LIGAND FREE ENERGY PREDICTED BY IDOCK:    0.27 KCAL/MOL
REMARK 927      BINDING AFFINITY PREDICTED BY RF-SCORE:    0.00 PKD
ROOT
HETATM    1  C   UNL     1     -10.827  11.996  65.489  1.00  0.00    -0.336 C  
HETATM    2  C   UNL     1     -10.955  11.333  66.835  1.00  0.00    -0.348 A  
HETATM    3  C   UNL     1     -10.478  10.016  66.953  1.00  0.00    -0.284 A  
HETATM    4  C   UNL     1     -10.525   9.285  68.148  1.00  0.00    -0.263 A  
HETATM    5  C   UNL     1     -12.261  11.838  70.399  1.00  0.00    -0.416 C  
HETATM    6  C   UNL     1     -11.116   9.928  69.246  1.00  0.00    -0.220 A  
HETATM    7  C   UNL     1     -11.537  11.971  67.952  1.00  0.00    -0.405 A  
HETATM    8  C   UNL     1     -11.615  11.250  69.170  1.00  0.00    -0.387 A  
ENDROOT
BRANCH   4   9
HETATM    9  C   UNL     1      -9.982   7.844  68.216  1.00  0.00    -0.204 C  
HETATM   10  C   UNL     1     -10.535   7.070  69.440  1.00  0.00    -0.227 C  
HETATM   11  C   UNL     1      -8.445   7.884  68.331  1.00  0.00    -0.128 C  
HETATM   12  C   UNL     1     -10.359   7.006  66.974  1.00  0.00    -0.360 C  
ENDBRANCH   4   9
BRANCH   7  13
HETATM   13  C   UNL     1     -12.152  13.357  67.822  1.00  0.00    -0.299 C  
BRANCH  13  14
HETATM   14  C   UNL     1     -11.859  14.374  68.905  1.00  0.00    -0.320 A  
HETATM   15  N   UNL     1     -12.843  14.830  69.639  1.00  0.00    -0.525 NA 
HETATM   16  C   UNL     1     -12.210  15.757  70.614  1.00  0.00    -0.384 A  
HETATM   17  H   UNL     1     -13.834  14.598  69.559  1.00  0.00     0.000 HD 
HETATM   18  C   UNL     1     -10.708  15.772  70.314  1.00  0.00    -0.329 A  
HETATM   19  N   UNL     1     -10.604  14.815  69.237  1.00  0.00    -0.244 NA 
ENDBRANCH  13  14
ENDBRANCH   7  13
TORSDOF 3
ENDMDL
MODEL       93
REMARK 921   NORMALIZED FREE ENERGY PREDICTED BY IDOCK:   -4.18 KCAL/MOL
REMARK 922        TOTAL FREE ENERGY PREDICTED BY IDOCK:   -5.40 KCAL/MOL
REMARK 923 INTER-LIGAND FREE ENERGY PREDICTED BY IDOCK:   -5.06 KCAL/MOL
REMARK 924 INTRA-LIGAND FREE ENERGY PREDICTED BY IDOCK:   -0.34 KCAL/MOL
REMARK 927      BINDING AFFINITY PREDICTED BY RF-SCORE:    0.00 PKD
ROOT
HETATM    1  C   UNL     1     -13.088  10.232  71.067  1.00  0.00    -0.458 C  
HETATM    2  C   UNL     1     -11.753  10.377  70.384  1.00  0.00    -0.419 A  
HETATM    3  C   UNL     1     -11.679  11.259  69.293  1.00  0.00    -0.403 A  
HETATM    4  C   UNL     1     -10.500  11.496  68.573  1.00  0.00    -0.228 A  
HETATM    5  C   UNL     1      -8.139   9.111  70.401  1.00  0.00    -0.166 C  
HETATM    6  C   UNL     1      -9.369  10.770  68.978  1.00  0.00    -0.168 A  
HETATM    7  C   UNL     1     -10.605   9.661  70.787  1.00  0.00    -0.392 A  
HETATM    8  C   UNL     1      -9.401   9.867  70.067  1.00  0.00    -0.232 A  
ENDROOT
BRANCH   4   9
HETATM    9  C   UNL     1     -10.480  12.480  67.386  1.00  0.00    -0.231 C  
HETATM   10  C   UNL     1     -10.141  13.925  67.833  1.00  0.00    -0.242 C  
HETATM   11  C   UNL     1     -11.869  12.499  66.718  1.00  0.00    -0.416 C  
HETATM   12  C   UNL     1      -9.428  12.104  66.320  1.00  0.00    -0.238 C  
ENDBRANCH   4   9
BRANCH   7  13
HETATM   13  C   UNL     1     -10.684   8.626  71.899  1.00  0.00    -0.414 C  
BRANCH  13  14
HETATM   14  C   UNL     1     -10.553   7.164  71.527  1.00  0.00    -0.207 A  
HETATM   15  N   UNL     1     -10.930   6.769  70.336  1.00  0.00    -0.264 NA 
HETATM   16  C   UNL     1     -10.627   5.314  70.290  1.00  0.00    -0.218 A  
HETATM   17  H   UNL     1     -11.342   7.339  69.597  1.00  0.00     0.000 HD 
HETATM   18  C   UNL     1     -10.031   4.934  71.648  1.00  0.00    -0.190 A  
HETATM   19  N   UNL     1      -9.991   6.206  72.330  1.00  0.00    -0.169 NA 
ENDBRANCH  13  14
ENDBRANCH   7  13
TORSDOF 3
ENDMDL
MODEL       94
REMARK 921   NORMALIZED FREE ENERGY PREDICTED BY IDOCK:   -4.14 KCAL/MOL
REMARK 922        TOTAL FREE ENERGY PREDICTED BY IDOCK:   -5.35 KCAL/MOL
REMARK 923 INTER-LIGAND FREE ENERGY PREDICTED BY IDOCK:   -4.89 KCAL/MOL
REMARK 924 INTRA-LIGAND FREE ENERGY PREDICTED BY IDOCK:   -0.46 KCAL/MOL
REMARK 927      BINDING AFFINITY PREDICTED BY RF-SCORE:    0.00 PKD
ROOT
HETATM    1  C   UNL     1     -12.189  12.599  65.262  1.00  0.00    -0.532 C  
HETATM    2  C   UNL     1     -10.861  12.023  65.677  1.00  0.00    -0.325 A  
HETATM    3  C   UNL     1     -10.194  11.205  64.749  1.00  0.00    -0.365 A  
HETATM    4  C   UNL     1      -8.949  10.613  65.000  1.00  0.00    -0.218 A  
HETATM    5  C   UNL     1      -8.367  11.825  68.577  1.00  0.00    -0.131 C  
HETATM    6  C   UNL     1      -8.394  10.849  66.267  1.00  0.00    -0.164 A  
HETATM    7  C   UNL     1     -10.284  12.261  66.943  1.00  0.00    -0.229 A  
HETATM    8  C   UNL     1      -9.033  11.661  67.233  1.00  0.00    -0.169 A  
ENDROOT
BRANCH   4   9
HETATM    9  C   UNL     1      -8.265   9.728  63.939  1.00  0.00    -0.159 C  
HETATM   10  C   UNL     1      -8.174   8.247  64.386  1.00  0.00    -0.130 C  
HETATM   11  C   UNL     1      -6.832  10.242  63.694  1.00  0.00    -0.075 C  
HETATM   12  C   UNL     1      -9.022   9.722  62.592  1.00  0.00    -0.284 C  
ENDBRANCH   4   9
BRANCH   7  13
HETATM   13  C   UNL     1     -11.033  13.058  68.001  1.00  0.00    -0.274 C  
BRANCH  13  14
HETATM   14  C   UNL     1     -11.683  12.302  69.141  1.00  0.00    -0.323 A  
HETATM   15  N   UNL     1     -11.867  12.906  70.289  1.00  0.00    -0.535 NA 
HETATM   16  C   UNL     1     -12.556  11.911  71.151  1.00  0.00    -0.288 A  
HETATM   17  H   UNL     1     -11.594  13.858  70.538  1.00  0.00     0.000 HD 
HETATM   18  C   UNL     1     -12.727  10.635  70.321  1.00  0.00    -0.209 A  
HETATM   19  N   UNL     1     -12.175  11.026  69.045  1.00  0.00    -0.483 NA 
ENDBRANCH  13  14
ENDBRANCH   7  13
TORSDOF 3
ENDMDL
MODEL       95
REMARK 921   NORMALIZED FREE ENERGY PREDICTED BY IDOCK:   -4.13 KCAL/MOL
REMARK 922        TOTAL FREE ENERGY PREDICTED BY IDOCK:   -5.34 KCAL/MOL
REMARK 923 INTER-LIGAND FREE ENERGY PREDICTED BY IDOCK:   -4.81 KCAL/MOL
REMARK 924 INTRA-LIGAND FREE ENERGY PREDICTED BY IDOCK:   -0.54 KCAL/MOL
REMARK 927      BINDING AFFINITY PREDICTED BY RF-SCORE:    0.00 PKD
ROOT
HETATM    1  C   UNL     1     -10.099  10.395  65.637  1.00  0.00    -0.337 C  
HETATM    2  C   UNL     1     -10.359   9.895  67.033  1.00  0.00    -0.303 A  
HETATM    3  C   UNL     1      -9.926   8.595  67.344  1.00  0.00    -0.270 A  
HETATM    4  C   UNL     1     -10.095   8.009  68.606  1.00  0.00    -0.212 A  
HETATM    5  C   UNL     1     -11.957  10.831  70.385  1.00  0.00    -0.448 C  
HETATM    6  C   UNL     1     -10.763   8.784  69.566  1.00  0.00    -0.196 A  
HETATM    7  C   UNL     1     -11.020  10.667  68.013  1.00  0.00    -0.336 A  
HETATM    8  C   UNL     1     -11.221  10.094  69.294  1.00  0.00    -0.247 A  
ENDROOT
BRANCH   4   9
HETATM    9  C   UNL     1      -9.594   6.578  68.887  1.00  0.00    -0.128 C  
HETATM   10  C   UNL     1     -10.520   5.820  69.872  1.00  0.00    -0.360 C  
HETATM   11  C   UNL     1      -8.185   6.645  69.510  1.00  0.00    -0.130 C  
HETATM   12  C   UNL     1      -9.525   5.710  67.611  1.00  0.00    -0.119 C  
ENDBRANCH   4   9
BRANCH   7  13
HETATM   13  C   UNL     1     -11.588  12.037  67.671  1.00  0.00    -0.392 C  
BRANCH  13  14
HETATM   14  C   UNL     1     -10.663  13.234  67.743  1.00  0.00    -0.244 A  
HETATM   15  N   UNL     1      -9.719  13.261  68.651  1.00  0.00    -0.400 NA 
HETATM   16  C   UNL     1      -8.983  14.531  68.415  1.00  0.00    -0.186 A  
HETATM   17  H   UNL     1      -9.529  12.559  69.367  1.00  0.00     0.000 HD 
HETATM   18  C   UNL     1      -9.663  15.235  67.238  1.00  0.00    -0.212 A  
HETATM   19  N   UNL     1     -10.687  14.287  66.867  1.00  0.00    -0.288 NA 
ENDBRANCH  13  14
ENDBRANCH   7  13
TORSDOF 3
ENDMDL
MODEL       96
REMARK 921   NORMALIZED FREE ENERGY PREDICTED BY IDOCK:   -4.13 KCAL/MOL
REMARK 922        TOTAL FREE ENERGY PREDICTED BY IDOCK:   -5.34 KCAL/MOL
REMARK 923 INTER-LIGAND FREE ENERGY PREDICTED BY IDOCK:   -4.86 KCAL/MOL
REMARK 924 INTRA-LIGAND FREE ENERGY PREDICTED BY IDOCK:   -0.48 KCAL/MOL
REMARK 927      BINDING AFFINITY PREDICTED BY RF-SCORE:    0.00 PKD
ROOT
HETATM    1  C   UNL     1     -11.294   8.188  72.818  1.00  0.00    -0.406 C  
HETATM    2  C   UNL     1     -10.187   8.688  71.929  1.00  0.00    -0.404 A  
HETATM    3  C   UNL     1      -8.868   8.378  72.304  1.00  0.00    -0.289 A  
HETATM    4  C   UNL     1      -7.745   8.772  71.565  1.00  0.00    -0.139 A  
HETATM    5  C   UNL     1      -9.465  10.739  68.777  1.00  0.00    -0.187 C  
HETATM    6  C   UNL     1      -7.995   9.541  70.418  1.00  0.00    -0.200 A  
HETATM    7  C   UNL     1     -10.423   9.453  70.767  1.00  0.00    -0.372 A  
HETATM    8  C   UNL     1      -9.306   9.881  70.007  1.00  0.00    -0.232 A  
ENDROOT
BRANCH   4   9
HETATM    9  C   UNL     1      -6.322   8.398  72.026  1.00  0.00    -0.067 C  
HETATM   10  C   UNL     1      -6.118   8.642  73.543  1.00  0.00    -0.116 C  
HETATM   11  C   UNL     1      -5.296   9.257  71.261  1.00  0.00    -0.047 C  
HETATM   12  C   UNL     1      -5.992   6.908  71.784  1.00  0.00    -0.037 C  
ENDBRANCH   4   9
BRANCH   7  13
HETATM   13  C   UNL     1     -11.834   9.888  70.396  1.00  0.00    -0.310 C  
BRANCH  13  14
HETATM   14  C   UNL     1     -12.366  11.175  70.989  1.00  0.00    -0.382 A  
HETATM   15  N   UNL     1     -11.944  12.322  70.516  1.00  0.00    -0.512 NA 
HETATM   16  C   UNL     1     -12.688  13.359  71.278  1.00  0.00    -0.338 A  
HETATM   17  H   UNL     1     -11.252  12.471  69.781  1.00  0.00     0.000 HD 
HETATM   18  C   UNL     1     -13.593  12.627  72.272  1.00  0.00    -0.409 A  
HETATM   19  N   UNL     1     -13.333  11.242  71.958  1.00  0.00    -0.408 NA 
ENDBRANCH  13  14
ENDBRANCH   7  13
TORSDOF 3
ENDMDL
MODEL       97
REMARK 921   NORMALIZED FREE ENERGY PREDICTED BY IDOCK:   -4.11 KCAL/MOL
REMARK 922        TOTAL FREE ENERGY PREDICTED BY IDOCK:   -5.32 KCAL/MOL
REMARK 923 INTER-LIGAND FREE ENERGY PREDICTED BY IDOCK:   -4.82 KCAL/MOL
REMARK 924 INTRA-LIGAND FREE ENERGY PREDICTED BY IDOCK:   -0.50 KCAL/MOL
REMARK 927      BINDING AFFINITY PREDICTED BY RF-SCORE:    0.00 PKD
ROOT
HETATM    1  C   UNL     1     -10.313   8.695  66.752  1.00  0.00    -0.336 C  
HETATM    2  C   UNL     1     -10.009  10.168  66.834  1.00  0.00    -0.259 A  
HETATM    3  C   UNL     1     -10.727  11.023  65.981  1.00  0.00    -0.242 A  
HETATM    4  C   UNL     1     -10.551  12.413  65.959  1.00  0.00    -0.286 A  
HETATM    5  C   UNL     1      -7.777  12.754  68.565  1.00  0.00    -0.113 C  
HETATM    6  C   UNL     1      -9.575  12.929  66.826  1.00  0.00    -0.246 A  
HETATM    7  C   UNL     1      -9.038  10.702  67.708  1.00  0.00    -0.144 A  
HETATM    8  C   UNL     1      -8.825  12.104  67.696  1.00  0.00    -0.172 A  
ENDROOT
BRANCH   4   9
HETATM    9  C   UNL     1     -11.373  13.301  65.003  1.00  0.00    -0.326 C  
HETATM   10  C   UNL     1     -10.686  14.665  64.740  1.00  0.00    -0.399 C  
HETATM   11  C   UNL     1     -12.757  13.573  65.624  1.00  0.00    -0.478 C  
HETATM   12  C   UNL     1     -11.577  12.650  63.616  1.00  0.00    -0.575 C  
ENDBRANCH   4   9
BRANCH   7  13
HETATM   13  C   UNL     1      -8.177   9.788  68.567  1.00  0.00    -0.106 C  
BRANCH  13  14
HETATM   14  C   UNL     1      -8.799   9.168  69.800  1.00  0.00    -0.160 A  
HETATM   15  N   UNL     1      -9.673   9.856  70.492  1.00  0.00    -0.365 NA 
HETATM   16  C   UNL     1     -10.108   8.951  71.588  1.00  0.00    -0.341 A  
HETATM   17  H   UNL     1      -9.988  10.811  70.316  1.00  0.00     0.000 HD 
HETATM   18  C   UNL     1      -9.335   7.639  71.424  1.00  0.00    -0.140 A  
HETATM   19  N   UNL     1      -8.571   7.884  70.223  1.00  0.00    -0.135 NA 
ENDBRANCH  13  14
ENDBRANCH   7  13
TORSDOF 3
ENDMDL
MODEL       98
REMARK 921   NORMALIZED FREE ENERGY PREDICTED BY IDOCK:   -4.00 KCAL/MOL
REMARK 922        TOTAL FREE ENERGY PREDICTED BY IDOCK:   -5.18 KCAL/MOL
REMARK 923 INTER-LIGAND FREE ENERGY PREDICTED BY IDOCK:   -4.69 KCAL/MOL
REMARK 924 INTRA-LIGAND FREE ENERGY PREDICTED BY IDOCK:   -0.49 KCAL/MOL
REMARK 927      BINDING AFFINITY PREDICTED BY RF-SCORE:    0.00 PKD
ROOT
HETATM    1  C   UNL     1     -10.562   5.752  66.857  1.00  0.00    -0.377 C  
HETATM    2  C   UNL     1     -10.610   7.082  67.562  1.00  0.00    -0.351 A  
HETATM    3  C   UNL     1     -10.347   8.229  66.794  1.00  0.00    -0.361 A  
HETATM    4  C   UNL     1     -10.368   9.528  67.319  1.00  0.00    -0.319 A  
HETATM    5  C   UNL     1     -11.146   8.734  70.975  1.00  0.00    -0.328 C  
HETATM    6  C   UNL     1     -10.637   9.638  68.692  1.00  0.00    -0.246 A  
HETATM    7  C   UNL     1     -10.890   7.210  68.940  1.00  0.00    -0.160 A  
HETATM    8  C   UNL     1     -10.900   8.510  69.504  1.00  0.00    -0.134 A  
ENDROOT
BRANCH   4   9
HETATM    9  C   UNL     1     -10.075  10.749  66.424  1.00  0.00    -0.278 C  
HETATM   10  C   UNL     1      -9.959  10.360  64.928  1.00  0.00    -0.409 C  
HETATM   11  C   UNL     1      -8.741  11.390  66.856  1.00  0.00    -0.165 C  
HETATM   12  C   UNL     1     -11.183  11.823  66.502  1.00  0.00    -0.380 C  
ENDBRANCH   4   9
BRANCH   7  13
HETATM   13  C   UNL     1     -11.077   5.977  69.813  1.00  0.00    -0.476 C  
BRANCH  13  14
HETATM   14  C   UNL     1      -9.845   5.204  70.233  1.00  0.00    -0.225 A  
HETATM   15  N   UNL     1      -9.651   3.999  69.757  1.00  0.00    -0.203 NA 
HETATM   16  C   UNL     1      -8.352   3.555  70.328  1.00  0.00    -0.056 A  
HETATM   17  H   UNL     1     -10.261   3.476  69.128  1.00  0.00     0.000 HD 
HETATM   18  C   UNL     1      -7.838   4.691  71.218  1.00  0.00    -0.086 A  
HETATM   19  N   UNL     1      -8.852   5.702  71.037  1.00  0.00    -0.136 NA 
ENDBRANCH  13  14
ENDBRANCH   7  13
TORSDOF 3
ENDMDL
MODEL       99
REMARK 921   NORMALIZED FREE ENERGY PREDICTED BY IDOCK:   -3.92 KCAL/MOL
REMARK 922        TOTAL FREE ENERGY PREDICTED BY IDOCK:   -5.09 KCAL/MOL
REMARK 923 INTER-LIGAND FREE ENERGY PREDICTED BY IDOCK:   -4.55 KCAL/MOL
REMARK 924 INTRA-LIGAND FREE ENERGY PREDICTED BY IDOCK:   -0.54 KCAL/MOL
REMARK 927      BINDING AFFINITY PREDICTED BY RF-SCORE:    0.00 PKD
ROOT
HETATM    1  C   UNL     1     -11.623  10.364  69.252  1.00  0.00    -0.246 C  
HETATM    2  C   UNL     1     -11.023  10.818  67.948  1.00  0.00    -0.344 A  
HETATM    3  C   UNL     1     -11.038  12.196  67.676  1.00  0.00    -0.320 A  
HETATM    4  C   UNL     1     -10.507  12.756  66.506  1.00  0.00    -0.276 A  
HETATM    5  C   UNL     1      -9.373   9.571  64.725  1.00  0.00    -0.235 C  
HETATM    6  C   UNL     1      -9.971  11.853  65.574  1.00  0.00    -0.266 A  
HETATM    7  C   UNL     1     -10.471   9.923  67.006  1.00  0.00    -0.296 A  
HETATM    8  C   UNL     1      -9.941  10.458  65.805  1.00  0.00    -0.334 A  
ENDROOT
BRANCH   4   9
HETATM    9  C   UNL     1     -10.550  14.278  66.266  1.00  0.00    -0.291 C  
HETATM   10  C   UNL     1     -11.761  14.944  66.967  1.00  0.00    -0.274 C  
HETATM   11  C   UNL     1     -10.662  14.552  64.753  1.00  0.00    -0.414 C  
HETATM   12  C   UNL     1      -9.294  15.000  66.804  1.00  0.00    -0.271 C  
ENDBRANCH   4   9
BRANCH   7  13
HETATM   13  C   UNL     1     -10.534   8.419  67.231  1.00  0.00    -0.373 C  
BRANCH  13  14
HETATM   14  C   UNL     1      -9.327   7.735  67.838  1.00  0.00    -0.140 A  
HETATM   15  N   UNL     1      -9.067   7.903  69.110  1.00  0.00    -0.145 NA 
HETATM   16  C   UNL     1      -7.865   7.071  69.379  1.00  0.00    -0.113 A  
HETATM   17  H   UNL     1      -9.581   8.481  69.776  1.00  0.00     0.000 HD 
HETATM   18  C   UNL     1      -7.468   6.410  68.055  1.00  0.00    -0.094 A  
HETATM   19  N   UNL     1      -8.503   6.873  67.162  1.00  0.00    -0.120 NA 
ENDBRANCH  13  14
ENDBRANCH   7  13
TORSDOF 3
ENDMDL
MODEL      100
REMARK 921   NORMALIZED FREE ENERGY PREDICTED BY IDOCK:   -3.91 KCAL/MOL
REMARK 922        TOTAL FREE ENERGY PREDICTED BY IDOCK:   -5.08 KCAL/MOL
REMARK 923 INTER-LIGAND FREE ENERGY PREDICTED BY IDOCK:   -4.54 KCAL/MOL
REMARK 924 INTRA-LIGAND FREE ENERGY PREDICTED BY IDOCK:   -0.54 KCAL/MOL
REMARK 927      BINDING AFFINITY PREDICTED BY RF-SCORE:    0.00 PKD
ROOT
HETATM    1  C   UNL     1      -9.698  10.552  64.791  1.00  0.00    -0.365 C  
HETATM    2  C   UNL     1      -9.691  10.741  66.285  1.00  0.00    -0.248 A  
HETATM    3  C   UNL     1      -8.665  10.111  67.010  1.00  0.00    -0.137 A  
HETATM    4  C   UNL     1      -8.533  10.211  68.401  1.00  0.00    -0.118 A  
HETATM    5  C   UNL     1     -11.594  12.358  69.188  1.00  0.00    -0.369 C  
HETATM    6  C   UNL     1      -9.516  10.960  69.065  1.00  0.00    -0.160 A  
HETATM    7  C   UNL     1     -10.667  11.499  66.966  1.00  0.00    -0.300 A  
HETATM    8  C   UNL     1     -10.570  11.604  68.376  1.00  0.00    -0.235 A  
ENDROOT
BRANCH   4   9
HETATM    9  C   UNL     1      -7.381   9.500  69.140  1.00  0.00    -0.072 C  
HETATM   10  C   UNL     1      -6.301   8.970  68.163  1.00  0.00    -0.055 C  
HETATM   11  C   UNL     1      -7.945   8.300  69.927  1.00  0.00    -0.108 C  
HETATM   12  C   UNL     1      -6.644  10.432  70.128  1.00  0.00    -0.146 C  
ENDBRANCH   4   9
BRANCH   7  13
HETATM   13  C   UNL     1     -11.844  12.105  66.216  1.00  0.00    -0.320 C  
BRANCH  13  14
HETATM   14  C   UNL     1     -11.690  13.500  65.647  1.00  0.00    -0.339 A  
HETATM   15  N   UNL     1     -10.603  14.183  65.909  1.00  0.00    -0.290 NA 
HETATM   16  C   UNL     1     -10.757  15.465  65.172  1.00  0.00    -0.440 A  
HETATM   17  H   UNL     1      -9.818  13.896  66.494  1.00  0.00     0.000 HD 
HETATM   18  C   UNL     1     -12.110  15.415  64.456  1.00  0.00    -0.182 A  
HETATM   19  N   UNL     1     -12.586  14.095  64.797  1.00  0.00    -0.656 NA 
ENDBRANCH  13  14
ENDBRANCH   7  13
TORSDOF 3
ENDMDL
MODEL      101
REMARK 921   NORMALIZED FREE ENERGY PREDICTED BY IDOCK:   -3.89 KCAL/MOL
REMARK 922        TOTAL FREE ENERGY PREDICTED BY IDOCK:   -5.05 KCAL/MOL
REMARK 923 INTER-LIGAND FREE ENERGY PREDICTED BY IDOCK:   -4.53 KCAL/MOL
REMARK 924 INTRA-LIGAND FREE ENERGY PREDICTED BY IDOCK:   -0.53 KCAL/MOL
REMARK 927      BINDING AFFINITY PREDICTED BY RF-SCORE:    0.00 PKD
ROOT
HETATM    1  C   UNL     1     -10.816  12.036  68.146  1.00  0.00    -0.257 C  
HETATM    2  C   UNL     1     -10.722  10.549  68.365  1.00  0.00    -0.262 A  
HETATM    3  C   UNL     1     -11.028  10.065  69.648  1.00  0.00    -0.301 A  
HETATM    4  C   UNL     1     -10.991   8.706  69.987  1.00  0.00    -0.208 A  
HETATM    5  C   UNL     1      -9.817   7.242  66.658  1.00  0.00    -0.257 C  
HETATM    6  C   UNL     1     -10.591   7.824  68.971  1.00  0.00    -0.179 A  
HETATM    7  C   UNL     1     -10.332   9.648  67.350  1.00  0.00    -0.306 A  
HETATM    8  C   UNL     1     -10.268   8.268  67.668  1.00  0.00    -0.294 A  
ENDROOT
BRANCH   4   9
HETATM    9  C   UNL     1     -11.342   8.235  71.413  1.00  0.00    -0.309 C  
HETATM   10  C   UNL     1     -11.540   6.700  71.487  1.00  0.00    -0.357 C  
HETATM   11  C   UNL     1     -12.654   8.909  71.862  1.00  0.00    -0.439 C  
HETATM   12  C   UNL     1     -10.239   8.575  72.439  1.00  0.00    -0.369 C  
ENDBRANCH   4   9
BRANCH   7  13
HETATM   13  C   UNL     1      -9.897  10.157  65.983  1.00  0.00    -0.308 C  
BRANCH  13  14
HETATM   14  C   UNL     1      -8.415  10.324  65.719  1.00  0.00    -0.157 A  
HETATM   15  N   UNL     1      -7.740  11.219  66.397  1.00  0.00    -0.279 NA 
HETATM   16  C   UNL     1      -6.335  11.088  65.929  1.00  0.00    -0.019 A  
HETATM   17  H   UNL     1      -8.101  11.868  67.096  1.00  0.00     0.000 HD 
HETATM   18  C   UNL     1      -6.314   9.986  64.866  1.00  0.00    -0.118 A  
HETATM   19  N   UNL     1      -7.688   9.545  64.857  1.00  0.00    -0.110 NA 
ENDBRANCH  13  14
ENDBRANCH   7  13
TORSDOF 3
ENDMDL
MODEL      102
REMARK 921   NORMALIZED FREE ENERGY PREDICTED BY IDOCK:   -3.88 KCAL/MOL
REMARK 922        TOTAL FREE ENERGY PREDICTED BY IDOCK:   -5.05 KCAL/MOL
REMARK 923 INTER-LIGAND FREE ENERGY PREDICTED BY IDOCK:   -4.56 KCAL/MOL
REMARK 924 INTRA-LIGAND FREE ENERGY PREDICTED BY IDOCK:   -0.49 KCAL/MOL
REMARK 927      BINDING AFFINITY PREDICTED BY RF-SCORE:    0.00 PKD
ROOT
HETATM    1  C   UNL     1      -9.566   4.230  69.521  1.00  0.00    -0.274 C  
HETATM    2  C   UNL     1      -9.985   5.662  69.324  1.00  0.00    -0.251 A  
HETATM    3  C   UNL     1     -10.817   6.232  70.303  1.00  0.00    -0.366 A  
HETATM    4  C   UNL     1     -11.273   7.555  70.250  1.00  0.00    -0.253 A  
HETATM    5  C   UNL     1      -9.714   8.644  66.936  1.00  0.00    -0.278 C  
HETATM    6  C   UNL     1     -10.881   8.303  69.129  1.00  0.00    -0.036 A  
HETATM    7  C   UNL     1      -9.590   6.430  68.207  1.00  0.00    -0.123 A  
HETATM    8  C   UNL     1     -10.050   7.768  68.117  1.00  0.00    -0.220 A  
ENDROOT
BRANCH   4   9
HETATM    9  C   UNL     1     -12.182   8.125  71.359  1.00  0.00    -0.324 C  
HETATM   10  C   UNL     1     -12.586   9.595  71.082  1.00  0.00    -0.411 C  
HETATM   11  C   UNL     1     -11.432   8.080  72.705  1.00  0.00    -0.465 C  
HETATM   12  C   UNL     1     -13.503   7.338  71.506  1.00  0.00    -0.439 C  
ENDBRANCH   4   9
BRANCH   7  13
HETATM   13  C   UNL     1      -8.774   5.806  67.084  1.00  0.00    -0.108 C  
BRANCH  13  14
HETATM   14  C   UNL     1      -9.493   4.935  66.076  1.00  0.00    -0.163 A  
HETATM   15  N   UNL     1     -10.791   5.046  65.942  1.00  0.00    -0.714 NA 
HETATM   16  C   UNL     1     -11.158   4.097  64.858  1.00  0.00     0.158 A  
HETATM   17  H   UNL     1     -11.418   5.655  66.469  1.00  0.00     0.000 HD 
HETATM   18  C   UNL     1      -9.866   3.413  64.401  1.00  0.00    -0.174 A  
HETATM   19  N   UNL     1      -8.871   4.066  65.217  1.00  0.00    -0.123 NA 
ENDBRANCH  13  14
ENDBRANCH   7  13
TORSDOF 3
ENDMDL
MODEL      103
REMARK 921   NORMALIZED FREE ENERGY PREDICTED BY IDOCK:   -3.84 KCAL/MOL
REMARK 922        TOTAL FREE ENERGY PREDICTED BY IDOCK:   -5.00 KCAL/MOL
REMARK 923 INTER-LIGAND FREE ENERGY PREDICTED BY IDOCK:   -4.45 KCAL/MOL
REMARK 924 INTRA-LIGAND FREE ENERGY PREDICTED BY IDOCK:   -0.55 KCAL/MOL
REMARK 927      BINDING AFFINITY PREDICTED BY RF-SCORE:    0.00 PKD
ROOT
HETATM    1  C   UNL     1     -10.972   6.827  67.269  1.00  0.00    -0.433 C  
HETATM    2  C   UNL     1     -10.342   8.153  67.605  1.00  0.00    -0.313 A  
HETATM    3  C   UNL     1     -10.607   9.231  66.743  1.00  0.00    -0.207 A  
HETATM    4  C   UNL     1     -10.094  10.519  66.942  1.00  0.00    -0.265 A  
HETATM    5  C   UNL     1      -8.013   9.907  70.088  1.00  0.00    -0.181 C  
HETATM    6  C   UNL     1      -9.253  10.688  68.053  1.00  0.00    -0.148 A  
HETATM    7  C   UNL     1      -9.503   8.340  68.725  1.00  0.00    -0.148 A  
HETATM    8  C   UNL     1      -8.955   9.629  68.943  1.00  0.00    -0.144 A  
ENDROOT
BRANCH   4   9
HETATM    9  C   UNL     1     -10.424  11.663  65.962  1.00  0.00    -0.294 C  
HETATM   10  C   UNL     1     -10.345  11.204  64.483  1.00  0.00    -0.400 C  
HETATM   11  C   UNL     1      -9.415  12.811  66.161  1.00  0.00    -0.169 C  
HETATM   12  C   UNL     1     -11.850  12.223  66.160  1.00  0.00    -0.398 C  
ENDBRANCH   4   9
BRANCH   7  13
HETATM   13  C   UNL     1      -9.120   7.167  69.615  1.00  0.00    -0.140 C  
BRANCH  13  14
HETATM   14  C   UNL     1      -9.974   6.883  70.833  1.00  0.00    -0.189 A  
HETATM   15  N   UNL     1     -10.792   5.860  70.819  1.00  0.00    -0.282 NA 
HETATM   16  C   UNL     1     -11.429   5.847  72.162  1.00  0.00    -0.276 A  
HETATM   17  H   UNL     1     -10.956   5.211  70.050  1.00  0.00     0.000 HD 
HETATM   18  C   UNL     1     -10.857   7.033  72.945  1.00  0.00    -0.301 A  
HETATM   19  N   UNL     1      -9.907   7.586  72.008  1.00  0.00    -0.161 NA 
ENDBRANCH  13  14
ENDBRANCH   7  13
TORSDOF 3
ENDMDL
MODEL      104
REMARK 921   NORMALIZED FREE ENERGY PREDICTED BY IDOCK:   -3.83 KCAL/MOL
REMARK 922        TOTAL FREE ENERGY PREDICTED BY IDOCK:   -4.99 KCAL/MOL
REMARK 923 INTER-LIGAND FREE ENERGY PREDICTED BY IDOCK:   -4.45 KCAL/MOL
REMARK 924 INTRA-LIGAND FREE ENERGY PREDICTED BY IDOCK:   -0.54 KCAL/MOL
REMARK 927      BINDING AFFINITY PREDICTED BY RF-SCORE:    0.00 PKD
ROOT
HETATM    1  C   UNL     1      -9.428  19.973  67.204  1.00  0.00    -0.514 C  
HETATM    2  C   UNL     1      -8.905  18.580  67.432  1.00  0.00    -0.276 A  
HETATM    3  C   UNL     1      -9.839  17.589  67.778  1.00  0.00    -0.286 A  
HETATM    4  C   UNL     1      -9.492  16.251  68.009  1.00  0.00    -0.223 A  
HETATM    5  C   UNL     1      -5.708  16.473  67.523  1.00  0.00    -0.174 C  
HETATM    6  C   UNL     1      -8.128  15.938  67.910  1.00  0.00    -0.149 A  
HETATM    7  C   UNL     1      -7.537  18.248  67.326  1.00  0.00    -0.226 A  
HETATM    8  C   UNL     1      -7.153  16.906  67.571  1.00  0.00    -0.170 A  
ENDROOT
BRANCH   4   9
HETATM    9  C   UNL     1     -10.564  15.207  68.381  1.00  0.00    -0.238 C  
HETATM   10  C   UNL     1     -11.349  15.609  69.656  1.00  0.00    -0.331 C  
HETATM   11  C   UNL     1      -9.883  13.850  68.646  1.00  0.00    -0.175 C  
HETATM   12  C   UNL     1     -11.621  15.018  67.270  1.00  0.00    -0.285 C  
ENDBRANCH   4   9
BRANCH   7  13
HETATM   13  C   UNL     1      -6.495  19.323  67.053  1.00  0.00    -0.195 C  
BRANCH  13  14
HETATM   14  C   UNL     1      -6.215  19.700  65.613  1.00  0.00    -0.209 A  
HETATM   15  N   UNL     1      -5.906  18.761  64.753  1.00  0.00    -0.271 NA 
HETATM   16  C   UNL     1      -5.742  19.459  63.451  1.00  0.00    -0.220 A  
HETATM   17  H   UNL     1      -5.799  17.763  64.938  1.00  0.00     0.000 HD 
HETATM   18  C   UNL     1      -5.993  20.949  63.703  1.00  0.00    -0.305 A  
HETATM   19  N   UNL     1      -6.332  20.968  65.106  1.00  0.00    -0.205 NA 
ENDBRANCH  13  14
ENDBRANCH   7  13
TORSDOF 3
ENDMDL
MODEL      105
REMARK 921   NORMALIZED FREE ENERGY PREDICTED BY IDOCK:   -3.83 KCAL/MOL
REMARK 922        TOTAL FREE ENERGY PREDICTED BY IDOCK:   -4.99 KCAL/MOL
REMARK 923 INTER-LIGAND FREE ENERGY PREDICTED BY IDOCK:   -4.44 KCAL/MOL
REMARK 924 INTRA-LIGAND FREE ENERGY PREDICTED BY IDOCK:   -0.55 KCAL/MOL
REMARK 927      BINDING AFFINITY PREDICTED BY RF-SCORE:    0.00 PKD
ROOT
HETATM    1  C   UNL     1     -10.619   5.402  71.323  1.00  0.00    -0.276 C  
HETATM    2  C   UNL     1     -10.030   6.220  70.205  1.00  0.00    -0.209 A  
HETATM    3  C   UNL     1      -9.649   5.539  69.036  1.00  0.00    -0.180 A  
HETATM    4  C   UNL     1      -9.097   6.177  67.918  1.00  0.00    -0.117 A  
HETATM    5  C   UNL     1      -8.985   9.770  69.215  1.00  0.00    -0.177 C  
HETATM    6  C   UNL     1      -8.903   7.562  68.027  1.00  0.00    -0.127 A  
HETATM    7  C   UNL     1      -9.838   7.616  70.296  1.00  0.00    -0.180 A  
HETATM    8  C   UNL     1      -9.266   8.288  69.187  1.00  0.00    -0.151 A  
ENDROOT
BRANCH   4   9
HETATM    9  C   UNL     1      -8.703   5.374  66.662  1.00  0.00    -0.115 C  
HETATM   10  C   UNL     1      -8.049   6.270  65.579  1.00  0.00    -0.129 C  
HETATM   11  C   UNL     1      -9.965   4.731  66.052  1.00  0.00    -0.255 C  
HETATM   12  C   UNL     1      -7.681   4.256  66.968  1.00  0.00    -0.092 C  
ENDBRANCH   4   9
BRANCH   7  13
HETATM   13  C   UNL     1     -10.148   8.361  71.586  1.00  0.00    -0.308 C  
BRANCH  13  14
HETATM   14  C   UNL     1     -11.527   8.962  71.754  1.00  0.00    -0.353 A  
HETATM   15  N   UNL     1     -12.429   8.313  72.448  1.00  0.00    -0.516 NA 
HETATM   16  C   UNL     1     -13.630   9.190  72.449  1.00  0.00    -0.483 A  
HETATM   17  H   UNL     1     -12.329   7.400  72.893  1.00  0.00     0.000 HD 
HETATM   18  C   UNL     1     -13.279  10.438  71.634  1.00  0.00    -0.400 A  
HETATM   19  N   UNL     1     -11.899  10.196  71.287  1.00  0.00    -0.370 NA 
ENDBRANCH  13  14
ENDBRANCH   7  13
TORSDOF 3
ENDMDL
MODEL      106
REMARK 921   NORMALIZED FREE ENERGY PREDICTED BY IDOCK:   -3.80 KCAL/MOL
REMARK 922        TOTAL FREE ENERGY PREDICTED BY IDOCK:   -4.96 KCAL/MOL
REMARK 923 INTER-LIGAND FREE ENERGY PREDICTED BY IDOCK:   -4.51 KCAL/MOL
REMARK 924 INTRA-LIGAND FREE ENERGY PREDICTED BY IDOCK:   -0.45 KCAL/MOL
REMARK 927      BINDING AFFINITY PREDICTED BY RF-SCORE:    0.00 PKD
ROOT
HETATM    1  C   UNL     1     -12.193  11.847  68.886  1.00  0.00    -0.065 C  
HETATM    2  C   UNL     1     -11.313  10.709  68.441  1.00  0.00    -0.348 A  
HETATM    3  C   UNL     1     -11.107   9.658  69.352  1.00  0.00    -0.170 A  
HETATM    4  C   UNL     1     -10.320   8.535  69.066  1.00  0.00    -0.229 A  
HETATM    5  C   UNL     1      -9.136   9.455  65.551  1.00  0.00    -0.270 C  
HETATM    6  C   UNL     1      -9.700   8.516  67.807  1.00  0.00    -0.199 A  
HETATM    7  C   UNL     1     -10.691  10.671  67.175  1.00  0.00    -0.327 A  
HETATM    8  C   UNL     1      -9.874   9.555  66.863  1.00  0.00    -0.262 A  
ENDROOT
BRANCH   4   9
HETATM    9  C   UNL     1     -10.136   7.411  70.105  1.00  0.00    -0.197 C  
HETATM   10  C   UNL     1     -11.414   6.550  70.265  1.00  0.00    -0.474 C  
HETATM   11  C   UNL     1      -9.805   8.035  71.476  1.00  0.00    -0.217 C  
HETATM   12  C   UNL     1      -9.003   6.431  69.727  1.00  0.00    -0.141 C  
ENDBRANCH   4   9
BRANCH   7  13
HETATM   13  C   UNL     1     -10.815  11.843  66.212  1.00  0.00    -0.323 C  
BRANCH  13  14
HETATM   14  C   UNL     1      -9.966  13.071  66.465  1.00  0.00    -0.262 A  
HETATM   15  N   UNL     1     -10.072  14.100  65.660  1.00  0.00    -0.343 NA 
HETATM   16  C   UNL     1      -9.150  15.127  66.213  1.00  0.00    -0.278 A  
HETATM   17  H   UNL     1     -10.661  14.179  64.831  1.00  0.00     0.000 HD 
HETATM   18  C   UNL     1      -8.489  14.519  67.454  1.00  0.00    -0.205 A  
HETATM   19  N   UNL     1      -9.126  13.227  67.537  1.00  0.00    -0.198 NA 
ENDBRANCH  13  14
ENDBRANCH   7  13
TORSDOF 3
ENDMDL
MODEL      107
REMARK 921   NORMALIZED FREE ENERGY PREDICTED BY IDOCK:   -3.79 KCAL/MOL
REMARK 922        TOTAL FREE ENERGY PREDICTED BY IDOCK:   -4.94 KCAL/MOL
REMARK 923 INTER-LIGAND FREE ENERGY PREDICTED BY IDOCK:   -4.40 KCAL/MOL
REMARK 924 INTRA-LIGAND FREE ENERGY PREDICTED BY IDOCK:   -0.54 KCAL/MOL
REMARK 927      BINDING AFFINITY PREDICTED BY RF-SCORE:    0.00 PKD
ROOT
HETATM    1  C   UNL     1      -9.319   8.293  67.045  1.00  0.00    -0.203 C  
HETATM    2  C   UNL     1      -9.733   7.374  68.163  1.00  0.00    -0.163 A  
HETATM    3  C   UNL     1     -10.505   7.926  69.200  1.00  0.00    -0.218 A  
HETATM    4  C   UNL     1     -10.966   7.184  70.296  1.00  0.00    -0.288 A  
HETATM    5  C   UNL     1      -9.424   3.786  69.468  1.00  0.00    -0.257 C  
HETATM    6  C   UNL     1     -10.587   5.833  70.334  1.00  0.00    -0.365 A  
HETATM    7  C   UNL     1      -9.369   6.011  68.211  1.00  0.00    -0.116 A  
HETATM    8  C   UNL     1      -9.805   5.238  69.316  1.00  0.00    -0.256 A  
ENDROOT
BRANCH   4   9
HETATM    9  C   UNL     1     -11.813   7.846  71.400  1.00  0.00    -0.328 C  
HETATM   10  C   UNL     1     -13.264   7.300  71.428  1.00  0.00    -0.404 C  
HETATM   11  C   UNL     1     -11.879   9.366  71.150  1.00  0.00    -0.413 C  
HETATM   12  C   UNL     1     -11.239   7.605  72.814  1.00  0.00    -0.431 C  
ENDBRANCH   4   9
BRANCH   7  13
HETATM   13  C   UNL     1      -8.450   5.415  67.154  1.00  0.00    -0.106 C  
BRANCH  13  14
HETATM   14  C   UNL     1      -9.069   4.916  65.865  1.00  0.00    -0.147 A  
HETATM   15  N   UNL     1      -8.355   4.923  64.766  1.00  0.00    -0.129 NA 
HETATM   16  C   UNL     1      -9.236   4.338  63.722  1.00  0.00    -0.139 A  
HETATM   17  H   UNL     1      -7.398   5.259  64.652  1.00  0.00     0.000 HD 
HETATM   18  C   UNL     1     -10.573   4.007  64.392  1.00  0.00    -0.186 A  
HETATM   19  N   UNL     1     -10.325   4.376  65.765  1.00  0.00    -0.249 NA 
ENDBRANCH  13  14
ENDBRANCH   7  13
TORSDOF 3
ENDMDL
MODEL      108
REMARK 921   NORMALIZED FREE ENERGY PREDICTED BY IDOCK:   -3.75 KCAL/MOL
REMARK 922        TOTAL FREE ENERGY PREDICTED BY IDOCK:   -4.89 KCAL/MOL
REMARK 923 INTER-LIGAND FREE ENERGY PREDICTED BY IDOCK:   -4.58 KCAL/MOL
REMARK 924 INTRA-LIGAND FREE ENERGY PREDICTED BY IDOCK:   -0.31 KCAL/MOL
REMARK 927      BINDING AFFINITY PREDICTED BY RF-SCORE:    0.00 PKD
ROOT
HETATM    1  C   UNL     1     -10.924   7.091  67.024  1.00  0.00    -0.357 C  
HETATM    2  C   UNL     1     -10.333   7.979  68.086  1.00  0.00    -0.250 A  
HETATM    3  C   UNL     1     -10.458   7.559  69.422  1.00  0.00    -0.222 A  
HETATM    4  C   UNL     1      -9.947   8.282  70.507  1.00  0.00    -0.198 A  
HETATM    5  C   UNL     1      -8.505  11.296  68.653  1.00  0.00    -0.143 C  
HETATM    6  C   UNL     1      -9.314   9.497  70.201  1.00  0.00    -0.286 A  
HETATM    7  C   UNL     1      -9.684   9.198  67.793  1.00  0.00    -0.188 A  
HETATM    8  C   UNL     1      -9.172   9.961  68.872  1.00  0.00    -0.160 A  
ENDROOT
BRANCH   4   9
HETATM    9  C   UNL     1     -10.112   7.767  71.951  1.00  0.00    -0.231 C  
HETATM   10  C   UNL     1      -9.103   8.428  72.925  1.00  0.00    -0.282 C  
HETATM   11  C   UNL     1      -9.876   6.244  71.978  1.00  0.00    -0.173 C  
HETATM   12  C   UNL     1     -11.516   8.056  72.528  1.00  0.00    -0.471 C  
ENDBRANCH   4   9
BRANCH   7  13
HETATM   13  C   UNL     1      -9.626   9.724  66.366  1.00  0.00    -0.256 C  
BRANCH  13  14
HETATM   14  C   UNL     1     -10.373  11.000  66.042  1.00  0.00    -0.254 A  
HETATM   15  N   UNL     1     -11.554  11.204  66.571  1.00  0.00    -0.200 NA 
HETATM   16  C   UNL     1     -11.974  12.546  66.089  1.00  0.00    -0.366 A  
HETATM   17  H   UNL     1     -12.074  10.576  67.183  1.00  0.00     0.000 HD 
HETATM   18  C   UNL     1     -10.854  13.074  65.188  1.00  0.00    -0.300 A  
HETATM   19  N   UNL     1      -9.870  12.021  65.277  1.00  0.00    -0.239 NA 
ENDBRANCH  13  14
ENDBRANCH   7  13
TORSDOF 3
ENDMDL
MODEL      109
REMARK 921   NORMALIZED FREE ENERGY PREDICTED BY IDOCK:   -3.73 KCAL/MOL
REMARK 922        TOTAL FREE ENERGY PREDICTED BY IDOCK:   -4.87 KCAL/MOL
REMARK 923 INTER-LIGAND FREE ENERGY PREDICTED BY IDOCK:   -4.59 KCAL/MOL
REMARK 924 INTRA-LIGAND FREE ENERGY PREDICTED BY IDOCK:   -0.28 KCAL/MOL
REMARK 927      BINDING AFFINITY PREDICTED BY RF-SCORE:    0.00 PKD
ROOT
HETATM    1  C   UNL     1      -7.043  10.710  68.874  1.00  0.00    -0.078 C  
HETATM    2  C   UNL     1      -8.383  10.333  69.449  1.00  0.00    -0.169 A  
HETATM    3  C   UNL     1      -8.395   9.415  70.512  1.00  0.00    -0.233 A  
HETATM    4  C   UNL     1      -9.569   8.985  71.145  1.00  0.00    -0.356 A  
HETATM    5  C   UNL     1     -12.154  10.888  69.072  1.00  0.00    -0.240 C  
HETATM    6  C   UNL     1     -10.772   9.499  70.637  1.00  0.00    -0.375 A  
HETATM    7  C   UNL     1      -9.601  10.851  68.956  1.00  0.00    -0.170 A  
HETATM    8  C   UNL     1     -10.807  10.421  69.565  1.00  0.00    -0.295 A  
ENDROOT
BRANCH   4   9
HETATM    9  C   UNL     1      -9.516   7.977  72.311  1.00  0.00    -0.272 C  
HETATM   10  C   UNL     1      -9.248   6.532  71.819  1.00  0.00    -0.149 C  
HETATM   11  C   UNL     1     -10.867   7.987  73.054  1.00  0.00    -0.317 C  
HETATM   12  C   UNL     1      -8.396   8.299  73.325  1.00  0.00    -0.251 C  
ENDBRANCH   4   9
BRANCH   7  13
HETATM   13  C   UNL     1      -9.622  11.767  67.741  1.00  0.00    -0.184 C  
BRANCH  13  14
HETATM   14  C   UNL     1     -10.224  13.148  67.895  1.00  0.00    -0.233 A  
HETATM   15  N   UNL     1      -9.848  13.903  68.897  1.00  0.00    -0.410 NA 
HETATM   16  C   UNL     1     -10.587  15.182  68.725  1.00  0.00    -0.236 A  
HETATM   17  H   UNL     1      -9.189  13.664  69.638  1.00  0.00     0.000 HD 
HETATM   18  C   UNL     1     -11.456  15.035  67.472  1.00  0.00    -0.328 A  
HETATM   19  N   UNL     1     -11.101  13.716  67.007  1.00  0.00    -0.296 NA 
ENDBRANCH  13  14
ENDBRANCH   7  13
TORSDOF 3
ENDMDL
MODEL      110
REMARK 921   NORMALIZED FREE ENERGY PREDICTED BY IDOCK:   -3.73 KCAL/MOL
REMARK 922        TOTAL FREE ENERGY PREDICTED BY IDOCK:   -4.87 KCAL/MOL
REMARK 923 INTER-LIGAND FREE ENERGY PREDICTED BY IDOCK:   -4.36 KCAL/MOL
REMARK 924 INTRA-LIGAND FREE ENERGY PREDICTED BY IDOCK:   -0.51 KCAL/MOL
REMARK 927      BINDING AFFINITY PREDICTED BY RF-SCORE:    0.00 PKD
ROOT
HETATM    1  C   UNL     1      -9.890   9.954  69.484  1.00  0.00    -0.241 C  
HETATM    2  C   UNL     1      -9.919  10.276  68.013  1.00  0.00    -0.177 A  
HETATM    3  C   UNL     1      -8.980   9.630  67.192  1.00  0.00    -0.148 A  
HETATM    4  C   UNL     1      -8.902   9.829  65.807  1.00  0.00    -0.180 A  
HETATM    5  C   UNL     1     -11.665  12.433  65.374  1.00  0.00    -0.452 C  
HETATM    6  C   UNL     1      -9.805  10.755  65.262  1.00  0.00    -0.329 A  
HETATM    7  C   UNL     1     -10.828  11.197  67.449  1.00  0.00    -0.317 A  
HETATM    8  C   UNL     1     -10.762  11.433  66.053  1.00  0.00    -0.318 A  
ENDROOT
BRANCH   4   9
HETATM    9  C   UNL     1      -7.851   9.086  64.958  1.00  0.00    -0.113 C  
HETATM   10  C   UNL     1      -7.103   8.003  65.775  1.00  0.00    -0.063 C  
HETATM   11  C   UNL     1      -6.811  10.097  64.436  1.00  0.00    -0.106 C  
HETATM   12  C   UNL     1      -8.475   8.355  63.748  1.00  0.00     0.016 C  
ENDBRANCH   4   9
BRANCH   7  13
HETATM   13  C   UNL     1     -11.786  11.985  68.331  1.00  0.00    -0.390 C  
BRANCH  13  14
HETATM   14  C   UNL     1     -11.373  13.373  68.774  1.00  0.00    -0.292 A  
HETATM   15  N   UNL     1     -10.099  13.665  68.863  1.00  0.00    -0.416 NA 
HETATM   16  C   UNL     1     -10.051  15.094  69.273  1.00  0.00    -0.246 A  
HETATM   17  H   UNL     1      -9.308  13.044  68.689  1.00  0.00     0.000 HD 
HETATM   18  C   UNL     1     -11.499  15.571  69.418  1.00  0.00    -0.337 A  
HETATM   19  N   UNL     1     -12.246  14.399  69.027  1.00  0.00    -0.253 NA 
ENDBRANCH  13  14
ENDBRANCH   7  13
TORSDOF 3
ENDMDL
MODEL      111
REMARK 921   NORMALIZED FREE ENERGY PREDICTED BY IDOCK:   -3.72 KCAL/MOL
REMARK 922        TOTAL FREE ENERGY PREDICTED BY IDOCK:   -4.86 KCAL/MOL
REMARK 923 INTER-LIGAND FREE ENERGY PREDICTED BY IDOCK:   -4.31 KCAL/MOL
REMARK 924 INTRA-LIGAND FREE ENERGY PREDICTED BY IDOCK:   -0.56 KCAL/MOL
REMARK 927      BINDING AFFINITY PREDICTED BY RF-SCORE:    0.00 PKD
ROOT
HETATM    1  C   UNL     1      -8.558   7.407  71.099  1.00  0.00    -0.122 C  
HETATM    2  C   UNL     1      -9.116   7.453  69.701  1.00  0.00    -0.140 A  
HETATM    3  C   UNL     1      -8.960   6.306  68.906  1.00  0.00    -0.126 A  
HETATM    4  C   UNL     1      -9.439   6.209  67.592  1.00  0.00    -0.111 A  
HETATM    5  C   UNL     1     -10.907   9.713  67.180  1.00  0.00    -0.184 C  
HETATM    6  C   UNL     1     -10.071   7.351  67.076  1.00  0.00    -0.328 A  
HETATM    7  C   UNL     1      -9.763   8.591  69.172  1.00  0.00    -0.170 A  
HETATM    8  C   UNL     1     -10.243   8.529  67.840  1.00  0.00    -0.273 A  
ENDROOT
BRANCH   4   9
HETATM    9  C   UNL     1      -9.241   4.919  66.770  1.00  0.00    -0.122 C  
HETATM   10  C   UNL     1      -9.379   3.646  67.643  1.00  0.00    -0.246 C  
HETATM   11  C   UNL     1      -7.830   4.924  66.149  1.00  0.00    -0.099 C  
HETATM   12  C   UNL     1     -10.278   4.774  65.634  1.00  0.00    -0.213 C  
ENDBRANCH   4   9
BRANCH   7  13
HETATM   13  C   UNL     1      -9.854   9.879  69.977  1.00  0.00    -0.291 C  
BRANCH  13  14
HETATM   14  C   UNL     1     -11.123  10.147  70.759  1.00  0.00    -0.298 A  
HETATM   15  N   UNL     1     -11.677  11.332  70.696  1.00  0.00    -0.441 NA 
HETATM   16  C   UNL     1     -12.905  11.237  71.530  1.00  0.00    -0.414 A  
HETATM   17  H   UNL     1     -11.338  12.147  70.184  1.00  0.00     0.000 HD 
HETATM   18  C   UNL     1     -12.960   9.814  72.092  1.00  0.00    -0.394 A  
HETATM   19  N   UNL     1     -11.798   9.204  71.491  1.00  0.00    -0.331 NA 
ENDBRANCH  13  14
ENDBRANCH   7  13
TORSDOF 3
ENDMDL
MODEL      112
REMARK 921   NORMALIZED FREE ENERGY PREDICTED BY IDOCK:   -3.71 KCAL/MOL
REMARK 922        TOTAL FREE ENERGY PREDICTED BY IDOCK:   -4.85 KCAL/MOL
REMARK 923 INTER-LIGAND FREE ENERGY PREDICTED BY IDOCK:   -4.31 KCAL/MOL
REMARK 924 INTRA-LIGAND FREE ENERGY PREDICTED BY IDOCK:   -0.53 KCAL/MOL
REMARK 927      BINDING AFFINITY PREDICTED BY RF-SCORE:    0.00 PKD
ROOT
HETATM    1  C   UNL     1     -11.469  14.696  66.453  1.00  0.00    -0.348 C  
HETATM    2  C   UNL     1     -10.030  14.540  66.870  1.00  0.00    -0.259 A  
HETATM    3  C   UNL     1      -9.244  15.703  66.924  1.00  0.00    -0.257 A  
HETATM    4  C   UNL     1      -7.895  15.703  67.304  1.00  0.00    -0.230 A  
HETATM    5  C   UNL     1      -7.383  11.959  67.869  1.00  0.00    -0.104 C  
HETATM    6  C   UNL     1      -7.335  14.452  67.606  1.00  0.00    -0.197 A  
HETATM    7  C   UNL     1      -9.456  13.290  67.187  1.00  0.00    -0.240 A  
HETATM    8  C   UNL     1      -8.088  13.256  67.558  1.00  0.00    -0.187 A  
ENDROOT
BRANCH   4   9
HETATM    9  C   UNL     1      -7.085  17.015  67.348  1.00  0.00    -0.183 C  
HETATM   10  C   UNL     1      -7.123  17.768  65.994  1.00  0.00    -0.335 C  
HETATM   11  C   UNL     1      -5.613  16.693  67.676  1.00  0.00    -0.162 C  
HETATM   12  C   UNL     1      -7.618  18.007  68.406  1.00  0.00    -0.288 C  
ENDBRANCH   4   9
BRANCH   7  13
HETATM   13  C   UNL     1     -10.258  12.005  67.037  1.00  0.00    -0.224 C  
BRANCH  13  14
HETATM   14  C   UNL     1     -10.866  11.392  68.281  1.00  0.00    -0.209 A  
HETATM   15  N   UNL     1     -11.708  12.095  68.996  1.00  0.00    -0.306 NA 
HETATM   16  C   UNL     1     -12.139  11.193  70.097  1.00  0.00    -0.362 A  
HETATM   17  H   UNL     1     -12.006  13.057  68.833  1.00  0.00     0.000 HD 
HETATM   18  C   UNL     1     -11.399   9.865  69.908  1.00  0.00    -0.222 A  
HETATM   19  N   UNL     1     -10.658  10.101  68.692  1.00  0.00    -0.200 NA 
ENDBRANCH  13  14
ENDBRANCH   7  13
TORSDOF 3
ENDMDL
MODEL      113
REMARK 921   NORMALIZED FREE ENERGY PREDICTED BY IDOCK:   -3.69 KCAL/MOL
REMARK 922        TOTAL FREE ENERGY PREDICTED BY IDOCK:   -4.82 KCAL/MOL
REMARK 923 INTER-LIGAND FREE ENERGY PREDICTED BY IDOCK:   -4.32 KCAL/MOL
REMARK 924 INTRA-LIGAND FREE ENERGY PREDICTED BY IDOCK:   -0.50 KCAL/MOL
REMARK 927      BINDING AFFINITY PREDICTED BY RF-SCORE:    0.00 PKD
ROOT
HETATM    1  C   UNL     1      -7.327  13.800  67.449  1.00  0.00    -0.125 C  
HETATM    2  C   UNL     1      -8.777  14.169  67.276  1.00  0.00    -0.229 A  
HETATM    3  C   UNL     1      -9.433  13.687  66.131  1.00  0.00    -0.166 A  
HETATM    4  C   UNL     1     -10.781  13.946  65.850  1.00  0.00    -0.286 A  
HETATM    5  C   UNL     1     -11.650  16.160  68.841  1.00  0.00    -0.298 C  
HETATM    6  C   UNL     1     -11.462  14.758  66.770  1.00  0.00    -0.343 A  
HETATM    7  C   UNL     1      -9.477  14.976  68.198  1.00  0.00    -0.196 A  
HETATM    8  C   UNL     1     -10.838  15.270  67.933  1.00  0.00    -0.288 A  
ENDROOT
BRANCH   4   9
HETATM    9  C   UNL     1     -11.447  13.385  64.578  1.00  0.00    -0.402 C  
HETATM   10  C   UNL     1     -12.571  12.369  64.908  1.00  0.00    -0.372 C  
HETATM   11  C   UNL     1     -10.386  12.663  63.723  1.00  0.00    -0.360 C  
HETATM   12  C   UNL     1     -12.105  14.486  63.716  1.00  0.00     0.033 C  
ENDBRANCH   4   9
BRANCH   7  13
HETATM   13  C   UNL     1      -8.763  15.593  69.392  1.00  0.00    -0.249 C  
BRANCH  13  14
HETATM   14  C   UNL     1      -7.813  16.745  69.140  1.00  0.00    -0.145 A  
HETATM   15  N   UNL     1      -6.658  16.771  69.758  1.00  0.00    -0.147 NA 
HETATM   16  C   UNL     1      -5.971  17.990  69.257  1.00  0.00    -0.232 A  
HETATM   17  H   UNL     1      -6.305  16.097  70.439  1.00  0.00     0.000 HD 
HETATM   18  C   UNL     1      -6.920  18.668  68.264  1.00  0.00    -0.246 A  
HETATM   19  N   UNL     1      -8.037  17.754  68.240  1.00  0.00    -0.274 NA 
ENDBRANCH  13  14
ENDBRANCH   7  13
TORSDOF 3
ENDMDL
MODEL      114
REMARK 921   NORMALIZED FREE ENERGY PREDICTED BY IDOCK:   -3.68 KCAL/MOL
REMARK 922        TOTAL FREE ENERGY PREDICTED BY IDOCK:   -4.81 KCAL/MOL
REMARK 923 INTER-LIGAND FREE ENERGY PREDICTED BY IDOCK:   -4.29 KCAL/MOL
REMARK 924 INTRA-LIGAND FREE ENERGY PREDICTED BY IDOCK:   -0.52 KCAL/MOL
REMARK 927      BINDING AFFINITY PREDICTED BY RF-SCORE:    0.00 PKD
ROOT
HETATM    1  C   UNL     1      -6.894  14.367  68.926  1.00  0.00    -0.102 C  
HETATM    2  C   UNL     1      -8.181  13.816  68.374  1.00  0.00    -0.151 A  
HETATM    3  C   UNL     1      -8.096  12.685  67.543  1.00  0.00    -0.178 A  
HETATM    4  C   UNL     1      -9.214  12.065  66.970  1.00  0.00    -0.195 A  
HETATM    5  C   UNL     1     -11.969  14.375  68.264  1.00  0.00    -0.323 C  
HETATM    6  C   UNL     1     -10.457  12.656  67.240  1.00  0.00    -0.237 A  
HETATM    7  C   UNL     1      -9.441  14.393  68.644  1.00  0.00    -0.193 A  
HETATM    8  C   UNL     1     -10.589  13.798  68.064  1.00  0.00    -0.258 A  
ENDROOT
BRANCH   4   9
HETATM    9  C   UNL     1      -9.055  10.823  66.070  1.00  0.00    -0.204 C  
HETATM   10  C   UNL     1      -9.597   9.539  66.749  1.00  0.00    -0.229 C  
HETATM   11  C   UNL     1      -7.561  10.606  65.760  1.00  0.00    -0.120 C  
HETATM   12  C   UNL     1      -9.820  10.955  64.734  1.00  0.00    -0.343 C  
ENDBRANCH   4   9
BRANCH   7  13
HETATM   13  C   UNL     1      -9.551  15.675  69.456  1.00  0.00    -0.279 C  
BRANCH  13  14
HETATM   14  C   UNL     1      -9.703  16.984  68.710  1.00  0.00    -0.273 A  
HETATM   15  N   UNL     1     -10.622  17.836  69.092  1.00  0.00    -0.370 NA 
HETATM   16  C   UNL     1     -10.469  19.009  68.191  1.00  0.00    -0.323 A  
HETATM   17  H   UNL     1     -11.298  17.720  69.848  1.00  0.00     0.000 HD 
HETATM   18  C   UNL     1      -9.327  18.689  67.222  1.00  0.00    -0.287 A  
HETATM   19  N   UNL     1      -8.890  17.393  67.685  1.00  0.00    -0.224 NA 
ENDBRANCH  13  14
ENDBRANCH   7  13
TORSDOF 3
ENDMDL
MODEL      115
REMARK 921   NORMALIZED FREE ENERGY PREDICTED BY IDOCK:   -3.63 KCAL/MOL
REMARK 922        TOTAL FREE ENERGY PREDICTED BY IDOCK:   -4.75 KCAL/MOL
REMARK 923 INTER-LIGAND FREE ENERGY PREDICTED BY IDOCK:   -4.40 KCAL/MOL
REMARK 924 INTRA-LIGAND FREE ENERGY PREDICTED BY IDOCK:   -0.35 KCAL/MOL
REMARK 927      BINDING AFFINITY PREDICTED BY RF-SCORE:    0.00 PKD
ROOT
HETATM    1  C   UNL     1      -7.489  15.151  69.623  1.00  0.00    -0.181 C  
HETATM    2  C   UNL     1      -8.007  15.951  68.457  1.00  0.00    -0.152 A  
HETATM    3  C   UNL     1      -7.318  17.130  68.126  1.00  0.00    -0.202 A  
HETATM    4  C   UNL     1      -7.685  17.964  67.061  1.00  0.00    -0.232 A  
HETATM    5  C   UNL     1     -10.780  16.098  65.819  1.00  0.00    -0.289 C  
HETATM    6  C   UNL     1      -8.823  17.579  66.336  1.00  0.00    -0.269 A  
HETATM    7  C   UNL     1      -9.144  15.572  67.712  1.00  0.00    -0.178 A  
HETATM    8  C   UNL     1      -9.551  16.404  66.639  1.00  0.00    -0.273 A  
ENDROOT
BRANCH   4   9
HETATM    9  C   UNL     1      -6.885  19.243  66.744  1.00  0.00    -0.207 C  
HETATM   10  C   UNL     1      -5.484  19.233  67.408  1.00  0.00    -0.162 C  
HETATM   11  C   UNL     1      -7.656  20.469  67.273  1.00  0.00    -0.386 C  
HETATM   12  C   UNL     1      -6.640  19.432  65.231  1.00  0.00    -0.300 C  
ENDBRANCH   4   9
BRANCH   7  13
HETATM   13  C   UNL     1      -9.967  14.356  68.114  1.00  0.00    -0.223 C  
BRANCH  13  14
HETATM   14  C   UNL     1     -10.032  13.187  67.154  1.00  0.00    -0.236 A  
HETATM   15  N   UNL     1      -8.967  12.864  66.462  1.00  0.00    -0.412 NA 
HETATM   16  C   UNL     1      -9.360  11.669  65.670  1.00  0.00    -0.180 A  
HETATM   17  H   UNL     1      -8.061  13.334  66.466  1.00  0.00     0.000 HD 
HETATM   18  C   UNL     1     -10.823  11.364  66.007  1.00  0.00    -0.249 A  
HETATM   19  N   UNL     1     -11.123  12.371  66.997  1.00  0.00    -0.264 NA 
ENDBRANCH  13  14
ENDBRANCH   7  13
TORSDOF 3
ENDMDL
MODEL      116
REMARK 921   NORMALIZED FREE ENERGY PREDICTED BY IDOCK:   -3.60 KCAL/MOL
REMARK 922        TOTAL FREE ENERGY PREDICTED BY IDOCK:   -4.71 KCAL/MOL
REMARK 923 INTER-LIGAND FREE ENERGY PREDICTED BY IDOCK:   -4.22 KCAL/MOL
REMARK 924 INTRA-LIGAND FREE ENERGY PREDICTED BY IDOCK:   -0.50 KCAL/MOL
REMARK 927      BINDING AFFINITY PREDICTED BY RF-SCORE:    0.00 PKD
ROOT
HETATM    1  C   UNL     1     -11.253   6.180  66.851  1.00  0.00    -0.157 C  
HETATM    2  C   UNL     1     -10.785   6.889  68.094  1.00  0.00    -0.260 A  
HETATM    3  C   UNL     1     -10.764   6.151  69.289  1.00  0.00    -0.383 A  
HETATM    4  C   UNL     1     -10.343   6.684  70.515  1.00  0.00    -0.231 A  
HETATM    5  C   UNL     1      -9.582  10.269  69.435  1.00  0.00    -0.237 C  
HETATM    6  C   UNL     1      -9.965   8.035  70.508  1.00  0.00    -0.193 A  
HETATM    7  C   UNL     1     -10.391   8.245  68.100  1.00  0.00    -0.253 A  
HETATM    8  C   UNL     1      -9.977   8.817  69.329  1.00  0.00    -0.194 A  
ENDROOT
BRANCH   4   9
HETATM    9  C   UNL     1     -10.338   5.821  71.793  1.00  0.00    -0.271 C  
HETATM   10  C   UNL     1      -9.372   6.379  72.869  1.00  0.00    -0.140 C  
HETATM   11  C   UNL     1      -9.886   4.390  71.440  1.00  0.00    -0.262 C  
HETATM   12  C   UNL     1     -11.728   5.745  72.465  1.00  0.00    -0.280 C  
ENDBRANCH   4   9
BRANCH   7  13
HETATM   13  C   UNL     1     -10.502   9.093  66.841  1.00  0.00    -0.287 C  
BRANCH  13  14
HETATM   14  C   UNL     1      -9.300   9.173  65.923  1.00  0.00    -0.243 A  
HETATM   15  N   UNL     1      -9.023   8.160  65.140  1.00  0.00    -0.391 NA 
HETATM   16  C   UNL     1      -7.832   8.583  64.357  1.00  0.00    -0.140 A  
HETATM   17  H   UNL     1      -9.518   7.270  65.081  1.00  0.00     0.000 HD 
HETATM   18  C   UNL     1      -7.462   9.994  64.825  1.00  0.00    -0.143 A  
HETATM   19  N   UNL     1      -8.499  10.277  65.788  1.00  0.00    -0.150 NA 
ENDBRANCH  13  14
ENDBRANCH   7  13
TORSDOF 3
ENDMDL
MODEL      117
REMARK 921   NORMALIZED FREE ENERGY PREDICTED BY IDOCK:   -3.59 KCAL/MOL
REMARK 922        TOTAL FREE ENERGY PREDICTED BY IDOCK:   -4.71 KCAL/MOL
REMARK 923 INTER-LIGAND FREE ENERGY PREDICTED BY IDOCK:   -4.18 KCAL/MOL
REMARK 924 INTRA-LIGAND FREE ENERGY PREDICTED BY IDOCK:   -0.53 KCAL/MOL
REMARK 927      BINDING AFFINITY PREDICTED BY RF-SCORE:    0.00 PKD
ROOT
HETATM    1  C   UNL     1     -11.140  10.221  67.910  1.00  0.00    -0.341 C  
HETATM    2  C   UNL     1     -10.216   9.085  68.260  1.00  0.00    -0.241 A  
HETATM    3  C   UNL     1      -9.645   8.366  67.196  1.00  0.00    -0.233 A  
HETATM    4  C   UNL     1      -8.762   7.293  67.378  1.00  0.00    -0.121 A  
HETATM    5  C   UNL     1      -8.714   7.138  71.196  1.00  0.00    -0.133 C  
HETATM    6  C   UNL     1      -8.488   6.933  68.707  1.00  0.00    -0.121 A  
HETATM    7  C   UNL     1      -9.923   8.718  69.591  1.00  0.00    -0.191 A  
HETATM    8  C   UNL     1      -9.046   7.625  69.808  1.00  0.00    -0.147 A  
ENDROOT
BRANCH   4   9
HETATM    9  C   UNL     1      -8.164   6.546  66.169  1.00  0.00    -0.123 C  
HETATM   10  C   UNL     1      -8.004   7.469  64.935  1.00  0.00    -0.132 C  
HETATM   11  C   UNL     1      -9.095   5.381  65.779  1.00  0.00    -0.160 C  
HETATM   12  C   UNL     1      -6.758   5.974  66.460  1.00  0.00    -0.060 C  
ENDBRANCH   4   9
BRANCH   7  13
HETATM   13  C   UNL     1     -10.607   9.414  70.759  1.00  0.00    -0.371 C  
BRANCH  13  14
HETATM   14  C   UNL     1     -11.923   8.853  71.255  1.00  0.00    -0.307 A  
HETATM   15  N   UNL     1     -12.758   9.641  71.887  1.00  0.00    -0.399 NA 
HETATM   16  C   UNL     1     -13.944   8.796  72.188  1.00  0.00    -0.460 A  
HETATM   17  H   UNL     1     -12.623  10.624  72.123  1.00  0.00     0.000 HD 
HETATM   18  C   UNL     1     -13.652   7.396  71.641  1.00  0.00    -0.366 A  
HETATM   19  N   UNL     1     -12.357   7.573  71.028  1.00  0.00    -0.275 NA 
ENDBRANCH  13  14
ENDBRANCH   7  13
TORSDOF 3
ENDMDL
MODEL      118
REMARK 921   NORMALIZED FREE ENERGY PREDICTED BY IDOCK:   -3.46 KCAL/MOL
REMARK 922        TOTAL FREE ENERGY PREDICTED BY IDOCK:   -4.55 KCAL/MOL
REMARK 923 INTER-LIGAND FREE ENERGY PREDICTED BY IDOCK:   -4.00 KCAL/MOL
REMARK 924 INTRA-LIGAND FREE ENERGY PREDICTED BY IDOCK:   -0.55 KCAL/MOL
REMARK 927      BINDING AFFINITY PREDICTED BY RF-SCORE:    0.00 PKD
ROOT
HETATM    1  C   UNL     1      -9.548   3.475  70.468  1.00  0.00    -0.246 C  
HETATM    2  C   UNL     1      -9.942   4.853  70.006  1.00  0.00    -0.323 A  
HETATM    3  C   UNL     1     -10.166   5.826  70.994  1.00  0.00    -0.275 A  
HETATM    4  C   UNL     1     -10.528   7.149  70.705  1.00  0.00    -0.226 A  
HETATM    5  C   UNL     1     -10.729   6.944  66.895  1.00  0.00    -0.386 C  
HETATM    6  C   UNL     1     -10.697   7.463  69.348  1.00  0.00    -0.220 A  
HETATM    7  C   UNL     1     -10.106   5.187  68.644  1.00  0.00    -0.220 A  
HETATM    8  C   UNL     1     -10.489   6.513  68.320  1.00  0.00    -0.263 A  
ENDROOT
BRANCH   4   9
HETATM    9  C   UNL     1     -10.755   8.173  71.835  1.00  0.00    -0.329 C  
HETATM   10  C   UNL     1     -11.165   9.563  71.287  1.00  0.00    -0.452 C  
HETATM   11  C   UNL     1      -9.451   8.341  72.639  1.00  0.00    -0.354 C  
HETATM   12  C   UNL     1     -11.879   7.747  72.806  1.00  0.00    -0.247 C  
ENDBRANCH   4   9
BRANCH   7  13
HETATM   13  C   UNL     1      -9.970   4.126  67.561  1.00  0.00    -0.061 C  
BRANCH  13  14
HETATM   14  C   UNL     1      -8.651   4.021  66.823  1.00  0.00    -0.106 A  
HETATM   15  N   UNL     1      -8.610   4.295  65.543  1.00  0.00    -0.117 NA 
HETATM   16  C   UNL     1      -7.183   4.138  65.154  1.00  0.00    -0.071 A  
HETATM   17  H   UNL     1      -9.390   4.560  64.941  1.00  0.00     0.000 HD 
HETATM   18  C   UNL     1      -6.416   3.717  66.410  1.00  0.00    -0.037 A  
HETATM   19  N   UNL     1      -7.452   3.724  67.416  1.00  0.00    -0.067 NA 
ENDBRANCH  13  14
ENDBRANCH   7  13
TORSDOF 3
ENDMDL
MODEL      119
REMARK 921   NORMALIZED FREE ENERGY PREDICTED BY IDOCK:   -3.45 KCAL/MOL
REMARK 922        TOTAL FREE ENERGY PREDICTED BY IDOCK:   -4.54 KCAL/MOL
REMARK 923 INTER-LIGAND FREE ENERGY PREDICTED BY IDOCK:   -4.16 KCAL/MOL
REMARK 924 INTRA-LIGAND FREE ENERGY PREDICTED BY IDOCK:   -0.38 KCAL/MOL
REMARK 927      BINDING AFFINITY PREDICTED BY RF-SCORE:    0.00 PKD
ROOT
HETATM    1  C   UNL     1     -12.271  15.918  70.366  1.00  0.00    -0.292 C  
HETATM    2  C   UNL     1     -11.798  14.590  69.837  1.00  0.00    -0.373 A  
HETATM    3  C   UNL     1     -12.245  13.435  70.501  1.00  0.00    -0.425 A  
HETATM    4  C   UNL     1     -11.890  12.137  70.110  1.00  0.00    -0.368 A  
HETATM    5  C   UNL     1      -9.581  12.955  67.177  1.00  0.00    -0.225 C  
HETATM    6  C   UNL     1     -11.018  12.036  69.015  1.00  0.00    -0.260 A  
HETATM    7  C   UNL     1     -10.930  14.472  68.730  1.00  0.00    -0.262 A  
HETATM    8  C   UNL     1     -10.540  13.172  68.321  1.00  0.00    -0.260 A  
ENDROOT
BRANCH   4   9
HETATM    9  C   UNL     1     -12.416  10.907  70.877  1.00  0.00    -0.507 C  
HETATM   10  C   UNL     1     -11.269   9.961  71.317  1.00  0.00    -0.356 C  
HETATM   11  C   UNL     1     -13.372  10.110  69.967  1.00  0.00     0.633 C  
HETATM   12  C   UNL     1     -13.173  11.291  72.168  1.00  0.00    -0.286 C  
ENDBRANCH   4   9
BRANCH   7  13
HETATM   13  C   UNL     1     -10.353  15.709  68.058  1.00  0.00    -0.246 C  
BRANCH  13  14
HETATM   14  C   UNL     1      -8.873  15.986  68.218  1.00  0.00    -0.182 A  
HETATM   15  N   UNL     1      -8.309  15.802  69.386  1.00  0.00    -0.247 NA 
HETATM   16  C   UNL     1      -6.870  16.117  69.182  1.00  0.00    -0.196 A  
HETATM   17  H   UNL     1      -8.760  15.504  70.251  1.00  0.00     0.000 HD 
HETATM   18  C   UNL     1      -6.701  16.526  67.715  1.00  0.00    -0.139 A  
HETATM   19  N   UNL     1      -8.037  16.356  67.196  1.00  0.00    -0.167 NA 
ENDBRANCH  13  14
ENDBRANCH   7  13
TORSDOF 3
ENDMDL
MODEL      120
REMARK 921   NORMALIZED FREE ENERGY PREDICTED BY IDOCK:   -3.42 KCAL/MOL
REMARK 922        TOTAL FREE ENERGY PREDICTED BY IDOCK:   -4.50 KCAL/MOL
REMARK 923 INTER-LIGAND FREE ENERGY PREDICTED BY IDOCK:   -3.95 KCAL/MOL
REMARK 924 INTRA-LIGAND FREE ENERGY PREDICTED BY IDOCK:   -0.56 KCAL/MOL
REMARK 927      BINDING AFFINITY PREDICTED BY RF-SCORE:    0.00 PKD
ROOT
HETATM    1  C   UNL     1     -10.822   9.512  67.295  1.00  0.00    -0.188 C  
HETATM    2  C   UNL     1      -9.940   8.485  66.637  1.00  0.00    -0.363 A  
HETATM    3  C   UNL     1      -8.926   8.955  65.785  1.00  0.00    -0.249 A  
HETATM    4  C   UNL     1      -8.030   8.111  65.116  1.00  0.00    -0.126 A  
HETATM    5  C   UNL     1      -9.354   4.718  66.271  1.00  0.00    -0.149 C  
HETATM    6  C   UNL     1      -8.211   6.734  65.312  1.00  0.00    -0.127 A  
HETATM    7  C   UNL     1     -10.104   7.096  66.832  1.00  0.00    -0.308 A  
HETATM    8  C   UNL     1      -9.223   6.216  66.155  1.00  0.00    -0.150 A  
ENDROOT
BRANCH   4   9
HETATM    9  C   UNL     1      -6.934   8.688  64.197  1.00  0.00    -0.089 C  
HETATM   10  C   UNL     1      -5.579   8.843  64.933  1.00  0.00    -0.054 C  
HETATM   11  C   UNL     1      -7.370  10.080  63.698  1.00  0.00    -0.134 C  
HETATM   12  C   UNL     1      -6.655   7.792  62.970  1.00  0.00    -0.075 C  
ENDBRANCH   4   9
BRANCH   7  13
HETATM   13  C   UNL     1     -11.256   6.559  67.668  1.00  0.00    -0.274 C  
BRANCH  13  14
HETATM   14  C   UNL     1     -11.032   6.357  69.152  1.00  0.00    -0.355 A  
HETATM   15  N   UNL     1     -11.621   7.159  70.004  1.00  0.00    -0.520 NA 
HETATM   16  C   UNL     1     -11.229   6.661  71.348  1.00  0.00    -0.274 A  
HETATM   17  H   UNL     1     -12.222   7.956  69.790  1.00  0.00     0.000 HD 
HETATM   18  C   UNL     1     -10.310   5.455  71.133  1.00  0.00    -0.235 A  
HETATM   19  N   UNL     1     -10.301   5.333  69.694  1.00  0.00    -0.278 NA 
ENDBRANCH  13  14
ENDBRANCH   7  13
TORSDOF 3
ENDMDL
MODEL      121
REMARK 921   NORMALIZED FREE ENERGY PREDICTED BY IDOCK:   -3.42 KCAL/MOL
REMARK 922        TOTAL FREE ENERGY PREDICTED BY IDOCK:   -4.50 KCAL/MOL
REMARK 923 INTER-LIGAND FREE ENERGY PREDICTED BY IDOCK:   -3.94 KCAL/MOL
REMARK 924 INTRA-LIGAND FREE ENERGY PREDICTED BY IDOCK:   -0.56 KCAL/MOL
REMARK 927      BINDING AFFINITY PREDICTED BY RF-SCORE:    0.00 PKD
ROOT
HETATM    1  C   UNL     1      -9.440   3.040  68.531  1.00  0.00    -0.204 C  
HETATM    2  C   UNL     1      -9.874   4.430  68.916  1.00  0.00    -0.163 A  
HETATM    3  C   UNL     1      -9.978   4.717  70.287  1.00  0.00    -0.320 A  
HETATM    4  C   UNL     1     -10.362   5.970  70.784  1.00  0.00    -0.280 A  
HETATM    5  C   UNL     1     -10.992   7.805  67.492  1.00  0.00    -0.040 C  
HETATM    6  C   UNL     1     -10.680   6.946  69.828  1.00  0.00    -0.276 A  
HETATM    7  C   UNL     1     -10.187   5.425  67.965  1.00  0.00    -0.221 A  
HETATM    8  C   UNL     1     -10.596   6.698  68.437  1.00  0.00    -0.289 A  
ENDROOT
BRANCH   4   9
HETATM    9  C   UNL     1     -10.453   6.226  72.302  1.00  0.00    -0.227 C  
HETATM   10  C   UNL     1     -11.362   5.191  73.013  1.00  0.00    -0.381 C  
HETATM   11  C   UNL     1     -11.043   7.629  72.548  1.00  0.00    -0.388 C  
HETATM   12  C   UNL     1      -9.079   6.141  73.003  1.00  0.00    -0.130 C  
ENDBRANCH   4   9
BRANCH   7  13
HETATM   13  C   UNL     1     -10.181   5.109  66.476  1.00  0.00    -0.300 C  
BRANCH  13  14
HETATM   14  C   UNL     1      -8.913   5.374  65.693  1.00  0.00    -0.156 A  
HETATM   15  N   UNL     1      -8.926   5.246  64.390  1.00  0.00    -0.352 NA 
HETATM   16  C   UNL     1      -7.557   5.617  63.944  1.00  0.00    -0.074 A  
HETATM   17  H   UNL     1      -9.709   4.954  63.804  1.00  0.00     0.000 HD 
HETATM   18  C   UNL     1      -6.752   5.965  65.200  1.00  0.00    -0.044 A  
HETATM   19  N   UNL     1      -7.739   5.818  66.244  1.00  0.00    -0.098 NA 
ENDBRANCH  13  14
ENDBRANCH   7  13
TORSDOF 3
ENDMDL
MODEL      122
REMARK 921   NORMALIZED FREE ENERGY PREDICTED BY IDOCK:   -3.39 KCAL/MOL
REMARK 922        TOTAL FREE ENERGY PREDICTED BY IDOCK:   -4.47 KCAL/MOL
REMARK 923 INTER-LIGAND FREE ENERGY PREDICTED BY IDOCK:   -3.95 KCAL/MOL
REMARK 924 INTRA-LIGAND FREE ENERGY PREDICTED BY IDOCK:   -0.52 KCAL/MOL
REMARK 927      BINDING AFFINITY PREDICTED BY RF-SCORE:    0.00 PKD
ROOT
HETATM    1  C   UNL     1     -12.114   6.830  70.728  1.00  0.00    -0.402 C  
HETATM    2  C   UNL     1     -10.694   6.477  70.374  1.00  0.00    -0.306 A  
HETATM    3  C   UNL     1     -10.390   5.116  70.205  1.00  0.00    -0.340 A  
HETATM    4  C   UNL     1      -9.113   4.649  69.866  1.00  0.00    -0.161 A  
HETATM    5  C   UNL     1      -7.218   7.965  69.763  1.00  0.00    -0.066 C  
HETATM    6  C   UNL     1      -8.112   5.622  69.730  1.00  0.00    -0.102 A  
HETATM    7  C   UNL     1      -9.678   7.446  70.224  1.00  0.00    -0.172 A  
HETATM    8  C   UNL     1      -8.372   7.003  69.898  1.00  0.00    -0.139 A  
ENDROOT
BRANCH   4   9
HETATM    9  C   UNL     1      -8.842   3.141  69.689  1.00  0.00    -0.146 C  
HETATM   10  C   UNL     1      -9.407   2.600  68.351  1.00  0.00    -0.256 C  
HETATM   11  C   UNL     1      -9.514   2.365  70.840  1.00  0.00    -0.214 C  
HETATM   12  C   UNL     1      -7.335   2.804  69.685  1.00  0.00    -0.044 C  
ENDBRANCH   4   9
BRANCH   7  13
HETATM   13  C   UNL     1      -9.959   8.916  70.501  1.00  0.00    -0.243 C  
BRANCH  13  14
HETATM   14  C   UNL     1     -10.183   9.838  69.321  1.00  0.00    -0.204 A  
HETATM   15  N   UNL     1     -11.323   9.790  68.677  1.00  0.00    -0.493 NA 
HETATM   16  C   UNL     1     -11.225  10.837  67.626  1.00  0.00    -0.299 A  
HETATM   17  H   UNL     1     -12.110   9.167  68.859  1.00  0.00     0.000 HD 
HETATM   18  C   UNL     1      -9.843  11.483  67.759  1.00  0.00    -0.177 A  
HETATM   19  N   UNL     1      -9.294  10.795  68.903  1.00  0.00    -0.182 NA 
ENDBRANCH  13  14
ENDBRANCH   7  13
TORSDOF 3
ENDMDL
MODEL      123
REMARK 921   NORMALIZED FREE ENERGY PREDICTED BY IDOCK:   -3.35 KCAL/MOL
REMARK 922        TOTAL FREE ENERGY PREDICTED BY IDOCK:   -4.42 KCAL/MOL
REMARK 923 INTER-LIGAND FREE ENERGY PREDICTED BY IDOCK:   -3.88 KCAL/MOL
REMARK 924 INTRA-LIGAND FREE ENERGY PREDICTED BY IDOCK:   -0.54 KCAL/MOL
REMARK 927      BINDING AFFINITY PREDICTED BY RF-SCORE:    0.00 PKD
ROOT
HETATM    1  C   UNL     1     -10.643   8.857  67.227  1.00  0.00    -0.304 C  
HETATM    2  C   UNL     1      -9.567   8.442  66.258  1.00  0.00    -0.286 A  
HETATM    3  C   UNL     1      -9.307   7.067  66.133  1.00  0.00    -0.090 A  
HETATM    4  C   UNL     1      -8.342   6.543  65.263  1.00  0.00    -0.121 A  
HETATM    5  C   UNL     1      -6.947   9.791  63.812  1.00  0.00    -0.119 C  
HETATM    6  C   UNL     1      -7.599   7.476  64.525  1.00  0.00    -0.110 A  
HETATM    7  C   UNL     1      -8.819   9.369  65.501  1.00  0.00    -0.220 A  
HETATM    8  C   UNL     1      -7.823   8.870  64.625  1.00  0.00    -0.124 A  
ENDROOT
BRANCH   4   9
HETATM    9  C   UNL     1      -8.105   5.022  65.167  1.00  0.00    -0.112 C  
HETATM   10  C   UNL     1      -7.538   4.607  63.785  1.00  0.00    -0.064 C  
HETATM   11  C   UNL     1      -9.443   4.284  65.376  1.00  0.00    -0.177 C  
HETATM   12  C   UNL     1      -7.093   4.510  66.216  1.00  0.00    -0.075 C  
ENDBRANCH   4   9
BRANCH   7  13
HETATM   13  C   UNL     1      -9.011  10.867  65.694  1.00  0.00    -0.209 C  
BRANCH  13  14
HETATM   14  C   UNL     1     -10.095  11.558  64.894  1.00  0.00    -0.268 A  
HETATM   15  N   UNL     1     -10.665  10.922  63.902  1.00  0.00    -0.509 NA 
HETATM   16  C   UNL     1     -11.695  11.856  63.374  1.00  0.00    -0.403 A  
HETATM   17  H   UNL     1     -10.449   9.984  63.563  1.00  0.00     0.000 HD 
HETATM   18  C   UNL     1     -11.615  13.135  64.212  1.00  0.00    -0.392 A  
HETATM   19  N   UNL     1     -10.593  12.804  65.177  1.00  0.00    -0.294 NA 
ENDBRANCH  13  14
ENDBRANCH   7  13
TORSDOF 3
ENDMDL
MODEL      124
REMARK 921   NORMALIZED FREE ENERGY PREDICTED BY IDOCK:   -3.34 KCAL/MOL
REMARK 922        TOTAL FREE ENERGY PREDICTED BY IDOCK:   -4.41 KCAL/MOL
REMARK 923 INTER-LIGAND FREE ENERGY PREDICTED BY IDOCK:   -3.88 KCAL/MOL
REMARK 924 INTRA-LIGAND FREE ENERGY PREDICTED BY IDOCK:   -0.53 KCAL/MOL
REMARK 927      BINDING AFFINITY PREDICTED BY RF-SCORE:    0.00 PKD
ROOT
HETATM    1  C   UNL     1     -10.765   5.458  69.287  1.00  0.00    -0.198 C  
HETATM    2  C   UNL     1     -10.484   6.901  68.964  1.00  0.00    -0.223 A  
HETATM    3  C   UNL     1      -9.802   7.174  67.767  1.00  0.00    -0.175 A  
HETATM    4  C   UNL     1      -9.484   8.471  67.340  1.00  0.00    -0.188 A  
HETATM    5  C   UNL     1     -10.866  10.476  70.284  1.00  0.00    -0.241 C  
HETATM    6  C   UNL     1      -9.857   9.516  68.199  1.00  0.00    -0.177 A  
HETATM    7  C   UNL     1     -10.863   7.964  69.813  1.00  0.00    -0.202 A  
HETATM    8  C   UNL     1     -10.540   9.286  69.417  1.00  0.00    -0.234 A  
ENDROOT
BRANCH   4   9
HETATM    9  C   UNL     1      -8.736   8.707  66.012  1.00  0.00    -0.196 C  
HETATM   10  C   UNL     1      -8.389   7.377  65.296  1.00  0.00    -0.110 C  
HETATM   11  C   UNL     1      -7.420   9.457  66.295  1.00  0.00    -0.096 C  
HETATM   12  C   UNL     1      -9.564   9.533  65.003  1.00  0.00    -0.218 C  
ENDBRANCH   4   9
BRANCH   7  13
HETATM   13  C   UNL     1     -11.511   7.688  71.162  1.00  0.00    -0.296 C  
BRANCH  13  14
HETATM   14  C   UNL     1     -10.618   7.288  72.318  1.00  0.00    -0.224 A  
HETATM   15  N   UNL     1     -11.155   6.762  73.391  1.00  0.00    -0.510 NA 
HETATM   16  C   UNL     1     -10.013   6.451  74.290  1.00  0.00    -0.328 A  
HETATM   17  H   UNL     1     -12.147   6.601  73.571  1.00  0.00     0.000 HD 
HETATM   18  C   UNL     1      -8.736   6.894  73.569  1.00  0.00    -0.134 A  
HETATM   19  N   UNL     1      -9.250   7.365  72.304  1.00  0.00    -0.131 NA 
ENDBRANCH  13  14
ENDBRANCH   7  13
TORSDOF 3
ENDMDL
MODEL      125
REMARK 921   NORMALIZED FREE ENERGY PREDICTED BY IDOCK:   -3.33 KCAL/MOL
REMARK 922        TOTAL FREE ENERGY PREDICTED BY IDOCK:   -4.41 KCAL/MOL
REMARK 923 INTER-LIGAND FREE ENERGY PREDICTED BY IDOCK:   -3.99 KCAL/MOL
REMARK 924 INTRA-LIGAND FREE ENERGY PREDICTED BY IDOCK:   -0.41 KCAL/MOL
REMARK 927      BINDING AFFINITY PREDICTED BY RF-SCORE:    0.00 PKD
ROOT
HETATM    1  C   UNL     1     -10.163   8.577  66.841  1.00  0.00    -0.375 C  
HETATM    2  C   UNL     1     -10.323   7.588  67.966  1.00  0.00    -0.254 A  
HETATM    3  C   UNL     1     -10.892   8.058  69.162  1.00  0.00    -0.038 A  
HETATM    4  C   UNL     1     -11.107   7.245  70.283  1.00  0.00    -0.289 A  
HETATM    5  C   UNL     1      -9.656   3.957  68.984  1.00  0.00    -0.209 C  
HETATM    6  C   UNL     1     -10.687   5.911  70.172  1.00  0.00    -0.389 A  
HETATM    7  C   UNL     1      -9.915   6.241  67.865  1.00  0.00    -0.147 A  
HETATM    8  C   UNL     1     -10.103   5.398  68.989  1.00  0.00    -0.283 A  
ENDROOT
BRANCH   4   9
HETATM    9  C   UNL     1     -11.742   7.818  71.566  1.00  0.00    -0.312 C  
HETATM   10  C   UNL     1     -11.015   7.326  72.844  1.00  0.00    -0.381 C  
HETATM   11  C   UNL     1     -13.214   7.369  71.650  1.00  0.00    -0.416 C  
HETATM   12  C   UNL     1     -11.695   9.361  71.614  1.00  0.00    -0.468 C  
ENDBRANCH   4   9
BRANCH   7  13
HETATM   13  C   UNL     1      -9.203   5.734  66.619  1.00  0.00    -0.143 C  
BRANCH  13  14
HETATM   14  C   UNL     1      -7.725   6.028  66.469  1.00  0.00    -0.103 A  
HETATM   15  N   UNL     1      -7.039   5.409  65.541  1.00  0.00    -0.065 NA 
HETATM   16  C   UNL     1      -5.660   5.955  65.640  1.00  0.00    -0.016 A  
HETATM   17  H   UNL     1      -7.379   4.702  64.888  1.00  0.00     0.000 HD 
HETATM   18  C   UNL     1      -5.660   6.976  66.782  1.00  0.00    -0.022 A  
HETATM   19  N   UNL     1      -7.042   6.967  67.198  1.00  0.00    -0.081 NA 
ENDBRANCH  13  14
ENDBRANCH   7  13
TORSDOF 3
ENDMDL
MODEL      126
REMARK 921   NORMALIZED FREE ENERGY PREDICTED BY IDOCK:   -3.33 KCAL/MOL
REMARK 922        TOTAL FREE ENERGY PREDICTED BY IDOCK:   -4.40 KCAL/MOL
REMARK 923 INTER-LIGAND FREE ENERGY PREDICTED BY IDOCK:   -3.95 KCAL/MOL
REMARK 924 INTRA-LIGAND FREE ENERGY PREDICTED BY IDOCK:   -0.46 KCAL/MOL
REMARK 927      BINDING AFFINITY PREDICTED BY RF-SCORE:    0.00 PKD
ROOT
HETATM    1  C   UNL     1      -7.399  15.103  69.707  1.00  0.00    -0.141 C  
HETATM    2  C   UNL     1      -8.160  15.859  68.650  1.00  0.00    -0.162 A  
HETATM    3  C   UNL     1      -7.598  17.061  68.186  1.00  0.00    -0.194 A  
HETATM    4  C   UNL     1      -8.194  17.859  67.201  1.00  0.00    -0.228 A  
HETATM    5  C   UNL     1     -11.377  15.840  66.573  1.00  0.00     0.132 C  
HETATM    6  C   UNL     1      -9.428  17.413  66.704  1.00  0.00    -0.285 A  
HETATM    7  C   UNL     1      -9.397  15.418  68.133  1.00  0.00    -0.197 A  
HETATM    8  C   UNL     1     -10.033  16.213  67.147  1.00  0.00    -0.251 A  
ENDROOT
BRANCH   4   9
HETATM    9  C   UNL     1      -7.526  19.166  66.729  1.00  0.00    -0.237 C  
HETATM   10  C   UNL     1      -6.278  18.898  65.850  1.00  0.00    -0.239 C  
HETATM   11  C   UNL     1      -7.079  19.982  67.959  1.00  0.00    -0.322 C  
HETATM   12  C   UNL     1      -8.470  20.042  65.876  1.00  0.00    -0.156 C  
ENDBRANCH   4   9
BRANCH   7  13
HETATM   13  C   UNL     1     -10.074  14.175  68.692  1.00  0.00    -0.229 C  
BRANCH  13  14
HETATM   14  C   UNL     1     -11.210  14.359  69.676  1.00  0.00    -0.232 A  
HETATM   15  N   UNL     1     -11.305  15.482  70.343  1.00  0.00    -0.309 NA 
HETATM   16  C   UNL     1     -12.534  15.347  71.168  1.00  0.00    -0.402 A  
HETATM   17  H   UNL     1     -10.670  16.280  70.304  1.00  0.00     0.000 HD 
HETATM   18  C   UNL     1     -13.122  13.963  70.879  1.00  0.00    -0.192 A  
HETATM   19  N   UNL     1     -12.217  13.451  69.878  1.00  0.00    -0.301 NA 
ENDBRANCH  13  14
ENDBRANCH   7  13
TORSDOF 3
ENDMDL
MODEL      127
REMARK 921   NORMALIZED FREE ENERGY PREDICTED BY IDOCK:   -3.27 KCAL/MOL
REMARK 922        TOTAL FREE ENERGY PREDICTED BY IDOCK:   -4.32 KCAL/MOL
REMARK 923 INTER-LIGAND FREE ENERGY PREDICTED BY IDOCK:   -3.79 KCAL/MOL
REMARK 924 INTRA-LIGAND FREE ENERGY PREDICTED BY IDOCK:   -0.53 KCAL/MOL
REMARK 927      BINDING AFFINITY PREDICTED BY RF-SCORE:    0.00 PKD
ROOT
HETATM    1  C   UNL     1      -6.560   9.006  69.815  1.00  0.00    -0.045 C  
HETATM    2  C   UNL     1      -7.955   8.860  70.363  1.00  0.00    -0.120 A  
HETATM    3  C   UNL     1      -8.202   7.773  71.219  1.00  0.00    -0.105 A  
HETATM    4  C   UNL     1      -9.449   7.524  71.807  1.00  0.00    -0.170 A  
HETATM    5  C   UNL     1     -11.466  10.389  70.281  1.00  0.00    -0.406 C  
HETATM    6  C   UNL     1     -10.482   8.411  71.469  1.00  0.00    -0.305 A  
HETATM    7  C   UNL     1      -9.002   9.750  70.041  1.00  0.00    -0.255 A  
HETATM    8  C   UNL     1     -10.280   9.514  70.606  1.00  0.00    -0.364 A  
ENDROOT
BRANCH   4   9
HETATM    9  C   UNL     1      -9.656   6.316  72.743  1.00  0.00    -0.155 C  
HETATM   10  C   UNL     1      -9.801   6.746  74.225  1.00  0.00    -0.348 C  
HETATM   11  C   UNL     1      -8.441   5.373  72.634  1.00  0.00    -0.114 C  
HETATM   12  C   UNL     1     -10.932   5.514  72.404  1.00  0.00    -0.310 C  
ENDBRANCH   4   9
BRANCH   7  13
HETATM   13  C   UNL     1      -8.787  10.874  69.037  1.00  0.00    -0.105 C  
BRANCH  13  14
HETATM   14  C   UNL     1      -9.179  10.630  67.595  1.00  0.00    -0.146 A  
HETATM   15  N   UNL     1      -9.223  11.642  66.763  1.00  0.00    -0.180 NA 
HETATM   16  C   UNL     1      -9.591  11.053  65.448  1.00  0.00    -0.225 A  
HETATM   17  H   UNL     1      -9.042  12.624  66.973  1.00  0.00     0.000 HD 
HETATM   18  C   UNL     1      -9.765   9.547  65.660  1.00  0.00    -0.290 A  
HETATM   19  N   UNL     1      -9.429   9.395  67.056  1.00  0.00    -0.150 NA 
ENDBRANCH  13  14
ENDBRANCH   7  13
TORSDOF 3
ENDMDL
MODEL      128
REMARK 921   NORMALIZED FREE ENERGY PREDICTED BY IDOCK:   -3.26 KCAL/MOL
REMARK 922        TOTAL FREE ENERGY PREDICTED BY IDOCK:   -4.31 KCAL/MOL
REMARK 923 INTER-LIGAND FREE ENERGY PREDICTED BY IDOCK:   -3.77 KCAL/MOL
REMARK 924 INTRA-LIGAND FREE ENERGY PREDICTED BY IDOCK:   -0.55 KCAL/MOL
REMARK 927      BINDING AFFINITY PREDICTED BY RF-SCORE:    0.00 PKD
ROOT
HETATM    1  C   UNL     1      -7.390   6.756  68.347  1.00  0.00    -0.087 C  
HETATM    2  C   UNL     1      -8.231   7.910  68.825  1.00  0.00    -0.127 A  
HETATM    3  C   UNL     1      -9.249   7.626  69.751  1.00  0.00    -0.147 A  
HETATM    4  C   UNL     1     -10.098   8.605  70.285  1.00  0.00    -0.206 A  
HETATM    5  C   UNL     1      -8.797  11.676  68.420  1.00  0.00    -0.161 C  
HETATM    6  C   UNL     1      -9.907   9.914  69.818  1.00  0.00    -0.268 A  
HETATM    7  C   UNL     1      -8.043   9.234  68.373  1.00  0.00    -0.106 A  
HETATM    8  C   UNL     1      -8.898  10.243  68.882  1.00  0.00    -0.157 A  
ENDROOT
BRANCH   4   9
HETATM    9  C   UNL     1     -11.195   8.232  71.302  1.00  0.00    -0.302 C  
HETATM   10  C   UNL     1     -11.897   6.898  70.939  1.00  0.00    -0.424 C  
HETATM   11  C   UNL     1     -12.264   9.342  71.329  1.00  0.00    -0.425 C  
HETATM   12  C   UNL     1     -10.642   8.048  72.733  1.00  0.00    -0.420 C  
ENDBRANCH   4   9
BRANCH   7  13
HETATM   13  C   UNL     1      -7.016   9.550  67.296  1.00  0.00    -0.085 C  
BRANCH  13  14
HETATM   14  C   UNL     1      -7.454   9.485  65.847  1.00  0.00    -0.100 A  
HETATM   15  N   UNL     1      -7.532  10.592  65.152  1.00  0.00    -0.341 NA 
HETATM   16  C   UNL     1      -7.940  10.170  63.785  1.00  0.00    -0.153 A  
HETATM   17  H   UNL     1      -7.352  11.542  65.478  1.00  0.00     0.000 HD 
HETATM   18  C   UNL     1      -8.096   8.647  63.812  1.00  0.00    -0.163 A  
HETATM   19  N   UNL     1      -7.713   8.325  65.166  1.00  0.00    -0.096 NA 
ENDBRANCH  13  14
ENDBRANCH   7  13
TORSDOF 3
ENDMDL
MODEL      129
REMARK 921   NORMALIZED FREE ENERGY PREDICTED BY IDOCK:   -3.22 KCAL/MOL
REMARK 922        TOTAL FREE ENERGY PREDICTED BY IDOCK:   -4.27 KCAL/MOL
REMARK 923 INTER-LIGAND FREE ENERGY PREDICTED BY IDOCK:   -3.74 KCAL/MOL
REMARK 924 INTRA-LIGAND FREE ENERGY PREDICTED BY IDOCK:   -0.53 KCAL/MOL
REMARK 927      BINDING AFFINITY PREDICTED BY RF-SCORE:    0.00 PKD
ROOT
HETATM    1  C   UNL     1     -12.086   6.933  70.491  1.00  0.00    -0.315 C  
HETATM    2  C   UNL     1     -10.580   6.959  70.505  1.00  0.00    -0.247 A  
HETATM    3  C   UNL     1      -9.945   6.876  71.756  1.00  0.00    -0.183 A  
HETATM    4  C   UNL     1      -8.552   6.880  71.913  1.00  0.00    -0.118 A  
HETATM    5  C   UNL     1      -7.491   7.267  68.263  1.00  0.00    -0.102 C  
HETATM    6  C   UNL     1      -7.795   7.007  70.738  1.00  0.00    -0.096 A  
HETATM    7  C   UNL     1      -9.805   7.076  69.331  1.00  0.00    -0.160 A  
HETATM    8  C   UNL     1      -8.394   7.100  69.460  1.00  0.00    -0.133 A  
ENDROOT
BRANCH   4   9
HETATM    9  C   UNL     1      -7.913   6.781  73.313  1.00  0.00    -0.109 C  
HETATM   10  C   UNL     1      -6.383   6.543  73.239  1.00  0.00    -0.064 C  
HETATM   11  C   UNL     1      -8.545   5.602  74.079  1.00  0.00    -0.117 C  
HETATM   12  C   UNL     1      -8.106   8.068  74.146  1.00  0.00    -0.309 C  
ENDBRANCH   4   9
BRANCH   7  13
HETATM   13  C   UNL     1     -10.470   7.269  67.976  1.00  0.00    -0.249 C  
BRANCH  13  14
HETATM   14  C   UNL     1     -10.591   8.677  67.432  1.00  0.00    -0.228 A  
HETATM   15  N   UNL     1     -11.204   9.589  68.145  1.00  0.00    -0.509 NA 
HETATM   16  C   UNL     1     -11.103  10.843  67.351  1.00  0.00    -0.307 A  
HETATM   17  H   UNL     1     -11.654   9.466  69.052  1.00  0.00     0.000 HD 
HETATM   18  C   UNL     1     -10.348  10.502  66.063  1.00  0.00    -0.211 A  
HETATM   19  N   UNL     1     -10.034   9.106  66.255  1.00  0.00    -0.287 NA 
ENDBRANCH  13  14
ENDBRANCH   7  13
TORSDOF 3
ENDMDL
MODEL      130
REMARK 921   NORMALIZED FREE ENERGY PREDICTED BY IDOCK:   -3.16 KCAL/MOL
REMARK 922        TOTAL FREE ENERGY PREDICTED BY IDOCK:   -4.20 KCAL/MOL
REMARK 923 INTER-LIGAND FREE ENERGY PREDICTED BY IDOCK:   -3.65 KCAL/MOL
REMARK 924 INTRA-LIGAND FREE ENERGY PREDICTED BY IDOCK:   -0.55 KCAL/MOL
REMARK 927      BINDING AFFINITY PREDICTED BY RF-SCORE:    0.00 PKD
ROOT
HETATM    1  C   UNL     1      -6.270  15.521  69.914  1.00  0.00    -0.157 C  
HETATM    2  C   UNL     1      -6.884  15.968  68.613  1.00  0.00    -0.131 A  
HETATM    3  C   UNL     1      -6.441  17.188  68.075  1.00  0.00    -0.151 A  
HETATM    4  C   UNL     1      -6.920  17.717  66.869  1.00  0.00    -0.219 A  
HETATM    5  C   UNL     1      -9.489  15.037  65.965  1.00  0.00    -0.337 C  
HETATM    6  C   UNL     1      -7.915  16.972  66.217  1.00  0.00    -0.343 A  
HETATM    7  C   UNL     1      -7.878  15.225  67.940  1.00  0.00    -0.149 A  
HETATM    8  C   UNL     1      -8.395  15.742  66.726  1.00  0.00    -0.309 A  
ENDROOT
BRANCH   4   9
HETATM    9  C   UNL     1      -6.391  19.060  66.328  1.00  0.00    -0.206 C  
HETATM   10  C   UNL     1      -7.497  20.145  66.281  1.00  0.00    -0.304 C  
HETATM   11  C   UNL     1      -5.858  18.858  64.896  1.00  0.00    -0.316 C  
HETATM   12  C   UNL     1      -5.255  19.645  67.196  1.00  0.00    -0.161 C  
ENDBRANCH   4   9
BRANCH   7  13
HETATM   13  C   UNL     1      -8.447  13.953  68.553  1.00  0.00    -0.127 C  
BRANCH  13  14
HETATM   14  C   UNL     1      -7.731  12.646  68.283  1.00  0.00    -0.135 A  
HETATM   15  N   UNL     1      -7.347  11.905  69.293  1.00  0.00    -0.329 NA 
HETATM   16  C   UNL     1      -6.731  10.697  68.682  1.00  0.00    -0.057 A  
HETATM   17  H   UNL     1      -7.450  12.112  70.287  1.00  0.00     0.000 HD 
HETATM   18  C   UNL     1      -6.810  10.869  67.162  1.00  0.00    -0.093 A  
HETATM   19  N   UNL     1      -7.510  12.125  67.034  1.00  0.00    -0.125 NA 
ENDBRANCH  13  14
ENDBRANCH   7  13
TORSDOF 3
ENDMDL
MODEL      131
REMARK 921   NORMALIZED FREE ENERGY PREDICTED BY IDOCK:   -3.09 KCAL/MOL
REMARK 922        TOTAL FREE ENERGY PREDICTED BY IDOCK:   -4.12 KCAL/MOL
REMARK 923 INTER-LIGAND FREE ENERGY PREDICTED BY IDOCK:   -3.63 KCAL/MOL
REMARK 924 INTRA-LIGAND FREE ENERGY PREDICTED BY IDOCK:   -0.48 KCAL/MOL
REMARK 927      BINDING AFFINITY PREDICTED BY RF-SCORE:    0.00 PKD
ROOT
HETATM    1  C   UNL     1      -6.961  10.594  66.264  1.00  0.00    -0.133 C  
HETATM    2  C   UNL     1      -8.311  10.314  66.871  1.00  0.00    -0.123 A  
HETATM    3  C   UNL     1      -8.573   8.996  67.282  1.00  0.00    -0.115 A  
HETATM    4  C   UNL     1      -9.782   8.599  67.869  1.00  0.00    -0.192 A  
HETATM    5  C   UNL     1     -11.675  11.917  67.755  1.00  0.00    -0.362 C  
HETATM    6  C   UNL     1     -10.763   9.594  68.004  1.00  0.00    -0.284 A  
HETATM    7  C   UNL     1      -9.304  11.306  67.022  1.00  0.00    -0.183 A  
HETATM    8  C   UNL     1     -10.544  10.931  67.597  1.00  0.00    -0.263 A  
ENDROOT
BRANCH   4   9
HETATM    9  C   UNL     1     -10.009   7.137  68.304  1.00  0.00    -0.171 C  
HETATM   10  C   UNL     1     -10.585   6.271  67.156  1.00  0.00    -0.380 C  
HETATM   11  C   UNL     1     -11.009   7.104  69.477  1.00  0.00    -0.214 C  
HETATM   12  C   UNL     1      -8.704   6.442  68.752  1.00  0.00    -0.122 C  
ENDBRANCH   4   9
BRANCH   7  13
HETATM   13  C   UNL     1      -9.082  12.716  66.492  1.00  0.00    -0.163 C  
BRANCH  13  14
HETATM   14  C   UNL     1      -8.817  13.823  67.491  1.00  0.00    -0.197 A  
HETATM   15  N   UNL     1      -9.575  14.891  67.479  1.00  0.00    -0.203 NA 
HETATM   16  C   UNL     1      -9.079  15.738  68.596  1.00  0.00    -0.204 A  
HETATM   17  H   UNL     1     -10.343  15.098  66.840  1.00  0.00     0.000 HD 
HETATM   18  C   UNL     1      -7.907  14.993  69.241  1.00  0.00    -0.190 A  
HETATM   19  N   UNL     1      -7.870  13.766  68.480  1.00  0.00    -0.135 NA 
ENDBRANCH  13  14
ENDBRANCH   7  13
TORSDOF 3
ENDMDL
MODEL      132
REMARK 921   NORMALIZED FREE ENERGY PREDICTED BY IDOCK:   -3.05 KCAL/MOL
REMARK 922        TOTAL FREE ENERGY PREDICTED BY IDOCK:   -4.07 KCAL/MOL
REMARK 923 INTER-LIGAND FREE ENERGY PREDICTED BY IDOCK:   -3.55 KCAL/MOL
REMARK 924 INTRA-LIGAND FREE ENERGY PREDICTED BY IDOCK:   -0.52 KCAL/MOL
REMARK 927      BINDING AFFINITY PREDICTED BY RF-SCORE:    0.00 PKD
ROOT
HETATM    1  C   UNL     1     -11.097  14.045  67.209  1.00  0.00    -0.314 C  
HETATM    2  C   UNL     1     -10.083  14.936  67.876  1.00  0.00    -0.227 A  
HETATM    3  C   UNL     1     -10.226  16.323  67.699  1.00  0.00    -0.272 A  
HETATM    4  C   UNL     1      -9.360  17.265  68.269  1.00  0.00    -0.272 A  
HETATM    5  C   UNL     1      -6.907  14.913  70.016  1.00  0.00    -0.129 C  
HETATM    6  C   UNL     1      -8.292  16.752  69.020  1.00  0.00    -0.163 A  
HETATM    7  C   UNL     1      -9.009  14.435  68.643  1.00  0.00    -0.172 A  
HETATM    8  C   UNL     1      -8.106  15.363  69.219  1.00  0.00    -0.246 A  
ENDROOT
BRANCH   4   9
HETATM    9  C   UNL     1      -9.572  18.775  68.042  1.00  0.00    -0.360 C  
HETATM   10  C   UNL     1      -9.933  19.517  69.354  1.00  0.00    -0.239 C  
HETATM   11  C   UNL     1     -10.727  18.983  67.042  1.00  0.00    -0.516 C  
HETATM   12  C   UNL     1      -8.312  19.476  67.488  1.00  0.00    -0.333 C  
ENDBRANCH   4   9
BRANCH   7  13
HETATM   13  C   UNL     1      -8.774  12.936  68.765  1.00  0.00     0.173 C  
BRANCH  13  14
HETATM   14  C   UNL     1      -7.970  12.247  67.683  1.00  0.00    -0.161 A  
HETATM   15  N   UNL     1      -6.662  12.288  67.731  1.00  0.00    -0.094 NA 
HETATM   16  C   UNL     1      -6.200  11.489  66.566  1.00  0.00    -0.072 A  
HETATM   17  H   UNL     1      -6.083  12.766  68.422  1.00  0.00     0.000 HD 
HETATM   18  C   UNL     1      -7.450  10.995  65.833  1.00  0.00     0.019 A  
HETATM   19  N   UNL     1      -8.513  11.502  66.668  1.00  0.00    -0.171 NA 
ENDBRANCH  13  14
ENDBRANCH   7  13
TORSDOF 3
ENDMDL
MODEL      133
REMARK 921   NORMALIZED FREE ENERGY PREDICTED BY IDOCK:   -3.00 KCAL/MOL
REMARK 922        TOTAL FREE ENERGY PREDICTED BY IDOCK:   -4.01 KCAL/MOL
REMARK 923 INTER-LIGAND FREE ENERGY PREDICTED BY IDOCK:   -3.55 KCAL/MOL
REMARK 924 INTRA-LIGAND FREE ENERGY PREDICTED BY IDOCK:   -0.46 KCAL/MOL
REMARK 927      BINDING AFFINITY PREDICTED BY RF-SCORE:    0.00 PKD
ROOT
HETATM    1  C   UNL     1     -11.518   6.506  69.402  1.00  0.00    -0.346 C  
HETATM    2  C   UNL     1     -10.372   7.023  70.232  1.00  0.00    -0.219 A  
HETATM    3  C   UNL     1     -10.125   6.385  71.459  1.00  0.00    -0.215 A  
HETATM    4  C   UNL     1      -9.087   6.757  72.325  1.00  0.00    -0.137 A  
HETATM    5  C   UNL     1      -7.639   9.702  70.367  1.00  0.00    -0.176 C  
HETATM    6  C   UNL     1      -8.302   7.847  71.919  1.00  0.00    -0.151 A  
HETATM    7  C   UNL     1      -9.567   8.111  69.832  1.00  0.00    -0.175 A  
HETATM    8  C   UNL     1      -8.520   8.522  70.695  1.00  0.00    -0.158 A  
ENDROOT
BRANCH   4   9
HETATM    9  C   UNL     1      -8.864   6.015  73.658  1.00  0.00    -0.124 C  
HETATM   10  C   UNL     1      -8.442   4.539  73.439  1.00  0.00    -0.102 C  
HETATM   11  C   UNL     1     -10.173   6.024  74.471  1.00  0.00    -0.307 C  
HETATM   12  C   UNL     1      -7.749   6.656  74.514  1.00  0.00    -0.116 C  
ENDBRANCH   4   9
BRANCH   7  13
HETATM   13  C   UNL     1      -9.878   8.882  68.557  1.00  0.00    -0.182 C  
BRANCH  13  14
HETATM   14  C   UNL     1     -10.542  10.236  68.684  1.00  0.00    -0.208 A  
HETATM   15  N   UNL     1     -10.059  11.253  68.014  1.00  0.00    -0.173 NA 
HETATM   16  C   UNL     1     -10.959  12.394  68.326  1.00  0.00    -0.236 A  
HETATM   17  H   UNL     1      -9.239  11.260  67.407  1.00  0.00     0.000 HD 
HETATM   18  C   UNL     1     -12.028  11.874  69.293  1.00  0.00    -0.281 A  
HETATM   19  N   UNL     1     -11.683  10.477  69.405  1.00  0.00    -0.249 NA 
ENDBRANCH  13  14
ENDBRANCH   7  13
TORSDOF 3
ENDMDL
MODEL      134
REMARK 921   NORMALIZED FREE ENERGY PREDICTED BY IDOCK:   -2.94 KCAL/MOL
REMARK 922        TOTAL FREE ENERGY PREDICTED BY IDOCK:   -3.94 KCAL/MOL
REMARK 923 INTER-LIGAND FREE ENERGY PREDICTED BY IDOCK:   -3.62 KCAL/MOL
REMARK 924 INTRA-LIGAND FREE ENERGY PREDICTED BY IDOCK:   -0.32 KCAL/MOL
REMARK 927      BINDING AFFINITY PREDICTED BY RF-SCORE:    0.00 PKD
ROOT
HETATM    1  C   UNL     1     -11.377  11.146  67.322  1.00  0.00    -0.302 C  
HETATM    2  C   UNL     1     -10.472  10.162  68.016  1.00  0.00    -0.249 A  
HETATM    3  C   UNL     1     -11.011   9.437  69.091  1.00  0.00    -0.114 A  
HETATM    4  C   UNL     1     -10.285   8.485  69.819  1.00  0.00    -0.206 A  
HETATM    5  C   UNL     1      -6.904   8.772  68.061  1.00  0.00    -0.070 C  
HETATM    6  C   UNL     1      -8.946   8.303  69.439  1.00  0.00    -0.147 A  
HETATM    7  C   UNL     1      -9.127   9.961  67.639  1.00  0.00    -0.140 A  
HETATM    8  C   UNL     1      -8.361   9.017  68.367  1.00  0.00    -0.124 A  
ENDROOT
BRANCH   4   9
HETATM    9  C   UNL     1     -10.934   7.716  70.987  1.00  0.00    -0.262 C  
HETATM   10  C   UNL     1      -9.880   7.004  71.873  1.00  0.00    -0.173 C  
HETATM   11  C   UNL     1     -11.889   6.645  70.425  1.00  0.00    -0.407 C  
HETATM   12  C   UNL     1     -11.735   8.639  71.933  1.00  0.00    -0.422 C  
ENDBRANCH   4   9
BRANCH   7  13
HETATM   13  C   UNL     1      -8.491  10.807  66.545  1.00  0.00    -0.147 C  
BRANCH  13  14
HETATM   14  C   UNL     1      -7.604  11.963  66.958  1.00  0.00    -0.134 A  
HETATM   15  N   UNL     1      -8.142  13.137  67.177  1.00  0.00    -0.344 NA 
HETATM   16  C   UNL     1      -7.018  14.013  67.600  1.00  0.00    -0.183 A  
HETATM   17  H   UNL     1      -9.125  13.396  67.078  1.00  0.00     0.000 HD 
HETATM   18  C   UNL     1      -5.747  13.158  67.575  1.00  0.00    -0.050 A  
HETATM   19  N   UNL     1      -6.258  11.862  67.198  1.00  0.00    -0.143 NA 
ENDBRANCH  13  14
ENDBRANCH   7  13
TORSDOF 3
ENDMDL
MODEL      135
REMARK 921   NORMALIZED FREE ENERGY PREDICTED BY IDOCK:   -2.93 KCAL/MOL
REMARK 922        TOTAL FREE ENERGY PREDICTED BY IDOCK:   -3.93 KCAL/MOL
REMARK 923 INTER-LIGAND FREE ENERGY PREDICTED BY IDOCK:   -3.52 KCAL/MOL
REMARK 924 INTRA-LIGAND FREE ENERGY PREDICTED BY IDOCK:   -0.40 KCAL/MOL
REMARK 927      BINDING AFFINITY PREDICTED BY RF-SCORE:    0.00 PKD
ROOT
HETATM    1  C   UNL     1      -6.221   9.027  66.554  1.00  0.00    -0.065 C  
HETATM    2  C   UNL     1      -7.693   8.919  66.852  1.00  0.00    -0.098 A  
HETATM    3  C   UNL     1      -8.207   7.637  67.111  1.00  0.00    -0.118 A  
HETATM    4  C   UNL     1      -9.554   7.394  67.411  1.00  0.00    -0.184 A  
HETATM    5  C   UNL     1     -10.928  10.949  67.139  1.00  0.00    -0.334 C  
HETATM    6  C   UNL     1     -10.402   8.512  67.410  1.00  0.00    -0.356 A  
HETATM    7  C   UNL     1      -8.557  10.036  66.865  1.00  0.00    -0.128 A  
HETATM    8  C   UNL     1      -9.928   9.820  67.148  1.00  0.00    -0.252 A  
ENDROOT
BRANCH   4   9
HETATM    9  C   UNL     1     -10.057   5.964  67.690  1.00  0.00    -0.194 C  
HETATM   10  C   UNL     1      -8.890   4.967  67.904  1.00  0.00    -0.110 C  
HETATM   11  C   UNL     1     -10.892   5.474  66.490  1.00  0.00    -0.237 C  
HETATM   12  C   UNL     1     -10.930   5.879  68.962  1.00  0.00    -0.359 C  
ENDBRANCH   4   9
BRANCH   7  13
HETATM   13  C   UNL     1      -8.045  11.419  66.488  1.00  0.00    -0.141 C  
BRANCH  13  14
HETATM   14  C   UNL     1      -7.104  12.120  67.445  1.00  0.00    -0.146 A  
HETATM   15  N   UNL     1      -6.140  12.866  66.966  1.00  0.00    -0.476 NA 
HETATM   16  C   UNL     1      -5.449  13.429  68.156  1.00  0.00    -0.106 A  
HETATM   17  H   UNL     1      -5.912  13.026  65.984  1.00  0.00     0.000 HD 
HETATM   18  C   UNL     1      -6.161  12.877  69.394  1.00  0.00    -0.109 A  
HETATM   19  N   UNL     1      -7.226  12.096  68.811  1.00  0.00    -0.110 NA 
ENDBRANCH  13  14
ENDBRANCH   7  13
TORSDOF 3
ENDMDL
MODEL      136
REMARK 921   NORMALIZED FREE ENERGY PREDICTED BY IDOCK:   -2.92 KCAL/MOL
REMARK 922        TOTAL FREE ENERGY PREDICTED BY IDOCK:   -3.91 KCAL/MOL
REMARK 923 INTER-LIGAND FREE ENERGY PREDICTED BY IDOCK:   -3.40 KCAL/MOL
REMARK 924 INTRA-LIGAND FREE ENERGY PREDICTED BY IDOCK:   -0.51 KCAL/MOL
REMARK 927      BINDING AFFINITY PREDICTED BY RF-SCORE:    0.00 PKD
ROOT
HETATM    1  C   UNL     1      -6.933   8.107  69.588  1.00  0.00    -0.049 C  
HETATM    2  C   UNL     1      -8.049   7.096  69.619  1.00  0.00    -0.129 A  
HETATM    3  C   UNL     1      -7.749   5.791  69.194  1.00  0.00    -0.090 A  
HETATM    4  C   UNL     1      -8.689   4.751  69.180  1.00  0.00    -0.109 A  
HETATM    5  C   UNL     1     -11.771   6.650  70.405  1.00  0.00    -0.446 C  
HETATM    6  C   UNL     1      -9.989   5.085  69.588  1.00  0.00    -0.311 A  
HETATM    7  C   UNL     1      -9.359   7.414  70.037  1.00  0.00    -0.151 A  
HETATM    8  C   UNL     1     -10.337   6.388  70.017  1.00  0.00    -0.245 A  
ENDROOT
BRANCH   4   9
HETATM    9  C   UNL     1      -8.298   3.337  68.707  1.00  0.00    -0.084 C  
HETATM   10  C   UNL     1      -8.565   3.135  67.193  1.00  0.00    -0.122 C  
HETATM   11  C   UNL     1      -9.127   2.293  69.482  1.00  0.00    -0.179 C  
HETATM   12  C   UNL     1      -6.799   3.031  68.922  1.00  0.00    -0.041 C  
ENDBRANCH   4   9
BRANCH   7  13
HETATM   13  C   UNL     1      -9.734   8.843  70.404  1.00  0.00    -0.226 C  
BRANCH  13  14
HETATM   14  C   UNL     1      -9.941   9.839  69.283  1.00  0.00    -0.192 A  
HETATM   15  N   UNL     1     -10.982   9.713  68.497  1.00  0.00    -0.432 NA 
HETATM   16  C   UNL     1     -10.905  10.861  67.555  1.00  0.00    -0.272 A  
HETATM   17  H   UNL     1     -11.694   8.983  68.527  1.00  0.00     0.000 HD 
HETATM   18  C   UNL     1      -9.647  11.657  67.915  1.00  0.00    -0.180 A  
HETATM   19  N   UNL     1      -9.147  10.934  69.060  1.00  0.00    -0.140 NA 
ENDBRANCH  13  14
ENDBRANCH   7  13
TORSDOF 3
ENDMDL
MODEL      137
REMARK 921   NORMALIZED FREE ENERGY PREDICTED BY IDOCK:   -2.88 KCAL/MOL
REMARK 922        TOTAL FREE ENERGY PREDICTED BY IDOCK:   -3.87 KCAL/MOL
REMARK 923 INTER-LIGAND FREE ENERGY PREDICTED BY IDOCK:   -3.32 KCAL/MOL
REMARK 924 INTRA-LIGAND FREE ENERGY PREDICTED BY IDOCK:   -0.55 KCAL/MOL
REMARK 927      BINDING AFFINITY PREDICTED BY RF-SCORE:    0.00 PKD
ROOT
HETATM    1  C   UNL     1      -8.627  10.304  63.541  1.00  0.00    -0.195 C  
HETATM    2  C   UNL     1      -8.864   9.351  64.682  1.00  0.00    -0.238 A  
HETATM    3  C   UNL     1      -8.281   8.076  64.590  1.00  0.00    -0.109 A  
HETATM    4  C   UNL     1      -8.413   7.096  65.582  1.00  0.00    -0.141 A  
HETATM    5  C   UNL     1     -10.671   8.962  68.036  1.00  0.00    -0.168 C  
HETATM    6  C   UNL     1      -9.203   7.437  66.691  1.00  0.00    -0.196 A  
HETATM    7  C   UNL     1      -9.648   9.684  65.808  1.00  0.00    -0.329 A  
HETATM    8  C   UNL     1      -9.814   8.707  66.821  1.00  0.00    -0.322 A  
ENDROOT
BRANCH   4   9
HETATM    9  C   UNL     1      -7.745   5.715  65.426  1.00  0.00    -0.087 C  
HETATM   10  C   UNL     1      -6.762   5.677  64.228  1.00  0.00    -0.045 C  
HETATM   11  C   UNL     1      -8.831   4.647  65.188  1.00  0.00    -0.147 C  
HETATM   12  C   UNL     1      -6.921   5.309  66.668  1.00  0.00    -0.064 C  
ENDBRANCH   4   9
BRANCH   7  13
HETATM   13  C   UNL     1     -10.373  11.020  65.884  1.00  0.00    -0.315 C  
BRANCH  13  14
HETATM   14  C   UNL     1      -9.732  12.139  66.678  1.00  0.00    -0.219 A  
HETATM   15  N   UNL     1     -10.488  12.920  67.408  1.00  0.00    -0.232 NA 
HETATM   16  C   UNL     1      -9.551  13.861  68.076  1.00  0.00    -0.219 A  
HETATM   17  H   UNL     1     -11.504  12.890  67.499  1.00  0.00     0.000 HD 
HETATM   18  C   UNL     1      -8.139  13.504  67.603  1.00  0.00    -0.180 A  
HETATM   19  N   UNL     1      -8.382  12.362  66.754  1.00  0.00    -0.115 NA 
ENDBRANCH  13  14
ENDBRANCH   7  13
TORSDOF 3
ENDMDL
MODEL      138
REMARK 921   NORMALIZED FREE ENERGY PREDICTED BY IDOCK:   -2.88 KCAL/MOL
REMARK 922        TOTAL FREE ENERGY PREDICTED BY IDOCK:   -3.87 KCAL/MOL
REMARK 923 INTER-LIGAND FREE ENERGY PREDICTED BY IDOCK:   -3.31 KCAL/MOL
REMARK 924 INTRA-LIGAND FREE ENERGY PREDICTED BY IDOCK:   -0.56 KCAL/MOL
REMARK 927      BINDING AFFINITY PREDICTED BY RF-SCORE:    0.00 PKD
ROOT
HETATM    1  C   UNL     1      -6.696   8.896  67.180  1.00  0.00    -0.066 C  
HETATM    2  C   UNL     1      -8.004   9.062  67.908  1.00  0.00    -0.102 A  
HETATM    3  C   UNL     1      -8.446   7.985  68.695  1.00  0.00    -0.128 A  
HETATM    4  C   UNL     1      -9.638   8.008  69.431  1.00  0.00    -0.160 A  
HETATM    5  C   UNL     1     -10.929  11.472  68.462  1.00  0.00    -0.268 C  
HETATM    6  C   UNL     1     -10.412   9.174  69.323  1.00  0.00    -0.231 A  
HETATM    7  C   UNL     1      -8.788  10.232  67.817  1.00  0.00    -0.125 A  
HETATM    8  C   UNL     1     -10.008  10.279  68.537  1.00  0.00    -0.177 A  
ENDROOT
BRANCH   4   9
HETATM    9  C   UNL     1     -10.068   6.795  70.280  1.00  0.00    -0.196 C  
HETATM   10  C   UNL     1     -10.368   7.189  71.749  1.00  0.00    -0.216 C  
HETATM   11  C   UNL     1      -8.935   5.750  70.287  1.00  0.00    -0.149 C  
HETATM   12  C   UNL     1     -11.353   6.122  69.747  1.00  0.00    -0.452 C  
ENDBRANCH   4   9
BRANCH   7  13
HETATM   13  C   UNL     1      -8.381  11.371  66.893  1.00  0.00    -0.159 C  
BRANCH  13  14
HETATM   14  C   UNL     1      -7.440  12.428  67.430  1.00  0.00    -0.157 A  
HETATM   15  N   UNL     1      -6.234  12.527  66.928  1.00  0.00    -0.494 NA 
HETATM   16  C   UNL     1      -5.605  13.673  67.638  1.00  0.00    -0.007 A  
HETATM   17  H   UNL     1      -5.815  11.943  66.204  1.00  0.00     0.000 HD 
HETATM   18  C   UNL     1      -6.637  14.206  68.637  1.00  0.00    -0.092 A  
HETATM   19  N   UNL     1      -7.778  13.362  68.375  1.00  0.00    -0.134 NA 
ENDBRANCH  13  14
ENDBRANCH   7  13
TORSDOF 3
ENDMDL
MODEL      139
REMARK 921   NORMALIZED FREE ENERGY PREDICTED BY IDOCK:   -2.87 KCAL/MOL
REMARK 922        TOTAL FREE ENERGY PREDICTED BY IDOCK:   -3.86 KCAL/MOL
REMARK 923 INTER-LIGAND FREE ENERGY PREDICTED BY IDOCK:   -3.39 KCAL/MOL
REMARK 924 INTRA-LIGAND FREE ENERGY PREDICTED BY IDOCK:   -0.46 KCAL/MOL
REMARK 927      BINDING AFFINITY PREDICTED BY RF-SCORE:    0.00 PKD
ROOT
HETATM    1  C   UNL     1     -10.619  10.072  68.291  1.00  0.00    -0.264 C  
HETATM    2  C   UNL     1     -10.651   8.628  68.717  1.00  0.00    -0.169 A  
HETATM    3  C   UNL     1     -10.904   8.360  70.073  1.00  0.00    -0.225 A  
HETATM    4  C   UNL     1     -10.970   7.065  70.602  1.00  0.00    -0.292 A  
HETATM    5  C   UNL     1     -10.195   5.041  67.455  1.00  0.00    -0.184 C  
HETATM    6  C   UNL     1     -10.733   6.014  69.703  1.00  0.00    -0.405 A  
HETATM    7  C   UNL     1     -10.425   7.560  67.822  1.00  0.00    -0.288 A  
HETATM    8  C   UNL     1     -10.468   6.238  68.331  1.00  0.00    -0.273 A  
ENDROOT
BRANCH   4   9
HETATM    9  C   UNL     1     -11.257   6.835  72.100  1.00  0.00    -0.294 C  
HETATM   10  C   UNL     1     -12.487   5.918  72.324  1.00  0.00     0.150 C  
HETATM   11  C   UNL     1     -11.540   8.190  72.778  1.00  0.00    -0.371 C  
HETATM   12  C   UNL     1     -10.078   6.156  72.833  1.00  0.00    -0.196 C  
ENDBRANCH   4   9
BRANCH   7  13
HETATM   13  C   UNL     1     -10.048   7.827  66.372  1.00  0.00    -0.124 C  
BRANCH  13  14
HETATM   14  C   UNL     1      -8.604   7.633  65.959  1.00  0.00    -0.151 A  
HETATM   15  N   UNL     1      -7.666   8.317  66.566  1.00  0.00    -0.091 NA 
HETATM   16  C   UNL     1      -6.389   7.858  65.959  1.00  0.00    -0.045 A  
HETATM   17  H   UNL     1      -7.787   9.016  67.300  1.00  0.00     0.000 HD 
HETATM   18  C   UNL     1      -6.744   6.813  64.898  1.00  0.00    -0.049 A  
HETATM   19  N   UNL     1      -8.179   6.722  65.027  1.00  0.00    -0.123 NA 
ENDBRANCH  13  14
ENDBRANCH   7  13
TORSDOF 3
ENDMDL
MODEL      140
REMARK 921   NORMALIZED FREE ENERGY PREDICTED BY IDOCK:   -2.80 KCAL/MOL
REMARK 922        TOTAL FREE ENERGY PREDICTED BY IDOCK:   -3.77 KCAL/MOL
REMARK 923 INTER-LIGAND FREE ENERGY PREDICTED BY IDOCK:   -3.43 KCAL/MOL
REMARK 924 INTRA-LIGAND FREE ENERGY PREDICTED BY IDOCK:   -0.35 KCAL/MOL
REMARK 927      BINDING AFFINITY PREDICTED BY RF-SCORE:    0.00 PKD
ROOT
HETATM    1  C   UNL     1      -7.044  10.656  66.320  1.00  0.00    -0.137 C  
HETATM    2  C   UNL     1      -8.127   9.845  66.981  1.00  0.00    -0.110 A  
HETATM    3  C   UNL     1      -8.096   8.453  66.794  1.00  0.00    -0.098 A  
HETATM    4  C   UNL     1      -9.035   7.579  67.358  1.00  0.00    -0.129 A  
HETATM    5  C   UNL     1     -11.292  10.109  69.121  1.00  0.00    -0.198 C  
HETATM    6  C   UNL     1     -10.059   8.172  68.113  1.00  0.00    -0.237 A  
HETATM    7  C   UNL     1      -9.158  10.426  67.752  1.00  0.00    -0.134 A  
HETATM    8  C   UNL     1     -10.133   9.569  68.321  1.00  0.00    -0.210 A  
ENDROOT
BRANCH   4   9
HETATM    9  C   UNL     1      -8.945   6.058  67.120  1.00  0.00    -0.114 C  
HETATM   10  C   UNL     1      -9.681   5.627  65.826  1.00  0.00     0.052 C  
HETATM   11  C   UNL     1      -9.591   5.318  68.308  1.00  0.00    -0.168 C  
HETATM   12  C   UNL     1      -7.488   5.566  66.969  1.00  0.00    -0.088 C  
ENDBRANCH   4   9
BRANCH   7  13
HETATM   13  C   UNL     1      -9.272  11.938  67.884  1.00  0.00    -0.187 C  
BRANCH  13  14
HETATM   14  C   UNL     1     -10.184  12.674  66.926  1.00  0.00    -0.234 A  
HETATM   15  N   UNL     1      -9.721  13.705  66.264  1.00  0.00    -0.330 NA 
HETATM   16  C   UNL     1     -10.843  14.153  65.398  1.00  0.00    -0.337 A  
HETATM   17  H   UNL     1      -8.789  14.115  66.330  1.00  0.00     0.000 HD 
HETATM   18  C   UNL     1     -12.028  13.223  65.677  1.00  0.00    -0.412 A  
HETATM   19  N   UNL     1     -11.468  12.295  66.631  1.00  0.00    -0.357 NA 
ENDBRANCH  13  14
ENDBRANCH   7  13
TORSDOF 3
ENDMDL
MODEL      141
REMARK 921   NORMALIZED FREE ENERGY PREDICTED BY IDOCK:   -2.69 KCAL/MOL
REMARK 922        TOTAL FREE ENERGY PREDICTED BY IDOCK:   -3.64 KCAL/MOL
REMARK 923 INTER-LIGAND FREE ENERGY PREDICTED BY IDOCK:   -3.09 KCAL/MOL
REMARK 924 INTRA-LIGAND FREE ENERGY PREDICTED BY IDOCK:   -0.55 KCAL/MOL
REMARK 927      BINDING AFFINITY PREDICTED BY RF-SCORE:    0.00 PKD
ROOT
HETATM    1  C   UNL     1     -11.410   6.225  69.375  1.00  0.00    -0.448 C  
HETATM    2  C   UNL     1     -10.071   5.998  70.025  1.00  0.00    -0.241 A  
HETATM    3  C   UNL     1     -10.057   5.771  71.412  1.00  0.00    -0.249 A  
HETATM    4  C   UNL     1      -8.883   5.537  72.141  1.00  0.00    -0.131 A  
HETATM    5  C   UNL     1      -6.306   5.856  69.339  1.00  0.00    -0.041 C  
HETATM    6  C   UNL     1      -7.683   5.573  71.415  1.00  0.00    -0.109 A  
HETATM    7  C   UNL     1      -8.856   6.021  69.306  1.00  0.00    -0.123 A  
HETATM    8  C   UNL     1      -7.651   5.805  70.020  1.00  0.00    -0.083 A  
ENDROOT
BRANCH   4   9
HETATM    9  C   UNL     1      -8.933   5.289  73.662  1.00  0.00    -0.124 C  
HETATM   10  C   UNL     1      -9.980   4.211  74.043  1.00  0.00    -0.182 C  
HETATM   11  C   UNL     1      -9.313   6.599  74.380  1.00  0.00    -0.257 C  
HETATM   12  C   UNL     1      -7.583   4.793  74.228  1.00  0.00    -0.089 C  
ENDBRANCH   4   9
BRANCH   7  13
HETATM   13  C   UNL     1      -8.836   6.366  67.824  1.00  0.00    -0.112 C  
BRANCH  13  14
HETATM   14  C   UNL     1      -9.030   5.244  66.825  1.00  0.00    -0.111 A  
HETATM   15  N   UNL     1      -9.978   5.343  65.926  1.00  0.00    -0.360 NA 
HETATM   16  C   UNL     1      -9.862   4.115  65.096  1.00  0.00    -0.205 A  
HETATM   17  H   UNL     1     -10.652   6.102  65.819  1.00  0.00     0.000 HD 
HETATM   18  C   UNL     1      -8.707   3.290  65.669  1.00  0.00    -0.124 A  
HETATM   19  N   UNL     1      -8.228   4.136  66.736  1.00  0.00    -0.101 NA 
ENDBRANCH  13  14
ENDBRANCH   7  13
TORSDOF 3
ENDMDL
MODEL      142
REMARK 921   NORMALIZED FREE ENERGY PREDICTED BY IDOCK:   -2.55 KCAL/MOL
REMARK 922        TOTAL FREE ENERGY PREDICTED BY IDOCK:   -3.48 KCAL/MOL
REMARK 923 INTER-LIGAND FREE ENERGY PREDICTED BY IDOCK:   -2.97 KCAL/MOL
REMARK 924 INTRA-LIGAND FREE ENERGY PREDICTED BY IDOCK:   -0.51 KCAL/MOL
REMARK 927      BINDING AFFINITY PREDICTED BY RF-SCORE:    0.00 PKD
ROOT
HETATM    1  C   UNL     1     -12.160  16.026  70.390  1.00  0.00    -0.198 C  
HETATM    2  C   UNL     1     -11.513  14.746  69.932  1.00  0.00    -0.322 A  
HETATM    3  C   UNL     1     -12.062  13.541  70.403  1.00  0.00    -0.415 A  
HETATM    4  C   UNL     1     -11.565  12.279  70.050  1.00  0.00    -0.236 A  
HETATM    5  C   UNL     1      -8.632  13.335  67.840  1.00  0.00    -0.188 C  
HETATM    6  C   UNL     1     -10.444  12.268  69.207  1.00  0.00     0.149 A  
HETATM    7  C   UNL     1     -10.391  14.718  69.076  1.00  0.00    -0.243 A  
HETATM    8  C   UNL     1      -9.856  13.456  68.714  1.00  0.00    -0.030 A  
ENDROOT
BRANCH   4   9
HETATM    9  C   UNL     1     -12.214  10.992  70.597  1.00  0.00    -0.481 C  
HETATM   10  C   UNL     1     -11.155   9.943  71.025  1.00  0.00    -0.401 C  
HETATM   11  C   UNL     1     -13.097  10.361  69.502  1.00  0.00     1.097 C  
HETATM   12  C   UNL     1     -13.088  11.250  71.844  1.00  0.00    -0.510 C  
ENDBRANCH   4   9
BRANCH   7  13
HETATM   13  C   UNL     1      -9.717  16.009  68.634  1.00  0.00    -0.217 C  
BRANCH  13  14
HETATM   14  C   UNL     1     -10.181  16.654  67.345  1.00  0.00    -0.286 A  
HETATM   15  N   UNL     1     -10.703  15.906  66.405  1.00  0.00    -0.291 NA 
HETATM   16  C   UNL     1     -11.083  16.847  65.319  1.00  0.00     0.051 A  
HETATM   17  H   UNL     1     -10.823  14.892  66.416  1.00  0.00     0.000 HD 
HETATM   18  C   UNL     1     -10.684  18.252  65.778  1.00  0.00    -0.107 A  
HETATM   19  N   UNL     1     -10.164  18.003  67.102  1.00  0.00    -0.345 NA 
ENDBRANCH  13  14
ENDBRANCH   7  13
TORSDOF 3
ENDMDL
MODEL      143
REMARK 921   NORMALIZED FREE ENERGY PREDICTED BY IDOCK:   -2.52 KCAL/MOL
REMARK 922        TOTAL FREE ENERGY PREDICTED BY IDOCK:   -3.44 KCAL/MOL
REMARK 923 INTER-LIGAND FREE ENERGY PREDICTED BY IDOCK:   -3.07 KCAL/MOL
REMARK 924 INTRA-LIGAND FREE ENERGY PREDICTED BY IDOCK:   -0.37 KCAL/MOL
REMARK 927      BINDING AFFINITY PREDICTED BY RF-SCORE:    0.00 PKD
ROOT
HETATM    1  C   UNL     1     -11.083   7.086  69.975  1.00  0.00    -0.316 C  
HETATM    2  C   UNL     1      -9.852   7.926  70.191  1.00  0.00    -0.184 A  
HETATM    3  C   UNL     1      -8.917   7.470  71.137  1.00  0.00    -0.144 A  
HETATM    4  C   UNL     1      -7.726   8.147  71.429  1.00  0.00    -0.098 A  
HETATM    5  C   UNL     1      -8.123  11.174  69.131  1.00  0.00    -0.030 C  
HETATM    6  C   UNL     1      -7.513   9.353  70.743  1.00  0.00    -0.132 A  
HETATM    7  C   UNL     1      -9.619   9.135  69.501  1.00  0.00    -0.171 A  
HETATM    8  C   UNL     1      -8.430   9.852  69.788  1.00  0.00    -0.206 A  
ENDROOT
BRANCH   4   9
HETATM    9  C   UNL     1      -6.737   7.594  72.475  1.00  0.00    -0.063 C  
HETATM   10  C   UNL     1      -5.263   7.872  72.086  1.00  0.00    -0.035 C  
HETATM   11  C   UNL     1      -6.921   6.068  72.593  1.00  0.00    -0.079 C  
HETATM   12  C   UNL     1      -6.937   8.223  73.872  1.00  0.00    -0.170 C  
ENDBRANCH   4   9
BRANCH   7  13
HETATM   13  C   UNL     1     -10.662   9.700  68.548  1.00  0.00    -0.239 C  
BRANCH  13  14
HETATM   14  C   UNL     1     -10.304   9.818  67.082  1.00  0.00    -0.248 A  
HETATM   15  N   UNL     1     -10.676  10.882  66.415  1.00  0.00    -0.229 NA 
HETATM   16  C   UNL     1     -10.132  10.697  65.043  1.00  0.00    -0.321 A  
HETATM   17  H   UNL     1     -11.223  11.671  66.762  1.00  0.00     0.000 HD 
HETATM   18  C   UNL     1      -9.400   9.352  65.026  1.00  0.00    -0.191 A  
HETATM   19  N   UNL     1      -9.539   8.912  66.394  1.00  0.00    -0.217 NA 
ENDBRANCH  13  14
ENDBRANCH   7  13
TORSDOF 3
ENDMDL
MODEL      144
REMARK 921   NORMALIZED FREE ENERGY PREDICTED BY IDOCK:   -2.49 KCAL/MOL
REMARK 922        TOTAL FREE ENERGY PREDICTED BY IDOCK:   -3.42 KCAL/MOL
REMARK 923 INTER-LIGAND FREE ENERGY PREDICTED BY IDOCK:   -2.91 KCAL/MOL
REMARK 924 INTRA-LIGAND FREE ENERGY PREDICTED BY IDOCK:   -0.51 KCAL/MOL
REMARK 927      BINDING AFFINITY PREDICTED BY RF-SCORE:    0.00 PKD
ROOT
HETATM    1  C   UNL     1      -6.091   7.732  67.054  1.00  0.00    -0.052 C  
HETATM    2  C   UNL     1      -7.257   6.779  67.034  1.00  0.00    -0.081 A  
HETATM    3  C   UNL     1      -6.967   5.408  66.923  1.00  0.00    -0.065 A  
HETATM    4  C   UNL     1      -7.953   4.412  66.903  1.00  0.00    -0.101 A  
HETATM    5  C   UNL     1     -11.082   6.598  67.101  1.00  0.00    -0.427 C  
HETATM    6  C   UNL     1      -9.283   4.855  66.966  1.00  0.00    -0.127 A  
HETATM    7  C   UNL     1      -8.599   7.208  67.108  1.00  0.00    -0.121 A  
HETATM    8  C   UNL     1      -9.620   6.225  67.072  1.00  0.00    -0.162 A  
ENDROOT
BRANCH   4   9
HETATM    9  C   UNL     1      -7.572   2.923  66.783  1.00  0.00    -0.075 C  
HETATM   10  C   UNL     1      -6.620   2.473  67.920  1.00  0.00    -0.036 C  
HETATM   11  C   UNL     1      -6.857   2.687  65.438  1.00  0.00    -0.044 C  
HETATM   12  C   UNL     1      -8.800   1.988  66.858  1.00  0.00    -0.143 C  
ENDBRANCH   4   9
BRANCH   7  13
HETATM   13  C   UNL     1      -8.942   8.691  67.126  1.00  0.00    -0.148 C  
BRANCH  13  14
HETATM   14  C   UNL     1      -9.267   9.367  65.811  1.00  0.00    -0.219 A  
HETATM   15  N   UNL     1      -8.794   8.864  64.698  1.00  0.00    -0.383 NA 
HETATM   16  C   UNL     1      -9.333   9.730  63.615  1.00  0.00    -0.100 A  
HETATM   17  H   UNL     1      -8.186   8.052  64.595  1.00  0.00     0.000 HD 
HETATM   18  C   UNL     1     -10.179  10.817  64.285  1.00  0.00    -0.354 A  
HETATM   19  N   UNL     1     -10.098  10.449  65.679  1.00  0.00    -0.271 NA 
ENDBRANCH  13  14
ENDBRANCH   7  13
TORSDOF 3
ENDMDL
MODEL      145
REMARK 921   NORMALIZED FREE ENERGY PREDICTED BY IDOCK:   -2.47 KCAL/MOL
REMARK 922        TOTAL FREE ENERGY PREDICTED BY IDOCK:   -3.39 KCAL/MOL
REMARK 923 INTER-LIGAND FREE ENERGY PREDICTED BY IDOCK:   -2.86 KCAL/MOL
REMARK 924 INTRA-LIGAND FREE ENERGY PREDICTED BY IDOCK:   -0.53 KCAL/MOL
REMARK 927      BINDING AFFINITY PREDICTED BY RF-SCORE:    0.00 PKD
ROOT
HETATM    1  C   UNL     1      -9.534   3.305  68.611  1.00  0.00    -0.200 C  
HETATM    2  C   UNL     1      -9.156   4.747  68.401  1.00  0.00    -0.148 A  
HETATM    3  C   UNL     1      -9.653   5.685  69.322  1.00  0.00    -0.181 A  
HETATM    4  C   UNL     1      -9.373   7.057  69.250  1.00  0.00    -0.145 A  
HETATM    5  C   UNL     1      -7.249   7.116  66.074  1.00  0.00    -0.074 C  
HETATM    6  C   UNL     1      -8.579   7.472  68.170  1.00  0.00    -0.123 A  
HETATM    7  C   UNL     1      -8.351   5.179  67.325  1.00  0.00    -0.106 A  
HETATM    8  C   UNL     1      -8.064   6.563  67.216  1.00  0.00    -0.113 A  
ENDROOT
BRANCH   4   9
HETATM    9  C   UNL     1      -9.944   8.037  70.294  1.00  0.00    -0.189 C  
HETATM   10  C   UNL     1     -10.299   9.411  69.670  1.00  0.00    -0.229 C  
HETATM   11  C   UNL     1      -8.895   8.271  71.400  1.00  0.00    -0.204 C  
HETATM   12  C   UNL     1     -11.242   7.517  70.950  1.00  0.00    -0.286 C  
ENDBRANCH   4   9
BRANCH   7  13
HETATM   13  C   UNL     1      -7.886   4.198  66.259  1.00  0.00    -0.094 C  
BRANCH  13  14
HETATM   14  C   UNL     1      -8.775   3.976  65.053  1.00  0.00    -0.117 A  
HETATM   15  N   UNL     1      -8.239   3.579  63.926  1.00  0.00    -0.089 NA 
HETATM   16  C   UNL     1      -9.378   3.420  62.983  1.00  0.00    -0.098 A  
HETATM   17  H   UNL     1      -7.250   3.413  63.735  1.00  0.00     0.000 HD 
HETATM   18  C   UNL     1     -10.651   3.802  63.745  1.00  0.00    -0.256 A  
HETATM   19  N   UNL     1     -10.141   4.091  65.064  1.00  0.00    -0.207 NA 
ENDBRANCH  13  14
ENDBRANCH   7  13
TORSDOF 3
ENDMDL
MODEL      146
REMARK 921   NORMALIZED FREE ENERGY PREDICTED BY IDOCK:   -2.45 KCAL/MOL
REMARK 922        TOTAL FREE ENERGY PREDICTED BY IDOCK:   -3.36 KCAL/MOL
REMARK 923 INTER-LIGAND FREE ENERGY PREDICTED BY IDOCK:   -2.85 KCAL/MOL
REMARK 924 INTRA-LIGAND FREE ENERGY PREDICTED BY IDOCK:   -0.52 KCAL/MOL
REMARK 927      BINDING AFFINITY PREDICTED BY RF-SCORE:    0.00 PKD
ROOT
HETATM    1  C   UNL     1      -5.902   7.753  66.535  1.00  0.00    -0.040 C  
HETATM    2  C   UNL     1      -7.307   7.504  67.015  1.00  0.00    -0.094 A  
HETATM    3  C   UNL     1      -7.546   6.314  67.723  1.00  0.00    -0.101 A  
HETATM    4  C   UNL     1      -8.802   5.961  68.234  1.00  0.00    -0.110 A  
HETATM    5  C   UNL     1     -10.858   8.938  67.005  1.00  0.00    -0.039 C  
HETATM    6  C   UNL     1      -9.851   6.855  67.974  1.00  0.00    -0.153 A  
HETATM    7  C   UNL     1      -8.370   8.399  66.770  1.00  0.00    -0.109 A  
HETATM    8  C   UNL     1      -9.657   8.061  67.260  1.00  0.00    -0.210 A  
ENDROOT
BRANCH   4   9
HETATM    9  C   UNL     1      -9.000   4.641  69.007  1.00  0.00    -0.149 C  
HETATM   10  C   UNL     1      -9.532   3.506  68.095  1.00  0.00    -0.215 C  
HETATM   11  C   UNL     1     -10.022   4.863  70.140  1.00  0.00    -0.325 C  
HETATM   12  C   UNL     1      -7.688   4.113  69.627  1.00  0.00    -0.053 C  
ENDBRANCH   4   9
BRANCH   7  13
HETATM   13  C   UNL     1      -8.159   9.644  65.920  1.00  0.00    -0.112 C  
BRANCH  13  14
HETATM   14  C   UNL     1      -8.478   9.563  64.442  1.00  0.00    -0.181 A  
HETATM   15  N   UNL     1      -8.330   8.423  63.815  1.00  0.00    -0.356 NA 
HETATM   16  C   UNL     1      -8.765   8.682  62.417  1.00  0.00    -0.108 A  
HETATM   17  H   UNL     1      -7.988   7.543  64.203  1.00  0.00     0.000 HD 
HETATM   18  C   UNL     1      -9.174  10.156  62.338  1.00  0.00    -0.297 A  
HETATM   19  N   UNL     1      -8.992  10.596  63.701  1.00  0.00    -0.195 NA 
ENDBRANCH  13  14
ENDBRANCH   7  13
TORSDOF 3
ENDMDL
MODEL      147
REMARK 921   NORMALIZED FREE ENERGY PREDICTED BY IDOCK:   -2.45 KCAL/MOL
REMARK 922        TOTAL FREE ENERGY PREDICTED BY IDOCK:   -3.36 KCAL/MOL
REMARK 923 INTER-LIGAND FREE ENERGY PREDICTED BY IDOCK:   -2.86 KCAL/MOL
REMARK 924 INTRA-LIGAND FREE ENERGY PREDICTED BY IDOCK:   -0.50 KCAL/MOL
REMARK 927      BINDING AFFINITY PREDICTED BY RF-SCORE:    0.00 PKD
ROOT
HETATM    1  C   UNL     1      -9.181  10.799  67.284  1.00  0.00    -0.158 C  
HETATM    2  C   UNL     1      -8.664  10.218  68.574  1.00  0.00    -0.130 A  
HETATM    3  C   UNL     1      -9.486   9.296  69.242  1.00  0.00    -0.160 A  
HETATM    4  C   UNL     1      -9.125   8.672  70.444  1.00  0.00    -0.176 A  
HETATM    5  C   UNL     1      -5.732  10.327  71.035  1.00  0.00    -0.068 C  
HETATM    6  C   UNL     1      -7.886   9.043  70.987  1.00  0.00    -0.174 A  
HETATM    7  C   UNL     1      -7.415  10.573  69.127  1.00  0.00    -0.114 A  
HETATM    8  C   UNL     1      -7.029   9.972  70.351  1.00  0.00    -0.137 A  
ENDROOT
BRANCH   4   9
HETATM    9  C   UNL     1     -10.070   7.664  71.128  1.00  0.00    -0.196 C  
HETATM   10  C   UNL     1      -9.345   6.346  71.500  1.00  0.00    -0.152 C  
HETATM   11  C   UNL     1     -11.227   7.319  70.170  1.00  0.00    -0.264 C  
HETATM   12  C   UNL     1     -10.669   8.209  72.444  1.00  0.00    -0.404 C  
ENDBRANCH   4   9
BRANCH   7  13
HETATM   13  C   UNL     1      -6.552  11.645  68.476  1.00  0.00    -0.061 C  
BRANCH  13  14
HETATM   14  C   UNL     1      -6.699  13.073  68.957  1.00  0.00    -0.099 A  
HETATM   15  N   UNL     1      -5.825  13.557  69.805  1.00  0.00    -0.109 NA 
HETATM   16  C   UNL     1      -6.233  14.969  70.027  1.00  0.00    -0.157 A  
HETATM   17  H   UNL     1      -5.032  13.069  70.223  1.00  0.00     0.000 HD 
HETATM   18  C   UNL     1      -7.488  15.215  69.183  1.00  0.00    -0.176 A  
HETATM   19  N   UNL     1      -7.656  13.948  68.512  1.00  0.00    -0.129 NA 
ENDBRANCH  13  14
ENDBRANCH   7  13
TORSDOF 3
ENDMDL
MODEL      148
REMARK 921   NORMALIZED FREE ENERGY PREDICTED BY IDOCK:   -2.35 KCAL/MOL
REMARK 922        TOTAL FREE ENERGY PREDICTED BY IDOCK:   -3.25 KCAL/MOL
REMARK 923 INTER-LIGAND FREE ENERGY PREDICTED BY IDOCK:   -2.70 KCAL/MOL
REMARK 924 INTRA-LIGAND FREE ENERGY PREDICTED BY IDOCK:   -0.54 KCAL/MOL
REMARK 927      BINDING AFFINITY PREDICTED BY RF-SCORE:    0.00 PKD
ROOT
HETATM    1  C   UNL     1      -8.173   7.643  68.036  1.00  0.00    -0.124 C  
HETATM    2  C   UNL     1      -8.162   6.850  66.755  1.00  0.00    -0.114 A  
HETATM    3  C   UNL     1      -8.321   5.457  66.857  1.00  0.00    -0.108 A  
HETATM    4  C   UNL     1      -8.339   4.602  65.748  1.00  0.00    -0.115 A  
HETATM    5  C   UNL     1      -7.759   7.148  62.959  1.00  0.00    -0.119 C  
HETATM    6  C   UNL     1      -8.154   5.206  64.495  1.00  0.00    -0.120 A  
HETATM    7  C   UNL     1      -7.988   7.445  65.487  1.00  0.00    -0.122 A  
HETATM    8  C   UNL     1      -7.984   6.603  64.347  1.00  0.00    -0.097 A  
ENDROOT
BRANCH   4   9
HETATM    9  C   UNL     1      -8.521   3.081  65.924  1.00  0.00    -0.110 C  
HETATM   10  C   UNL     1      -7.166   2.328  65.924  1.00  0.00    -0.064 C  
HETATM   11  C   UNL     1      -9.373   2.532  64.762  1.00  0.00    -0.127 C  
HETATM   12  C   UNL     1      -9.214   2.715  67.255  1.00  0.00    -0.179 C  
ENDBRANCH   4   9
BRANCH   7  13
HETATM   13  C   UNL     1      -7.712   8.936  65.359  1.00  0.00    -0.092 C  
BRANCH  13  14
HETATM   14  C   UNL     1      -8.895   9.877  65.261  1.00  0.00    -0.181 A  
HETATM   15  N   UNL     1      -9.532   9.989  64.122  1.00  0.00    -0.326 NA 
HETATM   16  C   UNL     1     -10.643  10.941  64.386  1.00  0.00    -0.273 A  
HETATM   17  H   UNL     1      -9.313   9.523  63.242  1.00  0.00     0.000 HD 
HETATM   18  C   UNL     1     -10.534  11.368  65.853  1.00  0.00    -0.258 A  
HETATM   19  N   UNL     1      -9.412  10.586  66.314  1.00  0.00    -0.172 NA 
ENDBRANCH  13  14
ENDBRANCH   7  13
TORSDOF 3
ENDMDL
MODEL      149
REMARK 921   NORMALIZED FREE ENERGY PREDICTED BY IDOCK:   -2.32 KCAL/MOL
REMARK 922        TOTAL FREE ENERGY PREDICTED BY IDOCK:   -3.21 KCAL/MOL
REMARK 923 INTER-LIGAND FREE ENERGY PREDICTED BY IDOCK:   -2.68 KCAL/MOL
REMARK 924 INTRA-LIGAND FREE ENERGY PREDICTED BY IDOCK:   -0.53 KCAL/MOL
REMARK 927      BINDING AFFINITY PREDICTED BY RF-SCORE:    0.00 PKD
ROOT
HETATM    1  C   UNL     1      -6.968   8.788  66.953  1.00  0.00    -0.074 C  
HETATM    2  C   UNL     1      -7.641   7.441  66.932  1.00  0.00    -0.102 A  
HETATM    3  C   UNL     1      -6.821   6.307  67.066  1.00  0.00    -0.062 A  
HETATM    4  C   UNL     1      -7.315   4.996  67.073  1.00  0.00    -0.082 A  
HETATM    5  C   UNL     1     -11.033   5.705  66.544  1.00  0.00    -0.140 C  
HETATM    6  C   UNL     1      -8.700   4.854  66.901  1.00  0.00    -0.107 A  
HETATM    7  C   UNL     1      -9.034   7.282  66.771  1.00  0.00    -0.154 A  
HETATM    8  C   UNL     1      -9.562   5.967  66.756  1.00  0.00    -0.165 A  
ENDROOT
BRANCH   4   9
HETATM    9  C   UNL     1      -6.364   3.792  67.228  1.00  0.00    -0.037 C  
HETATM   10  C   UNL     1      -5.524   3.878  68.528  1.00  0.00    -0.013 C  
HETATM   11  C   UNL     1      -5.393   3.752  66.032  1.00  0.00    -0.013 C  
HETATM   12  C   UNL     1      -7.117   2.445  67.295  1.00  0.00    -0.052 C  
ENDBRANCH   4   9
BRANCH   7  13
HETATM   13  C   UNL     1      -9.930   8.487  66.521  1.00  0.00    -0.350 C  
BRANCH  13  14
HETATM   14  C   UNL     1     -10.379   9.305  67.714  1.00  0.00    -0.237 A  
HETATM   15  N   UNL     1     -10.787   8.690  68.796  1.00  0.00    -0.432 NA 
HETATM   16  C   UNL     1     -11.103   9.771  69.767  1.00  0.00    -0.237 A  
HETATM   17  H   UNL     1     -10.870   7.684  68.942  1.00  0.00     0.000 HD 
HETATM   18  C   UNL     1     -10.825  11.104  69.066  1.00  0.00    -0.231 A  
HETATM   19  N   UNL     1     -10.323  10.673  67.782  1.00  0.00    -0.193 NA 
ENDBRANCH  13  14
ENDBRANCH   7  13
TORSDOF 3
ENDMDL
MODEL      150
REMARK 921   NORMALIZED FREE ENERGY PREDICTED BY IDOCK:   -2.28 KCAL/MOL
REMARK 922        TOTAL FREE ENERGY PREDICTED BY IDOCK:   -3.16 KCAL/MOL
REMARK 923 INTER-LIGAND FREE ENERGY PREDICTED BY IDOCK:   -2.66 KCAL/MOL
REMARK 924 INTRA-LIGAND FREE ENERGY PREDICTED BY IDOCK:   -0.51 KCAL/MOL
REMARK 927      BINDING AFFINITY PREDICTED BY RF-SCORE:    0.00 PKD
ROOT
HETATM    1  C   UNL     1      -9.708  10.490  69.297  1.00  0.00    -0.215 C  
HETATM    2  C   UNL     1      -8.865   9.270  69.035  1.00  0.00    -0.136 A  
HETATM    3  C   UNL     1      -9.456   8.218  68.316  1.00  0.00    -0.146 A  
HETATM    4  C   UNL     1      -8.784   7.032  67.994  1.00  0.00    -0.126 A  
HETATM    5  C   UNL     1      -5.424   7.716  69.682  1.00  0.00    -0.023 C  
HETATM    6  C   UNL     1      -7.466   6.919  68.463  1.00  0.00    -0.096 A  
HETATM    7  C   UNL     1      -7.534   9.147  69.490  1.00  0.00    -0.077 A  
HETATM    8  C   UNL     1      -6.833   7.951  69.196  1.00  0.00    -0.052 A  
ENDROOT
BRANCH   4   9
HETATM    9  C   UNL     1      -9.487   5.914  67.198  1.00  0.00    -0.123 C  
HETATM   10  C   UNL     1      -9.290   4.522  67.851  1.00  0.00    -0.178 C  
HETATM   11  C   UNL     1      -8.903   5.860  65.772  1.00  0.00    -0.145 C  
HETATM   12  C   UNL     1     -11.013   6.127  67.095  1.00  0.00    -0.420 C  
ENDBRANCH   4   9
BRANCH   7  13
HETATM   13  C   UNL     1      -6.905  10.228  70.358  1.00  0.00    -0.109 C  
BRANCH  13  14
HETATM   14  C   UNL     1      -6.364  11.468  69.677  1.00  0.00    -0.133 A  
HETATM   15  N   UNL     1      -6.333  12.599  70.336  1.00  0.00    -0.462 NA 
HETATM   16  C   UNL     1      -5.714  13.580  69.405  1.00  0.00    -0.089 A  
HETATM   17  H   UNL     1      -6.663  12.771  71.286  1.00  0.00     0.000 HD 
HETATM   18  C   UNL     1      -5.408  12.835  68.102  1.00  0.00    -0.081 A  
HETATM   19  N   UNL     1      -5.824  11.488  68.417  1.00  0.00    -0.045 NA 
ENDBRANCH  13  14
ENDBRANCH   7  13
TORSDOF 3
ENDMDL
MODEL      151
REMARK 921   NORMALIZED FREE ENERGY PREDICTED BY IDOCK:   -2.21 KCAL/MOL
REMARK 922        TOTAL FREE ENERGY PREDICTED BY IDOCK:   -3.08 KCAL/MOL
REMARK 923 INTER-LIGAND FREE ENERGY PREDICTED BY IDOCK:   -2.57 KCAL/MOL
REMARK 924 INTRA-LIGAND FREE ENERGY PREDICTED BY IDOCK:   -0.52 KCAL/MOL
REMARK 927      BINDING AFFINITY PREDICTED BY RF-SCORE:    0.00 PKD
ROOT
HETATM    1  C   UNL     1      -5.912   7.710  66.670  1.00  0.00    -0.040 C  
HETATM    2  C   UNL     1      -7.299   7.573  67.240  1.00  0.00    -0.098 A  
HETATM    3  C   UNL     1      -7.623   6.357  67.863  1.00  0.00    -0.102 A  
HETATM    4  C   UNL     1      -8.872   6.098  68.443  1.00  0.00    -0.113 A  
HETATM    5  C   UNL     1     -10.651   9.382  67.636  1.00  0.00    -0.333 C  
HETATM    6  C   UNL     1      -9.827   7.122  68.344  1.00  0.00    -0.157 A  
HETATM    7  C   UNL     1      -8.266   8.598  67.157  1.00  0.00    -0.107 A  
HETATM    8  C   UNL     1      -9.545   8.360  67.719  1.00  0.00    -0.185 A  
ENDROOT
BRANCH   4   9
HETATM    9  C   UNL     1      -9.167   4.743  69.118  1.00  0.00    -0.175 C  
HETATM   10  C   UNL     1      -9.646   3.677  68.099  1.00  0.00    -0.166 C  
HETATM   11  C   UNL     1     -10.276   4.930  70.172  1.00  0.00    -0.310 C  
HETATM   12  C   UNL     1      -7.925   4.143  69.813  1.00  0.00    -0.056 C  
ENDBRANCH   4   9
BRANCH   7  13
HETATM   13  C   UNL     1      -7.973   9.884  66.398  1.00  0.00    -0.111 C  
BRANCH  13  14
HETATM   14  C   UNL     1      -7.330  11.030  67.151  1.00  0.00    -0.116 A  
HETATM   15  N   UNL     1      -7.817  11.386  68.314  1.00  0.00    -0.124 NA 
HETATM   16  C   UNL     1      -6.939  12.488  68.787  1.00  0.00    -0.094 A  
HETATM   17  H   UNL     1      -8.627  10.990  68.793  1.00  0.00     0.000 HD 
HETATM   18  C   UNL     1      -5.880  12.718  67.705  1.00  0.00    -0.134 A  
HETATM   19  N   UNL     1      -6.206  11.697  66.739  1.00  0.00    -0.144 NA 
ENDBRANCH  13  14
ENDBRANCH   7  13
TORSDOF 3
ENDMDL
MODEL      152
REMARK 921   NORMALIZED FREE ENERGY PREDICTED BY IDOCK:   -2.14 KCAL/MOL
REMARK 922        TOTAL FREE ENERGY PREDICTED BY IDOCK:   -3.00 KCAL/MOL
REMARK 923 INTER-LIGAND FREE ENERGY PREDICTED BY IDOCK:   -2.49 KCAL/MOL
REMARK 924 INTRA-LIGAND FREE ENERGY PREDICTED BY IDOCK:   -0.51 KCAL/MOL
REMARK 927      BINDING AFFINITY PREDICTED BY RF-SCORE:    0.00 PKD
ROOT
HETATM    1  C   UNL     1      -5.941   6.292  67.229  1.00  0.00    -0.017 C  
HETATM    2  C   UNL     1      -7.346   5.872  66.887  1.00  0.00    -0.079 A  
HETATM    3  C   UNL     1      -7.516   5.031  65.775  1.00  0.00    -0.082 A  
HETATM    4  C   UNL     1      -8.765   4.558  65.351  1.00  0.00    -0.129 A  
HETATM    5  C   UNL     1     -11.014   6.293  67.907  1.00  0.00    -0.421 C  
HETATM    6  C   UNL     1      -9.877   4.999  66.085  1.00  0.00    -0.214 A  
HETATM    7  C   UNL     1      -8.474   6.299  67.622  1.00  0.00    -0.116 A  
HETATM    8  C   UNL     1      -9.753   5.851  67.207  1.00  0.00    -0.137 A  
ENDROOT
BRANCH   4   9
HETATM    9  C   UNL     1      -8.887   3.633  64.123  1.00  0.00    -0.106 C  
HETATM   10  C   UNL     1      -8.736   2.138  64.504  1.00  0.00    -0.100 C  
HETATM   11  C   UNL     1      -7.779   3.983  63.110  1.00  0.00    -0.066 C  
HETATM   12  C   UNL     1     -10.255   3.758  63.418  1.00  0.00    -0.202 C  
ENDBRANCH   4   9
BRANCH   7  13
HETATM   13  C   UNL     1      -8.326   7.290  68.767  1.00  0.00    -0.129 C  
BRANCH  13  14
HETATM   14  C   UNL     1      -8.505   8.763  68.467  1.00  0.00    -0.130 A  
HETATM   15  N   UNL     1      -7.866   9.293  67.454  1.00  0.00    -0.099 NA 
HETATM   16  C   UNL     1      -8.296  10.716  67.418  1.00  0.00    -0.119 A  
HETATM   17  H   UNL     1      -7.212   8.828  66.823  1.00  0.00     0.000 HD 
HETATM   18  C   UNL     1      -9.272  10.922  68.580  1.00  0.00    -0.181 A  
HETATM   19  N   UNL     1      -9.360   9.595  69.142  1.00  0.00    -0.163 NA 
ENDBRANCH  13  14
ENDBRANCH   7  13
TORSDOF 3
ENDMDL
MODEL      153
REMARK 921   NORMALIZED FREE ENERGY PREDICTED BY IDOCK:   -2.12 KCAL/MOL
REMARK 922        TOTAL FREE ENERGY PREDICTED BY IDOCK:   -2.97 KCAL/MOL
REMARK 923 INTER-LIGAND FREE ENERGY PREDICTED BY IDOCK:   -2.46 KCAL/MOL
REMARK 924 INTRA-LIGAND FREE ENERGY PREDICTED BY IDOCK:   -0.52 KCAL/MOL
REMARK 927      BINDING AFFINITY PREDICTED BY RF-SCORE:    0.00 PKD
ROOT
HETATM    1  C   UNL     1     -10.372   5.270  69.229  1.00  0.00    -0.286 C  
HETATM    2  C   UNL     1      -9.420   5.449  68.076  1.00  0.00    -0.138 A  
HETATM    3  C   UNL     1      -8.382   4.511  67.944  1.00  0.00    -0.098 A  
HETATM    4  C   UNL     1      -7.433   4.553  66.914  1.00  0.00    -0.082 A  
HETATM    5  C   UNL     1      -8.580   7.719  65.108  1.00  0.00    -0.023 C  
HETATM    6  C   UNL     1      -7.544   5.622  66.011  1.00  0.00    -0.087 A  
HETATM    7  C   UNL     1      -9.525   6.512  67.154  1.00  0.00    -0.150 A  
HETATM    8  C   UNL     1      -8.569   6.592  66.111  1.00  0.00    -0.146 A  
ENDROOT
BRANCH   4   9
HETATM    9  C   UNL     1      -6.319   3.491  66.820  1.00  0.00    -0.036 C  
HETATM   10  C   UNL     1      -5.677   3.444  65.410  1.00  0.00    -0.018 C  
HETATM   11  C   UNL     1      -6.914   2.101  67.121  1.00  0.00    -0.040 C  
HETATM   12  C   UNL     1      -5.161   3.755  67.808  1.00  0.00    -0.008 C  
ENDBRANCH   4   9
BRANCH   7  13
HETATM   13  C   UNL     1     -10.577   7.597  67.334  1.00  0.00    -0.356 C  
BRANCH  13  14
HETATM   14  C   UNL     1     -10.179   8.868  68.055  1.00  0.00    -0.213 A  
HETATM   15  N   UNL     1      -9.305   8.806  69.029  1.00  0.00    -0.145 NA 
HETATM   16  C   UNL     1      -9.113  10.211  69.475  1.00  0.00    -0.195 A  
HETATM   17  H   UNL     1      -8.852   7.971  69.401  1.00  0.00     0.000 HD 
HETATM   18  C   UNL     1     -10.026  11.088  68.613  1.00  0.00    -0.199 A  
HETATM   19  N   UNL     1     -10.615  10.123  67.715  1.00  0.00    -0.236 NA 
ENDBRANCH  13  14
ENDBRANCH   7  13
TORSDOF 3
ENDMDL
MODEL      154
REMARK 921   NORMALIZED FREE ENERGY PREDICTED BY IDOCK:   -2.02 KCAL/MOL
REMARK 922        TOTAL FREE ENERGY PREDICTED BY IDOCK:   -2.85 KCAL/MOL
REMARK 923 INTER-LIGAND FREE ENERGY PREDICTED BY IDOCK:   -2.62 KCAL/MOL
REMARK 924 INTRA-LIGAND FREE ENERGY PREDICTED BY IDOCK:   -0.23 KCAL/MOL
REMARK 927      BINDING AFFINITY PREDICTED BY RF-SCORE:    0.00 PKD
ROOT
HETATM    1  C   UNL     1      -6.835  10.427  67.708  1.00  0.00    -0.074 C  
HETATM    2  C   UNL     1      -7.593   9.136  67.550  1.00  0.00    -0.088 A  
HETATM    3  C   UNL     1      -6.846   7.979  67.268  1.00  0.00    -0.074 A  
HETATM    4  C   UNL     1      -7.422   6.712  67.106  1.00  0.00    -0.088 A  
HETATM    5  C   UNL     1     -11.109   7.617  67.536  1.00  0.00     0.092 C  
HETATM    6  C   UNL     1      -8.820   6.648  67.206  1.00  0.00    -0.116 A  
HETATM    7  C   UNL     1      -8.998   9.054  67.658  1.00  0.00    -0.130 A  
HETATM    8  C   UNL     1      -9.611   7.788  67.482  1.00  0.00    -0.184 A  
ENDROOT
BRANCH   4   9
HETATM    9  C   UNL     1      -6.548   5.478  66.803  1.00  0.00    -0.056 C  
HETATM   10  C   UNL     1      -6.015   5.486  65.347  1.00  0.00    -0.025 C  
HETATM   11  C   UNL     1      -7.387   4.199  66.998  1.00  0.00    -0.073 C  
HETATM   12  C   UNL     1      -5.303   5.393  67.714  1.00  0.00    -0.011 C  
ENDBRANCH   4   9
BRANCH   7  13
HETATM   13  C   UNL     1      -9.837  10.307  67.861  1.00  0.00    -0.181 C  
BRANCH  13  14
HETATM   14  C   UNL     1     -10.755  10.368  69.063  1.00  0.00    -0.228 A  
HETATM   15  N   UNL     1     -10.308   9.980  70.232  1.00  0.00    -0.357 NA 
HETATM   16  C   UNL     1     -11.430  10.210  71.179  1.00  0.00    -0.307 A  
HETATM   17  H   UNL     1      -9.385   9.601  70.446  1.00  0.00     0.000 HD 
HETATM   18  C   UNL     1     -12.597  10.779  70.367  1.00  0.00    -0.314 A  
HETATM   19  N   UNL     1     -12.028  10.877  69.044  1.00  0.00    -0.407 NA 
ENDBRANCH  13  14
ENDBRANCH   7  13
TORSDOF 3
ENDMDL
MODEL      155
REMARK 921   NORMALIZED FREE ENERGY PREDICTED BY IDOCK:   -1.99 KCAL/MOL
REMARK 922        TOTAL FREE ENERGY PREDICTED BY IDOCK:   -2.82 KCAL/MOL
REMARK 923 INTER-LIGAND FREE ENERGY PREDICTED BY IDOCK:   -2.29 KCAL/MOL
REMARK 924 INTRA-LIGAND FREE ENERGY PREDICTED BY IDOCK:   -0.54 KCAL/MOL
REMARK 927      BINDING AFFINITY PREDICTED BY RF-SCORE:    0.00 PKD
ROOT
HETATM    1  C   UNL     1      -6.059   7.588  66.688  1.00  0.00    -0.044 C  
HETATM    2  C   UNL     1      -7.306   6.792  66.408  1.00  0.00    -0.073 A  
HETATM    3  C   UNL     1      -7.207   5.745  65.476  1.00  0.00    -0.074 A  
HETATM    4  C   UNL     1      -8.285   4.920  65.128  1.00  0.00    -0.124 A  
HETATM    5  C   UNL     1     -11.029   6.511  67.260  1.00  0.00    -0.475 C  
HETATM    6  C   UNL     1      -9.513   5.211  65.743  1.00  0.00    -0.153 A  
HETATM    7  C   UNL     1      -8.545   7.066  67.026  1.00  0.00    -0.122 A  
HETATM    8  C   UNL     1      -9.658   6.260  66.682  1.00  0.00    -0.190 A  
ENDROOT
BRANCH   4   9
HETATM    9  C   UNL     1      -8.113   3.784  64.100  1.00  0.00    -0.089 C  
HETATM   10  C   UNL     1      -8.946   2.531  64.473  1.00  0.00    -0.115 C  
HETATM   11  C   UNL     1      -6.629   3.372  64.040  1.00  0.00    -0.038 C  
HETATM   12  C   UNL     1      -8.567   4.192  62.681  1.00  0.00    -0.090 C  
ENDBRANCH   4   9
BRANCH   7  13
HETATM   13  C   UNL     1      -8.701   8.257  67.961  1.00  0.00    -0.135 C  
BRANCH  13  14
HETATM   14  C   UNL     1      -8.356   8.070  69.423  1.00  0.00    -0.131 A  
HETATM   15  N   UNL     1      -8.645   6.934  70.010  1.00  0.00    -0.140 NA 
HETATM   16  C   UNL     1      -8.140   7.071  71.401  1.00  0.00    -0.108 A  
HETATM   17  H   UNL     1      -9.117   6.128  69.599  1.00  0.00     0.000 HD 
HETATM   18  C   UNL     1      -7.527   8.469  71.524  1.00  0.00    -0.105 A  
HETATM   19  N   UNL     1      -7.683   8.988  70.186  1.00  0.00    -0.078 NA 
ENDBRANCH  13  14
ENDBRANCH   7  13
TORSDOF 3
ENDMDL
MODEL      156
REMARK 921   NORMALIZED FREE ENERGY PREDICTED BY IDOCK:   -1.83 KCAL/MOL
REMARK 922        TOTAL FREE ENERGY PREDICTED BY IDOCK:   -2.63 KCAL/MOL
REMARK 923 INTER-LIGAND FREE ENERGY PREDICTED BY IDOCK:   -2.27 KCAL/MOL
REMARK 924 INTRA-LIGAND FREE ENERGY PREDICTED BY IDOCK:   -0.36 KCAL/MOL
REMARK 927      BINDING AFFINITY PREDICTED BY RF-SCORE:    0.00 PKD
ROOT
HETATM    1  C   UNL     1     -10.532   5.451  69.305  1.00  0.00    -0.309 C  
HETATM    2  C   UNL     1      -9.206   5.932  68.779  1.00  0.00    -0.120 A  
HETATM    3  C   UNL     1      -8.504   5.075  67.915  1.00  0.00    -0.104 A  
HETATM    4  C   UNL     1      -7.265   5.400  67.346  1.00  0.00    -0.075 A  
HETATM    5  C   UNL     1      -6.704   8.828  68.940  1.00  0.00    -0.053 C  
HETATM    6  C   UNL     1      -6.722   6.641  67.712  1.00  0.00    -0.071 A  
HETATM    7  C   UNL     1      -8.651   7.182  69.129  1.00  0.00    -0.133 A  
HETATM    8  C   UNL     1      -7.390   7.532  68.584  1.00  0.00    -0.095 A  
ENDROOT
BRANCH   4   9
HETATM    9  C   UNL     1      -6.546   4.418  66.400  1.00  0.00    -0.045 C  
HETATM   10  C   UNL     1      -5.853   3.267  67.173  1.00  0.00    -0.023 C  
HETATM   11  C   UNL     1      -5.466   5.177  65.603  1.00  0.00    -0.013 C  
HETATM   12  C   UNL     1      -7.510   3.742  65.400  1.00  0.00    -0.077 C  
ENDBRANCH   4   9
BRANCH   7  13
HETATM   13  C   UNL     1      -9.342   8.084  70.142  1.00  0.00    -0.156 C  
BRANCH  13  14
HETATM   14  C   UNL     1      -9.510   7.574  71.558  1.00  0.00    -0.150 A  
HETATM   15  N   UNL     1      -8.497   6.996  72.155  1.00  0.00    -0.112 NA 
HETATM   16  C   UNL     1      -8.983   6.664  73.521  1.00  0.00    -0.126 A  
HETATM   17  H   UNL     1      -7.572   6.813  71.766  1.00  0.00     0.000 HD 
HETATM   18  C   UNL     1     -10.440   7.130  73.607  1.00  0.00    -0.370 A  
HETATM   19  N   UNL     1     -10.643   7.736  72.312  1.00  0.00    -0.239 NA 
ENDBRANCH  13  14
ENDBRANCH   7  13
TORSDOF 3
ENDMDL
MODEL      157
REMARK 921   NORMALIZED FREE ENERGY PREDICTED BY IDOCK:   -1.81 KCAL/MOL
REMARK 922        TOTAL FREE ENERGY PREDICTED BY IDOCK:   -2.62 KCAL/MOL
REMARK 923 INTER-LIGAND FREE ENERGY PREDICTED BY IDOCK:   -2.15 KCAL/MOL
REMARK 924 INTRA-LIGAND FREE ENERGY PREDICTED BY IDOCK:   -0.47 KCAL/MOL
REMARK 927      BINDING AFFINITY PREDICTED BY RF-SCORE:    0.00 PKD
ROOT
HETATM    1  C   UNL     1      -5.618   6.896  67.658  1.00  0.00    -0.020 C  
HETATM    2  C   UNL     1      -6.809   6.402  66.880  1.00  0.00    -0.066 A  
HETATM    3  C   UNL     1      -6.626   6.153  65.509  1.00  0.00    -0.047 A  
HETATM    4  C   UNL     1      -7.645   5.682  64.670  1.00  0.00    -0.085 A  
HETATM    5  C   UNL     1     -10.528   5.537  67.174  1.00  0.00    -0.321 C  
HETATM    6  C   UNL     1      -8.902   5.495  65.265  1.00  0.00    -0.112 A  
HETATM    7  C   UNL     1      -8.076   6.198  67.467  1.00  0.00    -0.109 A  
HETATM    8  C   UNL     1      -9.132   5.739  66.640  1.00  0.00    -0.133 A  
ENDROOT
BRANCH   4   9
HETATM    9  C   UNL     1      -7.382   5.424  63.173  1.00  0.00    -0.050 C  
HETATM   10  C   UNL     1      -6.243   4.397  62.951  1.00  0.00    -0.018 C  
HETATM   11  C   UNL     1      -6.974   6.746  62.492  1.00  0.00    -0.048 C  
HETATM   12  C   UNL     1      -8.619   4.856  62.441  1.00  0.00    -0.117 C  
ENDBRANCH   4   9
BRANCH   7  13
HETATM   13  C   UNL     1      -8.325   6.557  68.925  1.00  0.00    -0.122 C  
BRANCH  13  14
HETATM   14  C   UNL     1      -8.957   7.898  69.235  1.00  0.00    -0.145 A  
HETATM   15  N   UNL     1      -9.011   8.812  68.299  1.00  0.00    -0.141 NA 
HETATM   16  C   UNL     1      -9.720   9.965  68.916  1.00  0.00    -0.175 A  
HETATM   17  H   UNL     1      -8.645   8.748  67.349  1.00  0.00     0.000 HD 
HETATM   18  C   UNL     1     -10.052   9.571  70.359  1.00  0.00    -0.271 A  
HETATM   19  N   UNL     1      -9.558   8.216  70.425  1.00  0.00    -0.170 NA 
ENDBRANCH  13  14
ENDBRANCH   7  13
TORSDOF 3
ENDMDL
MODEL      158
REMARK 921   NORMALIZED FREE ENERGY PREDICTED BY IDOCK:    0.93 KCAL/MOL
REMARK 922        TOTAL FREE ENERGY PREDICTED BY IDOCK:    0.61 KCAL/MOL
REMARK 923 INTER-LIGAND FREE ENERGY PREDICTED BY IDOCK:   -3.19 KCAL/MOL
REMARK 924 INTRA-LIGAND FREE ENERGY PREDICTED BY IDOCK:    3.80 KCAL/MOL
REMARK 927      BINDING AFFINITY PREDICTED BY RF-SCORE:    0.00 PKD
ROOT
HETATM    1  C   UNL     1      -8.118  14.316  66.806  1.00  0.00     0.210 C  
HETATM    2  C   UNL     1      -9.042  15.353  67.388  1.00  0.00    -0.206 A  
HETATM    3  C   UNL     1      -8.771  16.699  67.087  1.00  0.00    -0.215 A  
HETATM    4  C   UNL     1      -9.553  17.764  67.553  1.00  0.00    -0.268 A  
HETATM    5  C   UNL     1     -12.097  15.829  69.647  1.00  0.00    -0.282 C  
HETATM    6  C   UNL     1     -10.631  17.425  68.385  1.00  0.00    -0.355 A  
HETATM    7  C   UNL     1     -10.136  15.027  68.217  1.00  0.00    -0.222 A  
HETATM    8  C   UNL     1     -10.936  16.084  68.719  1.00  0.00    -0.320 A  
ENDROOT
BRANCH   4   9
HETATM    9  C   UNL     1      -9.208  19.221  67.185  1.00  0.00    -0.354 C  
HETATM   10  C   UNL     1     -10.085  19.751  66.022  1.00  0.00    -0.574 C  
HETATM   11  C   UNL     1      -7.732  19.299  66.745  1.00  0.00    -0.267 C  
HETATM   12  C   UNL     1      -9.422  20.199  68.362  1.00  0.00    -0.216 C  
ENDBRANCH   4   9
BRANCH   7  13
HETATM   13  C   UNL     1     -10.389  13.587  68.640  1.00  0.00    -0.220 C  
BRANCH  13  14
HETATM   14  C   UNL     1      -9.201  12.655  68.757  1.00  0.00     0.159 A  
HETATM   15  N   UNL     1      -9.266  11.632  69.572  1.00  0.00     0.187 NA 
HETATM   16  C   UNL     1      -7.973  10.917  69.409  1.00  0.00    -0.017 A  
HETATM   17  H   UNL     1     -10.040  11.380  70.187  1.00  0.00     0.000 HD 
HETATM   18  C   UNL     1      -7.150  11.700  68.382  1.00  0.00    -0.083 A  
HETATM   19  N   UNL     1      -8.058  12.756  68.006  1.00  0.00    -0.151 NA 
ENDBRANCH  13  14
ENDBRANCH   7  13
TORSDOF 3
ENDMDL
MODEL      159
REMARK 921   NORMALIZED FREE ENERGY PREDICTED BY IDOCK:    5.59 KCAL/MOL
REMARK 922        TOTAL FREE ENERGY PREDICTED BY IDOCK:    6.09 KCAL/MOL
REMARK 923 INTER-LIGAND FREE ENERGY PREDICTED BY IDOCK:    5.99 KCAL/MOL
REMARK 924 INTRA-LIGAND FREE ENERGY PREDICTED BY IDOCK:    0.10 KCAL/MOL
REMARK 927      BINDING AFFINITY PREDICTED BY RF-SCORE:    0.00 PKD
ROOT
HETATM    1  C   UNL     1      -7.934  16.126  66.886  1.00  0.00    -0.279 C  
HETATM    2  C   UNL     1      -8.183  15.386  68.173  1.00  0.00    -0.144 A  
HETATM    3  C   UNL     1      -7.136  15.347  69.109  1.00  0.00    -0.161 A  
HETATM    4  C   UNL     1      -7.235  14.703  70.349  1.00  0.00     0.433 A  
HETATM    5  C   UNL     1     -10.776  13.294  70.064  1.00  0.00     0.906 C  
HETATM    6  C   UNL     1      -8.448  14.049  70.613  1.00  0.00     3.631 A  
HETATM    7  C   UNL     1      -9.402  14.732  68.457  1.00  0.00    -0.199 A  
HETATM    8  C   UNL     1      -9.526  14.056  69.697  1.00  0.00     0.893 A  
ENDROOT
BRANCH   4   9
HETATM    9  C   UNL     1      -6.051  14.699  71.337  1.00  0.00     0.154 C  
HETATM   10  C   UNL     1      -5.147  15.947  71.167  1.00  0.00    -0.142 C  
HETATM   11  C   UNL     1      -5.187  13.446  71.092  1.00  0.00    -0.172 C  
HETATM   12  C   UNL     1      -6.508  14.700  72.813  1.00  0.00     1.432 C  
ENDBRANCH   4   9
BRANCH   7  13
HETATM   13  C   UNL     1     -10.513  14.672  67.419  1.00  0.00    -0.255 C  
BRANCH  13  14
HETATM   14  C   UNL     1     -10.920  13.316  66.883  1.00  0.00    -0.283 A  
HETATM   15  N   UNL     1     -10.182  12.742  65.965  1.00  0.00    -0.273 NA 
HETATM   16  C   UNL     1     -10.830  11.430  65.702  1.00  0.00    -0.218 A  
HETATM   17  H   UNL     1      -9.341  13.116  65.524  1.00  0.00     0.000 HD 
HETATM   18  C   UNL     1     -12.065  11.348  66.605  1.00  0.00     1.153 A  
HETATM   19  N   UNL     1     -11.986  12.587  67.342  1.00  0.00    -0.488 NA 
ENDBRANCH  13  14
ENDBRANCH   7  13
TORSDOF 3
ENDMDL
MODEL      160
REMARK 921   NORMALIZED FREE ENERGY PREDICTED BY IDOCK:   26.19 KCAL/MOL
REMARK 922        TOTAL FREE ENERGY PREDICTED BY IDOCK:   30.29 KCAL/MOL
REMARK 923 INTER-LIGAND FREE ENERGY PREDICTED BY IDOCK:   25.90 KCAL/MOL
REMARK 924 INTRA-LIGAND FREE ENERGY PREDICTED BY IDOCK:    4.40 KCAL/MOL
REMARK 927      BINDING AFFINITY PREDICTED BY RF-SCORE:    0.00 PKD
ROOT
HETATM    1  C   UNL     1     -13.592  14.160  68.573  1.00  0.00     5.484 C  
HETATM    2  C   UNL     1     -12.265  13.831  69.203  1.00  0.00    -0.289 A  
HETATM    3  C   UNL     1     -11.999  14.377  70.471  1.00  0.00    -0.395 A  
HETATM    4  C   UNL     1     -10.810  14.145  71.175  1.00  0.00     1.646 A  
HETATM    5  C   UNL     1      -8.967  11.971  68.629  1.00  0.00    -0.027 C  
HETATM    6  C   UNL     1      -9.852  13.349  70.529  1.00  0.00     4.305 A  
HETATM    7  C   UNL     1     -11.296  13.023  68.571  1.00  0.00    -0.323 A  
HETATM    8  C   UNL     1     -10.075  12.785  69.250  1.00  0.00     0.482 A  
ENDROOT
BRANCH   4   9
HETATM    9  C   UNL     1     -10.578  14.768  72.566  1.00  0.00     2.396 C  
HETATM   10  C   UNL     1      -9.073  14.835  72.931  1.00  0.00     8.265 C  
HETATM   11  C   UNL     1     -11.292  13.914  73.632  1.00  0.00     3.474 C  
HETATM   12  C   UNL     1     -11.107  16.217  72.663  1.00  0.00     0.972 C  
ENDBRANCH   4   9
BRANCH   7  13
HETATM   13  C   UNL     1     -11.518  12.506  67.157  1.00  0.00    -0.414 C  
BRANCH  13  14
HETATM   14  C   UNL     1     -10.303  12.164  66.320  1.00  0.00    -0.221 A  
HETATM   15  N   UNL     1     -10.467  11.777  65.080  1.00  0.00    -0.272 NA 
HETATM   16  C   UNL     1      -9.094  11.571  64.547  1.00  0.00     0.176 A  
HETATM   17  H   UNL     1     -11.349  11.644  64.584  1.00  0.00     0.000 HD 
HETATM   18  C   UNL     1      -8.117  11.889  65.682  1.00  0.00     0.849 A  
HETATM   19  N   UNL     1      -9.006  12.301  66.743  1.00  0.00    -0.209 NA 
ENDBRANCH  13  14
ENDBRANCH   7  13
TORSDOF 3
ENDMDL
MODEL      161
REMARK 921   NORMALIZED FREE ENERGY PREDICTED BY IDOCK:   46.65 KCAL/MOL
REMARK 922        TOTAL FREE ENERGY PREDICTED BY IDOCK:   54.35 KCAL/MOL
REMARK 923 INTER-LIGAND FREE ENERGY PREDICTED BY IDOCK:   53.90 KCAL/MOL
REMARK 924 INTRA-LIGAND FREE ENERGY PREDICTED BY IDOCK:    0.46 KCAL/MOL
REMARK 927      BINDING AFFINITY PREDICTED BY RF-SCORE:    0.00 PKD
ROOT
HETATM    1  C   UNL     1     -12.182  11.046  67.686  1.00  0.00     1.073 C  
HETATM    2  C   UNL     1     -10.926  10.352  68.140  1.00  0.00    -0.334 A  
HETATM    3  C   UNL     1     -10.749   9.014  67.747  1.00  0.00    -0.217 A  
HETATM    4  C   UNL     1      -9.625   8.253  68.092  1.00  0.00    -0.163 A  
HETATM    5  C   UNL     1      -7.738  10.811  70.213  1.00  0.00     0.858 C  
HETATM    6  C   UNL     1      -8.668   8.889  68.897  1.00  0.00    -0.136 A  
HETATM    7  C   UNL     1      -9.949  10.981  68.942  1.00  0.00    -0.201 A  
HETATM    8  C   UNL     1      -8.808  10.231  69.321  1.00  0.00    -0.186 A  
ENDROOT
BRANCH   4   9
HETATM    9  C   UNL     1      -9.486   6.789  67.626  1.00  0.00    -0.126 C  
HETATM   10  C   UNL     1      -8.914   6.687  66.189  1.00  0.00    -0.157 C  
HETATM   11  C   UNL     1     -10.874   6.118  67.637  1.00  0.00    -0.421 C  
HETATM   12  C   UNL     1      -8.535   5.967  68.524  1.00  0.00    -0.113 C  
ENDBRANCH   4   9
BRANCH   7  13
HETATM   13  C   UNL     1     -10.165  12.394  69.465  1.00  0.00     0.753 C  
BRANCH  13  14
HETATM   14  C   UNL     1     -10.170  12.610  70.964  1.00  0.00     7.028 A  
HETATM   15  N   UNL     1     -10.256  11.574  71.761  1.00  0.00     7.498 NA 
HETATM   16  C   UNL     1     -10.189  12.130  73.138  1.00  0.00    21.619 A  
HETATM   17  H   UNL     1     -10.348  10.594  71.493  1.00  0.00     0.000 HD 
HETATM   18  C   UNL     1     -10.065  13.651  73.005  1.00  0.00    10.987 A  
HETATM   19  N   UNL     1     -10.016  13.829  71.573  1.00  0.00     6.135 NA 
ENDBRANCH  13  14
ENDBRANCH   7  13
TORSDOF 3
ENDMDL
MODEL      162
REMARK 921   NORMALIZED FREE ENERGY PREDICTED BY IDOCK:   47.86 KCAL/MOL
REMARK 922        TOTAL FREE ENERGY PREDICTED BY IDOCK:   55.76 KCAL/MOL
REMARK 923 INTER-LIGAND FREE ENERGY PREDICTED BY IDOCK:   56.32 KCAL/MOL
REMARK 924 INTRA-LIGAND FREE ENERGY PREDICTED BY IDOCK:   -0.56 KCAL/MOL
REMARK 927      BINDING AFFINITY PREDICTED BY RF-SCORE:    0.00 PKD
ROOT
HETATM    1  C   UNL     1     -11.507   9.581  72.776  1.00  0.00     1.856 C  
HETATM    2  C   UNL     1     -10.075   9.533  72.312  1.00  0.00     1.452 A  
HETATM    3  C   UNL     1      -9.346  10.734  72.342  1.00  0.00    11.755 A  
HETATM    4  C   UNL     1      -8.005  10.830  71.948  1.00  0.00     7.366 A  
HETATM    5  C   UNL     1      -7.388   7.217  70.869  1.00  0.00    -0.075 C  
HETATM    6  C   UNL     1      -7.411   9.650  71.477  1.00  0.00     0.620 A  
HETATM    7  C   UNL     1      -9.460   8.351  71.845  1.00  0.00    -0.323 A  
HETATM    8  C   UNL     1      -8.109   8.421  71.423  1.00  0.00    -0.162 A  
ENDROOT
BRANCH   4   9
HETATM    9  C   UNL     1      -7.257  12.177  72.008  1.00  0.00     9.005 C  
HETATM   10  C   UNL     1      -8.055  13.252  72.789  1.00  0.00    13.712 C  
HETATM   11  C   UNL     1      -7.029  12.697  70.575  1.00  0.00     1.873 C  
HETATM   12  C   UNL     1      -5.887  12.065  72.713  1.00  0.00     2.188 C  
ENDBRANCH   4   9
BRANCH   7  13
HETATM   13  C   UNL     1     -10.257   7.062  71.707  1.00  0.00    -0.209 C  
BRANCH  13  14
HETATM   14  C   UNL     1     -11.083   6.861  70.454  1.00  0.00    -0.296 A  
HETATM   15  N   UNL     1     -12.029   5.955  70.448  1.00  0.00     0.485 NA 
HETATM   16  C   UNL     1     -12.658   6.052  69.104  1.00  0.00     5.245 A  
HETATM   17  H   UNL     1     -12.281   5.318  71.204  1.00  0.00     0.000 HD 
HETATM   18  C   UNL     1     -11.913   7.148  68.335  1.00  0.00     1.918 A  
HETATM   19  N   UNL     1     -10.966   7.619  69.317  1.00  0.00    -0.089 NA 
ENDBRANCH  13  14
ENDBRANCH   7  13
TORSDOF 3
ENDMDL
