MODEL        1
REMARK 921   NORMALIZED FREE ENERGY PREDICTED BY IDOCK:   -4.85 KCAL/MOL
REMARK 922        TOTAL FREE ENERGY PREDICTED BY IDOCK:   -6.33 KCAL/MOL
REMARK 923 INTER-LIGAND FREE ENERGY PREDICTED BY IDOCK:   -5.70 KCAL/MOL
REMARK 924 INTRA-LIGAND FREE ENERGY PREDICTED BY IDOCK:   -0.62 KCAL/MOL
REMARK 927      BINDING AFFINITY PREDICTED BY RF-SCORE:    0.00 PKD
ROOT
HETATM    1  O   UNL     1     -12.524  13.649  62.735  1.00  0.00    -0.836 OA 
HETATM    2  C   UNL     1     -12.256  12.545  63.604  1.00  0.00    -0.550 C  
HETATM    3  H   UNL     1     -13.210  13.390  62.131  1.00  0.00     0.000 HD 
ENDROOT
BRANCH   2   4
HETATM    4  C   UNL     1     -11.149  12.962  64.578  1.00  0.00    -0.342 C  
HETATM    5  O   UNL     1      -9.956  13.271  63.833  1.00  0.00    -0.753 OA 
HETATM    6  H   UNL     1      -9.270  13.530  64.436  1.00  0.00     0.000 HD 
BRANCH   4   7
HETATM    7  C   UNL     1     -11.570  14.161  65.446  1.00  0.00    -0.334 C  
HETATM    8  H   UNL     1     -13.254  15.072  65.888  1.00  0.00     0.000 HD 
HETATM    9  O   UNL     1     -12.994  14.332  65.352  1.00  0.00    -0.654 OA 
BRANCH   7  10
HETATM   10  C   UNL     1     -10.828  15.448  65.026  1.00  0.00    -0.444 C  
HETATM   11  C   UNL     1     -10.643  16.372  66.217  1.00  0.00    -0.242 C  
HETATM   12  O   UNL     1     -11.503  16.181  64.007  1.00  0.00    -1.231 OA 
HETATM   13  O   UNL     1     -10.960  16.085  67.370  1.00  0.00    -0.315 OA 
HETATM   14  H   UNL     1     -11.046  16.972  63.749  1.00  0.00     0.000 HD 
ENDBRANCH   7  10
ENDBRANCH   4   7
ENDBRANCH   2   4
TORSDOF 3
ENDMDL
MODEL        2
REMARK 921   NORMALIZED FREE ENERGY PREDICTED BY IDOCK:   -4.70 KCAL/MOL
REMARK 922        TOTAL FREE ENERGY PREDICTED BY IDOCK:   -6.15 KCAL/MOL
REMARK 923 INTER-LIGAND FREE ENERGY PREDICTED BY IDOCK:   -5.93 KCAL/MOL
REMARK 924 INTRA-LIGAND FREE ENERGY PREDICTED BY IDOCK:   -0.21 KCAL/MOL
REMARK 927      BINDING AFFINITY PREDICTED BY RF-SCORE:    0.00 PKD
ROOT
HETATM    1  O   UNL     1     -11.746  16.376  63.714  1.00  0.00    -1.553 OA 
HETATM    2  C   UNL     1     -11.074  15.690  64.774  1.00  0.00    -0.412 C  
HETATM    3  H   UNL     1     -11.637  17.310  63.851  1.00  0.00     0.000 HD 
ENDROOT
BRANCH   2   4
HETATM    4  C   UNL     1     -11.251  14.184  64.554  1.00  0.00    -0.337 C  
HETATM    5  O   UNL     1      -9.959  13.547  64.583  1.00  0.00    -0.621 OA 
HETATM    6  H   UNL     1     -10.068  12.613  64.447  1.00  0.00     0.000 HD 
BRANCH   4   7
HETATM    7  C   UNL     1     -12.187  13.555  65.602  1.00  0.00    -0.458 C  
HETATM    8  H   UNL     1     -14.086  13.706  66.080  1.00  0.00     0.000 HD 
HETATM    9  O   UNL     1     -13.508  14.093  65.433  1.00  0.00    -0.648 OA 
BRANCH   7  10
HETATM   10  C   UNL     1     -11.669  13.798  67.036  1.00  0.00    -0.390 C  
HETATM   11  C   UNL     1     -11.600  12.492  67.808  1.00  0.00    -0.343 C  
HETATM   12  O   UNL     1     -12.478  14.704  67.782  1.00  0.00    -0.575 OA 
HETATM   13  O   UNL     1     -11.838  11.388  67.321  1.00  0.00    -0.594 OA 
HETATM   14  H   UNL     1     -12.159  14.852  68.664  1.00  0.00     0.000 HD 
ENDBRANCH   7  10
ENDBRANCH   4   7
ENDBRANCH   2   4
TORSDOF 3
ENDMDL
MODEL        3
REMARK 921   NORMALIZED FREE ENERGY PREDICTED BY IDOCK:   -4.62 KCAL/MOL
REMARK 922        TOTAL FREE ENERGY PREDICTED BY IDOCK:   -6.06 KCAL/MOL
REMARK 923 INTER-LIGAND FREE ENERGY PREDICTED BY IDOCK:   -5.99 KCAL/MOL
REMARK 924 INTRA-LIGAND FREE ENERGY PREDICTED BY IDOCK:   -0.06 KCAL/MOL
REMARK 927      BINDING AFFINITY PREDICTED BY RF-SCORE:    0.00 PKD
ROOT
HETATM    1  O   UNL     1     -10.694  10.986  62.768  1.00  0.00    -0.779 OA 
HETATM    2  C   UNL     1     -10.476  12.123  63.608  1.00  0.00    -0.460 C  
HETATM    3  H   UNL     1      -9.905  10.457  62.777  1.00  0.00     0.000 HD 
ENDROOT
BRANCH   2   4
HETATM    4  C   UNL     1     -11.748  12.978  63.593  1.00  0.00    -0.490 C  
HETATM    5  O   UNL     1     -12.898  12.113  63.543  1.00  0.00    -0.768 OA 
HETATM    6  H   UNL     1     -13.687  12.642  63.534  1.00  0.00     0.000 HD 
BRANCH   4   7
HETATM    7  C   UNL     1     -11.827  13.912  64.814  1.00  0.00    -0.397 C  
HETATM    8  H   UNL     1     -13.256  14.782  65.845  1.00  0.00     0.000 HD 
HETATM    9  O   UNL     1     -13.206  14.205  65.091  1.00  0.00    -0.743 OA 
BRANCH   7  10
HETATM   10  C   UNL     1     -11.019  15.207  64.586  1.00  0.00    -0.303 C  
HETATM   11  C   UNL     1     -10.642  15.844  65.911  1.00  0.00    -0.337 C  
HETATM   12  O   UNL     1     -11.722  16.181  63.818  1.00  0.00    -1.404 OA 
HETATM   13  O   UNL     1     -10.872  15.340  67.010  1.00  0.00    -0.312 OA 
HETATM   14  H   UNL     1     -11.225  16.978  63.678  1.00  0.00     0.000 HD 
ENDBRANCH   7  10
ENDBRANCH   4   7
ENDBRANCH   2   4
TORSDOF 3
ENDMDL
MODEL        4
REMARK 921   NORMALIZED FREE ENERGY PREDICTED BY IDOCK:   -4.53 KCAL/MOL
REMARK 922        TOTAL FREE ENERGY PREDICTED BY IDOCK:   -5.94 KCAL/MOL
REMARK 923 INTER-LIGAND FREE ENERGY PREDICTED BY IDOCK:   -5.81 KCAL/MOL
REMARK 924 INTRA-LIGAND FREE ENERGY PREDICTED BY IDOCK:   -0.13 KCAL/MOL
REMARK 927      BINDING AFFINITY PREDICTED BY RF-SCORE:    0.00 PKD
ROOT
HETATM    1  O   UNL     1     -12.329  11.503  63.051  1.00  0.00    -0.975 OA 
HETATM    2  C   UNL     1     -11.154  12.188  63.496  1.00  0.00    -0.452 C  
HETATM    3  H   UNL     1     -12.058  10.690  62.639  1.00  0.00     0.000 HD 
ENDROOT
BRANCH   2   4
HETATM    4  C   UNL     1     -11.590  13.499  64.159  1.00  0.00    -0.376 C  
HETATM    5  O   UNL     1     -12.379  14.261  63.226  1.00  0.00    -1.118 OA 
HETATM    6  H   UNL     1     -12.649  15.074  63.636  1.00  0.00     0.000 HD 
BRANCH   4   7
HETATM    7  C   UNL     1     -12.378  13.252  65.457  1.00  0.00    -0.480 C  
HETATM    8  H   UNL     1     -14.108  13.819  66.197  1.00  0.00     0.000 HD 
HETATM    9  O   UNL     1     -13.621  13.972  65.396  1.00  0.00    -0.593 OA 
BRANCH   7  10
HETATM   10  C   UNL     1     -11.560  13.664  66.700  1.00  0.00    -0.364 C  
HETATM   11  C   UNL     1     -11.516  12.532  67.711  1.00  0.00    -0.321 C  
HETATM   12  O   UNL     1     -12.078  14.817  67.358  1.00  0.00    -0.506 OA 
HETATM   13  O   UNL     1     -11.990  11.413  67.517  1.00  0.00    -0.626 OA 
HETATM   14  H   UNL     1     -11.574  15.070  68.123  1.00  0.00     0.000 HD 
ENDBRANCH   7  10
ENDBRANCH   4   7
ENDBRANCH   2   4
TORSDOF 3
ENDMDL
MODEL        5
REMARK 921   NORMALIZED FREE ENERGY PREDICTED BY IDOCK:   -4.46 KCAL/MOL
REMARK 922        TOTAL FREE ENERGY PREDICTED BY IDOCK:   -5.87 KCAL/MOL
REMARK 923 INTER-LIGAND FREE ENERGY PREDICTED BY IDOCK:   -5.50 KCAL/MOL
REMARK 924 INTRA-LIGAND FREE ENERGY PREDICTED BY IDOCK:   -0.37 KCAL/MOL
REMARK 927      BINDING AFFINITY PREDICTED BY RF-SCORE:    0.00 PKD
ROOT
HETATM    1  O   UNL     1      -9.222  12.720  66.026  1.00  0.00    -0.441 OA 
HETATM    2  C   UNL     1     -10.281  12.101  65.289  1.00  0.00    -0.274 C  
HETATM    3  H   UNL     1      -8.986  12.145  66.744  1.00  0.00     0.000 HD 
ENDROOT
BRANCH   2   4
HETATM    4  C   UNL     1     -10.662  13.029  64.131  1.00  0.00    -0.402 C  
HETATM    5  O   UNL     1     -11.321  12.261  63.107  1.00  0.00    -0.685 OA 
HETATM    6  H   UNL     1     -11.558  12.836  62.389  1.00  0.00     0.000 HD 
BRANCH   4   7
HETATM    7  C   UNL     1     -11.559  14.190  64.597  1.00  0.00    -0.406 C  
HETATM    8  H   UNL     1     -13.277  14.967  64.042  1.00  0.00     0.000 HD 
HETATM    9  O   UNL     1     -12.723  14.250  63.755  1.00  0.00    -0.779 OA 
BRANCH   7  10
HETATM   10  C   UNL     1     -10.796  15.532  64.584  1.00  0.00    -0.254 C  
HETATM   11  C   UNL     1     -10.476  15.979  65.999  1.00  0.00    -0.345 C  
HETATM   12  O   UNL     1     -11.515  16.584  63.946  1.00  0.00    -1.608 OA 
HETATM   13  O   UNL     1     -10.714  15.312  67.005  1.00  0.00    -0.302 OA 
HETATM   14  H   UNL     1     -11.046  17.409  63.939  1.00  0.00     0.000 HD 
ENDBRANCH   7  10
ENDBRANCH   4   7
ENDBRANCH   2   4
TORSDOF 3
ENDMDL
MODEL        6
REMARK 921   NORMALIZED FREE ENERGY PREDICTED BY IDOCK:   -4.28 KCAL/MOL
REMARK 922        TOTAL FREE ENERGY PREDICTED BY IDOCK:   -5.66 KCAL/MOL
REMARK 923 INTER-LIGAND FREE ENERGY PREDICTED BY IDOCK:   -5.51 KCAL/MOL
REMARK 924 INTRA-LIGAND FREE ENERGY PREDICTED BY IDOCK:   -0.14 KCAL/MOL
REMARK 927      BINDING AFFINITY PREDICTED BY RF-SCORE:    0.00 PKD
ROOT
HETATM    1  O   UNL     1     -11.546  16.712  63.721  1.00  0.00    -1.506 OA 
HETATM    2  C   UNL     1     -11.153  15.840  64.786  1.00  0.00    -0.400 C  
HETATM    3  H   UNL     1     -11.028  17.506  63.783  1.00  0.00     0.000 HD 
ENDROOT
BRANCH   2   4
HETATM    4  C   UNL     1     -11.988  14.560  64.686  1.00  0.00    -0.468 C  
HETATM    5  O   UNL     1     -12.325  14.321  63.307  1.00  0.00    -1.118 OA 
HETATM    6  H   UNL     1     -12.842  13.527  63.244  1.00  0.00     0.000 HD 
BRANCH   4   7
HETATM    7  C   UNL     1     -11.251  13.346  65.280  1.00  0.00    -0.289 C  
HETATM    8  H   UNL     1     -11.296  11.397  65.031  1.00  0.00     0.000 HD 
HETATM    9  O   UNL     1     -11.751  12.147  64.665  1.00  0.00    -0.350 OA 
BRANCH   7  10
HETATM   10  C   UNL     1     -11.408  13.288  66.815  1.00  0.00    -0.327 C  
HETATM   11  C   UNL     1     -10.059  13.433  67.496  1.00  0.00    -0.227 C  
HETATM   12  O   UNL     1     -12.001  12.077  67.275  1.00  0.00    -0.591 OA 
HETATM   13  O   UNL     1      -9.005  13.658  66.903  1.00  0.00    -0.237 OA 
HETATM   14  H   UNL     1     -12.097  12.041  68.220  1.00  0.00     0.000 HD 
ENDBRANCH   7  10
ENDBRANCH   4   7
ENDBRANCH   2   4
TORSDOF 3
ENDMDL
MODEL        7
REMARK 921   NORMALIZED FREE ENERGY PREDICTED BY IDOCK:   -4.28 KCAL/MOL
REMARK 922        TOTAL FREE ENERGY PREDICTED BY IDOCK:   -5.65 KCAL/MOL
REMARK 923 INTER-LIGAND FREE ENERGY PREDICTED BY IDOCK:   -5.17 KCAL/MOL
REMARK 924 INTRA-LIGAND FREE ENERGY PREDICTED BY IDOCK:   -0.48 KCAL/MOL
REMARK 927      BINDING AFFINITY PREDICTED BY RF-SCORE:    0.00 PKD
ROOT
HETATM    1  O   UNL     1     -11.714  16.545  63.791  1.00  0.00    -1.548 OA 
HETATM    2  C   UNL     1     -10.946  16.510  64.997  1.00  0.00    -0.210 C  
HETATM    3  H   UNL     1     -11.800  17.452  63.522  1.00  0.00     0.000 HD 
ENDROOT
BRANCH   2   4
HETATM    4  C   UNL     1     -10.807  15.048  65.432  1.00  0.00    -0.364 C  
HETATM    5  O   UNL     1     -10.892  14.971  66.868  1.00  0.00    -0.303 OA 
HETATM    6  H   UNL     1     -10.806  14.064  67.138  1.00  0.00     0.000 HD 
BRANCH   4   7
HETATM    7  C   UNL     1     -11.875  14.151  64.780  1.00  0.00    -0.417 C  
HETATM    8  H   UNL     1     -13.827  13.958  64.892  1.00  0.00     0.000 HD 
HETATM    9  O   UNL     1     -13.168  14.511  65.294  1.00  0.00    -0.512 OA 
BRANCH   7  10
HETATM   10  C   UNL     1     -11.579  12.655  65.024  1.00  0.00    -0.345 C  
HETATM   11  C   UNL     1     -12.317  11.793  64.016  1.00  0.00    -0.236 C  
HETATM   12  O   UNL     1     -11.945  12.213  66.328  1.00  0.00    -0.605 OA 
HETATM   13  O   UNL     1     -12.983  12.237  63.082  1.00  0.00    -0.634 OA 
HETATM   14  H   UNL     1     -11.763  11.293  66.477  1.00  0.00     0.000 HD 
ENDBRANCH   7  10
ENDBRANCH   4   7
ENDBRANCH   2   4
TORSDOF 3
ENDMDL
MODEL        8
REMARK 921   NORMALIZED FREE ENERGY PREDICTED BY IDOCK:   -4.18 KCAL/MOL
REMARK 922        TOTAL FREE ENERGY PREDICTED BY IDOCK:   -5.54 KCAL/MOL
REMARK 923 INTER-LIGAND FREE ENERGY PREDICTED BY IDOCK:   -5.39 KCAL/MOL
REMARK 924 INTRA-LIGAND FREE ENERGY PREDICTED BY IDOCK:   -0.15 KCAL/MOL
REMARK 927      BINDING AFFINITY PREDICTED BY RF-SCORE:    0.00 PKD
ROOT
HETATM    1  O   UNL     1     -12.526  13.854  63.312  1.00  0.00    -1.113 OA 
HETATM    2  C   UNL     1     -12.075  14.217  64.620  1.00  0.00    -0.463 C  
HETATM    3  H   UNL     1     -13.166  13.158  63.402  1.00  0.00     0.000 HD 
ENDROOT
BRANCH   2   4
HETATM    4  C   UNL     1     -11.043  15.340  64.474  1.00  0.00    -0.245 C  
HETATM    5  O   UNL     1     -11.632  16.432  63.745  1.00  0.00    -1.605 OA 
HETATM    6  H   UNL     1     -10.992  17.129  63.654  1.00  0.00     0.000 HD 
BRANCH   4   7
HETATM    7  C   UNL     1     -10.520  15.821  65.839  1.00  0.00    -0.352 C  
HETATM    8  H   UNL     1      -8.891  16.691  66.508  1.00  0.00     0.000 HD 
HETATM    9  O   UNL     1      -9.214  16.394  65.666  1.00  0.00    -0.465 OA 
BRANCH   7  10
HETATM   10  C   UNL     1     -10.488  14.670  66.868  1.00  0.00    -0.270 C  
HETATM   11  C   UNL     1     -10.931  15.161  68.234  1.00  0.00    -0.276 C  
HETATM   12  O   UNL     1      -9.200  14.079  67.012  1.00  0.00    -0.233 OA 
HETATM   13  O   UNL     1     -11.344  16.298  68.460  1.00  0.00    -0.367 OA 
HETATM   14  H   UNL     1      -9.181  13.371  67.645  1.00  0.00     0.000 HD 
ENDBRANCH   7  10
ENDBRANCH   4   7
ENDBRANCH   2   4
TORSDOF 3
ENDMDL
MODEL        9
REMARK 921   NORMALIZED FREE ENERGY PREDICTED BY IDOCK:   -4.15 KCAL/MOL
REMARK 922        TOTAL FREE ENERGY PREDICTED BY IDOCK:   -5.51 KCAL/MOL
REMARK 923 INTER-LIGAND FREE ENERGY PREDICTED BY IDOCK:   -5.04 KCAL/MOL
REMARK 924 INTRA-LIGAND FREE ENERGY PREDICTED BY IDOCK:   -0.46 KCAL/MOL
REMARK 927      BINDING AFFINITY PREDICTED BY RF-SCORE:    0.00 PKD
ROOT
HETATM    1  O   UNL     1      -8.912  15.519  66.693  1.00  0.00    -0.239 OA 
HETATM    2  C   UNL     1      -9.476  16.583  65.921  1.00  0.00    -0.219 C  
HETATM    3  H   UNL     1      -8.059  15.799  67.004  1.00  0.00     0.000 HD 
ENDROOT
BRANCH   2   4
HETATM    4  C   UNL     1     -10.852  16.131  65.420  1.00  0.00    -0.307 C  
HETATM    5  O   UNL     1     -11.167  16.837  64.205  1.00  0.00    -1.415 OA 
HETATM    6  H   UNL     1     -12.020  16.557  63.894  1.00  0.00     0.000 HD 
BRANCH   4   7
HETATM    7  C   UNL     1     -10.909  14.610  65.191  1.00  0.00    -0.401 C  
HETATM    8  H   UNL     1      -9.833  13.278  64.227  1.00  0.00     0.000 HD 
HETATM    9  O   UNL     1      -9.798  14.217  64.368  1.00  0.00     0.076 OA 
BRANCH   7  10
HETATM   10  C   UNL     1     -12.249  14.187  64.552  1.00  0.00    -0.445 C  
HETATM   11  C   UNL     1     -12.746  12.888  65.161  1.00  0.00    -0.374 C  
HETATM   12  O   UNL     1     -12.168  14.004  63.141  1.00  0.00    -1.071 OA 
HETATM   13  O   UNL     1     -12.197  12.309  66.099  1.00  0.00    -0.647 OA 
HETATM   14  H   UNL     1     -12.992  13.743  62.749  1.00  0.00     0.000 HD 
ENDBRANCH   7  10
ENDBRANCH   4   7
ENDBRANCH   2   4
TORSDOF 3
ENDMDL
MODEL       10
REMARK 921   NORMALIZED FREE ENERGY PREDICTED BY IDOCK:   -4.13 KCAL/MOL
REMARK 922        TOTAL FREE ENERGY PREDICTED BY IDOCK:   -5.48 KCAL/MOL
REMARK 923 INTER-LIGAND FREE ENERGY PREDICTED BY IDOCK:   -5.25 KCAL/MOL
REMARK 924 INTRA-LIGAND FREE ENERGY PREDICTED BY IDOCK:   -0.24 KCAL/MOL
REMARK 927      BINDING AFFINITY PREDICTED BY RF-SCORE:    0.00 PKD
ROOT
HETATM    1  O   UNL     1     -12.539  11.397  62.933  1.00  0.00    -0.970 OA 
HETATM    2  C   UNL     1     -11.237  11.740  63.416  1.00  0.00    -0.352 C  
HETATM    3  H   UNL     1     -12.504  10.510  62.594  1.00  0.00     0.000 HD 
ENDROOT
BRANCH   2   4
HETATM    4  C   UNL     1     -11.293  13.170  63.963  1.00  0.00    -0.394 C  
HETATM    5  O   UNL     1     -12.424  13.852  63.389  1.00  0.00    -1.068 OA 
HETATM    6  H   UNL     1     -12.459  14.739  63.729  1.00  0.00     0.000 HD 
BRANCH   4   7
HETATM    7  C   UNL     1     -11.369  13.195  65.500  1.00  0.00    -0.299 C  
HETATM    8  H   UNL     1     -12.289  12.157  66.891  1.00  0.00     0.000 HD 
HETATM    9  O   UNL     1     -12.242  12.143  65.943  1.00  0.00    -0.604 OA 
BRANCH   7  10
HETATM   10  C   UNL     1     -11.849  14.568  66.018  1.00  0.00    -0.334 C  
HETATM   11  C   UNL     1     -10.679  15.523  66.164  1.00  0.00    -0.313 C  
HETATM   12  O   UNL     1     -12.513  14.494  67.277  1.00  0.00    -0.578 OA 
HETATM   13  O   UNL     1      -9.525  15.261  65.826  1.00  0.00    -0.333 OA 
HETATM   14  H   UNL     1     -12.808  15.339  67.595  1.00  0.00     0.000 HD 
ENDBRANCH   7  10
ENDBRANCH   4   7
ENDBRANCH   2   4
TORSDOF 3
ENDMDL
MODEL       11
REMARK 921   NORMALIZED FREE ENERGY PREDICTED BY IDOCK:   -4.11 KCAL/MOL
REMARK 922        TOTAL FREE ENERGY PREDICTED BY IDOCK:   -5.46 KCAL/MOL
REMARK 923 INTER-LIGAND FREE ENERGY PREDICTED BY IDOCK:   -5.16 KCAL/MOL
REMARK 924 INTRA-LIGAND FREE ENERGY PREDICTED BY IDOCK:   -0.29 KCAL/MOL
REMARK 927      BINDING AFFINITY PREDICTED BY RF-SCORE:    0.00 PKD
ROOT
HETATM    1  O   UNL     1      -9.260  14.561  65.337  1.00  0.00    -0.370 OA 
HETATM    2  C   UNL     1     -10.103  15.683  65.615  1.00  0.00    -0.365 C  
HETATM    3  H   UNL     1      -8.417  14.717  65.746  1.00  0.00     0.000 HD 
ENDROOT
BRANCH   2   4
HETATM    4  C   UNL     1     -11.463  15.433  64.955  1.00  0.00    -0.311 C  
HETATM    5  O   UNL     1     -11.678  16.419  63.927  1.00  0.00    -1.504 OA 
HETATM    6  H   UNL     1     -12.521  16.264  63.517  1.00  0.00     0.000 HD 
BRANCH   4   7
HETATM    7  C   UNL     1     -11.565  14.012  64.370  1.00  0.00    -0.369 C  
HETATM    8  H   UNL     1     -12.390  13.184  62.791  1.00  0.00     0.000 HD 
HETATM    9  O   UNL     1     -12.327  14.060  63.152  1.00  0.00    -0.657 OA 
BRANCH   7  10
HETATM   10  C   UNL     1     -12.196  13.031  65.380  1.00  0.00    -0.471 C  
HETATM   11  C   UNL     1     -11.252  11.878  65.668  1.00  0.00    -0.306 C  
HETATM   12  O   UNL     1     -13.433  12.481  64.934  1.00  0.00    -0.564 OA 
HETATM   13  O   UNL     1     -10.108  11.794  65.225  1.00  0.00    -0.246 OA 
HETATM   14  H   UNL     1     -13.822  11.878  65.556  1.00  0.00     0.000 HD 
ENDBRANCH   7  10
ENDBRANCH   4   7
ENDBRANCH   2   4
TORSDOF 3
ENDMDL
MODEL       12
REMARK 921   NORMALIZED FREE ENERGY PREDICTED BY IDOCK:   -4.07 KCAL/MOL
REMARK 922        TOTAL FREE ENERGY PREDICTED BY IDOCK:   -5.40 KCAL/MOL
REMARK 923 INTER-LIGAND FREE ENERGY PREDICTED BY IDOCK:   -5.00 KCAL/MOL
REMARK 924 INTRA-LIGAND FREE ENERGY PREDICTED BY IDOCK:   -0.40 KCAL/MOL
REMARK 927      BINDING AFFINITY PREDICTED BY RF-SCORE:    0.00 PKD
ROOT
HETATM    1  O   UNL     1     -11.705  11.587  66.800  1.00  0.00    -0.510 OA 
HETATM    2  C   UNL     1     -12.153  12.944  66.850  1.00  0.00    -0.244 C  
HETATM    3  H   UNL     1     -11.493  11.312  67.684  1.00  0.00     0.000 HD 
ENDROOT
BRANCH   2   4
HETATM    4  C   UNL     1     -12.492  13.387  65.423  1.00  0.00    -0.494 C  
HETATM    5  O   UNL     1     -13.597  14.310  65.465  1.00  0.00    -0.650 OA 
HETATM    6  H   UNL     1     -13.808  14.585  64.581  1.00  0.00     0.000 HD 
BRANCH   4   7
HETATM    7  C   UNL     1     -11.283  14.025  64.716  1.00  0.00    -0.375 C  
HETATM    8  H   UNL     1      -9.631  13.380  63.871  1.00  0.00     0.000 HD 
HETATM    9  O   UNL     1     -10.377  12.987  64.308  1.00  0.00    -0.404 OA 
BRANCH   7  10
HETATM   10  C   UNL     1     -10.575  15.051  65.627  1.00  0.00    -0.346 C  
HETATM   11  C   UNL     1     -10.778  16.461  65.104  1.00  0.00    -0.291 C  
HETATM   12  O   UNL     1      -9.172  14.827  65.745  1.00  0.00    -0.513 OA 
HETATM   13  O   UNL     1     -11.487  16.745  64.139  1.00  0.00    -1.171 OA 
HETATM   14  H   UNL     1      -8.737  15.458  66.305  1.00  0.00     0.000 HD 
ENDBRANCH   7  10
ENDBRANCH   4   7
ENDBRANCH   2   4
TORSDOF 3
ENDMDL
MODEL       13
REMARK 921   NORMALIZED FREE ENERGY PREDICTED BY IDOCK:   -4.01 KCAL/MOL
REMARK 922        TOTAL FREE ENERGY PREDICTED BY IDOCK:   -5.34 KCAL/MOL
REMARK 923 INTER-LIGAND FREE ENERGY PREDICTED BY IDOCK:   -5.21 KCAL/MOL
REMARK 924 INTRA-LIGAND FREE ENERGY PREDICTED BY IDOCK:   -0.13 KCAL/MOL
REMARK 927      BINDING AFFINITY PREDICTED BY RF-SCORE:    0.00 PKD
ROOT
HETATM    1  O   UNL     1     -12.420  14.077  63.083  1.00  0.00    -1.137 OA 
HETATM    2  C   UNL     1     -12.044  14.601  64.360  1.00  0.00    -0.462 C  
HETATM    3  H   UNL     1     -12.012  14.613  62.413  1.00  0.00     0.000 HD 
ENDROOT
BRANCH   2   4
HETATM    4  C   UNL     1     -12.701  13.737  65.442  1.00  0.00    -0.472 C  
HETATM    5  O   UNL     1     -13.154  12.504  64.852  1.00  0.00    -0.833 OA 
HETATM    6  H   UNL     1     -13.561  11.968  65.522  1.00  0.00     0.000 HD 
BRANCH   4   7
HETATM    7  C   UNL     1     -11.743  13.456  66.614  1.00  0.00    -0.385 C  
HETATM    8  H   UNL     1     -11.516  12.034  67.950  1.00  0.00     0.000 HD 
HETATM    9  O   UNL     1     -12.107  12.208  67.227  1.00  0.00    -0.565 OA 
BRANCH   7  10
HETATM   10  C   UNL     1     -11.761  14.605  67.643  1.00  0.00    -0.363 C  
HETATM   11  C   UNL     1     -10.357  15.129  67.884  1.00  0.00    -0.241 C  
HETATM   12  O   UNL     1     -12.307  14.225  68.904  1.00  0.00    -0.552 OA 
HETATM   13  O   UNL     1      -9.361  14.747  67.270  1.00  0.00    -0.196 OA 
HETATM   14  H   UNL     1     -12.317  14.932  69.537  1.00  0.00     0.000 HD 
ENDBRANCH   7  10
ENDBRANCH   4   7
ENDBRANCH   2   4
TORSDOF 3
ENDMDL
MODEL       14
REMARK 921   NORMALIZED FREE ENERGY PREDICTED BY IDOCK:   -4.00 KCAL/MOL
REMARK 922        TOTAL FREE ENERGY PREDICTED BY IDOCK:   -5.32 KCAL/MOL
REMARK 923 INTER-LIGAND FREE ENERGY PREDICTED BY IDOCK:   -4.75 KCAL/MOL
REMARK 924 INTRA-LIGAND FREE ENERGY PREDICTED BY IDOCK:   -0.57 KCAL/MOL
REMARK 927      BINDING AFFINITY PREDICTED BY RF-SCORE:    0.00 PKD
ROOT
HETATM    1  O   UNL     1     -11.096  11.361  63.409  1.00  0.00    -0.665 OA 
HETATM    2  C   UNL     1     -12.469  11.539  63.771  1.00  0.00     0.040 C  
HETATM    3  H   UNL     1     -11.060  10.762  62.673  1.00  0.00     0.000 HD 
ENDROOT
BRANCH   2   4
HETATM    4  C   UNL     1     -12.527  12.506  64.958  1.00  0.00    -0.420 C  
HETATM    5  O   UNL     1     -11.499  12.155  65.904  1.00  0.00    -0.345 OA 
HETATM    6  H   UNL     1     -11.535  12.754  66.641  1.00  0.00     0.000 HD 
BRANCH   4   7
HETATM    7  C   UNL     1     -12.375  13.972  64.514  1.00  0.00    -0.378 C  
HETATM    8  H   UNL     1     -12.462  14.956  62.816  1.00  0.00     0.000 HD 
HETATM    9  O   UNL     1     -12.556  14.052  63.091  1.00  0.00    -0.733 OA 
BRANCH   7  10
HETATM   10  C   UNL     1     -11.005  14.547  64.932  1.00  0.00    -0.410 C  
HETATM   11  C   UNL     1     -10.923  16.027  64.604  1.00  0.00    -0.278 C  
HETATM   12  O   UNL     1      -9.904  13.899  64.299  1.00  0.00    -0.651 OA 
HETATM   13  O   UNL     1     -11.858  16.688  64.153  1.00  0.00    -0.910 OA 
HETATM   14  H   UNL     1      -9.062  14.253  64.557  1.00  0.00     0.000 HD 
ENDBRANCH   7  10
ENDBRANCH   4   7
ENDBRANCH   2   4
TORSDOF 3
ENDMDL
MODEL       15
REMARK 921   NORMALIZED FREE ENERGY PREDICTED BY IDOCK:   -3.96 KCAL/MOL
REMARK 922        TOTAL FREE ENERGY PREDICTED BY IDOCK:   -5.28 KCAL/MOL
REMARK 923 INTER-LIGAND FREE ENERGY PREDICTED BY IDOCK:   -4.61 KCAL/MOL
REMARK 924 INTRA-LIGAND FREE ENERGY PREDICTED BY IDOCK:   -0.67 KCAL/MOL
REMARK 927      BINDING AFFINITY PREDICTED BY RF-SCORE:    0.00 PKD
ROOT
HETATM    1  O   UNL     1      -8.885  14.549  66.116  1.00  0.00    -0.480 OA 
HETATM    2  C   UNL     1      -9.940  15.314  66.706  1.00  0.00    -0.242 C  
HETATM    3  H   UNL     1      -8.148  14.550  66.715  1.00  0.00     0.000 HD 
ENDROOT
BRANCH   2   4
HETATM    4  C   UNL     1     -11.128  15.313  65.739  1.00  0.00    -0.301 C  
HETATM    5  O   UNL     1     -10.730  15.929  64.500  1.00  0.00    -0.794 OA 
HETATM    6  H   UNL     1     -11.466  15.929  63.900  1.00  0.00     0.000 HD 
BRANCH   4   7
HETATM    7  C   UNL     1     -11.664  13.892  65.488  1.00  0.00    -0.349 C  
HETATM    8  H   UNL     1     -11.387  12.112  66.272  1.00  0.00     0.000 HD 
HETATM    9  O   UNL     1     -11.056  12.989  66.427  1.00  0.00    -0.278 OA 
BRANCH   7  10
HETATM   10  C   UNL     1     -11.401  13.440  64.035  1.00  0.00    -0.320 C  
HETATM   11  C   UNL     1     -12.409  12.387  63.612  1.00  0.00    -0.548 C  
HETATM   12  O   UNL     1     -10.097  12.898  63.841  1.00  0.00    -0.585 OA 
HETATM   13  O   UNL     1     -13.357  12.020  64.304  1.00  0.00    -0.709 OA 
HETATM   14  H   UNL     1      -9.936  12.620  62.947  1.00  0.00     0.000 HD 
ENDBRANCH   7  10
ENDBRANCH   4   7
ENDBRANCH   2   4
TORSDOF 3
ENDMDL
MODEL       16
REMARK 921   NORMALIZED FREE ENERGY PREDICTED BY IDOCK:   -3.95 KCAL/MOL
REMARK 922        TOTAL FREE ENERGY PREDICTED BY IDOCK:   -5.27 KCAL/MOL
REMARK 923 INTER-LIGAND FREE ENERGY PREDICTED BY IDOCK:   -4.75 KCAL/MOL
REMARK 924 INTRA-LIGAND FREE ENERGY PREDICTED BY IDOCK:   -0.52 KCAL/MOL
REMARK 927      BINDING AFFINITY PREDICTED BY RF-SCORE:    0.00 PKD
ROOT
HETATM    1  O   UNL     1     -12.498  14.595  63.661  1.00  0.00    -1.070 OA 
HETATM    2  C   UNL     1     -12.570  14.047  64.981  1.00  0.00    -0.390 C  
HETATM    3  H   UNL     1     -12.655  15.530  63.721  1.00  0.00     0.000 HD 
ENDROOT
BRANCH   2   4
HETATM    4  C   UNL     1     -12.316  12.539  64.885  1.00  0.00    -0.470 C  
HETATM    5  O   UNL     1     -12.896  12.038  63.666  1.00  0.00    -0.713 OA 
HETATM    6  H   UNL     1     -12.739  11.103  63.606  1.00  0.00     0.000 HD 
BRANCH   4   7
HETATM    7  C   UNL     1     -10.815  12.204  64.946  1.00  0.00    -0.308 C  
HETATM    8  H   UNL     1      -9.140  13.094  64.431  1.00  0.00     0.000 HD 
HETATM    9  O   UNL     1     -10.067  13.300  64.394  1.00  0.00    -0.340 OA 
BRANCH   7  10
HETATM   10  C   UNL     1     -10.501  10.889  64.202  1.00  0.00    -0.327 C  
HETATM   11  C   UNL     1      -9.252  10.238  64.769  1.00  0.00    -0.241 C  
HETATM   12  O   UNL     1     -10.303  11.067  62.801  1.00  0.00    -0.719 OA 
HETATM   13  O   UNL     1      -8.636  10.659  65.747  1.00  0.00    -0.170 OA 
HETATM   14  H   UNL     1     -10.109  10.257  62.344  1.00  0.00     0.000 HD 
ENDBRANCH   7  10
ENDBRANCH   4   7
ENDBRANCH   2   4
TORSDOF 3
ENDMDL
MODEL       17
REMARK 921   NORMALIZED FREE ENERGY PREDICTED BY IDOCK:   -3.93 KCAL/MOL
REMARK 922        TOTAL FREE ENERGY PREDICTED BY IDOCK:   -5.24 KCAL/MOL
REMARK 923 INTER-LIGAND FREE ENERGY PREDICTED BY IDOCK:   -4.70 KCAL/MOL
REMARK 924 INTRA-LIGAND FREE ENERGY PREDICTED BY IDOCK:   -0.54 KCAL/MOL
REMARK 927      BINDING AFFINITY PREDICTED BY RF-SCORE:    0.00 PKD
ROOT
HETATM    1  O   UNL     1     -12.521  13.631  62.932  1.00  0.00    -0.960 OA 
HETATM    2  C   UNL     1     -12.209  12.358  63.505  1.00  0.00    -0.563 C  
HETATM    3  H   UNL     1     -13.197  13.502  62.276  1.00  0.00     0.000 HD 
ENDROOT
BRANCH   2   4
HETATM    4  C   UNL     1     -11.119  12.567  64.562  1.00  0.00    -0.317 C  
HETATM    5  O   UNL     1     -10.055  13.355  63.996  1.00  0.00    -0.764 OA 
HETATM    6  H   UNL     1      -9.380  13.484  64.651  1.00  0.00     0.000 HD 
BRANCH   4   7
HETATM    7  C   UNL     1     -11.672  13.239  65.832  1.00  0.00    -0.365 C  
HETATM    8  H   UNL     1     -13.374  14.053  66.381  1.00  0.00     0.000 HD 
HETATM    9  O   UNL     1     -13.032  13.638  65.597  1.00  0.00    -0.538 OA 
BRANCH   7  10
HETATM   10  C   UNL     1     -10.805  14.445  66.254  1.00  0.00    -0.313 C  
HETATM   11  C   UNL     1     -10.969  14.729  67.736  1.00  0.00    -0.291 C  
HETATM   12  O   UNL     1     -11.118  15.640  65.543  1.00  0.00    -0.303 OA 
HETATM   13  O   UNL     1     -11.630  14.033  68.505  1.00  0.00    -0.281 OA 
HETATM   14  H   UNL     1     -10.585  16.381  65.802  1.00  0.00     0.000 HD 
ENDBRANCH   7  10
ENDBRANCH   4   7
ENDBRANCH   2   4
TORSDOF 3
ENDMDL
MODEL       18
REMARK 921   NORMALIZED FREE ENERGY PREDICTED BY IDOCK:   -3.89 KCAL/MOL
REMARK 922        TOTAL FREE ENERGY PREDICTED BY IDOCK:   -5.20 KCAL/MOL
REMARK 923 INTER-LIGAND FREE ENERGY PREDICTED BY IDOCK:   -4.79 KCAL/MOL
REMARK 924 INTRA-LIGAND FREE ENERGY PREDICTED BY IDOCK:   -0.40 KCAL/MOL
REMARK 927      BINDING AFFINITY PREDICTED BY RF-SCORE:    0.00 PKD
ROOT
HETATM    1  O   UNL     1     -11.580  11.131  63.320  1.00  0.00    -0.729 OA 
HETATM    2  C   UNL     1     -12.512  12.148  63.698  1.00  0.00    -0.549 C  
HETATM    3  H   UNL     1     -12.069  10.339  63.128  1.00  0.00     0.000 HD 
ENDROOT
BRANCH   2   4
HETATM    4  C   UNL     1     -11.723  13.425  64.008  1.00  0.00    -0.416 C  
HETATM    5  O   UNL     1     -12.604  14.560  63.912  1.00  0.00    -0.901 OA 
HETATM    6  H   UNL     1     -12.116  15.352  64.105  1.00  0.00     0.000 HD 
BRANCH   4   7
HETATM    7  C   UNL     1     -11.064  13.370  65.398  1.00  0.00    -0.287 C  
HETATM    8  H   UNL     1      -9.607  12.354  66.238  1.00  0.00     0.000 HD 
HETATM    9  O   UNL     1     -10.014  12.389  65.380  1.00  0.00    -0.267 OA 
BRANCH   7  10
HETATM   10  C   UNL     1     -12.098  13.054  66.500  1.00  0.00    -0.341 C  
HETATM   11  C   UNL     1     -12.024  14.083  67.614  1.00  0.00    -0.368 C  
HETATM   12  O   UNL     1     -11.925  11.766  67.084  1.00  0.00    -0.617 OA 
HETATM   13  O   UNL     1     -11.302  15.078  67.589  1.00  0.00    -0.317 OA 
HETATM   14  H   UNL     1     -12.561  11.572  67.762  1.00  0.00     0.000 HD 
ENDBRANCH   7  10
ENDBRANCH   4   7
ENDBRANCH   2   4
TORSDOF 3
ENDMDL
MODEL       19
REMARK 921   NORMALIZED FREE ENERGY PREDICTED BY IDOCK:   -3.88 KCAL/MOL
REMARK 922        TOTAL FREE ENERGY PREDICTED BY IDOCK:   -5.18 KCAL/MOL
REMARK 923 INTER-LIGAND FREE ENERGY PREDICTED BY IDOCK:   -4.63 KCAL/MOL
REMARK 924 INTRA-LIGAND FREE ENERGY PREDICTED BY IDOCK:   -0.56 KCAL/MOL
REMARK 927      BINDING AFFINITY PREDICTED BY RF-SCORE:    0.00 PKD
ROOT
HETATM    1  O   UNL     1     -12.455  14.377  67.325  1.00  0.00    -0.601 OA 
HETATM    2  C   UNL     1     -11.267  13.652  66.993  1.00  0.00    -0.312 C  
HETATM    3  H   UNL     1     -12.808  14.013  68.129  1.00  0.00     0.000 HD 
ENDROOT
BRANCH   2   4
HETATM    4  C   UNL     1     -10.699  14.239  65.696  1.00  0.00    -0.316 C  
HETATM    5  O   UNL     1      -9.323  13.837  65.559  1.00  0.00    -0.493 OA 
HETATM    6  H   UNL     1      -8.970  14.200  64.755  1.00  0.00     0.000 HD 
BRANCH   4   7
HETATM    7  C   UNL     1     -11.513  13.806  64.464  1.00  0.00    -0.384 C  
HETATM    8  H   UNL     1     -13.160  14.399  63.572  1.00  0.00     0.000 HD 
HETATM    9  O   UNL     1     -12.657  14.666  64.333  1.00  0.00    -0.662 OA 
BRANCH   7  10
HETATM   10  C   UNL     1     -11.941  12.326  64.563  1.00  0.00    -0.383 C  
HETATM   11  C   UNL     1     -10.986  11.440  63.783  1.00  0.00    -0.370 C  
HETATM   12  O   UNL     1     -13.257  12.086  64.073  1.00  0.00    -0.681 OA 
HETATM   13  O   UNL     1      -9.964  11.844  63.229  1.00  0.00    -0.426 OA 
HETATM   14  H   UNL     1     -13.520  11.175  64.134  1.00  0.00     0.000 HD 
ENDBRANCH   7  10
ENDBRANCH   4   7
ENDBRANCH   2   4
TORSDOF 3
ENDMDL
MODEL       20
REMARK 921   NORMALIZED FREE ENERGY PREDICTED BY IDOCK:   -3.87 KCAL/MOL
REMARK 922        TOTAL FREE ENERGY PREDICTED BY IDOCK:   -5.17 KCAL/MOL
REMARK 923 INTER-LIGAND FREE ENERGY PREDICTED BY IDOCK:   -4.68 KCAL/MOL
REMARK 924 INTRA-LIGAND FREE ENERGY PREDICTED BY IDOCK:   -0.50 KCAL/MOL
REMARK 927      BINDING AFFINITY PREDICTED BY RF-SCORE:    0.00 PKD
ROOT
HETATM    1  O   UNL     1     -12.404  13.846  68.828  1.00  0.00    -0.477 OA 
HETATM    2  C   UNL     1     -11.263  14.051  67.990  1.00  0.00    -0.279 C  
HETATM    3  H   UNL     1     -12.100  13.521  69.668  1.00  0.00     0.000 HD 
ENDROOT
BRANCH   2   4
HETATM    4  C   UNL     1     -11.754  14.574  66.636  1.00  0.00    -0.371 C  
HETATM    5  O   UNL     1     -10.713  15.361  66.028  1.00  0.00    -0.307 OA 
HETATM    6  H   UNL     1     -11.017  15.686  65.189  1.00  0.00     0.000 HD 
BRANCH   4   7
HETATM    7  C   UNL     1     -12.183  13.430  65.700  1.00  0.00    -0.463 C  
HETATM    8  H   UNL     1     -12.385  11.481  65.841  1.00  0.00     0.000 HD 
HETATM    9  O   UNL     1     -12.120  12.187  66.418  1.00  0.00    -0.630 OA 
BRANCH   7  10
HETATM   10  C   UNL     1     -11.305  13.382  64.431  1.00  0.00    -0.391 C  
HETATM   11  C   UNL     1     -11.979  12.563  63.345  1.00  0.00    -0.514 C  
HETATM   12  O   UNL     1     -10.014  12.825  64.660  1.00  0.00    -0.496 OA 
HETATM   13  O   UNL     1     -13.109  12.086  63.439  1.00  0.00    -0.747 OA 
HETATM   14  H   UNL     1      -9.474  12.795  63.879  1.00  0.00     0.000 HD 
ENDBRANCH   7  10
ENDBRANCH   4   7
ENDBRANCH   2   4
TORSDOF 3
ENDMDL
MODEL       21
REMARK 921   NORMALIZED FREE ENERGY PREDICTED BY IDOCK:   -3.86 KCAL/MOL
REMARK 922        TOTAL FREE ENERGY PREDICTED BY IDOCK:   -5.16 KCAL/MOL
REMARK 923 INTER-LIGAND FREE ENERGY PREDICTED BY IDOCK:   -5.03 KCAL/MOL
REMARK 924 INTRA-LIGAND FREE ENERGY PREDICTED BY IDOCK:   -0.13 KCAL/MOL
REMARK 927      BINDING AFFINITY PREDICTED BY RF-SCORE:    0.00 PKD
ROOT
HETATM    1  O   UNL     1     -12.504  14.078  63.156  1.00  0.00    -1.137 OA 
HETATM    2  C   UNL     1     -12.196  14.659  64.426  1.00  0.00    -0.452 C  
HETATM    3  H   UNL     1     -12.156  14.647  62.479  1.00  0.00     0.000 HD 
ENDROOT
BRANCH   2   4
HETATM    4  C   UNL     1     -12.758  13.743  65.518  1.00  0.00    -0.488 C  
HETATM    5  O   UNL     1     -13.143  12.487  64.929  1.00  0.00    -0.833 OA 
HETATM    6  H   UNL     1     -13.491  11.918  65.606  1.00  0.00     0.000 HD 
BRANCH   4   7
HETATM    7  C   UNL     1     -11.746  13.518  66.656  1.00  0.00    -0.387 C  
HETATM    8  H   UNL     1     -10.404  14.602  67.597  1.00  0.00     0.000 HD 
HETATM    9  O   UNL     1     -11.029  14.740  66.895  1.00  0.00    -0.313 OA 
BRANCH   7  10
HETATM   10  C   UNL     1     -10.776  12.362  66.327  1.00  0.00    -0.256 C  
HETATM   11  C   UNL     1     -11.059  11.159  67.207  1.00  0.00    -0.302 C  
HETATM   12  O   UNL     1      -9.405  12.712  66.494  1.00  0.00    -0.237 OA 
HETATM   13  O   UNL     1     -11.994  11.090  68.005  1.00  0.00    -0.623 OA 
HETATM   14  H   UNL     1      -8.809  12.001  66.291  1.00  0.00     0.000 HD 
ENDBRANCH   7  10
ENDBRANCH   4   7
ENDBRANCH   2   4
TORSDOF 3
ENDMDL
MODEL       22
REMARK 921   NORMALIZED FREE ENERGY PREDICTED BY IDOCK:   -3.86 KCAL/MOL
REMARK 922        TOTAL FREE ENERGY PREDICTED BY IDOCK:   -5.16 KCAL/MOL
REMARK 923 INTER-LIGAND FREE ENERGY PREDICTED BY IDOCK:   -4.79 KCAL/MOL
REMARK 924 INTRA-LIGAND FREE ENERGY PREDICTED BY IDOCK:   -0.37 KCAL/MOL
REMARK 927      BINDING AFFINITY PREDICTED BY RF-SCORE:    0.00 PKD
ROOT
HETATM    1  O   UNL     1     -12.395  13.818  63.126  1.00  0.00    -1.099 OA 
HETATM    2  C   UNL     1     -12.047  12.525  63.630  1.00  0.00    -0.554 C  
HETATM    3  H   UNL     1     -13.297  13.787  62.830  1.00  0.00     0.000 HD 
ENDROOT
BRANCH   2   4
HETATM    4  C   UNL     1     -10.591  12.576  64.106  1.00  0.00    -0.398 C  
HETATM    5  O   UNL     1     -10.096  13.921  63.971  1.00  0.00    -0.571 OA 
HETATM    6  H   UNL     1      -9.193  13.953  64.266  1.00  0.00     0.000 HD 
BRANCH   4   7
HETATM    7  C   UNL     1     -10.446  12.091  65.560  1.00  0.00    -0.269 C  
HETATM    8  H   UNL     1     -10.099  10.377  66.456  1.00  0.00     0.000 HD 
HETATM    9  O   UNL     1     -10.189  10.677  65.559  1.00  0.00    -0.264 OA 
BRANCH   7  10
HETATM   10  C   UNL     1     -11.701  12.425  66.394  1.00  0.00    -0.391 C  
HETATM   11  C   UNL     1     -11.538  13.763  67.093  1.00  0.00    -0.364 C  
HETATM   12  O   UNL     1     -11.995  11.447  67.387  1.00  0.00    -0.606 OA 
HETATM   13  O   UNL     1     -10.575  14.512  66.936  1.00  0.00    -0.274 OA 
HETATM   14  H   UNL     1     -12.767  11.653  67.900  1.00  0.00     0.000 HD 
ENDBRANCH   7  10
ENDBRANCH   4   7
ENDBRANCH   2   4
TORSDOF 3
ENDMDL
MODEL       23
REMARK 921   NORMALIZED FREE ENERGY PREDICTED BY IDOCK:   -3.85 KCAL/MOL
REMARK 922        TOTAL FREE ENERGY PREDICTED BY IDOCK:   -5.16 KCAL/MOL
REMARK 923 INTER-LIGAND FREE ENERGY PREDICTED BY IDOCK:   -4.84 KCAL/MOL
REMARK 924 INTRA-LIGAND FREE ENERGY PREDICTED BY IDOCK:   -0.31 KCAL/MOL
REMARK 927      BINDING AFFINITY PREDICTED BY RF-SCORE:    0.00 PKD
ROOT
HETATM    1  O   UNL     1     -12.421  14.066  63.070  1.00  0.00    -1.101 OA 
HETATM    2  C   UNL     1     -12.245  14.812  64.278  1.00  0.00    -0.379 C  
HETATM    3  H   UNL     1     -12.171  14.621  62.341  1.00  0.00     0.000 HD 
ENDROOT
BRANCH   2   4
HETATM    4  C   UNL     1     -12.649  13.917  65.454  1.00  0.00    -0.507 C  
HETATM    5  O   UNL     1     -13.018  12.618  64.954  1.00  0.00    -0.830 OA 
HETATM    6  H   UNL     1     -13.269  12.063  65.683  1.00  0.00     0.000 HD 
BRANCH   4   7
HETATM    7  C   UNL     1     -11.523  13.794  66.496  1.00  0.00    -0.348 C  
HETATM    8  H   UNL     1      -9.665  13.154  66.510  1.00  0.00     0.000 HD 
HETATM    9  O   UNL     1     -10.361  13.230  65.867  1.00  0.00    -0.281 OA 
BRANCH   7  10
HETATM   10  C   UNL     1     -11.966  12.945  67.707  1.00  0.00    -0.283 C  
HETATM   11  C   UNL     1     -11.189  13.338  68.950  1.00  0.00    -0.277 C  
HETATM   12  O   UNL     1     -11.789  11.544  67.507  1.00  0.00    -0.605 OA 
HETATM   13  O   UNL     1     -10.387  14.270  68.998  1.00  0.00    -0.231 OA 
HETATM   14  H   UNL     1     -12.062  11.022  68.252  1.00  0.00     0.000 HD 
ENDBRANCH   7  10
ENDBRANCH   4   7
ENDBRANCH   2   4
TORSDOF 3
ENDMDL
MODEL       24
REMARK 921   NORMALIZED FREE ENERGY PREDICTED BY IDOCK:   -3.83 KCAL/MOL
REMARK 922        TOTAL FREE ENERGY PREDICTED BY IDOCK:   -5.13 KCAL/MOL
REMARK 923 INTER-LIGAND FREE ENERGY PREDICTED BY IDOCK:   -5.02 KCAL/MOL
REMARK 924 INTRA-LIGAND FREE ENERGY PREDICTED BY IDOCK:   -0.10 KCAL/MOL
REMARK 927      BINDING AFFINITY PREDICTED BY RF-SCORE:    0.00 PKD
ROOT
HETATM    1  O   UNL     1      -8.776  11.069  64.691  1.00  0.00    -0.349 OA 
HETATM    2  C   UNL     1     -10.159  10.707  64.678  1.00  0.00    -0.349 C  
HETATM    3  H   UNL     1      -8.294  10.380  65.132  1.00  0.00     0.000 HD 
ENDROOT
BRANCH   2   4
HETATM    4  C   UNL     1     -10.937  11.819  63.967  1.00  0.00    -0.384 C  
HETATM    5  O   UNL     1     -11.645  11.259  62.846  1.00  0.00    -0.834 OA 
HETATM    6  H   UNL     1     -12.128  11.949  62.405  1.00  0.00     0.000 HD 
BRANCH   4   7
HETATM    7  C   UNL     1     -11.912  12.537  64.918  1.00  0.00    -0.412 C  
HETATM    8  H   UNL     1     -13.860  12.754  65.054  1.00  0.00     0.000 HD 
HETATM    9  O   UNL     1     -13.258  12.312  64.467  1.00  0.00    -0.799 OA 
BRANCH   7  10
HETATM   10  C   UNL     1     -11.602  14.046  65.008  1.00  0.00    -0.350 C  
HETATM   11  C   UNL     1     -11.763  14.542  66.434  1.00  0.00    -0.363 C  
HETATM   12  O   UNL     1     -12.437  14.844  64.172  1.00  0.00    -0.804 OA 
HETATM   13  O   UNL     1     -12.015  13.815  67.394  1.00  0.00    -0.379 OA 
HETATM   14  H   UNL     1     -12.247  15.772  64.228  1.00  0.00     0.000 HD 
ENDBRANCH   7  10
ENDBRANCH   4   7
ENDBRANCH   2   4
TORSDOF 3
ENDMDL
MODEL       25
REMARK 921   NORMALIZED FREE ENERGY PREDICTED BY IDOCK:   -3.78 KCAL/MOL
REMARK 922        TOTAL FREE ENERGY PREDICTED BY IDOCK:   -5.07 KCAL/MOL
REMARK 923 INTER-LIGAND FREE ENERGY PREDICTED BY IDOCK:   -4.71 KCAL/MOL
REMARK 924 INTRA-LIGAND FREE ENERGY PREDICTED BY IDOCK:   -0.36 KCAL/MOL
REMARK 927      BINDING AFFINITY PREDICTED BY RF-SCORE:    0.00 PKD
ROOT
HETATM    1  O   UNL     1     -12.430  14.193  62.992  1.00  0.00    -1.077 OA 
HETATM    2  C   UNL     1     -12.255  14.537  64.369  1.00  0.00    -0.458 C  
HETATM    3  H   UNL     1     -12.137  14.927  62.465  1.00  0.00     0.000 HD 
ENDROOT
BRANCH   2   4
HETATM    4  C   UNL     1     -12.728  13.353  65.219  1.00  0.00    -0.422 C  
HETATM    5  O   UNL     1     -13.165  12.291  64.350  1.00  0.00    -0.806 OA 
HETATM    6  H   UNL     1     -13.458  11.557  64.877  1.00  0.00     0.000 HD 
BRANCH   4   7
HETATM    7  C   UNL     1     -11.626  12.852  66.171  1.00  0.00    -0.372 C  
HETATM    8  H   UNL     1     -11.018  13.282  67.989  1.00  0.00     0.000 HD 
HETATM    9  O   UNL     1     -11.698  13.591  67.401  1.00  0.00    -0.337 OA 
BRANCH   7  10
HETATM   10  C   UNL     1     -10.228  12.979  65.529  1.00  0.00    -0.285 C  
HETATM   11  C   UNL     1      -9.793  11.656  64.926  1.00  0.00    -0.235 C  
HETATM   12  O   UNL     1      -9.221  13.391  66.450  1.00  0.00    -0.403 OA 
HETATM   13  O   UNL     1     -10.503  10.652  64.879  1.00  0.00    -0.312 OA 
HETATM   14  H   UNL     1      -8.361  13.469  66.055  1.00  0.00     0.000 HD 
ENDBRANCH   7  10
ENDBRANCH   4   7
ENDBRANCH   2   4
TORSDOF 3
ENDMDL
MODEL       26
REMARK 921   NORMALIZED FREE ENERGY PREDICTED BY IDOCK:   -3.76 KCAL/MOL
REMARK 922        TOTAL FREE ENERGY PREDICTED BY IDOCK:   -5.05 KCAL/MOL
REMARK 923 INTER-LIGAND FREE ENERGY PREDICTED BY IDOCK:   -4.79 KCAL/MOL
REMARK 924 INTRA-LIGAND FREE ENERGY PREDICTED BY IDOCK:   -0.26 KCAL/MOL
REMARK 927      BINDING AFFINITY PREDICTED BY RF-SCORE:    0.00 PKD
ROOT
HETATM    1  O   UNL     1     -11.426  16.435  63.811  1.00  0.00    -1.590 OA 
HETATM    2  C   UNL     1     -11.675  15.291  64.632  1.00  0.00    -0.308 C  
HETATM    3  H   UNL     1     -12.023  16.405  63.073  1.00  0.00     0.000 HD 
ENDROOT
BRANCH   2   4
HETATM    4  C   UNL     1     -10.711  15.339  65.822  1.00  0.00    -0.348 C  
HETATM    5  O   UNL     1      -9.668  14.366  65.626  1.00  0.00    -0.458 OA 
HETATM    6  H   UNL     1      -9.070  14.396  66.364  1.00  0.00     0.000 HD 
BRANCH   4   7
HETATM    7  C   UNL     1     -10.110  16.743  66.018  1.00  0.00    -0.332 C  
HETATM    8  H   UNL     1      -8.370  17.597  65.703  1.00  0.00     0.000 HD 
HETATM    9  O   UNL     1      -8.741  16.731  65.582  1.00  0.00    -0.441 OA 
BRANCH   7  10
HETATM   10  C   UNL     1     -10.220  17.202  67.488  1.00  0.00    -0.323 C  
HETATM   11  C   UNL     1     -10.271  18.717  67.573  1.00  0.00    -0.386 C  
HETATM   12  O   UNL     1      -9.138  16.756  68.301  1.00  0.00    -0.215 OA 
HETATM   13  O   UNL     1     -10.312  19.463  66.596  1.00  0.00    -0.385 OA 
HETATM   14  H   UNL     1      -9.206  17.038  69.205  1.00  0.00     0.000 HD 
ENDBRANCH   7  10
ENDBRANCH   4   7
ENDBRANCH   2   4
TORSDOF 3
ENDMDL
MODEL       27
REMARK 921   NORMALIZED FREE ENERGY PREDICTED BY IDOCK:   -3.75 KCAL/MOL
REMARK 922        TOTAL FREE ENERGY PREDICTED BY IDOCK:   -5.03 KCAL/MOL
REMARK 923 INTER-LIGAND FREE ENERGY PREDICTED BY IDOCK:   -4.64 KCAL/MOL
REMARK 924 INTRA-LIGAND FREE ENERGY PREDICTED BY IDOCK:   -0.39 KCAL/MOL
REMARK 927      BINDING AFFINITY PREDICTED BY RF-SCORE:    0.00 PKD
ROOT
HETATM    1  O   UNL     1     -12.985  12.894  65.073  1.00  0.00    -0.777 OA 
HETATM    2  C   UNL     1     -12.917  14.313  65.238  1.00  0.00    -0.173 C  
HETATM    3  H   UNL     1     -13.702  12.568  65.604  1.00  0.00     0.000 HD 
ENDROOT
BRANCH   2   4
HETATM    4  C   UNL     1     -11.759  14.837  64.383  1.00  0.00    -0.336 C  
HETATM    5  O   UNL     1     -12.134  16.101  63.803  1.00  0.00    -1.355 OA 
HETATM    6  H   UNL     1     -11.416  16.427  63.273  1.00  0.00     0.000 HD 
BRANCH   4   7
HETATM    7  C   UNL     1     -10.461  14.981  65.198  1.00  0.00    -0.412 C  
HETATM    8  H   UNL     1      -9.037  13.779  65.821  1.00  0.00     0.000 HD 
HETATM    9  O   UNL     1      -9.838  13.691  65.318  1.00  0.00    -0.223 OA 
BRANCH   7  10
HETATM   10  C   UNL     1     -10.734  15.597  66.587  1.00  0.00    -0.296 C  
HETATM   11  C   UNL     1     -10.258  17.037  66.636  1.00  0.00    -0.310 C  
HETATM   12  O   UNL     1     -10.099  14.891  67.651  1.00  0.00    -0.226 OA 
HETATM   13  O   UNL     1      -9.805  17.649  65.670  1.00  0.00    -0.536 OA 
HETATM   14  H   UNL     1     -10.267  15.270  68.505  1.00  0.00     0.000 HD 
ENDBRANCH   7  10
ENDBRANCH   4   7
ENDBRANCH   2   4
TORSDOF 3
ENDMDL
MODEL       28
REMARK 921   NORMALIZED FREE ENERGY PREDICTED BY IDOCK:   -3.73 KCAL/MOL
REMARK 922        TOTAL FREE ENERGY PREDICTED BY IDOCK:   -5.01 KCAL/MOL
REMARK 923 INTER-LIGAND FREE ENERGY PREDICTED BY IDOCK:   -4.50 KCAL/MOL
REMARK 924 INTRA-LIGAND FREE ENERGY PREDICTED BY IDOCK:   -0.52 KCAL/MOL
REMARK 927      BINDING AFFINITY PREDICTED BY RF-SCORE:    0.00 PKD
ROOT
HETATM    1  O   UNL     1     -11.797  10.525  67.911  1.00  0.00    -0.731 OA 
HETATM    2  C   UNL     1     -10.992  11.694  68.088  1.00  0.00    -0.226 C  
HETATM    3  H   UNL     1     -11.527   9.880  68.554  1.00  0.00     0.000 HD 
ENDROOT
BRANCH   2   4
HETATM    4  C   UNL     1     -11.427  12.735  67.051  1.00  0.00    -0.341 C  
HETATM    5  O   UNL     1     -10.561  13.881  67.139  1.00  0.00    -0.274 OA 
HETATM    6  H   UNL     1     -10.830  14.527  66.496  1.00  0.00     0.000 HD 
BRANCH   4   7
HETATM    7  C   UNL     1     -11.419  12.160  65.623  1.00  0.00    -0.355 C  
HETATM    8  H   UNL     1     -10.307  10.900  64.606  1.00  0.00     0.000 HD 
HETATM    9  O   UNL     1     -10.312  11.255  65.488  1.00  0.00    -0.249 OA 
BRANCH   7  10
HETATM   10  C   UNL     1     -11.350  13.282  64.565  1.00  0.00    -0.363 C  
HETATM   11  C   UNL     1     -12.169  12.915  63.340  1.00  0.00    -0.490 C  
HETATM   12  O   UNL     1     -10.022  13.568  64.132  1.00  0.00    -0.766 OA 
HETATM   13  O   UNL     1     -12.863  11.904  63.251  1.00  0.00    -0.702 OA 
HETATM   14  H   UNL     1      -9.980  14.258  63.481  1.00  0.00     0.000 HD 
ENDBRANCH   7  10
ENDBRANCH   4   7
ENDBRANCH   2   4
TORSDOF 3
ENDMDL
MODEL       29
REMARK 921   NORMALIZED FREE ENERGY PREDICTED BY IDOCK:   -3.61 KCAL/MOL
REMARK 922        TOTAL FREE ENERGY PREDICTED BY IDOCK:   -4.87 KCAL/MOL
REMARK 923 INTER-LIGAND FREE ENERGY PREDICTED BY IDOCK:   -4.19 KCAL/MOL
REMARK 924 INTRA-LIGAND FREE ENERGY PREDICTED BY IDOCK:   -0.68 KCAL/MOL
REMARK 927      BINDING AFFINITY PREDICTED BY RF-SCORE:    0.00 PKD
ROOT
HETATM    1  O   UNL     1      -9.514  20.372  65.684  1.00  0.00    -0.562 OA 
HETATM    2  C   UNL     1      -8.784  19.854  66.800  1.00  0.00    -0.343 C  
HETATM    3  H   UNL     1      -9.014  21.090  65.312  1.00  0.00     0.000 HD 
ENDROOT
BRANCH   2   4
HETATM    4  C   UNL     1      -9.590  18.697  67.400  1.00  0.00    -0.296 C  
HETATM    5  O   UNL     1     -10.984  19.057  67.429  1.00  0.00    -0.459 OA 
HETATM    6  H   UNL     1     -11.484  18.340  67.801  1.00  0.00     0.000 HD 
BRANCH   4   7
HETATM    7  C   UNL     1      -9.387  17.388  66.617  1.00  0.00    -0.265 C  
HETATM    8  H   UNL     1      -8.196  16.761  65.186  1.00  0.00     0.000 HD 
HETATM    9  O   UNL     1      -8.322  17.569  65.669  1.00  0.00    -0.479 OA 
BRANCH   7  10
HETATM   10  C   UNL     1     -10.687  16.945  65.913  1.00  0.00    -0.149 C  
HETATM   11  C   UNL     1     -10.604  15.486  65.502  1.00  0.00    -0.396 C  
HETATM   12  O   UNL     1     -10.985  17.710  64.747  1.00  0.00    -0.917 OA 
HETATM   13  O   UNL     1      -9.664  14.743  65.780  1.00  0.00    -0.325 OA 
HETATM   14  H   UNL     1     -11.785  17.437  64.314  1.00  0.00     0.000 HD 
ENDBRANCH   7  10
ENDBRANCH   4   7
ENDBRANCH   2   4
TORSDOF 3
ENDMDL
MODEL       30
REMARK 921   NORMALIZED FREE ENERGY PREDICTED BY IDOCK:   -3.61 KCAL/MOL
REMARK 922        TOTAL FREE ENERGY PREDICTED BY IDOCK:   -4.86 KCAL/MOL
REMARK 923 INTER-LIGAND FREE ENERGY PREDICTED BY IDOCK:   -4.29 KCAL/MOL
REMARK 924 INTRA-LIGAND FREE ENERGY PREDICTED BY IDOCK:   -0.58 KCAL/MOL
REMARK 927      BINDING AFFINITY PREDICTED BY RF-SCORE:    0.00 PKD
ROOT
HETATM    1  O   UNL     1     -12.219   5.795  72.717  1.00  0.00    -0.548 OA 
HETATM    2  C   UNL     1     -11.297   6.140  71.679  1.00  0.00    -0.284 C  
HETATM    3  H   UNL     1     -11.806   5.147  73.276  1.00  0.00     0.000 HD 
ENDROOT
BRANCH   2   4
HETATM    4  C   UNL     1     -11.964   7.185  70.778  1.00  0.00    -0.310 C  
HETATM    5  O   UNL     1     -13.359   6.861  70.629  1.00  0.00    -0.375 OA 
HETATM    6  H   UNL     1     -13.772   7.509  70.071  1.00  0.00     0.000 HD 
BRANCH   4   7
HETATM    7  C   UNL     1     -11.797   8.611  71.332  1.00  0.00    -0.297 C  
HETATM    8  H   UNL     1     -10.732   9.470  72.742  1.00  0.00     0.000 HD 
HETATM    9  O   UNL     1     -10.836   8.590  72.400  1.00  0.00    -0.346 OA 
BRANCH   7  10
HETATM   10  C   UNL     1     -13.145   9.191  71.811  1.00  0.00    -0.392 C  
HETATM   11  C   UNL     1     -13.149  10.704  71.693  1.00  0.00    -0.450 C  
HETATM   12  O   UNL     1     -13.453   8.858  73.162  1.00  0.00    -0.968 OA 
HETATM   13  O   UNL     1     -12.236  11.361  71.196  1.00  0.00    -0.319 OA 
HETATM   14  H   UNL     1     -14.282   9.214  73.457  1.00  0.00     0.000 HD 
ENDBRANCH   7  10
ENDBRANCH   4   7
ENDBRANCH   2   4
TORSDOF 3
ENDMDL
MODEL       31
REMARK 921   NORMALIZED FREE ENERGY PREDICTED BY IDOCK:   -3.60 KCAL/MOL
REMARK 922        TOTAL FREE ENERGY PREDICTED BY IDOCK:   -4.86 KCAL/MOL
REMARK 923 INTER-LIGAND FREE ENERGY PREDICTED BY IDOCK:   -4.50 KCAL/MOL
REMARK 924 INTRA-LIGAND FREE ENERGY PREDICTED BY IDOCK:   -0.36 KCAL/MOL
REMARK 927      BINDING AFFINITY PREDICTED BY RF-SCORE:    0.00 PKD
ROOT
HETATM    1  O   UNL     1      -8.728  18.454  67.775  1.00  0.00    -0.261 OA 
HETATM    2  C   UNL     1     -10.097  18.096  67.984  1.00  0.00    -0.367 C  
HETATM    3  H   UNL     1      -8.340  18.643  68.621  1.00  0.00     0.000 HD 
ENDROOT
BRANCH   2   4
HETATM    4  C   UNL     1     -10.723  17.791  66.619  1.00  0.00    -0.122 C  
HETATM    5  O   UNL     1     -10.374  18.838  65.694  1.00  0.00    -0.551 OA 
HETATM    6  H   UNL     1     -10.762  18.650  64.848  1.00  0.00     0.000 HD 
BRANCH   4   7
HETATM    7  C   UNL     1     -10.279  16.421  66.076  1.00  0.00    -0.356 C  
HETATM    8  H   UNL     1      -8.708  15.708  65.136  1.00  0.00     0.000 HD 
HETATM    9  O   UNL     1      -8.983  16.554  65.471  1.00  0.00    -0.368 OA 
BRANCH   7  10
HETATM   10  C   UNL     1     -11.305  15.855  65.070  1.00  0.00    -0.193 C  
HETATM   11  C   UNL     1     -10.994  14.404  64.748  1.00  0.00    -0.397 C  
HETATM   12  O   UNL     1     -11.346  16.576  63.841  1.00  0.00    -1.557 OA 
HETATM   13  O   UNL     1     -10.103  13.752  65.290  1.00  0.00    -0.325 OA 
HETATM   14  H   UNL     1     -11.976  16.227  63.223  1.00  0.00     0.000 HD 
ENDBRANCH   7  10
ENDBRANCH   4   7
ENDBRANCH   2   4
TORSDOF 3
ENDMDL
MODEL       32
REMARK 921   NORMALIZED FREE ENERGY PREDICTED BY IDOCK:   -3.59 KCAL/MOL
REMARK 922        TOTAL FREE ENERGY PREDICTED BY IDOCK:   -4.85 KCAL/MOL
REMARK 923 INTER-LIGAND FREE ENERGY PREDICTED BY IDOCK:   -4.34 KCAL/MOL
REMARK 924 INTRA-LIGAND FREE ENERGY PREDICTED BY IDOCK:   -0.50 KCAL/MOL
REMARK 927      BINDING AFFINITY PREDICTED BY RF-SCORE:    0.00 PKD
ROOT
HETATM    1  O   UNL     1     -12.020  15.405  63.988  1.00  0.00    -0.904 OA 
HETATM    2  C   UNL     1     -11.575  14.135  64.473  1.00  0.00    -0.389 C  
HETATM    3  H   UNL     1     -11.538  15.603  63.193  1.00  0.00     0.000 HD 
ENDROOT
BRANCH   2   4
HETATM    4  C   UNL     1     -12.351  13.817  65.756  1.00  0.00    -0.486 C  
HETATM    5  O   UNL     1     -12.382  12.390  65.948  1.00  0.00    -0.638 OA 
HETATM    6  H   UNL     1     -12.863  12.192  66.743  1.00  0.00     0.000 HD 
BRANCH   4   7
HETATM    7  C   UNL     1     -11.741  14.514  66.985  1.00  0.00    -0.393 C  
HETATM    8  H   UNL     1     -10.049  15.417  67.409  1.00  0.00     0.000 HD 
HETATM    9  O   UNL     1     -10.426  14.986  66.651  1.00  0.00    -0.273 OA 
BRANCH   7  10
HETATM   10  C   UNL     1     -11.698  13.569  68.205  1.00  0.00    -0.361 C  
HETATM   11  C   UNL     1     -11.803  14.358  69.497  1.00  0.00    -0.329 C  
HETATM   12  O   UNL     1     -10.510  12.784  68.268  1.00  0.00    -0.228 OA 
HETATM   13  O   UNL     1     -11.989  15.573  69.552  1.00  0.00    -0.343 OA 
HETATM   14  H   UNL     1     -10.484  12.203  69.018  1.00  0.00     0.000 HD 
ENDBRANCH   7  10
ENDBRANCH   4   7
ENDBRANCH   2   4
TORSDOF 3
ENDMDL
MODEL       33
REMARK 921   NORMALIZED FREE ENERGY PREDICTED BY IDOCK:   -3.57 KCAL/MOL
REMARK 922        TOTAL FREE ENERGY PREDICTED BY IDOCK:   -4.82 KCAL/MOL
REMARK 923 INTER-LIGAND FREE ENERGY PREDICTED BY IDOCK:   -4.11 KCAL/MOL
REMARK 924 INTRA-LIGAND FREE ENERGY PREDICTED BY IDOCK:   -0.71 KCAL/MOL
REMARK 927      BINDING AFFINITY PREDICTED BY RF-SCORE:    0.00 PKD
ROOT
HETATM    1  O   UNL     1     -12.714  10.439  70.121  1.00  0.00    -0.525 OA 
HETATM    2  C   UNL     1     -13.072  10.607  71.495  1.00  0.00    -0.424 C  
HETATM    3  H   UNL     1     -12.507  11.294  69.762  1.00  0.00     0.000 HD 
ENDROOT
BRANCH   2   4
HETATM    4  C   UNL     1     -13.406   9.228  72.073  1.00  0.00    -0.450 C  
HETATM    5  O   UNL     1     -14.362   8.575  71.216  1.00  0.00    -0.595 OA 
HETATM    6  H   UNL     1     -14.569   7.720  71.574  1.00  0.00     0.000 HD 
BRANCH   4   7
HETATM    7  C   UNL     1     -12.149   8.356  72.243  1.00  0.00    -0.392 C  
HETATM    8  H   UNL     1     -10.207   8.624  72.106  1.00  0.00     0.000 HD 
HETATM    9  O   UNL     1     -10.984   9.162  72.001  1.00  0.00    -0.349 OA 
BRANCH   7  10
HETATM   10  C   UNL     1     -12.181   7.133  71.302  1.00  0.00    -0.365 C  
HETATM   11  C   UNL     1     -11.341   6.002  71.866  1.00  0.00    -0.279 C  
HETATM   12  O   UNL     1     -11.704   7.418  69.990  1.00  0.00    -0.500 OA 
HETATM   13  O   UNL     1     -10.790   6.032  72.966  1.00  0.00    -0.237 OA 
HETATM   14  H   UNL     1     -11.724   6.665  69.411  1.00  0.00     0.000 HD 
ENDBRANCH   7  10
ENDBRANCH   4   7
ENDBRANCH   2   4
TORSDOF 3
ENDMDL
MODEL       34
REMARK 921   NORMALIZED FREE ENERGY PREDICTED BY IDOCK:   -3.54 KCAL/MOL
REMARK 922        TOTAL FREE ENERGY PREDICTED BY IDOCK:   -4.79 KCAL/MOL
REMARK 923 INTER-LIGAND FREE ENERGY PREDICTED BY IDOCK:   -4.39 KCAL/MOL
REMARK 924 INTRA-LIGAND FREE ENERGY PREDICTED BY IDOCK:   -0.40 KCAL/MOL
REMARK 927      BINDING AFFINITY PREDICTED BY RF-SCORE:    0.00 PKD
ROOT
HETATM    1  O   UNL     1     -10.012  13.562  68.874  1.00  0.00    -0.410 OA 
HETATM    2  C   UNL     1     -10.805  12.411  68.573  1.00  0.00    -0.242 C  
HETATM    3  H   UNL     1      -9.359  13.311  69.516  1.00  0.00     0.000 HD 
ENDROOT
BRANCH   2   4
HETATM    4  C   UNL     1     -11.859  12.815  67.537  1.00  0.00    -0.343 C  
HETATM    5  O   UNL     1     -12.381  14.114  67.875  1.00  0.00    -0.553 OA 
HETATM    6  H   UNL     1     -13.034  14.365  67.233  1.00  0.00     0.000 HD 
BRANCH   4   7
HETATM    7  C   UNL     1     -11.288  12.819  66.107  1.00  0.00    -0.328 C  
HETATM    8  H   UNL     1     -10.074  13.961  65.067  1.00  0.00     0.000 HD 
HETATM    9  O   UNL     1     -10.427  13.959  65.949  1.00  0.00    -0.290 OA 
BRANCH   7  10
HETATM   10  C   UNL     1     -12.413  12.823  65.051  1.00  0.00    -0.506 C  
HETATM   11  C   UNL     1     -11.855  12.522  63.672  1.00  0.00    -0.530 C  
HETATM   12  O   UNL     1     -13.112  14.063  64.977  1.00  0.00    -0.742 OA 
HETATM   13  O   UNL     1     -10.682  12.224  63.452  1.00  0.00    -0.446 OA 
HETATM   14  H   UNL     1     -13.804  14.066  64.327  1.00  0.00     0.000 HD 
ENDBRANCH   7  10
ENDBRANCH   4   7
ENDBRANCH   2   4
TORSDOF 3
ENDMDL
MODEL       35
REMARK 921   NORMALIZED FREE ENERGY PREDICTED BY IDOCK:   -3.52 KCAL/MOL
REMARK 922        TOTAL FREE ENERGY PREDICTED BY IDOCK:   -4.76 KCAL/MOL
REMARK 923 INTER-LIGAND FREE ENERGY PREDICTED BY IDOCK:   -4.59 KCAL/MOL
REMARK 924 INTRA-LIGAND FREE ENERGY PREDICTED BY IDOCK:   -0.17 KCAL/MOL
REMARK 927      BINDING AFFINITY PREDICTED BY RF-SCORE:    0.00 PKD
ROOT
HETATM    1  O   UNL     1     -14.275   8.904  73.410  1.00  0.00    -1.241 OA 
HETATM    2  C   UNL     1     -14.133   8.703  72.001  1.00  0.00    -0.453 C  
HETATM    3  H   UNL     1     -14.806   8.197  73.757  1.00  0.00     0.000 HD 
ENDROOT
BRANCH   2   4
HETATM    4  C   UNL     1     -13.278   9.844  71.441  1.00  0.00    -0.400 C  
HETATM    5  O   UNL     1     -13.504  11.032  72.222  1.00  0.00    -0.603 OA 
HETATM    6  H   UNL     1     -12.974  11.740  71.875  1.00  0.00     0.000 HD 
BRANCH   4   7
HETATM    7  C   UNL     1     -11.781   9.486  71.425  1.00  0.00    -0.393 C  
HETATM    8  H   UNL     1     -10.207  10.011  70.372  1.00  0.00     0.000 HD 
HETATM    9  O   UNL     1     -11.131  10.232  70.382  1.00  0.00    -0.292 OA 
BRANCH   7  10
HETATM   10  C   UNL     1     -11.567   7.969  71.236  1.00  0.00    -0.276 C  
HETATM   11  C   UNL     1     -10.327   7.506  71.980  1.00  0.00    -0.199 C  
HETATM   12  O   UNL     1     -11.424   7.585  69.870  1.00  0.00    -0.470 OA 
HETATM   13  O   UNL     1      -9.647   8.229  72.706  1.00  0.00    -0.264 OA 
HETATM   14  H   UNL     1     -11.293   6.652  69.755  1.00  0.00     0.000 HD 
ENDBRANCH   7  10
ENDBRANCH   4   7
ENDBRANCH   2   4
TORSDOF 3
ENDMDL
MODEL       36
REMARK 921   NORMALIZED FREE ENERGY PREDICTED BY IDOCK:   -3.51 KCAL/MOL
REMARK 922        TOTAL FREE ENERGY PREDICTED BY IDOCK:   -4.75 KCAL/MOL
REMARK 923 INTER-LIGAND FREE ENERGY PREDICTED BY IDOCK:   -4.56 KCAL/MOL
REMARK 924 INTRA-LIGAND FREE ENERGY PREDICTED BY IDOCK:   -0.19 KCAL/MOL
REMARK 927      BINDING AFFINITY PREDICTED BY RF-SCORE:    0.00 PKD
ROOT
HETATM    1  O   UNL     1     -11.737  16.470  63.708  1.00  0.00    -1.548 OA 
HETATM    2  C   UNL     1     -11.772  15.289  64.514  1.00  0.00    -0.305 C  
HETATM    3  H   UNL     1     -12.594  16.585  63.314  1.00  0.00     0.000 HD 
ENDROOT
BRANCH   2   4
HETATM    4  C   UNL     1     -10.389  15.104  65.148  1.00  0.00    -0.385 C  
HETATM    5  O   UNL     1     -10.199  16.104  66.167  1.00  0.00    -0.300 OA 
HETATM    6  H   UNL     1      -9.343  15.990  66.561  1.00  0.00     0.000 HD 
BRANCH   4   7
HETATM    7  C   UNL     1     -10.211  13.693  65.737  1.00  0.00    -0.308 C  
HETATM    8  H   UNL     1      -9.929  11.884  65.025  1.00  0.00     0.000 HD 
HETATM    9  O   UNL     1     -10.039  12.755  64.662  1.00  0.00    -0.293 OA 
BRANCH   7  10
HETATM   10  C   UNL     1     -11.409  13.300  66.629  1.00  0.00    -0.321 C  
HETATM   11  C   UNL     1     -10.965  13.109  68.068  1.00  0.00    -0.247 C  
HETATM   12  O   UNL     1     -12.054  12.101  66.209  1.00  0.00    -0.626 OA 
HETATM   13  O   UNL     1      -9.825  13.330  68.474  1.00  0.00    -0.227 OA 
HETATM   14  H   UNL     1     -12.791  11.859  66.757  1.00  0.00     0.000 HD 
ENDBRANCH   7  10
ENDBRANCH   4   7
ENDBRANCH   2   4
TORSDOF 3
ENDMDL
MODEL       37
REMARK 921   NORMALIZED FREE ENERGY PREDICTED BY IDOCK:   -3.51 KCAL/MOL
REMARK 922        TOTAL FREE ENERGY PREDICTED BY IDOCK:   -4.75 KCAL/MOL
REMARK 923 INTER-LIGAND FREE ENERGY PREDICTED BY IDOCK:   -4.04 KCAL/MOL
REMARK 924 INTRA-LIGAND FREE ENERGY PREDICTED BY IDOCK:   -0.70 KCAL/MOL
REMARK 927      BINDING AFFINITY PREDICTED BY RF-SCORE:    0.00 PKD
ROOT
HETATM    1  O   UNL     1     -14.053   8.895  73.399  1.00  0.00    -1.256 OA 
HETATM    2  C   UNL     1     -14.284   8.886  71.988  1.00  0.00    -0.369 C  
HETATM    3  H   UNL     1     -14.896   8.915  73.836  1.00  0.00     0.000 HD 
ENDROOT
BRANCH   2   4
HETATM    4  C   UNL     1     -12.924   8.854  71.282  1.00  0.00    -0.211 C  
HETATM    5  O   UNL     1     -12.052   9.823  71.894  1.00  0.00    -0.375 OA 
HETATM    6  H   UNL     1     -11.208   9.803  71.457  1.00  0.00     0.000 HD 
BRANCH   4   7
HETATM    7  C   UNL     1     -12.288   7.453  71.323  1.00  0.00    -0.346 C  
HETATM    8  H   UNL     1     -12.855   5.653  71.871  1.00  0.00     0.000 HD 
HETATM    9  O   UNL     1     -13.247   6.518  71.846  1.00  0.00    -0.203 OA 
BRANCH   7  10
HETATM   10  C   UNL     1     -10.993   7.446  72.162  1.00  0.00    -0.245 C  
HETATM   11  C   UNL     1     -10.161   6.215  71.853  1.00  0.00    -0.200 C  
HETATM   12  O   UNL     1     -11.232   7.470  73.567  1.00  0.00    -0.603 OA 
HETATM   13  O   UNL     1     -10.443   5.390  70.985  1.00  0.00    -0.234 OA 
HETATM   14  H   UNL     1     -10.435   7.466  74.083  1.00  0.00     0.000 HD 
ENDBRANCH   7  10
ENDBRANCH   4   7
ENDBRANCH   2   4
TORSDOF 3
ENDMDL
MODEL       38
REMARK 921   NORMALIZED FREE ENERGY PREDICTED BY IDOCK:   -3.50 KCAL/MOL
REMARK 922        TOTAL FREE ENERGY PREDICTED BY IDOCK:   -4.74 KCAL/MOL
REMARK 923 INTER-LIGAND FREE ENERGY PREDICTED BY IDOCK:   -4.62 KCAL/MOL
REMARK 924 INTRA-LIGAND FREE ENERGY PREDICTED BY IDOCK:   -0.12 KCAL/MOL
REMARK 927      BINDING AFFINITY PREDICTED BY RF-SCORE:    0.00 PKD
ROOT
HETATM    1  O   UNL     1     -12.588  13.327  64.436  1.00  0.00    -0.609 OA 
HETATM    2  C   UNL     1     -12.354  14.082  65.628  1.00  0.00    -0.479 C  
HETATM    3  H   UNL     1     -13.477  12.993  64.468  1.00  0.00     0.000 HD 
ENDROOT
BRANCH   2   4
HETATM    4  C   UNL     1     -10.921  14.622  65.576  1.00  0.00    -0.340 C  
HETATM    5  O   UNL     1     -10.286  14.162  64.368  1.00  0.00    -0.646 OA 
HETATM    6  H   UNL     1      -9.397  14.497  64.335  1.00  0.00     0.000 HD 
BRANCH   4   7
HETATM    7  C   UNL     1     -10.882  16.159  65.655  1.00  0.00    -0.238 C  
HETATM    8  H   UNL     1     -10.925  17.647  64.373  1.00  0.00     0.000 HD 
HETATM    9  O   UNL     1     -10.949  16.699  64.325  1.00  0.00    -0.888 OA 
BRANCH   7  10
HETATM   10  C   UNL     1      -9.618  16.653  66.390  1.00  0.00    -0.285 C  
HETATM   11  C   UNL     1      -9.959  17.096  67.802  1.00  0.00    -0.290 C  
HETATM   12  O   UNL     1      -8.974  17.742  65.735  1.00  0.00    -0.509 OA 
HETATM   13  O   UNL     1     -11.074  16.986  68.311  1.00  0.00    -0.337 OA 
HETATM   14  H   UNL     1      -8.196  18.046  66.188  1.00  0.00     0.000 HD 
ENDBRANCH   7  10
ENDBRANCH   4   7
ENDBRANCH   2   4
TORSDOF 3
ENDMDL
MODEL       39
REMARK 921   NORMALIZED FREE ENERGY PREDICTED BY IDOCK:   -3.50 KCAL/MOL
REMARK 922        TOTAL FREE ENERGY PREDICTED BY IDOCK:   -4.74 KCAL/MOL
REMARK 923 INTER-LIGAND FREE ENERGY PREDICTED BY IDOCK:   -4.35 KCAL/MOL
REMARK 924 INTRA-LIGAND FREE ENERGY PREDICTED BY IDOCK:   -0.39 KCAL/MOL
REMARK 927      BINDING AFFINITY PREDICTED BY RF-SCORE:    0.00 PKD
ROOT
HETATM    1  O   UNL     1     -11.828  11.305  67.692  1.00  0.00    -0.614 OA 
HETATM    2  C   UNL     1     -11.120  11.559  66.475  1.00  0.00    -0.282 C  
HETATM    3  H   UNL     1     -12.331  10.507  67.581  1.00  0.00     0.000 HD 
ENDROOT
BRANCH   2   4
HETATM    4  C   UNL     1     -10.310  12.846  66.655  1.00  0.00    -0.251 C  
HETATM    5  O   UNL     1      -9.222  12.856  65.711  1.00  0.00    -0.450 OA 
HETATM    6  H   UNL     1      -8.720  13.655  65.822  1.00  0.00     0.000 HD 
BRANCH   4   7
HETATM    7  C   UNL     1     -11.183  14.103  66.486  1.00  0.00    -0.330 C  
HETATM    8  H   UNL     1     -12.719  14.899  67.417  1.00  0.00     0.000 HD 
HETATM    9  O   UNL     1     -12.180  14.124  67.521  1.00  0.00    -0.370 OA 
BRANCH   7  10
HETATM   10  C   UNL     1     -11.835  14.151  65.087  1.00  0.00    -0.372 C  
HETATM   11  C   UNL     1     -11.567  15.487  64.418  1.00  0.00    -0.258 C  
HETATM   12  O   UNL     1     -13.246  13.954  65.116  1.00  0.00    -0.768 OA 
HETATM   13  O   UNL     1     -10.850  16.367  64.892  1.00  0.00    -0.655 OA 
HETATM   14  H   UNL     1     -13.647  13.984  64.256  1.00  0.00     0.000 HD 
ENDBRANCH   7  10
ENDBRANCH   4   7
ENDBRANCH   2   4
TORSDOF 3
ENDMDL
MODEL       40
REMARK 921   NORMALIZED FREE ENERGY PREDICTED BY IDOCK:   -3.50 KCAL/MOL
REMARK 922        TOTAL FREE ENERGY PREDICTED BY IDOCK:   -4.74 KCAL/MOL
REMARK 923 INTER-LIGAND FREE ENERGY PREDICTED BY IDOCK:   -4.62 KCAL/MOL
REMARK 924 INTRA-LIGAND FREE ENERGY PREDICTED BY IDOCK:   -0.12 KCAL/MOL
REMARK 927      BINDING AFFINITY PREDICTED BY RF-SCORE:    0.00 PKD
ROOT
HETATM    1  O   UNL     1     -11.973  16.317  63.726  1.00  0.00    -1.409 OA 
HETATM    2  C   UNL     1     -12.010  15.110  64.493  1.00  0.00    -0.319 C  
HETATM    3  H   UNL     1     -12.714  16.313  63.133  1.00  0.00     0.000 HD 
ENDROOT
BRANCH   2   4
HETATM    4  C   UNL     1     -10.814  15.117  65.450  1.00  0.00    -0.381 C  
HETATM    5  O   UNL     1     -10.280  16.452  65.531  1.00  0.00    -0.496 OA 
HETATM    6  H   UNL     1      -9.538  16.456  66.125  1.00  0.00     0.000 HD 
BRANCH   4   7
HETATM    7  C   UNL     1     -11.194  14.602  66.850  1.00  0.00    -0.343 C  
HETATM    8  H   UNL     1     -12.747  13.712  67.661  1.00  0.00     0.000 HD 
HETATM    9  O   UNL     1     -12.512  14.030  66.797  1.00  0.00    -0.391 OA 
BRANCH   7  10
HETATM   10  C   UNL     1     -11.121  15.728  67.904  1.00  0.00    -0.326 C  
HETATM   11  C   UNL     1      -9.888  15.567  68.774  1.00  0.00    -0.217 C  
HETATM   12  O   UNL     1     -12.258  15.772  68.762  1.00  0.00    -0.560 OA 
HETATM   13  O   UNL     1      -9.024  14.709  68.597  1.00  0.00    -0.179 OA 
HETATM   14  H   UNL     1     -12.213  16.465  69.410  1.00  0.00     0.000 HD 
ENDBRANCH   7  10
ENDBRANCH   4   7
ENDBRANCH   2   4
TORSDOF 3
ENDMDL
MODEL       41
REMARK 921   NORMALIZED FREE ENERGY PREDICTED BY IDOCK:   -3.49 KCAL/MOL
REMARK 922        TOTAL FREE ENERGY PREDICTED BY IDOCK:   -4.73 KCAL/MOL
REMARK 923 INTER-LIGAND FREE ENERGY PREDICTED BY IDOCK:   -4.56 KCAL/MOL
REMARK 924 INTRA-LIGAND FREE ENERGY PREDICTED BY IDOCK:   -0.17 KCAL/MOL
REMARK 927      BINDING AFFINITY PREDICTED BY RF-SCORE:    0.00 PKD
ROOT
HETATM    1  O   UNL     1     -11.205  14.785  67.974  1.00  0.00    -0.274 OA 
HETATM    2  C   UNL     1     -12.027  13.956  67.147  1.00  0.00    -0.420 C  
HETATM    3  H   UNL     1     -11.624  15.634  68.050  1.00  0.00     0.000 HD 
ENDROOT
BRANCH   2   4
HETATM    4  C   UNL     1     -11.351  12.587  67.023  1.00  0.00    -0.328 C  
HETATM    5  O   UNL     1     -11.980  11.664  67.932  1.00  0.00    -0.599 OA 
HETATM    6  H   UNL     1     -11.561  10.815  67.855  1.00  0.00     0.000 HD 
BRANCH   4   7
HETATM    7  C   UNL     1     -11.407  12.047  65.582  1.00  0.00    -0.329 C  
HETATM    8  H   UNL     1     -10.381  10.761  64.508  1.00  0.00     0.000 HD 
HETATM    9  O   UNL     1     -10.347  11.094  65.397  1.00  0.00    -0.255 OA 
BRANCH   7  10
HETATM   10  C   UNL     1     -11.311  13.190  64.549  1.00  0.00    -0.349 C  
HETATM   11  C   UNL     1     -12.274  12.954  63.400  1.00  0.00    -0.490 C  
HETATM   12  O   UNL     1     -10.005  13.344  63.999  1.00  0.00    -0.764 OA 
HETATM   13  O   UNL     1     -13.081  12.027  63.353  1.00  0.00    -0.747 OA 
HETATM   14  H   UNL     1      -9.946  14.047  63.363  1.00  0.00     0.000 HD 
ENDBRANCH   7  10
ENDBRANCH   4   7
ENDBRANCH   2   4
TORSDOF 3
ENDMDL
MODEL       42
REMARK 921   NORMALIZED FREE ENERGY PREDICTED BY IDOCK:   -3.49 KCAL/MOL
REMARK 922        TOTAL FREE ENERGY PREDICTED BY IDOCK:   -4.72 KCAL/MOL
REMARK 923 INTER-LIGAND FREE ENERGY PREDICTED BY IDOCK:   -4.41 KCAL/MOL
REMARK 924 INTRA-LIGAND FREE ENERGY PREDICTED BY IDOCK:   -0.31 KCAL/MOL
REMARK 927      BINDING AFFINITY PREDICTED BY RF-SCORE:    0.00 PKD
ROOT
HETATM    1  O   UNL     1     -10.005  16.799  68.065  1.00  0.00    -0.256 OA 
HETATM    2  C   UNL     1     -11.188  16.105  67.658  1.00  0.00    -0.147 C  
HETATM    3  H   UNL     1     -10.267  17.570  68.554  1.00  0.00     0.000 HD 
ENDROOT
BRANCH   2   4
HETATM    4  C   UNL     1     -10.764  14.862  66.869  1.00  0.00    -0.308 C  
HETATM    5  O   UNL     1     -11.762  13.837  67.030  1.00  0.00    -0.347 OA 
HETATM    6  H   UNL     1     -11.500  13.066  66.541  1.00  0.00     0.000 HD 
BRANCH   4   7
HETATM    7  C   UNL     1     -10.547  15.174  65.378  1.00  0.00    -0.391 C  
HETATM    8  H   UNL     1      -9.778  16.651  64.335  1.00  0.00     0.000 HD 
HETATM    9  O   UNL     1      -9.912  16.458  65.255  1.00  0.00    -0.519 OA 
BRANCH   7  10
HETATM   10  C   UNL     1     -11.876  15.136  64.595  1.00  0.00    -0.332 C  
HETATM   11  C   UNL     1     -12.034  13.812  63.871  1.00  0.00    -0.371 C  
HETATM   12  O   UNL     1     -11.992  16.178  63.629  1.00  0.00    -1.375 OA 
HETATM   13  O   UNL     1     -11.249  12.870  63.975  1.00  0.00    -0.367 OA 
HETATM   14  H   UNL     1     -12.810  16.154  63.147  1.00  0.00     0.000 HD 
ENDBRANCH   7  10
ENDBRANCH   4   7
ENDBRANCH   2   4
TORSDOF 3
ENDMDL
MODEL       43
REMARK 921   NORMALIZED FREE ENERGY PREDICTED BY IDOCK:   -3.46 KCAL/MOL
REMARK 922        TOTAL FREE ENERGY PREDICTED BY IDOCK:   -4.70 KCAL/MOL
REMARK 923 INTER-LIGAND FREE ENERGY PREDICTED BY IDOCK:   -4.98 KCAL/MOL
REMARK 924 INTRA-LIGAND FREE ENERGY PREDICTED BY IDOCK:    0.28 KCAL/MOL
REMARK 927      BINDING AFFINITY PREDICTED BY RF-SCORE:    0.00 PKD
ROOT
HETATM    1  O   UNL     1     -11.583  16.234  63.737  1.00  0.00    -1.539 OA 
HETATM    2  C   UNL     1     -10.926  16.362  65.002  1.00  0.00    -0.252 C  
HETATM    3  H   UNL     1     -11.916  17.088  63.490  1.00  0.00     0.000 HD 
ENDROOT
BRANCH   2   4
HETATM    4  C   UNL     1     -10.389  14.984  65.402  1.00  0.00    -0.383 C  
HETATM    5  O   UNL     1      -9.027  15.119  65.848  1.00  0.00    -0.463 OA 
HETATM    6  H   UNL     1      -8.693  14.265  66.096  1.00  0.00     0.000 HD 
BRANCH   4   7
HETATM    7  C   UNL     1     -11.252  14.326  66.494  1.00  0.00    -0.332 C  
HETATM    8  H   UNL     1     -10.933  13.503  68.250  1.00  0.00     0.000 HD 
HETATM    9  O   UNL     1     -10.401  13.909  67.575  1.00  0.00    -0.242 OA 
BRANCH   7  10
HETATM   10  C   UNL     1     -12.060  13.137  65.933  1.00  0.00    -0.444 C  
HETATM   11  C   UNL     1     -11.140  12.138  65.255  1.00  0.00    -0.321 C  
HETATM   12  O   UNL     1     -13.054  13.525  64.989  1.00  0.00    -0.736 OA 
HETATM   13  O   UNL     1      -9.913  12.226  65.241  1.00  0.00    -0.262 OA 
HETATM   14  H   UNL     1     -13.550  12.793  64.644  1.00  0.00     0.000 HD 
ENDBRANCH   7  10
ENDBRANCH   4   7
ENDBRANCH   2   4
TORSDOF 3
ENDMDL
MODEL       44
REMARK 921   NORMALIZED FREE ENERGY PREDICTED BY IDOCK:   -3.45 KCAL/MOL
REMARK 922        TOTAL FREE ENERGY PREDICTED BY IDOCK:   -4.68 KCAL/MOL
REMARK 923 INTER-LIGAND FREE ENERGY PREDICTED BY IDOCK:   -4.19 KCAL/MOL
REMARK 924 INTRA-LIGAND FREE ENERGY PREDICTED BY IDOCK:   -0.49 KCAL/MOL
REMARK 927      BINDING AFFINITY PREDICTED BY RF-SCORE:    0.00 PKD
ROOT
HETATM    1  O   UNL     1      -8.251  10.946  64.439  1.00  0.00    -0.369 OA 
HETATM    2  C   UNL     1      -9.661  10.909  64.679  1.00  0.00    -0.257 C  
HETATM    3  H   UNL     1      -7.834  10.331  65.031  1.00  0.00     0.000 HD 
ENDROOT
BRANCH   2   4
HETATM    4  C   UNL     1     -10.333  11.902  63.724  1.00  0.00    -0.415 C  
HETATM    5  O   UNL     1     -11.578  11.345  63.263  1.00  0.00    -0.827 OA 
HETATM    6  H   UNL     1     -11.995  11.960  62.671  1.00  0.00     0.000 HD 
BRANCH   4   7
HETATM    7  C   UNL     1     -10.567  13.270  64.389  1.00  0.00    -0.419 C  
HETATM    8  H   UNL     1     -10.126  14.104  66.112  1.00  0.00     0.000 HD 
HETATM    9  O   UNL     1      -9.981  13.260  65.702  1.00  0.00    -0.280 OA 
BRANCH   7  10
HETATM   10  C   UNL     1     -12.070  13.614  64.456  1.00  0.00    -0.419 C  
HETATM   11  C   UNL     1     -12.274  15.117  64.507  1.00  0.00    -0.267 C  
HETATM   12  O   UNL     1     -12.729  13.045  65.585  1.00  0.00    -0.506 OA 
HETATM   13  O   UNL     1     -11.366  15.941  64.414  1.00  0.00    -0.435 OA 
HETATM   14  H   UNL     1     -13.654  13.257  65.626  1.00  0.00     0.000 HD 
ENDBRANCH   7  10
ENDBRANCH   4   7
ENDBRANCH   2   4
TORSDOF 3
ENDMDL
MODEL       45
REMARK 921   NORMALIZED FREE ENERGY PREDICTED BY IDOCK:   -3.40 KCAL/MOL
REMARK 922        TOTAL FREE ENERGY PREDICTED BY IDOCK:   -4.63 KCAL/MOL
REMARK 923 INTER-LIGAND FREE ENERGY PREDICTED BY IDOCK:   -4.19 KCAL/MOL
REMARK 924 INTRA-LIGAND FREE ENERGY PREDICTED BY IDOCK:   -0.44 KCAL/MOL
REMARK 927      BINDING AFFINITY PREDICTED BY RF-SCORE:    0.00 PKD
ROOT
HETATM    1  O   UNL     1     -12.952  10.132  70.154  1.00  0.00    -0.580 OA 
HETATM    2  C   UNL     1     -13.068  10.470  71.539  1.00  0.00    -0.430 C  
HETATM    3  H   UNL     1     -13.030  10.932  69.647  1.00  0.00     0.000 HD 
ENDROOT
BRANCH   2   4
HETATM    4  C   UNL     1     -12.941   9.180  72.356  1.00  0.00    -0.398 C  
HETATM    5  O   UNL     1     -14.108   9.030  73.187  1.00  0.00    -1.130 OA 
HETATM    6  H   UNL     1     -14.030   8.230  73.693  1.00  0.00     0.000 HD 
BRANCH   4   7
HETATM    7  C   UNL     1     -12.757   7.945  71.456  1.00  0.00    -0.322 C  
HETATM    8  H   UNL     1     -13.716   6.259  71.146  1.00  0.00     0.000 HD 
HETATM    9  O   UNL     1     -13.830   7.022  71.701  1.00  0.00    -0.346 OA 
BRANCH   7  10
HETATM   10  C   UNL     1     -11.385   7.277  71.692  1.00  0.00    -0.254 C  
HETATM   11  C   UNL     1     -10.473   7.490  70.498  1.00  0.00    -0.219 C  
HETATM   12  O   UNL     1     -11.475   5.874  71.927  1.00  0.00    -0.279 OA 
HETATM   13  O   UNL     1     -10.763   8.181  69.521  1.00  0.00    -0.227 OA 
HETATM   14  H   UNL     1     -10.632   5.463  72.072  1.00  0.00     0.000 HD 
ENDBRANCH   7  10
ENDBRANCH   4   7
ENDBRANCH   2   4
TORSDOF 3
ENDMDL
MODEL       46
REMARK 921   NORMALIZED FREE ENERGY PREDICTED BY IDOCK:   -3.40 KCAL/MOL
REMARK 922        TOTAL FREE ENERGY PREDICTED BY IDOCK:   -4.62 KCAL/MOL
REMARK 923 INTER-LIGAND FREE ENERGY PREDICTED BY IDOCK:   -4.40 KCAL/MOL
REMARK 924 INTRA-LIGAND FREE ENERGY PREDICTED BY IDOCK:   -0.22 KCAL/MOL
REMARK 927      BINDING AFFINITY PREDICTED BY RF-SCORE:    0.00 PKD
ROOT
HETATM    1  O   UNL     1      -8.940  15.586  67.637  1.00  0.00    -0.180 OA 
HETATM    2  C   UNL     1      -8.937  16.201  66.345  1.00  0.00    -0.318 C  
HETATM    3  H   UNL     1      -8.039  15.404  67.879  1.00  0.00     0.000 HD 
ENDROOT
BRANCH   2   4
HETATM    4  C   UNL     1     -10.389  16.495  65.954  1.00  0.00    -0.350 C  
HETATM    5  O   UNL     1     -10.489  17.856  65.494  1.00  0.00    -0.650 OA 
HETATM    6  H   UNL     1     -11.389  18.039  65.252  1.00  0.00     0.000 HD 
BRANCH   4   7
HETATM    7  C   UNL     1     -10.903  15.522  64.877  1.00  0.00    -0.427 C  
HETATM    8  H   UNL     1     -11.893  15.671  63.187  1.00  0.00     0.000 HD 
HETATM    9  O   UNL     1     -11.576  16.271  63.852  1.00  0.00    -0.987 OA 
BRANCH   7  10
HETATM   10  C   UNL     1     -11.834  14.452  65.484  1.00  0.00    -0.357 C  
HETATM   11  C   UNL     1     -11.135  13.106  65.546  1.00  0.00    -0.278 C  
HETATM   12  O   UNL     1     -13.046  14.280  64.753  1.00  0.00    -0.599 OA 
HETATM   13  O   UNL     1      -9.957  12.924  65.240  1.00  0.00    -0.258 OA 
HETATM   14  H   UNL     1     -13.619  13.621  65.127  1.00  0.00     0.000 HD 
ENDBRANCH   7  10
ENDBRANCH   4   7
ENDBRANCH   2   4
TORSDOF 3
ENDMDL
MODEL       47
REMARK 921   NORMALIZED FREE ENERGY PREDICTED BY IDOCK:   -3.39 KCAL/MOL
REMARK 922        TOTAL FREE ENERGY PREDICTED BY IDOCK:   -4.61 KCAL/MOL
REMARK 923 INTER-LIGAND FREE ENERGY PREDICTED BY IDOCK:   -4.92 KCAL/MOL
REMARK 924 INTRA-LIGAND FREE ENERGY PREDICTED BY IDOCK:    0.31 KCAL/MOL
REMARK 927      BINDING AFFINITY PREDICTED BY RF-SCORE:    0.00 PKD
ROOT
HETATM    1  O   UNL     1     -11.137  16.167  64.084  1.00  0.00    -1.113 OA 
HETATM    2  C   UNL     1     -12.421  15.536  64.110  1.00  0.00     0.191 C  
HETATM    3  H   UNL     1     -11.210  16.963  63.569  1.00  0.00     0.000 HD 
ENDROOT
BRANCH   2   4
HETATM    4  C   UNL     1     -12.303  14.253  64.939  1.00  0.00    -0.425 C  
HETATM    5  O   UNL     1     -13.444  14.146  65.811  1.00  0.00    -0.670 OA 
HETATM    6  H   UNL     1     -13.372  13.351  66.325  1.00  0.00     0.000 HD 
BRANCH   4   7
HETATM    7  C   UNL     1     -12.185  13.002  64.049  1.00  0.00    -0.417 C  
HETATM    8  H   UNL     1     -13.306  11.441  63.640  1.00  0.00     0.000 HD 
HETATM    9  O   UNL     1     -13.378  12.213  64.189  1.00  0.00    -0.750 OA 
BRANCH   7  10
HETATM   10  C   UNL     1     -10.930  12.176  64.402  1.00  0.00    -0.326 C  
HETATM   11  C   UNL     1     -11.025  11.636  65.818  1.00  0.00    -0.274 C  
HETATM   12  O   UNL     1      -9.718  12.920  64.299  1.00  0.00    -0.590 OA 
HETATM   13  O   UNL     1     -12.010  11.767  66.542  1.00  0.00    -0.545 OA 
HETATM   14  H   UNL     1      -8.946  12.411  64.516  1.00  0.00     0.000 HD 
ENDBRANCH   7  10
ENDBRANCH   4   7
ENDBRANCH   2   4
TORSDOF 3
ENDMDL
MODEL       48
REMARK 921   NORMALIZED FREE ENERGY PREDICTED BY IDOCK:   -3.39 KCAL/MOL
REMARK 922        TOTAL FREE ENERGY PREDICTED BY IDOCK:   -4.61 KCAL/MOL
REMARK 923 INTER-LIGAND FREE ENERGY PREDICTED BY IDOCK:   -4.40 KCAL/MOL
REMARK 924 INTRA-LIGAND FREE ENERGY PREDICTED BY IDOCK:   -0.21 KCAL/MOL
REMARK 927      BINDING AFFINITY PREDICTED BY RF-SCORE:    0.00 PKD
ROOT
HETATM    1  O   UNL     1     -10.939   7.360  69.331  1.00  0.00    -0.369 OA 
HETATM    2  C   UNL     1     -11.500   6.342  70.165  1.00  0.00    -0.417 C  
HETATM    3  H   UNL     1     -10.472   6.936  68.622  1.00  0.00     0.000 HD 
ENDROOT
BRANCH   2   4
HETATM    4  C   UNL     1     -12.254   7.026  71.310  1.00  0.00    -0.377 C  
HETATM    5  O   UNL     1     -11.792   6.493  72.566  1.00  0.00    -0.458 OA 
HETATM    6  H   UNL     1     -12.260   6.916  73.276  1.00  0.00     0.000 HD 
BRANCH   4   7
HETATM    7  C   UNL     1     -12.084   8.555  71.278  1.00  0.00    -0.286 C  
HETATM    8  H   UNL     1     -10.845   9.862  72.064  1.00  0.00     0.000 HD 
HETATM    9  O   UNL     1     -10.950   8.918  72.083  1.00  0.00    -0.362 OA 
BRANCH   7  10
HETATM   10  C   UNL     1     -13.361   9.274  71.763  1.00  0.00    -0.409 C  
HETATM   11  C   UNL     1     -13.210  10.779  71.634  1.00  0.00    -0.383 C  
HETATM   12  O   UNL     1     -13.691   8.984  73.119  1.00  0.00    -1.013 OA 
HETATM   13  O   UNL     1     -12.237  11.335  71.125  1.00  0.00    -0.321 OA 
HETATM   14  H   UNL     1     -14.477   9.427  73.417  1.00  0.00     0.000 HD 
ENDBRANCH   7  10
ENDBRANCH   4   7
ENDBRANCH   2   4
TORSDOF 3
ENDMDL
MODEL       49
REMARK 921   NORMALIZED FREE ENERGY PREDICTED BY IDOCK:   -3.36 KCAL/MOL
REMARK 922        TOTAL FREE ENERGY PREDICTED BY IDOCK:   -4.57 KCAL/MOL
REMARK 923 INTER-LIGAND FREE ENERGY PREDICTED BY IDOCK:   -4.11 KCAL/MOL
REMARK 924 INTRA-LIGAND FREE ENERGY PREDICTED BY IDOCK:   -0.46 KCAL/MOL
REMARK 927      BINDING AFFINITY PREDICTED BY RF-SCORE:    0.00 PKD
ROOT
HETATM    1  O   UNL     1      -9.647  14.999  69.916  1.00  0.00    -0.455 OA 
HETATM    2  C   UNL     1      -9.494  15.274  68.521  1.00  0.00    -0.200 C  
HETATM    3  H   UNL     1      -9.460  15.796  70.397  1.00  0.00     0.000 HD 
ENDROOT
BRANCH   2   4
HETATM    4  C   UNL     1      -9.796  13.988  67.745  1.00  0.00    -0.232 C  
HETATM    5  O   UNL     1      -9.539  12.853  68.593  1.00  0.00    -0.380 OA 
HETATM    6  H   UNL     1      -9.726  12.055  68.112  1.00  0.00     0.000 HD 
BRANCH   4   7
HETATM    7  C   UNL     1     -11.244  13.957  67.225  1.00  0.00    -0.312 C  
HETATM    8  H   UNL     1     -13.038  13.926  68.025  1.00  0.00     0.000 HD 
HETATM    9  O   UNL     1     -12.144  13.945  68.345  1.00  0.00    -0.365 OA 
BRANCH   7  10
HETATM   10  C   UNL     1     -11.487  12.741  66.305  1.00  0.00    -0.354 C  
HETATM   11  C   UNL     1     -12.535  13.064  65.256  1.00  0.00    -0.499 C  
HETATM   12  O   UNL     1     -11.917  11.579  67.009  1.00  0.00    -0.556 OA 
HETATM   13  O   UNL     1     -13.048  14.173  65.109  1.00  0.00    -0.757 OA 
HETATM   14  H   UNL     1     -12.066  10.831  66.444  1.00  0.00     0.000 HD 
ENDBRANCH   7  10
ENDBRANCH   4   7
ENDBRANCH   2   4
TORSDOF 3
ENDMDL
MODEL       50
REMARK 921   NORMALIZED FREE ENERGY PREDICTED BY IDOCK:   -3.35 KCAL/MOL
REMARK 922        TOTAL FREE ENERGY PREDICTED BY IDOCK:   -4.56 KCAL/MOL
REMARK 923 INTER-LIGAND FREE ENERGY PREDICTED BY IDOCK:   -4.14 KCAL/MOL
REMARK 924 INTRA-LIGAND FREE ENERGY PREDICTED BY IDOCK:   -0.43 KCAL/MOL
REMARK 927      BINDING AFFINITY PREDICTED BY RF-SCORE:    0.00 PKD
ROOT
HETATM    1  O   UNL     1     -11.035  16.987  67.931  1.00  0.00    -0.337 OA 
HETATM    2  C   UNL     1      -9.770  17.195  67.296  1.00  0.00    -0.254 C  
HETATM    3  H   UNL     1     -11.098  17.584  68.667  1.00  0.00     0.000 HD 
ENDROOT
BRANCH   2   4
HETATM    4  C   UNL     1      -9.669  16.231  66.109  1.00  0.00    -0.329 C  
HETATM    5  O   UNL     1      -8.425  15.510  66.191  1.00  0.00    -0.395 OA 
HETATM    6  H   UNL     1      -8.362  14.912  65.455  1.00  0.00     0.000 HD 
BRANCH   4   7
HETATM    7  C   UNL     1     -10.857  15.254  66.059  1.00  0.00    -0.330 C  
HETATM    8  H   UNL     1     -11.491  13.734  67.130  1.00  0.00     0.000 HD 
HETATM    9  O   UNL     1     -10.757  14.337  67.161  1.00  0.00    -0.277 OA 
BRANCH   7  10
HETATM   10  C   UNL     1     -10.909  14.500  64.713  1.00  0.00    -0.393 C  
HETATM   11  C   UNL     1     -12.266  13.846  64.518  1.00  0.00    -0.417 C  
HETATM   12  O   UNL     1      -9.915  13.485  64.597  1.00  0.00    -0.621 OA 
HETATM   13  O   UNL     1     -13.216  13.982  65.288  1.00  0.00    -0.782 OA 
HETATM   14  H   UNL     1      -9.948  13.021  63.769  1.00  0.00     0.000 HD 
ENDBRANCH   7  10
ENDBRANCH   4   7
ENDBRANCH   2   4
TORSDOF 3
ENDMDL
MODEL       51
REMARK 921   NORMALIZED FREE ENERGY PREDICTED BY IDOCK:   -3.34 KCAL/MOL
REMARK 922        TOTAL FREE ENERGY PREDICTED BY IDOCK:   -4.55 KCAL/MOL
REMARK 923 INTER-LIGAND FREE ENERGY PREDICTED BY IDOCK:   -4.44 KCAL/MOL
REMARK 924 INTRA-LIGAND FREE ENERGY PREDICTED BY IDOCK:   -0.11 KCAL/MOL
REMARK 927      BINDING AFFINITY PREDICTED BY RF-SCORE:    0.00 PKD
ROOT
HETATM    1  O   UNL     1      -9.667  16.415  68.901  1.00  0.00    -0.237 OA 
HETATM    2  C   UNL     1     -10.814  16.414  69.756  1.00  0.00    -0.343 C  
HETATM    3  H   UNL     1      -9.303  17.292  68.896  1.00  0.00     0.000 HD 
ENDROOT
BRANCH   2   4
HETATM    4  C   UNL     1     -11.401  14.999  69.764  1.00  0.00    -0.283 C  
HETATM    5  O   UNL     1     -10.360  14.053  69.456  1.00  0.00    -0.428 OA 
HETATM    6  H   UNL     1     -10.724  13.175  69.460  1.00  0.00     0.000 HD 
BRANCH   4   7
HETATM    7  C   UNL     1     -12.059  14.657  71.113  1.00  0.00    -0.342 C  
HETATM    8  H   UNL     1     -13.056  13.139  71.862  1.00  0.00     0.000 HD 
HETATM    9  O   UNL     1     -12.650  13.350  71.029  1.00  0.00    -0.355 OA 
BRANCH   7  10
HETATM   10  C   UNL     1     -13.109  15.716  71.512  1.00  0.00    -0.485 C  
HETATM   11  C   UNL     1     -13.291  15.749  73.019  1.00  0.00    -0.583 C  
HETATM   12  O   UNL     1     -14.388  15.491  70.923  1.00  0.00    -0.852 OA 
HETATM   13  O   UNL     1     -12.622  15.086  73.810  1.00  0.00    -0.533 OA 
HETATM   14  H   UNL     1     -15.033  16.143  71.169  1.00  0.00     0.000 HD 
ENDBRANCH   7  10
ENDBRANCH   4   7
ENDBRANCH   2   4
TORSDOF 3
ENDMDL
MODEL       52
REMARK 921   NORMALIZED FREE ENERGY PREDICTED BY IDOCK:   -3.34 KCAL/MOL
REMARK 922        TOTAL FREE ENERGY PREDICTED BY IDOCK:   -4.55 KCAL/MOL
REMARK 923 INTER-LIGAND FREE ENERGY PREDICTED BY IDOCK:   -4.25 KCAL/MOL
REMARK 924 INTRA-LIGAND FREE ENERGY PREDICTED BY IDOCK:   -0.30 KCAL/MOL
REMARK 927      BINDING AFFINITY PREDICTED BY RF-SCORE:    0.00 PKD
ROOT
HETATM    1  O   UNL     1     -14.201   8.910  73.351  1.00  0.00    -1.241 OA 
HETATM    2  C   UNL     1     -13.439   9.124  72.159  1.00  0.00    -0.469 C  
HETATM    3  H   UNL     1     -15.039   9.345  73.247  1.00  0.00     0.000 HD 
ENDROOT
BRANCH   2   4
HETATM    4  C   UNL     1     -12.086   8.423  72.326  1.00  0.00    -0.392 C  
HETATM    5  O   UNL     1     -12.305   7.011  72.510  1.00  0.00    -0.498 OA 
HETATM    6  H   UNL     1     -11.466   6.577  72.613  1.00  0.00     0.000 HD 
BRANCH   4   7
HETATM    7  C   UNL     1     -11.157   8.674  71.125  1.00  0.00    -0.266 C  
HETATM    8  H   UNL     1     -11.200   9.785  69.505  1.00  0.00     0.000 HD 
HETATM    9  O   UNL     1     -11.774   9.629  70.247  1.00  0.00    -0.240 OA 
BRANCH   7  10
HETATM   10  C   UNL     1     -10.835   7.362  70.378  1.00  0.00    -0.243 C  
HETATM   11  C   UNL     1      -9.566   7.510  69.559  1.00  0.00    -0.156 C  
HETATM   12  O   UNL     1     -11.876   6.944  69.499  1.00  0.00    -0.602 OA 
HETATM   13  O   UNL     1      -8.849   8.510  69.569  1.00  0.00    -0.138 OA 
HETATM   14  H   UNL     1     -11.677   6.137  69.040  1.00  0.00     0.000 HD 
ENDBRANCH   7  10
ENDBRANCH   4   7
ENDBRANCH   2   4
TORSDOF 3
ENDMDL
MODEL       53
REMARK 921   NORMALIZED FREE ENERGY PREDICTED BY IDOCK:   -3.32 KCAL/MOL
REMARK 922        TOTAL FREE ENERGY PREDICTED BY IDOCK:   -4.53 KCAL/MOL
REMARK 923 INTER-LIGAND FREE ENERGY PREDICTED BY IDOCK:   -4.12 KCAL/MOL
REMARK 924 INTRA-LIGAND FREE ENERGY PREDICTED BY IDOCK:   -0.41 KCAL/MOL
REMARK 927      BINDING AFFINITY PREDICTED BY RF-SCORE:    0.00 PKD
ROOT
HETATM    1  O   UNL     1     -12.352  14.047  63.529  1.00  0.00    -1.032 OA 
HETATM    2  C   UNL     1     -12.477  12.623  63.569  1.00  0.00    -0.418 C  
HETATM    3  H   UNL     1     -13.190  14.410  63.267  1.00  0.00     0.000 HD 
ENDROOT
BRANCH   2   4
HETATM    4  C   UNL     1     -11.125  12.038  63.991  1.00  0.00    -0.386 C  
HETATM    5  O   UNL     1     -10.072  12.919  63.559  1.00  0.00    -0.661 OA 
HETATM    6  H   UNL     1      -9.234  12.557  63.820  1.00  0.00     0.000 HD 
BRANCH   4   7
HETATM    7  C   UNL     1     -11.048  11.809  65.512  1.00  0.00    -0.280 C  
HETATM    8  H   UNL     1     -10.818  12.934  67.106  1.00  0.00     0.000 HD 
HETATM    9  O   UNL     1     -10.866  13.075  66.167  1.00  0.00    -0.276 OA 
BRANCH   7  10
HETATM   10  C   UNL     1      -9.913  10.828  65.876  1.00  0.00    -0.250 C  
HETATM   11  C   UNL     1     -10.182  10.174  67.219  1.00  0.00    -0.222 C  
HETATM   12  O   UNL     1      -8.631  11.448  65.942  1.00  0.00    -0.301 OA 
HETATM   13  O   UNL     1     -11.210  10.339  67.875  1.00  0.00    -0.301 OA 
HETATM   14  H   UNL     1      -7.934  10.844  66.166  1.00  0.00     0.000 HD 
ENDBRANCH   7  10
ENDBRANCH   4   7
ENDBRANCH   2   4
TORSDOF 3
ENDMDL
MODEL       54
REMARK 921   NORMALIZED FREE ENERGY PREDICTED BY IDOCK:   -3.32 KCAL/MOL
REMARK 922        TOTAL FREE ENERGY PREDICTED BY IDOCK:   -4.53 KCAL/MOL
REMARK 923 INTER-LIGAND FREE ENERGY PREDICTED BY IDOCK:   -5.08 KCAL/MOL
REMARK 924 INTRA-LIGAND FREE ENERGY PREDICTED BY IDOCK:    0.54 KCAL/MOL
REMARK 927      BINDING AFFINITY PREDICTED BY RF-SCORE:    0.00 PKD
ROOT
HETATM    1  O   UNL     1      -9.531  11.122  64.954  1.00  0.00    -0.217 OA 
HETATM    2  C   UNL     1     -10.020  11.133  63.609  1.00  0.00    -0.363 C  
HETATM    3  H   UNL     1      -8.811  10.505  65.001  1.00  0.00     0.000 HD 
ENDROOT
BRANCH   2   4
HETATM    4  C   UNL     1     -11.182  12.128  63.533  1.00  0.00    -0.458 C  
HETATM    5  O   UNL     1     -12.286  11.514  62.841  1.00  0.00    -0.958 OA 
HETATM    6  H   UNL     1     -13.007  12.131  62.794  1.00  0.00     0.000 HD 
BRANCH   4   7
HETATM    7  C   UNL     1     -11.620  12.610  64.928  1.00  0.00    -0.334 C  
HETATM    8  H   UNL     1     -13.326  12.922  65.851  1.00  0.00     0.000 HD 
HETATM    9  O   UNL     1     -13.055  12.626  64.990  1.00  0.00    -0.808 OA 
BRANCH   7  10
HETATM   10  C   UNL     1     -11.036  14.001  65.253  1.00  0.00    -0.334 C  
HETATM   11  C   UNL     1     -11.815  15.089  64.536  1.00  0.00    -0.371 C  
HETATM   12  O   UNL     1      -9.664  14.135  64.890  1.00  0.00    -0.538 OA 
HETATM   13  O   UNL     1     -12.827  14.888  63.866  1.00  0.00    -0.697 OA 
HETATM   14  H   UNL     1      -9.305  14.991  65.089  1.00  0.00     0.000 HD 
ENDBRANCH   7  10
ENDBRANCH   4   7
ENDBRANCH   2   4
TORSDOF 3
ENDMDL
MODEL       55
REMARK 921   NORMALIZED FREE ENERGY PREDICTED BY IDOCK:   -3.27 KCAL/MOL
REMARK 922        TOTAL FREE ENERGY PREDICTED BY IDOCK:   -4.47 KCAL/MOL
REMARK 923 INTER-LIGAND FREE ENERGY PREDICTED BY IDOCK:   -4.33 KCAL/MOL
REMARK 924 INTRA-LIGAND FREE ENERGY PREDICTED BY IDOCK:   -0.14 KCAL/MOL
REMARK 927      BINDING AFFINITY PREDICTED BY RF-SCORE:    0.00 PKD
ROOT
HETATM    1  O   UNL     1     -11.724  15.372  67.053  1.00  0.00    -0.127 OA 
HETATM    2  C   UNL     1     -11.027  14.931  65.884  1.00  0.00    -0.338 C  
HETATM    3  H   UNL     1     -12.024  14.604  67.526  1.00  0.00     0.000 HD 
ENDROOT
BRANCH   2   4
HETATM    4  C   UNL     1     -10.544  16.169  65.122  1.00  0.00    -0.343 C  
HETATM    5  O   UNL     1     -11.551  16.561  64.170  1.00  0.00    -1.301 OA 
HETATM    6  H   UNL     1     -11.252  17.329  63.697  1.00  0.00     0.000 HD 
BRANCH   4   7
HETATM    7  C   UNL     1     -10.214  17.336  66.070  1.00  0.00    -0.304 C  
HETATM    8  H   UNL     1     -10.227  19.297  65.965  1.00  0.00     0.000 HD 
HETATM    9  O   UNL     1     -10.431  18.577  65.380  1.00  0.00    -0.538 OA 
BRANCH   7  10
HETATM   10  C   UNL     1      -8.766  17.241  66.597  1.00  0.00    -0.257 C  
HETATM   11  C   UNL     1      -8.646  17.907  67.956  1.00  0.00    -0.256 C  
HETATM   12  O   UNL     1      -7.809  17.843  65.729  1.00  0.00    -0.542 OA 
HETATM   13  O   UNL     1      -9.596  18.374  68.583  1.00  0.00    -0.323 OA 
HETATM   14  H   UNL     1      -6.919  17.785  66.054  1.00  0.00     0.000 HD 
ENDBRANCH   7  10
ENDBRANCH   4   7
ENDBRANCH   2   4
TORSDOF 3
ENDMDL
MODEL       56
REMARK 921   NORMALIZED FREE ENERGY PREDICTED BY IDOCK:   -3.27 KCAL/MOL
REMARK 922        TOTAL FREE ENERGY PREDICTED BY IDOCK:   -4.47 KCAL/MOL
REMARK 923 INTER-LIGAND FREE ENERGY PREDICTED BY IDOCK:   -4.12 KCAL/MOL
REMARK 924 INTRA-LIGAND FREE ENERGY PREDICTED BY IDOCK:   -0.35 KCAL/MOL
REMARK 927      BINDING AFFINITY PREDICTED BY RF-SCORE:    0.00 PKD
ROOT
HETATM    1  O   UNL     1     -10.529  19.139  65.623  1.00  0.00    -0.534 OA 
HETATM    2  C   UNL     1     -10.597  18.750  66.998  1.00  0.00    -0.420 C  
HETATM    3  H   UNL     1     -10.970  18.475  65.106  1.00  0.00     0.000 HD 
ENDROOT
BRANCH   2   4
HETATM    4  C   UNL     1      -9.885  19.820  67.832  1.00  0.00    -0.404 C  
HETATM    5  O   UNL     1     -10.407  19.800  69.174  1.00  0.00    -0.628 OA 
HETATM    6  H   UNL     1      -9.966  20.463  69.691  1.00  0.00     0.000 HD 
BRANCH   4   7
HETATM    7  C   UNL     1      -8.359  19.618  67.844  1.00  0.00    -0.313 C  
HETATM    8  H   UNL     1      -6.946  19.555  69.209  1.00  0.00     0.000 HD 
HETATM    9  O   UNL     1      -7.888  19.680  69.201  1.00  0.00    -0.328 OA 
BRANCH   7  10
HETATM   10  C   UNL     1      -7.645  20.664  66.961  1.00  0.00    -0.275 C  
HETATM   11  C   UNL     1      -7.128  20.025  65.685  1.00  0.00    -0.315 C  
HETATM   12  O   UNL     1      -6.543  21.293  67.611  1.00  0.00    -0.423 OA 
HETATM   13  O   UNL     1      -7.336  18.855  65.365  1.00  0.00    -0.478 OA 
HETATM   14  H   UNL     1      -6.105  21.936  67.068  1.00  0.00     0.000 HD 
ENDBRANCH   7  10
ENDBRANCH   4   7
ENDBRANCH   2   4
TORSDOF 3
ENDMDL
MODEL       57
REMARK 921   NORMALIZED FREE ENERGY PREDICTED BY IDOCK:   -3.27 KCAL/MOL
REMARK 922        TOTAL FREE ENERGY PREDICTED BY IDOCK:   -4.46 KCAL/MOL
REMARK 923 INTER-LIGAND FREE ENERGY PREDICTED BY IDOCK:   -4.20 KCAL/MOL
REMARK 924 INTRA-LIGAND FREE ENERGY PREDICTED BY IDOCK:   -0.26 KCAL/MOL
REMARK 927      BINDING AFFINITY PREDICTED BY RF-SCORE:    0.00 PKD
ROOT
HETATM    1  O   UNL     1     -14.078   8.882  73.438  1.00  0.00    -1.256 OA 
HETATM    2  C   UNL     1     -14.198   8.674  72.028  1.00  0.00    -0.443 C  
HETATM    3  H   UNL     1     -14.679   8.290  73.876  1.00  0.00     0.000 HD 
ENDROOT
BRANCH   2   4
HETATM    4  C   UNL     1     -13.230   9.629  71.322  1.00  0.00    -0.355 C  
HETATM    5  O   UNL     1     -13.087  10.826  72.110  1.00  0.00    -0.527 OA 
HETATM    6  H   UNL     1     -12.486  11.418  71.672  1.00  0.00     0.000 HD 
BRANCH   4   7
HETATM    7  C   UNL     1     -11.857   8.977  71.075  1.00  0.00    -0.285 C  
HETATM    8  H   UNL     1     -10.219   8.682  72.118  1.00  0.00     0.000 HD 
HETATM    9  O   UNL     1     -11.066   9.084  72.270  1.00  0.00    -0.298 OA 
BRANCH   7  10
HETATM   10  C   UNL     1     -11.135   9.623  69.873  1.00  0.00    -0.235 C  
HETATM   11  C   UNL     1     -10.473   8.561  69.013  1.00  0.00    -0.200 C  
HETATM   12  O   UNL     1     -10.134  10.562  70.255  1.00  0.00    -0.390 OA 
HETATM   13  O   UNL     1     -10.581   7.350  69.205  1.00  0.00    -0.217 OA 
HETATM   14  H   UNL     1      -9.690  10.959  69.515  1.00  0.00     0.000 HD 
ENDBRANCH   7  10
ENDBRANCH   4   7
ENDBRANCH   2   4
TORSDOF 3
ENDMDL
MODEL       58
REMARK 921   NORMALIZED FREE ENERGY PREDICTED BY IDOCK:   -3.26 KCAL/MOL
REMARK 922        TOTAL FREE ENERGY PREDICTED BY IDOCK:   -4.46 KCAL/MOL
REMARK 923 INTER-LIGAND FREE ENERGY PREDICTED BY IDOCK:   -4.30 KCAL/MOL
REMARK 924 INTRA-LIGAND FREE ENERGY PREDICTED BY IDOCK:   -0.16 KCAL/MOL
REMARK 927      BINDING AFFINITY PREDICTED BY RF-SCORE:    0.00 PKD
ROOT
HETATM    1  O   UNL     1      -9.610  14.052  65.473  1.00  0.00    -0.521 OA 
HETATM    2  C   UNL     1     -10.763  14.891  65.362  1.00  0.00    -0.377 C  
HETATM    3  H   UNL     1      -9.905  13.161  65.620  1.00  0.00     0.000 HD 
ENDROOT
BRANCH   2   4
HETATM    4  C   UNL     1     -10.287  16.328  65.126  1.00  0.00    -0.123 C  
HETATM    5  O   UNL     1     -11.280  17.036  64.360  1.00  0.00    -1.167 OA 
HETATM    6  H   UNL     1     -10.985  17.927  64.214  1.00  0.00     0.000 HD 
BRANCH   4   7
HETATM    7  C   UNL     1     -10.001  17.063  66.448  1.00  0.00    -0.307 C  
HETATM    8  H   UNL     1     -10.639  16.947  68.303  1.00  0.00     0.000 HD 
HETATM    9  O   UNL     1     -10.815  16.494  67.487  1.00  0.00    -0.313 OA 
BRANCH   7  10
HETATM   10  C   UNL     1     -10.252  18.580  66.315  1.00  0.00    -0.418 C  
HETATM   11  C   UNL     1      -8.958  19.313  66.013  1.00  0.00    -0.114 C  
HETATM   12  O   UNL     1     -10.820  19.162  67.486  1.00  0.00    -0.473 OA 
HETATM   13  O   UNL     1      -7.879  18.756  65.812  1.00  0.00    -0.484 OA 
HETATM   14  H   UNL     1     -10.974  20.096  67.404  1.00  0.00     0.000 HD 
ENDBRANCH   7  10
ENDBRANCH   4   7
ENDBRANCH   2   4
TORSDOF 3
ENDMDL
MODEL       59
REMARK 921   NORMALIZED FREE ENERGY PREDICTED BY IDOCK:   -3.25 KCAL/MOL
REMARK 922        TOTAL FREE ENERGY PREDICTED BY IDOCK:   -4.45 KCAL/MOL
REMARK 923 INTER-LIGAND FREE ENERGY PREDICTED BY IDOCK:   -3.91 KCAL/MOL
REMARK 924 INTRA-LIGAND FREE ENERGY PREDICTED BY IDOCK:   -0.54 KCAL/MOL
REMARK 927      BINDING AFFINITY PREDICTED BY RF-SCORE:    0.00 PKD
ROOT
HETATM    1  O   UNL     1      -9.730  12.189  68.958  1.00  0.00    -0.413 OA 
HETATM    2  C   UNL     1      -9.782  11.043  68.103  1.00  0.00    -0.174 C  
HETATM    3  H   UNL     1      -8.902  12.174  69.423  1.00  0.00     0.000 HD 
ENDROOT
BRANCH   2   4
HETATM    4  C   UNL     1     -11.118  11.068  67.354  1.00  0.00    -0.305 C  
HETATM    5  O   UNL     1     -12.189  11.235  68.302  1.00  0.00    -0.615 OA 
HETATM    6  H   UNL     1     -13.018  11.250  67.838  1.00  0.00     0.000 HD 
BRANCH   4   7
HETATM    7  C   UNL     1     -11.161  12.179  66.290  1.00  0.00    -0.334 C  
HETATM    8  H   UNL     1      -9.842  13.221  65.273  1.00  0.00     0.000 HD 
HETATM    9  O   UNL     1      -9.816  12.535  65.929  1.00  0.00    -0.256 OA 
BRANCH   7  10
HETATM   10  C   UNL     1     -11.944  13.411  66.794  1.00  0.00    -0.394 C  
HETATM   11  C   UNL     1     -12.744  14.035  65.665  1.00  0.00    -0.481 C  
HETATM   12  O   UNL     1     -11.107  14.423  67.347  1.00  0.00    -0.290 OA 
HETATM   13  O   UNL     1     -12.825  13.563  64.532  1.00  0.00    -0.645 OA 
HETATM   14  H   UNL     1     -11.588  15.181  67.656  1.00  0.00     0.000 HD 
ENDBRANCH   7  10
ENDBRANCH   4   7
ENDBRANCH   2   4
TORSDOF 3
ENDMDL
MODEL       60
REMARK 921   NORMALIZED FREE ENERGY PREDICTED BY IDOCK:   -3.25 KCAL/MOL
REMARK 922        TOTAL FREE ENERGY PREDICTED BY IDOCK:   -4.44 KCAL/MOL
REMARK 923 INTER-LIGAND FREE ENERGY PREDICTED BY IDOCK:   -3.92 KCAL/MOL
REMARK 924 INTRA-LIGAND FREE ENERGY PREDICTED BY IDOCK:   -0.52 KCAL/MOL
REMARK 927      BINDING AFFINITY PREDICTED BY RF-SCORE:    0.00 PKD
ROOT
HETATM    1  O   UNL     1     -12.155  10.842  67.847  1.00  0.00    -0.736 OA 
HETATM    2  C   UNL     1     -10.856  11.371  67.567  1.00  0.00    -0.244 C  
HETATM    3  H   UNL     1     -12.062   9.916  68.039  1.00  0.00     0.000 HD 
ENDROOT
BRANCH   2   4
HETATM    4  C   UNL     1     -11.005  12.864  67.257  1.00  0.00    -0.261 C  
HETATM    5  O   UNL     1      -9.715  13.497  67.343  1.00  0.00    -0.220 OA 
HETATM    6  H   UNL     1      -9.807  14.422  67.151  1.00  0.00     0.000 HD 
BRANCH   4   7
HETATM    7  C   UNL     1     -11.632  13.103  65.871  1.00  0.00    -0.354 C  
HETATM    8  H   UNL     1     -12.065  12.004  64.301  1.00  0.00     0.000 HD 
HETATM    9  O   UNL     1     -11.678  11.857  65.156  1.00  0.00    -0.288 OA 
BRANCH   7  10
HETATM   10  C   UNL     1     -10.850  14.170  65.076  1.00  0.00    -0.398 C  
HETATM   11  C   UNL     1     -11.789  14.980  64.200  1.00  0.00    -0.167 C  
HETATM   12  O   UNL     1      -9.838  13.618  64.237  1.00  0.00    -0.716 OA 
HETATM   13  O   UNL     1     -13.013  14.858  64.202  1.00  0.00    -0.537 OA 
HETATM   14  H   UNL     1      -9.357  14.274  63.747  1.00  0.00     0.000 HD 
ENDBRANCH   7  10
ENDBRANCH   4   7
ENDBRANCH   2   4
TORSDOF 3
ENDMDL
MODEL       61
REMARK 921   NORMALIZED FREE ENERGY PREDICTED BY IDOCK:   -3.24 KCAL/MOL
REMARK 922        TOTAL FREE ENERGY PREDICTED BY IDOCK:   -4.43 KCAL/MOL
REMARK 923 INTER-LIGAND FREE ENERGY PREDICTED BY IDOCK:   -3.76 KCAL/MOL
REMARK 924 INTRA-LIGAND FREE ENERGY PREDICTED BY IDOCK:   -0.67 KCAL/MOL
REMARK 927      BINDING AFFINITY PREDICTED BY RF-SCORE:    0.00 PKD
ROOT
HETATM    1  O   UNL     1     -10.059  13.781  69.027  1.00  0.00    -0.414 OA 
HETATM    2  C   UNL     1     -10.706  13.429  67.800  1.00  0.00    -0.248 C  
HETATM    3  H   UNL     1      -9.513  13.050  69.292  1.00  0.00     0.000 HD 
ENDROOT
BRANCH   2   4
HETATM    4  C   UNL     1     -11.588  14.607  67.372  1.00  0.00    -0.389 C  
HETATM    5  O   UNL     1     -12.318  15.091  68.515  1.00  0.00    -0.586 OA 
HETATM    6  H   UNL     1     -12.864  15.822  68.249  1.00  0.00     0.000 HD 
BRANCH   4   7
HETATM    7  C   UNL     1     -10.763  15.742  66.737  1.00  0.00    -0.293 C  
HETATM    8  H   UNL     1      -8.952  15.939  66.002  1.00  0.00     0.000 HD 
HETATM    9  O   UNL     1      -9.461  15.239  66.394  1.00  0.00    -0.255 OA 
BRANCH   7  10
HETATM   10  C   UNL     1     -10.656  16.957  67.683  1.00  0.00    -0.325 C  
HETATM   11  C   UNL     1     -10.456  18.236  66.891  1.00  0.00    -0.373 C  
HETATM   12  O   UNL     1      -9.585  16.851  68.618  1.00  0.00    -0.247 OA 
HETATM   13  O   UNL     1     -10.472  18.298  65.662  1.00  0.00    -0.627 OA 
HETATM   14  H   UNL     1      -9.520  17.598  69.200  1.00  0.00     0.000 HD 
ENDBRANCH   7  10
ENDBRANCH   4   7
ENDBRANCH   2   4
TORSDOF 3
ENDMDL
MODEL       62
REMARK 921   NORMALIZED FREE ENERGY PREDICTED BY IDOCK:   -3.24 KCAL/MOL
REMARK 922        TOTAL FREE ENERGY PREDICTED BY IDOCK:   -4.43 KCAL/MOL
REMARK 923 INTER-LIGAND FREE ENERGY PREDICTED BY IDOCK:   -4.35 KCAL/MOL
REMARK 924 INTRA-LIGAND FREE ENERGY PREDICTED BY IDOCK:   -0.08 KCAL/MOL
REMARK 927      BINDING AFFINITY PREDICTED BY RF-SCORE:    0.00 PKD
ROOT
HETATM    1  O   UNL     1     -11.955  15.402  63.819  1.00  0.00    -0.954 OA 
HETATM    2  C   UNL     1     -11.022  15.654  64.873  1.00  0.00    -0.431 C  
HETATM    3  H   UNL     1     -12.068  16.206  63.326  1.00  0.00     0.000 HD 
ENDROOT
BRANCH   2   4
HETATM    4  C   UNL     1     -10.840  14.357  65.669  1.00  0.00    -0.317 C  
HETATM    5  O   UNL     1      -9.479  13.906  65.533  1.00  0.00    -0.518 OA 
HETATM    6  H   UNL     1      -9.366  13.102  66.027  1.00  0.00     0.000 HD 
BRANCH   4   7
HETATM    7  C   UNL     1     -11.203  14.539  67.154  1.00  0.00    -0.333 C  
HETATM    8  H   UNL     1     -11.243  16.029  68.433  1.00  0.00     0.000 HD 
HETATM    9  O   UNL     1     -11.019  15.917  67.517  1.00  0.00    -0.323 OA 
BRANCH   7  10
HETATM   10  C   UNL     1     -10.361  13.611  68.057  1.00  0.00    -0.250 C  
HETATM   11  C   UNL     1     -11.035  12.259  68.211  1.00  0.00    -0.232 C  
HETATM   12  O   UNL     1     -10.143  14.141  69.362  1.00  0.00    -0.426 OA 
HETATM   13  O   UNL     1     -12.061  11.927  67.619  1.00  0.00    -0.568 OA 
HETATM   14  H   UNL     1      -9.625  13.570  69.917  1.00  0.00     0.000 HD 
ENDBRANCH   7  10
ENDBRANCH   4   7
ENDBRANCH   2   4
TORSDOF 3
ENDMDL
MODEL       63
REMARK 921   NORMALIZED FREE ENERGY PREDICTED BY IDOCK:   -3.23 KCAL/MOL
REMARK 922        TOTAL FREE ENERGY PREDICTED BY IDOCK:   -4.42 KCAL/MOL
REMARK 923 INTER-LIGAND FREE ENERGY PREDICTED BY IDOCK:   -4.13 KCAL/MOL
REMARK 924 INTRA-LIGAND FREE ENERGY PREDICTED BY IDOCK:   -0.29 KCAL/MOL
REMARK 927      BINDING AFFINITY PREDICTED BY RF-SCORE:    0.00 PKD
ROOT
HETATM    1  O   UNL     1      -6.648  21.225  65.555  1.00  0.00    -0.491 OA 
HETATM    2  C   UNL     1      -7.160  19.890  65.541  1.00  0.00    -0.302 C  
HETATM    3  H   UNL     1      -5.903  21.262  64.966  1.00  0.00     0.000 HD 
ENDROOT
BRANCH   2   4
HETATM    4  C   UNL     1      -8.361  19.831  66.491  1.00  0.00    -0.342 C  
HETATM    5  O   UNL     1      -9.479  20.504  65.882  1.00  0.00    -0.644 OA 
HETATM    6  H   UNL     1     -10.224  20.467  66.471  1.00  0.00     0.000 HD 
BRANCH   4   7
HETATM    7  C   UNL     1      -8.735  18.383  66.855  1.00  0.00    -0.272 C  
HETATM    8  H   UNL     1      -8.177  16.587  66.285  1.00  0.00     0.000 HD 
HETATM    9  O   UNL     1      -7.947  17.481  66.061  1.00  0.00    -0.475 OA 
BRANCH   7  10
HETATM   10  C   UNL     1     -10.244  18.124  66.653  1.00  0.00    -0.381 C  
HETATM   11  C   UNL     1     -10.773  17.184  67.722  1.00  0.00    -0.329 C  
HETATM   12  O   UNL     1     -10.554  17.558  65.383  1.00  0.00    -0.648 OA 
HETATM   13  O   UNL     1     -10.105  16.767  68.668  1.00  0.00    -0.247 OA 
HETATM   14  H   UNL     1     -11.482  17.398  65.259  1.00  0.00     0.000 HD 
ENDBRANCH   7  10
ENDBRANCH   4   7
ENDBRANCH   2   4
TORSDOF 3
ENDMDL
MODEL       64
REMARK 921   NORMALIZED FREE ENERGY PREDICTED BY IDOCK:   -3.20 KCAL/MOL
REMARK 922        TOTAL FREE ENERGY PREDICTED BY IDOCK:   -4.38 KCAL/MOL
REMARK 923 INTER-LIGAND FREE ENERGY PREDICTED BY IDOCK:   -4.07 KCAL/MOL
REMARK 924 INTRA-LIGAND FREE ENERGY PREDICTED BY IDOCK:   -0.32 KCAL/MOL
REMARK 927      BINDING AFFINITY PREDICTED BY RF-SCORE:    0.00 PKD
ROOT
HETATM    1  O   UNL     1      -9.818  13.617  69.003  1.00  0.00    -0.422 OA 
HETATM    2  C   UNL     1      -9.866  14.827  68.241  1.00  0.00    -0.222 C  
HETATM    3  H   UNL     1     -10.053  13.824  69.900  1.00  0.00     0.000 HD 
ENDROOT
BRANCH   2   4
HETATM    4  C   UNL     1      -9.488  14.494  66.794  1.00  0.00    -0.269 C  
HETATM    5  O   UNL     1      -8.142  13.983  66.763  1.00  0.00    -0.386 OA 
HETATM    6  H   UNL     1      -7.907  13.776  65.866  1.00  0.00     0.000 HD 
BRANCH   4   7
HETATM    7  C   UNL     1     -10.463  13.483  66.163  1.00  0.00    -0.296 C  
HETATM    8  H   UNL     1     -10.524  11.536  65.913  1.00  0.00     0.000 HD 
HETATM    9  O   UNL     1      -9.922  12.159  66.302  1.00  0.00    -0.219 OA 
BRANCH   7  10
HETATM   10  C   UNL     1     -10.738  13.816  64.681  1.00  0.00    -0.414 C  
HETATM   11  C   UNL     1     -12.196  13.569  64.338  1.00  0.00    -0.390 C  
HETATM   12  O   UNL     1      -9.942  13.056  63.775  1.00  0.00    -0.744 OA 
HETATM   13  O   UNL     1     -13.052  13.238  65.157  1.00  0.00    -0.705 OA 
HETATM   14  H   UNL     1     -10.111  13.262  62.864  1.00  0.00     0.000 HD 
ENDBRANCH   7  10
ENDBRANCH   4   7
ENDBRANCH   2   4
TORSDOF 3
ENDMDL
MODEL       65
REMARK 921   NORMALIZED FREE ENERGY PREDICTED BY IDOCK:   -3.18 KCAL/MOL
REMARK 922        TOTAL FREE ENERGY PREDICTED BY IDOCK:   -4.37 KCAL/MOL
REMARK 923 INTER-LIGAND FREE ENERGY PREDICTED BY IDOCK:   -4.08 KCAL/MOL
REMARK 924 INTRA-LIGAND FREE ENERGY PREDICTED BY IDOCK:   -0.28 KCAL/MOL
REMARK 927      BINDING AFFINITY PREDICTED BY RF-SCORE:    0.00 PKD
ROOT
HETATM    1  O   UNL     1     -12.530  13.945  62.957  1.00  0.00    -1.099 OA 
HETATM    2  C   UNL     1     -12.284  13.143  64.116  1.00  0.00    -0.398 C  
HETATM    3  H   UNL     1     -13.354  13.666  62.575  1.00  0.00     0.000 HD 
ENDROOT
BRANCH   2   4
HETATM    4  C   UNL     1     -10.955  13.592  64.732  1.00  0.00    -0.373 C  
HETATM    5  O   UNL     1     -10.716  14.970  64.388  1.00  0.00    -0.594 OA 
HETATM    6  H   UNL     1      -9.892  15.248  64.770  1.00  0.00     0.000 HD 
BRANCH   4   7
HETATM    7  C   UNL     1     -10.939  13.407  66.261  1.00  0.00    -0.288 C  
HETATM    8  H   UNL     1     -12.192  13.720  67.741  1.00  0.00     0.000 HD 
HETATM    9  O   UNL     1     -12.201  13.835  66.798  1.00  0.00    -0.425 OA 
BRANCH   7  10
HETATM   10  C   UNL     1      -9.770  14.179  66.909  1.00  0.00    -0.269 C  
HETATM   11  C   UNL     1      -9.141  13.362  68.023  1.00  0.00    -0.205 C  
HETATM   12  O   UNL     1     -10.160  15.436  67.457  1.00  0.00    -0.230 OA 
HETATM   13  O   UNL     1      -9.465  12.208  68.301  1.00  0.00    -0.202 OA 
HETATM   14  H   UNL     1      -9.441  15.911  67.855  1.00  0.00     0.000 HD 
ENDBRANCH   7  10
ENDBRANCH   4   7
ENDBRANCH   2   4
TORSDOF 3
ENDMDL
MODEL       66
REMARK 921   NORMALIZED FREE ENERGY PREDICTED BY IDOCK:   -3.17 KCAL/MOL
REMARK 922        TOTAL FREE ENERGY PREDICTED BY IDOCK:   -4.35 KCAL/MOL
REMARK 923 INTER-LIGAND FREE ENERGY PREDICTED BY IDOCK:   -3.87 KCAL/MOL
REMARK 924 INTRA-LIGAND FREE ENERGY PREDICTED BY IDOCK:   -0.49 KCAL/MOL
REMARK 927      BINDING AFFINITY PREDICTED BY RF-SCORE:    0.00 PKD
ROOT
HETATM    1  O   UNL     1     -10.419  11.432  69.304  1.00  0.00    -0.367 OA 
HETATM    2  C   UNL     1      -9.625  11.426  68.114  1.00  0.00    -0.190 C  
HETATM    3  H   UNL     1     -10.274  10.611  69.760  1.00  0.00     0.000 HD 
ENDROOT
BRANCH   2   4
HETATM    4  C   UNL     1      -9.859  12.750  67.379  1.00  0.00    -0.210 C  
HETATM    5  O   UNL     1      -8.780  12.974  66.453  1.00  0.00    -0.426 OA 
HETATM    6  H   UNL     1      -8.924  13.794  65.996  1.00  0.00     0.000 HD 
BRANCH   4   7
HETATM    7  C   UNL     1     -11.213  12.769  66.646  1.00  0.00    -0.301 C  
HETATM    8  H   UNL     1     -12.795  11.608  66.558  1.00  0.00     0.000 HD 
HETATM    9  O   UNL     1     -11.960  11.597  67.010  1.00  0.00    -0.593 OA 
BRANCH   7  10
HETATM   10  C   UNL     1     -11.023  12.853  65.116  1.00  0.00    -0.289 C  
HETATM   11  C   UNL     1     -12.209  13.543  64.467  1.00  0.00    -0.398 C  
HETATM   12  O   UNL     1     -10.867  11.578  64.497  1.00  0.00    -0.316 OA 
HETATM   13  O   UNL     1     -13.143  14.045  65.090  1.00  0.00    -0.776 OA 
HETATM   14  H   UNL     1     -10.751  11.630  63.556  1.00  0.00     0.000 HD 
ENDBRANCH   7  10
ENDBRANCH   4   7
ENDBRANCH   2   4
TORSDOF 3
ENDMDL
MODEL       67
REMARK 921   NORMALIZED FREE ENERGY PREDICTED BY IDOCK:   -3.15 KCAL/MOL
REMARK 922        TOTAL FREE ENERGY PREDICTED BY IDOCK:   -4.32 KCAL/MOL
REMARK 923 INTER-LIGAND FREE ENERGY PREDICTED BY IDOCK:   -3.81 KCAL/MOL
REMARK 924 INTRA-LIGAND FREE ENERGY PREDICTED BY IDOCK:   -0.51 KCAL/MOL
REMARK 927      BINDING AFFINITY PREDICTED BY RF-SCORE:    0.00 PKD
ROOT
HETATM    1  O   UNL     1      -7.766  10.423  64.438  1.00  0.00    -0.256 OA 
HETATM    2  C   UNL     1      -8.988   9.681  64.483  1.00  0.00    -0.235 C  
HETATM    3  H   UNL     1      -7.115   9.893  63.994  1.00  0.00     0.000 HD 
ENDROOT
BRANCH   2   4
HETATM    4  C   UNL     1     -10.039  10.535  65.200  1.00  0.00    -0.314 C  
HETATM    5  O   UNL     1      -9.434  11.168  66.344  1.00  0.00    -0.183 OA 
HETATM    6  H   UNL     1     -10.085  11.698  66.788  1.00  0.00     0.000 HD 
BRANCH   4   7
HETATM    7  C   UNL     1     -10.657  11.590  64.264  1.00  0.00    -0.347 C  
HETATM    8  H   UNL     1     -10.196  12.396  62.533  1.00  0.00     0.000 HD 
HETATM    9  O   UNL     1      -9.814  11.745  63.111  1.00  0.00    -0.409 OA 
BRANCH   7  10
HETATM   10  C   UNL     1     -10.859  12.937  64.990  1.00  0.00    -0.299 C  
HETATM   11  C   UNL     1     -11.919  13.769  64.290  1.00  0.00    -0.443 C  
HETATM   12  O   UNL     1      -9.670  13.720  65.065  1.00  0.00    -0.586 OA 
HETATM   13  O   UNL     1     -12.585  13.376  63.333  1.00  0.00    -0.738 OA 
HETATM   14  H   UNL     1      -9.794  14.549  65.512  1.00  0.00     0.000 HD 
ENDBRANCH   7  10
ENDBRANCH   4   7
ENDBRANCH   2   4
TORSDOF 3
ENDMDL
MODEL       68
REMARK 921   NORMALIZED FREE ENERGY PREDICTED BY IDOCK:   -3.13 KCAL/MOL
REMARK 922        TOTAL FREE ENERGY PREDICTED BY IDOCK:   -4.30 KCAL/MOL
REMARK 923 INTER-LIGAND FREE ENERGY PREDICTED BY IDOCK:   -3.80 KCAL/MOL
REMARK 924 INTRA-LIGAND FREE ENERGY PREDICTED BY IDOCK:   -0.51 KCAL/MOL
REMARK 927      BINDING AFFINITY PREDICTED BY RF-SCORE:    0.00 PKD
ROOT
HETATM    1  O   UNL     1     -12.025  10.816  67.820  1.00  0.00    -0.692 OA 
HETATM    2  C   UNL     1     -10.897  10.956  66.952  1.00  0.00    -0.249 C  
HETATM    3  H   UNL     1     -11.901  10.031  68.341  1.00  0.00     0.000 HD 
ENDROOT
BRANCH   2   4
HETATM    4  C   UNL     1     -11.097  12.222  66.112  1.00  0.00    -0.311 C  
HETATM    5  O   UNL     1     -12.507  12.454  65.934  1.00  0.00    -0.583 OA 
HETATM    6  H   UNL     1     -12.631  13.239  65.414  1.00  0.00     0.000 HD 
BRANCH   4   7
HETATM    7  C   UNL     1     -10.425  13.449  66.754  1.00  0.00    -0.275 C  
HETATM    8  H   UNL     1      -9.528  13.848  68.456  1.00  0.00     0.000 HD 
HETATM    9  O   UNL     1      -9.943  13.091  68.059  1.00  0.00    -0.220 OA 
BRANCH   7  10
HETATM   10  C   UNL     1     -11.396  14.647  66.832  1.00  0.00    -0.356 C  
HETATM   11  C   UNL     1     -10.656  15.952  66.599  1.00  0.00    -0.305 C  
HETATM   12  O   UNL     1     -12.071  14.745  68.083  1.00  0.00    -0.540 OA 
HETATM   13  O   UNL     1      -9.465  16.027  66.298  1.00  0.00    -0.265 OA 
HETATM   14  H   UNL     1     -12.668  15.482  68.131  1.00  0.00     0.000 HD 
ENDBRANCH   7  10
ENDBRANCH   4   7
ENDBRANCH   2   4
TORSDOF 3
ENDMDL
MODEL       69
REMARK 921   NORMALIZED FREE ENERGY PREDICTED BY IDOCK:   -3.11 KCAL/MOL
REMARK 922        TOTAL FREE ENERGY PREDICTED BY IDOCK:   -4.28 KCAL/MOL
REMARK 923 INTER-LIGAND FREE ENERGY PREDICTED BY IDOCK:   -3.98 KCAL/MOL
REMARK 924 INTRA-LIGAND FREE ENERGY PREDICTED BY IDOCK:   -0.31 KCAL/MOL
REMARK 927      BINDING AFFINITY PREDICTED BY RF-SCORE:    0.00 PKD
ROOT
HETATM    1  O   UNL     1      -8.848  11.522  65.515  1.00  0.00    -0.378 OA 
HETATM    2  C   UNL     1      -9.765  11.926  66.536  1.00  0.00    -0.210 C  
HETATM    3  H   UNL     1      -8.756  10.577  65.557  1.00  0.00     0.000 HD 
ENDROOT
BRANCH   2   4
HETATM    4  C   UNL     1      -9.912  13.449  66.468  1.00  0.00    -0.286 C  
HETATM    5  O   UNL     1      -8.644  14.061  66.770  1.00  0.00    -0.396 OA 
HETATM    6  H   UNL     1      -8.736  15.006  66.728  1.00  0.00     0.000 HD 
BRANCH   4   7
HETATM    7  C   UNL     1     -10.424  13.917  65.093  1.00  0.00    -0.393 C  
HETATM    8  H   UNL     1     -10.695  15.641  64.192  1.00  0.00     0.000 HD 
HETATM    9  O   UNL     1     -10.380  15.352  65.040  1.00  0.00    -0.387 OA 
BRANCH   7  10
HETATM   10  C   UNL     1     -11.850  13.395  64.816  1.00  0.00    -0.380 C  
HETATM   11  C   UNL     1     -11.826  12.310  63.755  1.00  0.00    -0.498 C  
HETATM   12  O   UNL     1     -12.747  14.413  64.379  1.00  0.00    -0.665 OA 
HETATM   13  O   UNL     1     -10.798  11.851  63.258  1.00  0.00    -0.385 OA 
HETATM   14  H   UNL     1     -13.624  14.092  64.208  1.00  0.00     0.000 HD 
ENDBRANCH   7  10
ENDBRANCH   4   7
ENDBRANCH   2   4
TORSDOF 3
ENDMDL
MODEL       70
REMARK 921   NORMALIZED FREE ENERGY PREDICTED BY IDOCK:   -3.11 KCAL/MOL
REMARK 922        TOTAL FREE ENERGY PREDICTED BY IDOCK:   -4.28 KCAL/MOL
REMARK 923 INTER-LIGAND FREE ENERGY PREDICTED BY IDOCK:   -3.57 KCAL/MOL
REMARK 924 INTRA-LIGAND FREE ENERGY PREDICTED BY IDOCK:   -0.71 KCAL/MOL
REMARK 927      BINDING AFFINITY PREDICTED BY RF-SCORE:    0.00 PKD
ROOT
HETATM    1  O   UNL     1     -12.310  10.621  68.596  1.00  0.00    -0.820 OA 
HETATM    2  C   UNL     1     -11.118  10.965  69.307  1.00  0.00    -0.248 C  
HETATM    3  H   UNL     1     -12.883  10.151  69.190  1.00  0.00     0.000 HD 
ENDROOT
BRANCH   2   4
HETATM    4  C   UNL     1     -10.193  11.724  68.349  1.00  0.00    -0.206 C  
HETATM    5  O   UNL     1      -9.956  10.915  67.181  1.00  0.00    -0.181 OA 
HETATM    6  H   UNL     1      -9.384  11.385  66.587  1.00  0.00     0.000 HD 
BRANCH   4   7
HETATM    7  C   UNL     1     -10.777  13.091  67.949  1.00  0.00    -0.235 C  
HETATM    8  H   UNL     1     -12.282  14.214  68.525  1.00  0.00     0.000 HD 
HETATM    9  O   UNL     1     -11.922  13.370  68.771  1.00  0.00    -0.335 OA 
BRANCH   7  10
HETATM   10  C   UNL     1     -11.147  13.129  66.451  1.00  0.00    -0.289 C  
HETATM   11  C   UNL     1     -11.267  14.562  65.966  1.00  0.00    -0.337 C  
HETATM   12  O   UNL     1     -12.373  12.465  66.157  1.00  0.00    -0.606 OA 
HETATM   13  O   UNL     1     -11.011  15.549  66.654  1.00  0.00    -0.312 OA 
HETATM   14  H   UNL     1     -12.601  12.488  65.235  1.00  0.00     0.000 HD 
ENDBRANCH   7  10
ENDBRANCH   4   7
ENDBRANCH   2   4
TORSDOF 3
ENDMDL
MODEL       71
REMARK 921   NORMALIZED FREE ENERGY PREDICTED BY IDOCK:   -3.11 KCAL/MOL
REMARK 922        TOTAL FREE ENERGY PREDICTED BY IDOCK:   -4.28 KCAL/MOL
REMARK 923 INTER-LIGAND FREE ENERGY PREDICTED BY IDOCK:   -3.64 KCAL/MOL
REMARK 924 INTRA-LIGAND FREE ENERGY PREDICTED BY IDOCK:   -0.64 KCAL/MOL
REMARK 927      BINDING AFFINITY PREDICTED BY RF-SCORE:    0.00 PKD
ROOT
HETATM    1  O   UNL     1     -11.924  12.076  66.086  1.00  0.00    -0.581 OA 
HETATM    2  C   UNL     1     -10.857  11.291  66.625  1.00  0.00    -0.273 C  
HETATM    3  H   UNL     1     -12.304  11.598  65.358  1.00  0.00     0.000 HD 
ENDROOT
BRANCH   2   4
HETATM    4  C   UNL     1     -10.243  12.063  67.798  1.00  0.00    -0.202 C  
HETATM    5  O   UNL     1      -9.760  13.335  67.326  1.00  0.00    -0.221 OA 
HETATM    6  H   UNL     1      -9.380  13.814  68.053  1.00  0.00     0.000 HD 
BRANCH   4   7
HETATM    7  C   UNL     1     -11.250  12.260  68.946  1.00  0.00    -0.273 C  
HETATM    8  H   UNL     1     -13.026  11.561  69.411  1.00  0.00     0.000 HD 
HETATM    9  O   UNL     1     -12.404  11.440  68.703  1.00  0.00    -0.491 OA 
BRANCH   7  10
HETATM   10  C   UNL     1     -11.647  13.744  69.098  1.00  0.00    -0.317 C  
HETATM   11  C   UNL     1     -12.404  13.966  70.395  1.00  0.00    -0.363 C  
HETATM   12  O   UNL     1     -12.462  14.222  68.030  1.00  0.00    -0.562 OA 
HETATM   13  O   UNL     1     -12.589  13.095  71.245  1.00  0.00    -0.357 OA 
HETATM   14  H   UNL     1     -12.706  15.135  68.124  1.00  0.00     0.000 HD 
ENDBRANCH   7  10
ENDBRANCH   4   7
ENDBRANCH   2   4
TORSDOF 3
ENDMDL
MODEL       72
REMARK 921   NORMALIZED FREE ENERGY PREDICTED BY IDOCK:   -3.11 KCAL/MOL
REMARK 922        TOTAL FREE ENERGY PREDICTED BY IDOCK:   -4.28 KCAL/MOL
REMARK 923 INTER-LIGAND FREE ENERGY PREDICTED BY IDOCK:   -3.79 KCAL/MOL
REMARK 924 INTRA-LIGAND FREE ENERGY PREDICTED BY IDOCK:   -0.48 KCAL/MOL
REMARK 927      BINDING AFFINITY PREDICTED BY RF-SCORE:    0.00 PKD
ROOT
HETATM    1  O   UNL     1     -10.951  19.668  65.374  1.00  0.00    -0.438 OA 
HETATM    2  C   UNL     1     -10.622  19.013  66.602  1.00  0.00    -0.416 C  
HETATM    3  H   UNL     1     -11.303  19.018  64.777  1.00  0.00     0.000 HD 
ENDROOT
BRANCH   2   4
HETATM    4  C   UNL     1     -10.054  20.061  67.564  1.00  0.00    -0.425 C  
HETATM    5  O   UNL     1     -10.394  19.697  68.915  1.00  0.00    -0.577 OA 
HETATM    6  H   UNL     1     -10.041  20.346  69.512  1.00  0.00     0.000 HD 
BRANCH   4   7
HETATM    7  C   UNL     1      -8.529  20.212  67.413  1.00  0.00    -0.339 C  
HETATM    8  H   UNL     1      -7.177  19.700  66.083  1.00  0.00     0.000 HD 
HETATM    9  O   UNL     1      -8.118  19.606  66.177  1.00  0.00    -0.331 OA 
BRANCH   7  10
HETATM   10  C   UNL     1      -7.780  19.590  68.611  1.00  0.00    -0.355 C  
HETATM   11  C   UNL     1      -6.416  20.233  68.782  1.00  0.00    -0.299 C  
HETATM   12  O   UNL     1      -7.587  18.183  68.486  1.00  0.00    -0.273 OA 
HETATM   13  O   UNL     1      -6.010  21.182  68.113  1.00  0.00    -0.340 OA 
HETATM   14  H   UNL     1      -7.126  17.800  69.223  1.00  0.00     0.000 HD 
ENDBRANCH   7  10
ENDBRANCH   4   7
ENDBRANCH   2   4
TORSDOF 3
ENDMDL
MODEL       73
REMARK 921   NORMALIZED FREE ENERGY PREDICTED BY IDOCK:   -3.09 KCAL/MOL
REMARK 922        TOTAL FREE ENERGY PREDICTED BY IDOCK:   -4.26 KCAL/MOL
REMARK 923 INTER-LIGAND FREE ENERGY PREDICTED BY IDOCK:   -3.54 KCAL/MOL
REMARK 924 INTRA-LIGAND FREE ENERGY PREDICTED BY IDOCK:   -0.72 KCAL/MOL
REMARK 927      BINDING AFFINITY PREDICTED BY RF-SCORE:    0.00 PKD
ROOT
HETATM    1  O   UNL     1      -7.944  19.341  66.868  1.00  0.00    -0.248 OA 
HETATM    2  C   UNL     1      -9.060  19.923  67.547  1.00  0.00    -0.340 C  
HETATM    3  H   UNL     1      -7.152  19.749  67.197  1.00  0.00     0.000 HD 
ENDROOT
BRANCH   2   4
HETATM    4  C   UNL     1     -10.337  19.265  67.015  1.00  0.00    -0.426 C  
HETATM    5  O   UNL     1     -10.355  19.360  65.579  1.00  0.00    -0.454 OA 
HETATM    6  H   UNL     1     -11.147  18.952  65.248  1.00  0.00     0.000 HD 
BRANCH   4   7
HETATM    7  C   UNL     1     -10.456  17.797  67.461  1.00  0.00    -0.372 C  
HETATM    8  H   UNL     1      -9.525  16.619  68.728  1.00  0.00     0.000 HD 
HETATM    9  O   UNL     1      -9.452  17.525  68.453  1.00  0.00    -0.273 OA 
BRANCH   7  10
HETATM   10  C   UNL     1     -10.326  16.832  66.263  1.00  0.00    -0.310 C  
HETATM   11  C   UNL     1     -10.861  15.458  66.621  1.00  0.00    -0.302 C  
HETATM   12  O   UNL     1      -8.984  16.674  65.809  1.00  0.00    -0.498 OA 
HETATM   13  O   UNL     1     -11.405  15.185  67.690  1.00  0.00    -0.317 OA 
HETATM   14  H   UNL     1      -8.905  16.081  65.072  1.00  0.00     0.000 HD 
ENDBRANCH   7  10
ENDBRANCH   4   7
ENDBRANCH   2   4
TORSDOF 3
ENDMDL
MODEL       74
REMARK 921   NORMALIZED FREE ENERGY PREDICTED BY IDOCK:   -3.09 KCAL/MOL
REMARK 922        TOTAL FREE ENERGY PREDICTED BY IDOCK:   -4.25 KCAL/MOL
REMARK 923 INTER-LIGAND FREE ENERGY PREDICTED BY IDOCK:   -4.11 KCAL/MOL
REMARK 924 INTRA-LIGAND FREE ENERGY PREDICTED BY IDOCK:   -0.14 KCAL/MOL
REMARK 927      BINDING AFFINITY PREDICTED BY RF-SCORE:    0.00 PKD
ROOT
HETATM    1  O   UNL     1     -14.116   8.899  73.332  1.00  0.00    -1.256 OA 
HETATM    2  C   UNL     1     -13.167   9.198  72.305  1.00  0.00    -0.461 C  
HETATM    3  H   UNL     1     -14.699   9.643  73.422  1.00  0.00     0.000 HD 
ENDROOT
BRANCH   2   4
HETATM    4  C   UNL     1     -12.226   7.997  72.160  1.00  0.00    -0.331 C  
HETATM    5  O   UNL     1     -13.010   6.801  71.991  1.00  0.00    -0.526 OA 
HETATM    6  H   UNL     1     -12.427   6.056  71.901  1.00  0.00     0.000 HD 
BRANCH   4   7
HETATM    7  C   UNL     1     -11.247   8.172  70.985  1.00  0.00    -0.258 C  
HETATM    8  H   UNL     1      -9.830   7.100  70.147  1.00  0.00     0.000 HD 
HETATM    9  O   UNL     1     -10.435   6.992  70.872  1.00  0.00    -0.212 OA 
BRANCH   7  10
HETATM   10  C   UNL     1     -10.373   9.432  71.163  1.00  0.00    -0.307 C  
HETATM   11  C   UNL     1     -10.458  10.320  69.935  1.00  0.00    -0.256 C  
HETATM   12  O   UNL     1      -8.998   9.136  71.394  1.00  0.00    -0.283 OA 
HETATM   13  O   UNL     1     -11.196  10.104  68.975  1.00  0.00    -0.223 OA 
HETATM   14  H   UNL     1      -8.461   9.912  71.504  1.00  0.00     0.000 HD 
ENDBRANCH   7  10
ENDBRANCH   4   7
ENDBRANCH   2   4
TORSDOF 3
ENDMDL
MODEL       75
REMARK 921   NORMALIZED FREE ENERGY PREDICTED BY IDOCK:   -3.08 KCAL/MOL
REMARK 922        TOTAL FREE ENERGY PREDICTED BY IDOCK:   -4.24 KCAL/MOL
REMARK 923 INTER-LIGAND FREE ENERGY PREDICTED BY IDOCK:   -4.09 KCAL/MOL
REMARK 924 INTRA-LIGAND FREE ENERGY PREDICTED BY IDOCK:   -0.16 KCAL/MOL
REMARK 927      BINDING AFFINITY PREDICTED BY RF-SCORE:    0.00 PKD
ROOT
HETATM    1  O   UNL     1     -14.056   8.880  73.279  1.00  0.00    -1.211 OA 
HETATM    2  C   UNL     1     -13.394   8.857  72.011  1.00  0.00    -0.421 C  
HETATM    3  H   UNL     1     -14.449   9.738  73.391  1.00  0.00     0.000 HD 
ENDROOT
BRANCH   2   4
HETATM    4  C   UNL     1     -12.760   7.474  71.829  1.00  0.00    -0.331 C  
HETATM    5  O   UNL     1     -12.660   7.180  70.423  1.00  0.00    -0.612 OA 
HETATM    6  H   UNL     1     -12.267   6.323  70.310  1.00  0.00     0.000 HD 
BRANCH   4   7
HETATM    7  C   UNL     1     -11.377   7.383  72.499  1.00  0.00    -0.313 C  
HETATM    8  H   UNL     1      -9.847   8.587  72.765  1.00  0.00     0.000 HD 
HETATM    9  O   UNL     1     -10.701   8.643  72.351  1.00  0.00    -0.339 OA 
BRANCH   7  10
HETATM   10  C   UNL     1     -10.538   6.231  71.906  1.00  0.00    -0.219 C  
HETATM   11  C   UNL     1     -10.443   5.077  72.887  1.00  0.00    -0.208 C  
HETATM   12  O   UNL     1      -9.211   6.620  71.559  1.00  0.00    -0.147 OA 
HETATM   13  O   UNL     1     -11.033   5.037  73.966  1.00  0.00    -0.287 OA 
HETATM   14  H   UNL     1      -8.696   5.911  71.194  1.00  0.00     0.000 HD 
ENDBRANCH   7  10
ENDBRANCH   4   7
ENDBRANCH   2   4
TORSDOF 3
ENDMDL
MODEL       76
REMARK 921   NORMALIZED FREE ENERGY PREDICTED BY IDOCK:   -3.07 KCAL/MOL
REMARK 922        TOTAL FREE ENERGY PREDICTED BY IDOCK:   -4.23 KCAL/MOL
REMARK 923 INTER-LIGAND FREE ENERGY PREDICTED BY IDOCK:   -4.13 KCAL/MOL
REMARK 924 INTRA-LIGAND FREE ENERGY PREDICTED BY IDOCK:   -0.11 KCAL/MOL
REMARK 927      BINDING AFFINITY PREDICTED BY RF-SCORE:    0.00 PKD
ROOT
HETATM    1  O   UNL     1     -11.675  16.280  63.603  1.00  0.00    -1.447 OA 
HETATM    2  C   UNL     1     -12.086  15.126  64.342  1.00  0.00    -0.300 C  
HETATM    3  H   UNL     1     -12.435  16.627  63.151  1.00  0.00     0.000 HD 
ENDROOT
BRANCH   2   4
HETATM    4  C   UNL     1     -10.860  14.566  65.071  1.00  0.00    -0.412 C  
HETATM    5  O   UNL     1     -10.446  15.499  66.086  1.00  0.00    -0.289 OA 
HETATM    6  H   UNL     1      -9.686  15.151  66.538  1.00  0.00     0.000 HD 
BRANCH   4   7
HETATM    7  C   UNL     1     -11.141  13.184  65.689  1.00  0.00    -0.275 C  
HETATM    8  H   UNL     1     -12.103  12.501  67.260  1.00  0.00     0.000 HD 
HETATM    9  O   UNL     1     -11.929  13.354  66.878  1.00  0.00    -0.382 OA 
BRANCH   7  10
HETATM   10  C   UNL     1      -9.831  12.427  65.995  1.00  0.00    -0.257 C  
HETATM   11  C   UNL     1      -9.771  11.124  65.220  1.00  0.00    -0.241 C  
HETATM   12  O   UNL     1      -9.667  12.121  67.378  1.00  0.00    -0.178 OA 
HETATM   13  O   UNL     1     -10.612  10.772  64.393  1.00  0.00    -0.347 OA 
HETATM   14  H   UNL     1      -8.861  11.655  67.566  1.00  0.00     0.000 HD 
ENDBRANCH   7  10
ENDBRANCH   4   7
ENDBRANCH   2   4
TORSDOF 3
ENDMDL
MODEL       77
REMARK 921   NORMALIZED FREE ENERGY PREDICTED BY IDOCK:   -3.06 KCAL/MOL
REMARK 922        TOTAL FREE ENERGY PREDICTED BY IDOCK:   -4.22 KCAL/MOL
REMARK 923 INTER-LIGAND FREE ENERGY PREDICTED BY IDOCK:   -3.74 KCAL/MOL
REMARK 924 INTRA-LIGAND FREE ENERGY PREDICTED BY IDOCK:   -0.48 KCAL/MOL
REMARK 927      BINDING AFFINITY PREDICTED BY RF-SCORE:    0.00 PKD
ROOT
HETATM    1  O   UNL     1     -13.514   8.757  73.192  1.00  0.00    -0.953 OA 
HETATM    2  C   UNL     1     -13.026   8.662  71.851  1.00  0.00    -0.372 C  
HETATM    3  H   UNL     1     -13.896   9.619  73.307  1.00  0.00     0.000 HD 
ENDROOT
BRANCH   2   4
HETATM    4  C   UNL     1     -12.408   7.272  71.666  1.00  0.00    -0.352 C  
HETATM    5  O   UNL     1     -12.572   6.860  70.296  1.00  0.00    -0.581 OA 
HETATM    6  H   UNL     1     -12.189   5.998  70.181  1.00  0.00     0.000 HD 
BRANCH   4   7
HETATM    7  C   UNL     1     -10.921   7.246  72.063  1.00  0.00    -0.238 C  
HETATM    8  H   UNL     1      -9.895   7.399  73.732  1.00  0.00     0.000 HD 
HETATM    9  O   UNL     1     -10.813   7.415  73.486  1.00  0.00    -0.379 OA 
BRANCH   7  10
HETATM   10  C   UNL     1     -10.119   8.332  71.314  1.00  0.00    -0.198 C  
HETATM   11  C   UNL     1      -9.310   7.718  70.187  1.00  0.00    -0.153 C  
HETATM   12  O   UNL     1      -9.221   9.050  72.155  1.00  0.00    -0.365 OA 
HETATM   13  O   UNL     1      -9.364   6.532  69.863  1.00  0.00    -0.151 OA 
HETATM   14  H   UNL     1      -8.728   9.718  71.694  1.00  0.00     0.000 HD 
ENDBRANCH   7  10
ENDBRANCH   4   7
ENDBRANCH   2   4
TORSDOF 3
ENDMDL
MODEL       78
REMARK 921   NORMALIZED FREE ENERGY PREDICTED BY IDOCK:   -3.06 KCAL/MOL
REMARK 922        TOTAL FREE ENERGY PREDICTED BY IDOCK:   -4.22 KCAL/MOL
REMARK 923 INTER-LIGAND FREE ENERGY PREDICTED BY IDOCK:   -3.94 KCAL/MOL
REMARK 924 INTRA-LIGAND FREE ENERGY PREDICTED BY IDOCK:   -0.28 KCAL/MOL
REMARK 927      BINDING AFFINITY PREDICTED BY RF-SCORE:    0.00 PKD
ROOT
HETATM    1  O   UNL     1     -10.581  16.728  64.925  1.00  0.00    -0.702 OA 
HETATM    2  C   UNL     1     -10.376  15.383  65.365  1.00  0.00    -0.394 C  
HETATM    3  H   UNL     1     -10.613  16.727  63.976  1.00  0.00     0.000 HD 
ENDROOT
BRANCH   2   4
HETATM    4  C   UNL     1     -10.324  15.384  66.896  1.00  0.00    -0.277 C  
HETATM    5  O   UNL     1     -10.758  16.668  67.383  1.00  0.00    -0.316 OA 
HETATM    6  H   UNL     1     -10.726  16.670  68.332  1.00  0.00     0.000 HD 
BRANCH   4   7
HETATM    7  C   UNL     1     -11.183  14.259  67.502  1.00  0.00    -0.307 C  
HETATM    8  H   UNL     1     -12.899  13.401  67.079  1.00  0.00     0.000 HD 
HETATM    9  O   UNL     1     -12.369  14.095  66.706  1.00  0.00    -0.438 OA 
BRANCH   7  10
HETATM   10  C   UNL     1     -11.540  14.554  68.974  1.00  0.00    -0.298 C  
HETATM   11  C   UNL     1     -11.929  13.277  69.697  1.00  0.00    -0.314 C  
HETATM   12  O   UNL     1     -12.613  15.481  69.120  1.00  0.00    -0.593 OA 
HETATM   13  O   UNL     1     -11.874  12.155  69.195  1.00  0.00    -0.300 OA 
HETATM   14  H   UNL     1     -12.833  15.662  70.026  1.00  0.00     0.000 HD 
ENDBRANCH   7  10
ENDBRANCH   4   7
ENDBRANCH   2   4
TORSDOF 3
ENDMDL
MODEL       79
REMARK 921   NORMALIZED FREE ENERGY PREDICTED BY IDOCK:   -3.06 KCAL/MOL
REMARK 922        TOTAL FREE ENERGY PREDICTED BY IDOCK:   -4.22 KCAL/MOL
REMARK 923 INTER-LIGAND FREE ENERGY PREDICTED BY IDOCK:   -3.56 KCAL/MOL
REMARK 924 INTRA-LIGAND FREE ENERGY PREDICTED BY IDOCK:   -0.66 KCAL/MOL
REMARK 927      BINDING AFFINITY PREDICTED BY RF-SCORE:    0.00 PKD
ROOT
HETATM    1  O   UNL     1     -12.321  12.513  64.973  1.00  0.00    -0.472 OA 
HETATM    2  C   UNL     1     -12.904  13.768  65.335  1.00  0.00    -0.410 C  
HETATM    3  H   UNL     1     -12.772  12.189  64.203  1.00  0.00     0.000 HD 
ENDROOT
BRANCH   2   4
HETATM    4  C   UNL     1     -12.176  14.291  66.578  1.00  0.00    -0.391 C  
HETATM    5  O   UNL     1     -11.877  13.186  67.451  1.00  0.00    -0.355 OA 
HETATM    6  H   UNL     1     -11.425  13.510  68.221  1.00  0.00     0.000 HD 
BRANCH   4   7
HETATM    7  C   UNL     1     -10.890  15.054  66.212  1.00  0.00    -0.333 C  
HETATM    8  H   UNL     1     -10.095  15.790  64.573  1.00  0.00     0.000 HD 
HETATM    9  O   UNL     1     -10.888  15.320  64.799  1.00  0.00    -0.411 OA 
BRANCH   7  10
HETATM   10  C   UNL     1      -9.630  14.265  66.629  1.00  0.00    -0.289 C  
HETATM   11  C   UNL     1      -8.422  15.182  66.693  1.00  0.00    -0.195 C  
HETATM   12  O   UNL     1      -9.318  13.193  65.744  1.00  0.00    -0.462 OA 
HETATM   13  O   UNL     1      -8.468  16.400  66.525  1.00  0.00    -0.239 OA 
HETATM   14  H   UNL     1      -8.542  12.708  66.001  1.00  0.00     0.000 HD 
ENDBRANCH   7  10
ENDBRANCH   4   7
ENDBRANCH   2   4
TORSDOF 3
ENDMDL
MODEL       80
REMARK 921   NORMALIZED FREE ENERGY PREDICTED BY IDOCK:   -3.04 KCAL/MOL
REMARK 922        TOTAL FREE ENERGY PREDICTED BY IDOCK:   -4.20 KCAL/MOL
REMARK 923 INTER-LIGAND FREE ENERGY PREDICTED BY IDOCK:   -3.92 KCAL/MOL
REMARK 924 INTRA-LIGAND FREE ENERGY PREDICTED BY IDOCK:   -0.27 KCAL/MOL
REMARK 927      BINDING AFFINITY PREDICTED BY RF-SCORE:    0.00 PKD
ROOT
HETATM    1  O   UNL     1     -13.288  15.032  70.125  1.00  0.00    -0.600 OA 
HETATM    2  C   UNL     1     -11.871  15.113  69.941  1.00  0.00    -0.330 C  
HETATM    3  H   UNL     1     -13.454  14.744  71.015  1.00  0.00     0.000 HD 
ENDROOT
BRANCH   2   4
HETATM    4  C   UNL     1     -11.603  15.577  68.506  1.00  0.00    -0.368 C  
HETATM    5  O   UNL     1     -10.345  16.275  68.462  1.00  0.00    -0.239 OA 
HETATM    6  H   UNL     1     -10.178  16.563  67.572  1.00  0.00     0.000 HD 
BRANCH   4   7
HETATM    7  C   UNL     1     -11.603  14.401  67.512  1.00  0.00    -0.373 C  
HETATM    8  H   UNL     1     -10.767  12.625  67.415  1.00  0.00     0.000 HD 
HETATM    9  O   UNL     1     -10.767  13.351  68.028  1.00  0.00    -0.237 OA 
BRANCH   7  10
HETATM   10  C   UNL     1     -11.131  14.847  66.112  1.00  0.00    -0.335 C  
HETATM   11  C   UNL     1     -11.976  14.199  65.030  1.00  0.00    -0.408 C  
HETATM   12  O   UNL     1      -9.766  14.529  65.849  1.00  0.00    -0.334 OA 
HETATM   13  O   UNL     1     -12.957  13.491  65.251  1.00  0.00    -0.701 OA 
HETATM   14  H   UNL     1      -9.476  14.804  64.987  1.00  0.00     0.000 HD 
ENDBRANCH   7  10
ENDBRANCH   4   7
ENDBRANCH   2   4
TORSDOF 3
ENDMDL
MODEL       81
REMARK 921   NORMALIZED FREE ENERGY PREDICTED BY IDOCK:   -3.04 KCAL/MOL
REMARK 922        TOTAL FREE ENERGY PREDICTED BY IDOCK:   -4.19 KCAL/MOL
REMARK 923 INTER-LIGAND FREE ENERGY PREDICTED BY IDOCK:   -4.09 KCAL/MOL
REMARK 924 INTRA-LIGAND FREE ENERGY PREDICTED BY IDOCK:   -0.11 KCAL/MOL
REMARK 927      BINDING AFFINITY PREDICTED BY RF-SCORE:    0.00 PKD
ROOT
HETATM    1  O   UNL     1      -7.917  14.316  66.848  1.00  0.00    -0.370 OA 
HETATM    2  C   UNL     1      -9.166  14.504  67.519  1.00  0.00    -0.194 C  
HETATM    3  H   UNL     1      -7.263  14.089  67.498  1.00  0.00     0.000 HD 
ENDROOT
BRANCH   2   4
HETATM    4  C   UNL     1     -10.221  14.870  66.470  1.00  0.00    -0.275 C  
HETATM    5  O   UNL     1      -9.754  14.465  65.169  1.00  0.00    -0.529 OA 
HETATM    6  H   UNL     1     -10.408  14.692  64.518  1.00  0.00     0.000 HD 
BRANCH   4   7
HETATM    7  C   UNL     1     -11.585  14.227  66.778  1.00  0.00    -0.391 C  
HETATM    8  H   UNL     1     -12.671  13.902  68.383  1.00  0.00     0.000 HD 
HETATM    9  O   UNL     1     -11.829  14.299  68.192  1.00  0.00    -0.327 OA 
BRANCH   7  10
HETATM   10  C   UNL     1     -11.645  12.767  66.279  1.00  0.00    -0.379 C  
HETATM   11  C   UNL     1     -12.420  12.678  64.977  1.00  0.00    -0.487 C  
HETATM   12  O   UNL     1     -12.254  11.877  67.211  1.00  0.00    -0.495 OA 
HETATM   13  O   UNL     1     -12.856  13.651  64.364  1.00  0.00    -0.638 OA 
HETATM   14  H   UNL     1     -12.291  10.980  66.904  1.00  0.00     0.000 HD 
ENDBRANCH   7  10
ENDBRANCH   4   7
ENDBRANCH   2   4
TORSDOF 3
ENDMDL
MODEL       82
REMARK 921   NORMALIZED FREE ENERGY PREDICTED BY IDOCK:   -3.03 KCAL/MOL
REMARK 922        TOTAL FREE ENERGY PREDICTED BY IDOCK:   -4.19 KCAL/MOL
REMARK 923 INTER-LIGAND FREE ENERGY PREDICTED BY IDOCK:   -3.79 KCAL/MOL
REMARK 924 INTRA-LIGAND FREE ENERGY PREDICTED BY IDOCK:   -0.40 KCAL/MOL
REMARK 927      BINDING AFFINITY PREDICTED BY RF-SCORE:    0.00 PKD
ROOT
HETATM    1  O   UNL     1      -9.619  20.558  66.085  1.00  0.00    -0.650 OA 
HETATM    2  C   UNL     1     -10.434  19.384  66.039  1.00  0.00    -0.505 C  
HETATM    3  H   UNL     1     -10.143  21.294  65.792  1.00  0.00     0.000 HD 
ENDROOT
BRANCH   2   4
HETATM    4  C   UNL     1      -9.588  18.197  66.511  1.00  0.00    -0.317 C  
HETATM    5  O   UNL     1      -8.353  18.173  65.771  1.00  0.00    -0.499 OA 
HETATM    6  H   UNL     1      -7.828  17.437  66.063  1.00  0.00     0.000 HD 
BRANCH   4   7
HETATM    7  C   UNL     1      -9.309  18.256  68.024  1.00  0.00    -0.284 C  
HETATM    8  H   UNL     1      -9.885  19.378  69.531  1.00  0.00     0.000 HD 
HETATM    9  O   UNL     1     -10.057  19.341  68.597  1.00  0.00    -0.406 OA 
BRANCH   7  10
HETATM   10  C   UNL     1      -7.800  18.409  68.313  1.00  0.00    -0.298 C  
HETATM   11  C   UNL     1      -7.259  17.170  69.003  1.00  0.00    -0.229 C  
HETATM   12  O   UNL     1      -7.495  19.534  69.134  1.00  0.00    -0.366 OA 
HETATM   13  O   UNL     1      -7.918  16.153  69.214  1.00  0.00    -0.235 OA 
HETATM   14  H   UNL     1      -6.567  19.628  69.311  1.00  0.00     0.000 HD 
ENDBRANCH   7  10
ENDBRANCH   4   7
ENDBRANCH   2   4
TORSDOF 3
ENDMDL
MODEL       83
REMARK 921   NORMALIZED FREE ENERGY PREDICTED BY IDOCK:   -3.03 KCAL/MOL
REMARK 922        TOTAL FREE ENERGY PREDICTED BY IDOCK:   -4.18 KCAL/MOL
REMARK 923 INTER-LIGAND FREE ENERGY PREDICTED BY IDOCK:   -3.80 KCAL/MOL
REMARK 924 INTRA-LIGAND FREE ENERGY PREDICTED BY IDOCK:   -0.39 KCAL/MOL
REMARK 927      BINDING AFFINITY PREDICTED BY RF-SCORE:    0.00 PKD
ROOT
HETATM    1  O   UNL     1     -11.255  15.053  66.132  1.00  0.00    -0.342 OA 
HETATM    2  C   UNL     1     -10.223  15.578  66.972  1.00  0.00    -0.271 C  
HETATM    3  H   UNL     1     -10.935  14.251  65.736  1.00  0.00     0.000 HD 
ENDROOT
BRANCH   2   4
HETATM    4  C   UNL     1     -10.739  16.871  67.610  1.00  0.00    -0.290 C  
HETATM    5  O   UNL     1     -10.188  16.998  68.934  1.00  0.00    -0.286 OA 
HETATM    6  H   UNL     1     -10.508  17.800  69.330  1.00  0.00     0.000 HD 
BRANCH   4   7
HETATM    7  C   UNL     1     -10.393  18.108  66.761  1.00  0.00    -0.365 C  
HETATM    8  H   UNL     1     -10.411  18.569  64.851  1.00  0.00     0.000 HD 
HETATM    9  O   UNL     1     -10.624  17.806  65.375  1.00  0.00    -0.659 OA 
BRANCH   7  10
HETATM   10  C   UNL     1      -8.935  18.561  66.993  1.00  0.00    -0.274 C  
HETATM   11  C   UNL     1      -8.878  20.048  67.290  1.00  0.00    -0.344 C  
HETATM   12  O   UNL     1      -8.081  18.305  65.881  1.00  0.00    -0.504 OA 
HETATM   13  O   UNL     1      -9.868  20.767  67.418  1.00  0.00    -0.464 OA 
HETATM   14  H   UNL     1      -7.185  18.583  66.024  1.00  0.00     0.000 HD 
ENDBRANCH   7  10
ENDBRANCH   4   7
ENDBRANCH   2   4
TORSDOF 3
ENDMDL
MODEL       84
REMARK 921   NORMALIZED FREE ENERGY PREDICTED BY IDOCK:   -3.01 KCAL/MOL
REMARK 922        TOTAL FREE ENERGY PREDICTED BY IDOCK:   -4.16 KCAL/MOL
REMARK 923 INTER-LIGAND FREE ENERGY PREDICTED BY IDOCK:   -3.62 KCAL/MOL
REMARK 924 INTRA-LIGAND FREE ENERGY PREDICTED BY IDOCK:   -0.53 KCAL/MOL
REMARK 927      BINDING AFFINITY PREDICTED BY RF-SCORE:    0.00 PKD
ROOT
HETATM    1  O   UNL     1     -13.672   7.248  71.066  1.00  0.00    -0.593 OA 
HETATM    2  C   UNL     1     -12.321   7.007  71.469  1.00  0.00    -0.379 C  
HETATM    3  H   UNL     1     -13.958   6.514  70.536  1.00  0.00     0.000 HD 
ENDROOT
BRANCH   2   4
HETATM    4  C   UNL     1     -11.860   8.192  72.323  1.00  0.00    -0.382 C  
HETATM    5  O   UNL     1     -10.687   7.811  73.068  1.00  0.00    -0.354 OA 
HETATM    6  H   UNL     1     -10.401   8.545  73.597  1.00  0.00     0.000 HD 
BRANCH   4   7
HETATM    7  C   UNL     1     -11.574   9.440  71.468  1.00  0.00    -0.397 C  
HETATM    8  H   UNL     1     -12.620  10.947  70.764  1.00  0.00     0.000 HD 
HETATM    9  O   UNL     1     -12.796  10.177  71.291  1.00  0.00    -0.347 OA 
BRANCH   7  10
HETATM   10  C   UNL     1     -10.954   9.060  70.107  1.00  0.00    -0.233 C  
HETATM   11  C   UNL     1      -9.441   9.168  70.159  1.00  0.00    -0.208 C  
HETATM   12  O   UNL     1     -11.413   9.874  69.031  1.00  0.00    -0.460 OA 
HETATM   13  O   UNL     1      -8.802   9.433  71.176  1.00  0.00    -0.272 OA 
HETATM   14  H   UNL     1     -11.032   9.640  68.194  1.00  0.00     0.000 HD 
ENDBRANCH   7  10
ENDBRANCH   4   7
ENDBRANCH   2   4
TORSDOF 3
ENDMDL
MODEL       85
REMARK 921   NORMALIZED FREE ENERGY PREDICTED BY IDOCK:   -3.00 KCAL/MOL
REMARK 922        TOTAL FREE ENERGY PREDICTED BY IDOCK:   -4.15 KCAL/MOL
REMARK 923 INTER-LIGAND FREE ENERGY PREDICTED BY IDOCK:   -3.73 KCAL/MOL
REMARK 924 INTRA-LIGAND FREE ENERGY PREDICTED BY IDOCK:   -0.42 KCAL/MOL
REMARK 927      BINDING AFFINITY PREDICTED BY RF-SCORE:    0.00 PKD
ROOT
HETATM    1  O   UNL     1     -12.548  14.264  69.495  1.00  0.00    -0.519 OA 
HETATM    2  C   UNL     1     -12.481  15.454  70.287  1.00  0.00    -0.374 C  
HETATM    3  H   UNL     1     -13.422  13.901  69.581  1.00  0.00     0.000 HD 
ENDROOT
BRANCH   2   4
HETATM    4  C   UNL     1     -11.072  16.039  70.150  1.00  0.00    -0.371 C  
HETATM    5  O   UNL     1     -10.105  14.978  70.270  1.00  0.00    -0.502 OA 
HETATM    6  H   UNL     1      -9.231  15.341  70.184  1.00  0.00     0.000 HD 
BRANCH   4   7
HETATM    7  C   UNL     1     -10.888  16.788  68.818  1.00  0.00    -0.318 C  
HETATM    8  H   UNL     1     -10.563  16.294  66.944  1.00  0.00     0.000 HD 
HETATM    9  O   UNL     1     -10.676  15.831  67.766  1.00  0.00    -0.291 OA 
BRANCH   7  10
HETATM   10  C   UNL     1      -9.720  17.795  68.894  1.00  0.00    -0.262 C  
HETATM   11  C   UNL     1      -9.966  18.971  67.967  1.00  0.00    -0.368 C  
HETATM   12  O   UNL     1      -8.461  17.224  68.550  1.00  0.00    -0.252 OA 
HETATM   13  O   UNL     1     -10.998  19.137  67.318  1.00  0.00    -0.478 OA 
HETATM   14  H   UNL     1      -7.742  17.843  68.597  1.00  0.00     0.000 HD 
ENDBRANCH   7  10
ENDBRANCH   4   7
ENDBRANCH   2   4
TORSDOF 3
ENDMDL
MODEL       86
REMARK 921   NORMALIZED FREE ENERGY PREDICTED BY IDOCK:   -3.00 KCAL/MOL
REMARK 922        TOTAL FREE ENERGY PREDICTED BY IDOCK:   -4.15 KCAL/MOL
REMARK 923 INTER-LIGAND FREE ENERGY PREDICTED BY IDOCK:   -4.38 KCAL/MOL
REMARK 924 INTRA-LIGAND FREE ENERGY PREDICTED BY IDOCK:    0.24 KCAL/MOL
REMARK 927      BINDING AFFINITY PREDICTED BY RF-SCORE:    0.00 PKD
ROOT
HETATM    1  O   UNL     1      -8.430  11.744  66.197  1.00  0.00    -0.364 OA 
HETATM    2  C   UNL     1      -9.443  12.272  67.058  1.00  0.00    -0.204 C  
HETATM    3  H   UNL     1      -7.602  11.776  66.662  1.00  0.00     0.000 HD 
ENDROOT
BRANCH   2   4
HETATM    4  C   UNL     1     -10.779  12.221  66.309  1.00  0.00    -0.259 C  
HETATM    5  O   UNL     1     -11.845  12.018  67.256  1.00  0.00    -0.556 OA 
HETATM    6  H   UNL     1     -12.673  11.986  66.791  1.00  0.00     0.000 HD 
BRANCH   4   7
HETATM    7  C   UNL     1     -11.024  13.497  65.484  1.00  0.00    -0.288 C  
HETATM    8  H   UNL     1     -12.456  14.834  65.331  1.00  0.00     0.000 HD 
HETATM    9  O   UNL     1     -12.304  14.046  65.840  1.00  0.00    -0.444 OA 
BRANCH   7  10
HETATM   10  C   UNL     1     -10.945  13.213  63.969  1.00  0.00    -0.346 C  
HETATM   11  C   UNL     1     -12.165  12.436  63.506  1.00  0.00    -0.563 C  
HETATM   12  O   UNL     1      -9.787  12.471  63.595  1.00  0.00    -0.638 OA 
HETATM   13  O   UNL     1     -13.122  12.158  64.227  1.00  0.00    -0.723 OA 
HETATM   14  H   UNL     1      -9.739  12.296  62.662  1.00  0.00     0.000 HD 
ENDBRANCH   7  10
ENDBRANCH   4   7
ENDBRANCH   2   4
TORSDOF 3
ENDMDL
MODEL       87
REMARK 921   NORMALIZED FREE ENERGY PREDICTED BY IDOCK:   -2.99 KCAL/MOL
REMARK 922        TOTAL FREE ENERGY PREDICTED BY IDOCK:   -4.14 KCAL/MOL
REMARK 923 INTER-LIGAND FREE ENERGY PREDICTED BY IDOCK:   -4.01 KCAL/MOL
REMARK 924 INTRA-LIGAND FREE ENERGY PREDICTED BY IDOCK:   -0.13 KCAL/MOL
REMARK 927      BINDING AFFINITY PREDICTED BY RF-SCORE:    0.00 PKD
ROOT
HETATM    1  O   UNL     1     -11.468  16.519  63.668  1.00  0.00    -1.421 OA 
HETATM    2  C   UNL     1     -11.317  15.741  64.859  1.00  0.00    -0.280 C  
HETATM    3  H   UNL     1     -12.203  16.170  63.178  1.00  0.00     0.000 HD 
ENDROOT
BRANCH   2   4
HETATM    4  C   UNL     1     -10.132  16.304  65.649  1.00  0.00    -0.312 C  
HETATM    5  O   UNL     1     -10.075  17.731  65.465  1.00  0.00    -0.548 OA 
HETATM    6  H   UNL     1      -9.341  18.080  65.955  1.00  0.00     0.000 HD 
BRANCH   4   7
HETATM    7  C   UNL     1     -10.222  15.956  67.146  1.00  0.00    -0.278 C  
HETATM    8  H   UNL     1      -9.731  16.827  68.837  1.00  0.00     0.000 HD 
HETATM    9  O   UNL     1      -9.675  17.041  67.913  1.00  0.00    -0.253 OA 
BRANCH   7  10
HETATM   10  C   UNL     1      -9.493  14.632  67.461  1.00  0.00    -0.198 C  
HETATM   11  C   UNL     1     -10.493  13.523  67.736  1.00  0.00    -0.240 C  
HETATM   12  O   UNL     1      -8.622  14.722  68.585  1.00  0.00    -0.158 OA 
HETATM   13  O   UNL     1     -11.712  13.649  67.629  1.00  0.00    -0.321 OA 
HETATM   14  H   UNL     1      -8.174  13.907  68.779  1.00  0.00     0.000 HD 
ENDBRANCH   7  10
ENDBRANCH   4   7
ENDBRANCH   2   4
TORSDOF 3
ENDMDL
MODEL       88
REMARK 921   NORMALIZED FREE ENERGY PREDICTED BY IDOCK:   -2.97 KCAL/MOL
REMARK 922        TOTAL FREE ENERGY PREDICTED BY IDOCK:   -4.12 KCAL/MOL
REMARK 923 INTER-LIGAND FREE ENERGY PREDICTED BY IDOCK:   -3.98 KCAL/MOL
REMARK 924 INTRA-LIGAND FREE ENERGY PREDICTED BY IDOCK:   -0.14 KCAL/MOL
REMARK 927      BINDING AFFINITY PREDICTED BY RF-SCORE:    0.00 PKD
ROOT
HETATM    1  O   UNL     1     -11.384  13.502  70.213  1.00  0.00    -0.498 OA 
HETATM    2  C   UNL     1     -11.434  12.827  68.952  1.00  0.00    -0.305 C  
HETATM    3  H   UNL     1     -11.004  14.361  70.073  1.00  0.00     0.000 HD 
ENDROOT
BRANCH   2   4
HETATM    4  C   UNL     1     -12.047  11.441  69.178  1.00  0.00    -0.264 C  
HETATM    5  O   UNL     1     -11.959  10.681  67.958  1.00  0.00    -0.784 OA 
HETATM    6  H   UNL     1     -12.339   9.822  68.097  1.00  0.00     0.000 HD 
BRANCH   4   7
HETATM    7  C   UNL     1     -11.359  10.689  70.332  1.00  0.00    -0.304 C  
HETATM    8  H   UNL     1      -9.869   9.422  70.511  1.00  0.00     0.000 HD 
HETATM    9  O   UNL     1     -10.293   9.885  69.799  1.00  0.00    -0.213 OA 
BRANCH   7  10
HETATM   10  C   UNL     1     -12.366   9.824  71.119  1.00  0.00    -0.359 C  
HETATM   11  C   UNL     1     -13.285  10.697  71.953  1.00  0.00    -0.423 C  
HETATM   12  O   UNL     1     -11.741   8.888  71.994  1.00  0.00    -0.350 OA 
HETATM   13  O   UNL     1     -13.282  11.927  71.927  1.00  0.00    -0.482 OA 
HETATM   14  H   UNL     1     -12.361   8.355  72.478  1.00  0.00     0.000 HD 
ENDBRANCH   7  10
ENDBRANCH   4   7
ENDBRANCH   2   4
TORSDOF 3
ENDMDL
MODEL       89
REMARK 921   NORMALIZED FREE ENERGY PREDICTED BY IDOCK:   -2.97 KCAL/MOL
REMARK 922        TOTAL FREE ENERGY PREDICTED BY IDOCK:   -4.11 KCAL/MOL
REMARK 923 INTER-LIGAND FREE ENERGY PREDICTED BY IDOCK:   -3.97 KCAL/MOL
REMARK 924 INTRA-LIGAND FREE ENERGY PREDICTED BY IDOCK:   -0.14 KCAL/MOL
REMARK 927      BINDING AFFINITY PREDICTED BY RF-SCORE:    0.00 PKD
ROOT
HETATM    1  O   UNL     1     -12.992  14.864  69.939  1.00  0.00    -0.600 OA 
HETATM    2  C   UNL     1     -11.974  14.307  69.103  1.00  0.00    -0.335 C  
HETATM    3  H   UNL     1     -13.206  14.226  70.609  1.00  0.00     0.000 HD 
ENDROOT
BRANCH   2   4
HETATM    4  C   UNL     1     -11.630  15.335  68.021  1.00  0.00    -0.312 C  
HETATM    5  O   UNL     1     -10.613  16.224  68.519  1.00  0.00    -0.262 OA 
HETATM    6  H   UNL     1     -10.399  16.862  67.849  1.00  0.00     0.000 HD 
BRANCH   4   7
HETATM    7  C   UNL     1     -11.167  14.663  66.715  1.00  0.00    -0.344 C  
HETATM    8  H   UNL     1     -10.636  15.263  64.921  1.00  0.00     0.000 HD 
HETATM    9  O   UNL     1     -10.922  15.677  65.727  1.00  0.00    -0.314 OA 
BRANCH   7  10
HETATM   10  C   UNL     1     -12.205  13.638  66.211  1.00  0.00    -0.436 C  
HETATM   11  C   UNL     1     -11.515  12.391  65.688  1.00  0.00    -0.367 C  
HETATM   12  O   UNL     1     -13.038  14.144  65.172  1.00  0.00    -0.757 OA 
HETATM   13  O   UNL     1     -10.302  12.195  65.748  1.00  0.00    -0.243 OA 
HETATM   14  H   UNL     1     -13.677  13.513  64.862  1.00  0.00     0.000 HD 
ENDBRANCH   7  10
ENDBRANCH   4   7
ENDBRANCH   2   4
TORSDOF 3
ENDMDL
MODEL       90
REMARK 921   NORMALIZED FREE ENERGY PREDICTED BY IDOCK:   -2.96 KCAL/MOL
REMARK 922        TOTAL FREE ENERGY PREDICTED BY IDOCK:   -4.11 KCAL/MOL
REMARK 923 INTER-LIGAND FREE ENERGY PREDICTED BY IDOCK:   -3.77 KCAL/MOL
REMARK 924 INTRA-LIGAND FREE ENERGY PREDICTED BY IDOCK:   -0.33 KCAL/MOL
REMARK 927      BINDING AFFINITY PREDICTED BY RF-SCORE:    0.00 PKD
ROOT
HETATM    1  O   UNL     1      -9.212  11.147  69.226  1.00  0.00    -0.397 OA 
HETATM    2  C   UNL     1     -10.057  10.328  68.413  1.00  0.00    -0.159 C  
HETATM    3  H   UNL     1      -8.423  10.656  69.421  1.00  0.00     0.000 HD 
ENDROOT
BRANCH   2   4
HETATM    4  C   UNL     1     -11.330  11.121  68.098  1.00  0.00    -0.309 C  
HETATM    5  O   UNL     1     -12.431  10.561  68.838  1.00  0.00    -0.776 OA 
HETATM    6  H   UNL     1     -13.220  11.053  68.643  1.00  0.00     0.000 HD 
BRANCH   4   7
HETATM    7  C   UNL     1     -11.169  12.618  68.420  1.00  0.00    -0.279 C  
HETATM    8  H   UNL     1     -11.596  13.798  69.932  1.00  0.00     0.000 HD 
HETATM    9  O   UNL     1     -11.695  12.874  69.732  1.00  0.00    -0.307 OA 
BRANCH   7  10
HETATM   10  C   UNL     1     -11.865  13.500  67.362  1.00  0.00    -0.384 C  
HETATM   11  C   UNL     1     -10.873  13.949  66.304  1.00  0.00    -0.290 C  
HETATM   12  O   UNL     1     -12.475  14.665  67.911  1.00  0.00    -0.586 OA 
HETATM   13  O   UNL     1      -9.701  13.580  66.254  1.00  0.00    -0.285 OA 
HETATM   14  H   UNL     1     -12.903  15.207  67.260  1.00  0.00     0.000 HD 
ENDBRANCH   7  10
ENDBRANCH   4   7
ENDBRANCH   2   4
TORSDOF 3
ENDMDL
MODEL       91
REMARK 921   NORMALIZED FREE ENERGY PREDICTED BY IDOCK:   -2.95 KCAL/MOL
REMARK 922        TOTAL FREE ENERGY PREDICTED BY IDOCK:   -4.09 KCAL/MOL
REMARK 923 INTER-LIGAND FREE ENERGY PREDICTED BY IDOCK:   -3.71 KCAL/MOL
REMARK 924 INTRA-LIGAND FREE ENERGY PREDICTED BY IDOCK:   -0.39 KCAL/MOL
REMARK 927      BINDING AFFINITY PREDICTED BY RF-SCORE:    0.00 PKD
ROOT
HETATM    1  O   UNL     1     -10.019  20.244  65.689  1.00  0.00    -0.572 OA 
HETATM    2  C   UNL     1     -10.531  19.502  66.799  1.00  0.00    -0.481 C  
HETATM    3  H   UNL     1     -10.652  20.916  65.465  1.00  0.00     0.000 HD 
ENDROOT
BRANCH   2   4
HETATM    4  C   UNL     1      -9.510  18.418  67.160  1.00  0.00    -0.282 C  
HETATM    5  O   UNL     1      -9.537  18.197  68.583  1.00  0.00    -0.318 OA 
HETATM    6  H   UNL     1      -8.904  17.525  68.807  1.00  0.00     0.000 HD 
BRANCH   4   7
HETATM    7  C   UNL     1      -9.776  17.103  66.404  1.00  0.00    -0.292 C  
HETATM    8  H   UNL     1     -10.945  16.522  64.936  1.00  0.00     0.000 HD 
HETATM    9  O   UNL     1     -10.781  17.333  65.403  1.00  0.00    -0.583 OA 
BRANCH   7  10
HETATM   10  C   UNL     1     -10.202  15.976  67.368  1.00  0.00    -0.273 C  
HETATM   11  C   UNL     1     -10.256  14.643  66.643  1.00  0.00    -0.274 C  
HETATM   12  O   UNL     1     -11.476  16.198  67.968  1.00  0.00    -0.289 OA 
HETATM   13  O   UNL     1      -9.916  14.479  65.472  1.00  0.00    -0.342 OA 
HETATM   14  H   UNL     1     -11.738  15.504  68.561  1.00  0.00     0.000 HD 
ENDBRANCH   7  10
ENDBRANCH   4   7
ENDBRANCH   2   4
TORSDOF 3
ENDMDL
MODEL       92
REMARK 921   NORMALIZED FREE ENERGY PREDICTED BY IDOCK:   -2.94 KCAL/MOL
REMARK 922        TOTAL FREE ENERGY PREDICTED BY IDOCK:   -4.08 KCAL/MOL
REMARK 923 INTER-LIGAND FREE ENERGY PREDICTED BY IDOCK:   -3.76 KCAL/MOL
REMARK 924 INTRA-LIGAND FREE ENERGY PREDICTED BY IDOCK:   -0.32 KCAL/MOL
REMARK 927      BINDING AFFINITY PREDICTED BY RF-SCORE:    0.00 PKD
ROOT
HETATM    1  O   UNL     1     -11.106  16.371  64.129  1.00  0.00    -1.226 OA 
HETATM    2  C   UNL     1     -10.540  15.770  65.297  1.00  0.00    -0.423 C  
HETATM    3  H   UNL     1     -11.260  15.686  63.489  1.00  0.00     0.000 HD 
ENDROOT
BRANCH   2   4
HETATM    4  C   UNL     1     -10.290  16.875  66.328  1.00  0.00    -0.308 C  
HETATM    5  O   UNL     1     -11.153  16.668  67.462  1.00  0.00    -0.207 OA 
HETATM    6  H   UNL     1     -10.998  17.353  68.102  1.00  0.00     0.000 HD 
BRANCH   4   7
HETATM    7  C   UNL     1      -8.817  16.924  66.772  1.00  0.00    -0.235 C  
HETATM    8  H   UNL     1      -7.123  17.556  66.002  1.00  0.00     0.000 HD 
HETATM    9  O   UNL     1      -8.033  17.525  65.729  1.00  0.00    -0.548 OA 
BRANCH   7  10
HETATM   10  C   UNL     1      -8.287  15.517  67.123  1.00  0.00    -0.214 C  
HETATM   11  C   UNL     1      -8.319  15.292  68.623  1.00  0.00    -0.162 C  
HETATM   12  O   UNL     1      -6.953  15.289  66.676  1.00  0.00    -0.194 OA 
HETATM   13  O   UNL     1      -8.790  16.090  69.432  1.00  0.00    -0.243 OA 
HETATM   14  H   UNL     1      -6.628  14.424  66.892  1.00  0.00     0.000 HD 
ENDBRANCH   7  10
ENDBRANCH   4   7
ENDBRANCH   2   4
TORSDOF 3
ENDMDL
MODEL       93
REMARK 921   NORMALIZED FREE ENERGY PREDICTED BY IDOCK:   -2.94 KCAL/MOL
REMARK 922        TOTAL FREE ENERGY PREDICTED BY IDOCK:   -4.08 KCAL/MOL
REMARK 923 INTER-LIGAND FREE ENERGY PREDICTED BY IDOCK:   -3.55 KCAL/MOL
REMARK 924 INTRA-LIGAND FREE ENERGY PREDICTED BY IDOCK:   -0.54 KCAL/MOL
REMARK 927      BINDING AFFINITY PREDICTED BY RF-SCORE:    0.00 PKD
ROOT
HETATM    1  O   UNL     1     -13.695  15.017  70.537  1.00  0.00    -0.644 OA 
HETATM    2  C   UNL     1     -12.582  14.159  70.806  1.00  0.00    -0.362 C  
HETATM    3  H   UNL     1     -14.282  14.982  71.283  1.00  0.00     0.000 HD 
ENDROOT
BRANCH   2   4
HETATM    4  C   UNL     1     -11.635  14.215  69.603  1.00  0.00    -0.292 C  
HETATM    5  O   UNL     1     -12.407  14.414  68.403  1.00  0.00    -0.600 OA 
HETATM    6  H   UNL     1     -11.820  14.449  67.657  1.00  0.00     0.000 HD 
BRANCH   4   7
HETATM    7  C   UNL     1     -10.578  15.324  69.755  1.00  0.00    -0.282 C  
HETATM    8  H   UNL     1     -10.436  17.026  70.725  1.00  0.00     0.000 HD 
HETATM    9  O   UNL     1     -11.088  16.342  70.631  1.00  0.00    -0.341 OA 
BRANCH   7  10
HETATM   10  C   UNL     1     -10.184  15.917  68.385  1.00  0.00    -0.226 C  
HETATM   11  C   UNL     1      -8.737  16.376  68.397  1.00  0.00    -0.213 C  
HETATM   12  O   UNL     1     -10.990  17.028  68.000  1.00  0.00    -0.360 OA 
HETATM   13  O   UNL     1      -7.966  16.208  69.341  1.00  0.00    -0.227 OA 
HETATM   14  H   UNL     1     -10.747  17.393  67.157  1.00  0.00     0.000 HD 
ENDBRANCH   7  10
ENDBRANCH   4   7
ENDBRANCH   2   4
TORSDOF 3
ENDMDL
MODEL       94
REMARK 921   NORMALIZED FREE ENERGY PREDICTED BY IDOCK:   -2.91 KCAL/MOL
REMARK 922        TOTAL FREE ENERGY PREDICTED BY IDOCK:   -4.04 KCAL/MOL
REMARK 923 INTER-LIGAND FREE ENERGY PREDICTED BY IDOCK:   -3.32 KCAL/MOL
REMARK 924 INTRA-LIGAND FREE ENERGY PREDICTED BY IDOCK:   -0.72 KCAL/MOL
REMARK 927      BINDING AFFINITY PREDICTED BY RF-SCORE:    0.00 PKD
ROOT
HETATM    1  O   UNL     1     -11.593  12.350  68.748  1.00  0.00    -0.278 OA 
HETATM    2  C   UNL     1     -12.065  13.564  69.340  1.00  0.00    -0.289 C  
HETATM    3  H   UNL     1     -12.202  11.656  68.972  1.00  0.00     0.000 HD 
ENDROOT
BRANCH   2   4
HETATM    4  C   UNL     1     -11.083  14.683  68.978  1.00  0.00    -0.259 C  
HETATM    5  O   UNL     1      -9.746  14.265  69.312  1.00  0.00    -0.415 OA 
HETATM    6  H   UNL     1      -9.137  14.959  69.088  1.00  0.00     0.000 HD 
BRANCH   4   7
HETATM    7  C   UNL     1     -11.173  15.069  67.491  1.00  0.00    -0.330 C  
HETATM    8  H   UNL     1     -12.432  14.751  66.016  1.00  0.00     0.000 HD 
HETATM    9  O   UNL     1     -12.376  14.513  66.934  1.00  0.00    -0.319 OA 
BRANCH   7  10
HETATM   10  C   UNL     1      -9.929  14.592  66.710  1.00  0.00    -0.261 C  
HETATM   11  C   UNL     1      -9.811  15.332  65.389  1.00  0.00    -0.283 C  
HETATM   12  O   UNL     1      -9.942  13.195  66.428  1.00  0.00    -0.269 OA 
HETATM   13  O   UNL     1     -10.555  16.248  65.041  1.00  0.00    -0.620 OA 
HETATM   14  H   UNL     1      -9.177  12.902  65.947  1.00  0.00     0.000 HD 
ENDBRANCH   7  10
ENDBRANCH   4   7
ENDBRANCH   2   4
TORSDOF 3
ENDMDL
MODEL       95
REMARK 921   NORMALIZED FREE ENERGY PREDICTED BY IDOCK:   -2.89 KCAL/MOL
REMARK 922        TOTAL FREE ENERGY PREDICTED BY IDOCK:   -4.02 KCAL/MOL
REMARK 923 INTER-LIGAND FREE ENERGY PREDICTED BY IDOCK:   -3.70 KCAL/MOL
REMARK 924 INTRA-LIGAND FREE ENERGY PREDICTED BY IDOCK:   -0.32 KCAL/MOL
REMARK 927      BINDING AFFINITY PREDICTED BY RF-SCORE:    0.00 PKD
ROOT
HETATM    1  O   UNL     1     -10.727  18.959  65.504  1.00  0.00    -0.556 OA 
HETATM    2  C   UNL     1     -10.342  20.049  66.348  1.00  0.00    -0.455 C  
HETATM    3  H   UNL     1     -11.660  19.026  65.342  1.00  0.00     0.000 HD 
ENDROOT
BRANCH   2   4
HETATM    4  C   UNL     1      -8.837  19.941  66.610  1.00  0.00    -0.358 C  
HETATM    5  O   UNL     1      -8.346  21.210  67.079  1.00  0.00    -0.557 OA 
HETATM    6  H   UNL     1      -7.413  21.144  67.242  1.00  0.00     0.000 HD 
BRANCH   4   7
HETATM    7  C   UNL     1      -8.508  18.828  67.621  1.00  0.00    -0.272 C  
HETATM    8  H   UNL     1      -7.995  18.738  69.515  1.00  0.00     0.000 HD 
HETATM    9  O   UNL     1      -8.198  19.424  68.891  1.00  0.00    -0.363 OA 
BRANCH   7  10
HETATM   10  C   UNL     1      -7.345  17.942  67.126  1.00  0.00    -0.190 C  
HETATM   11  C   UNL     1      -7.862  16.833  66.227  1.00  0.00    -0.299 C  
HETATM   12  O   UNL     1      -6.606  17.338  68.184  1.00  0.00    -0.157 OA 
HETATM   13  O   UNL     1      -9.035  16.719  65.874  1.00  0.00    -0.497 OA 
HETATM   14  H   UNL     1      -5.891  16.793  67.879  1.00  0.00     0.000 HD 
ENDBRANCH   7  10
ENDBRANCH   4   7
ENDBRANCH   2   4
TORSDOF 3
ENDMDL
MODEL       96
REMARK 921   NORMALIZED FREE ENERGY PREDICTED BY IDOCK:   -2.89 KCAL/MOL
REMARK 922        TOTAL FREE ENERGY PREDICTED BY IDOCK:   -4.02 KCAL/MOL
REMARK 923 INTER-LIGAND FREE ENERGY PREDICTED BY IDOCK:   -3.64 KCAL/MOL
REMARK 924 INTRA-LIGAND FREE ENERGY PREDICTED BY IDOCK:   -0.38 KCAL/MOL
REMARK 927      BINDING AFFINITY PREDICTED BY RF-SCORE:    0.00 PKD
ROOT
HETATM    1  O   UNL     1     -11.841   6.782  72.667  1.00  0.00    -0.478 OA 
HETATM    2  C   UNL     1     -10.721   7.525  73.156  1.00  0.00    -0.398 C  
HETATM    3  H   UNL     1     -12.069   6.129  73.317  1.00  0.00     0.000 HD 
ENDROOT
BRANCH   2   4
HETATM    4  C   UNL     1     -10.352   8.578  72.106  1.00  0.00    -0.339 C  
HETATM    5  O   UNL     1      -9.042   8.286  71.583  1.00  0.00    -0.151 OA 
HETATM    6  H   UNL     1      -8.813   8.938  70.932  1.00  0.00     0.000 HD 
BRANCH   4   7
HETATM    7  C   UNL     1     -11.386   8.641  70.967  1.00  0.00    -0.274 C  
HETATM    8  H   UNL     1     -11.357   8.447  69.012  1.00  0.00     0.000 HD 
HETATM    9  O   UNL     1     -10.719   8.409  69.715  1.00  0.00    -0.229 OA 
BRANCH   7  10
HETATM   10  C   UNL     1     -12.130   9.993  70.957  1.00  0.00    -0.373 C  
HETATM   11  C   UNL     1     -13.400   9.912  71.784  1.00  0.00    -0.404 C  
HETATM   12  O   UNL     1     -12.488  10.429  69.648  1.00  0.00    -0.558 OA 
HETATM   13  O   UNL     1     -13.734   8.929  72.443  1.00  0.00    -0.438 OA 
HETATM   14  H   UNL     1     -12.946  11.261  69.642  1.00  0.00     0.000 HD 
ENDBRANCH   7  10
ENDBRANCH   4   7
ENDBRANCH   2   4
TORSDOF 3
ENDMDL
MODEL       97
REMARK 921   NORMALIZED FREE ENERGY PREDICTED BY IDOCK:   -2.87 KCAL/MOL
REMARK 922        TOTAL FREE ENERGY PREDICTED BY IDOCK:   -4.00 KCAL/MOL
REMARK 923 INTER-LIGAND FREE ENERGY PREDICTED BY IDOCK:   -3.76 KCAL/MOL
REMARK 924 INTRA-LIGAND FREE ENERGY PREDICTED BY IDOCK:   -0.23 KCAL/MOL
REMARK 927      BINDING AFFINITY PREDICTED BY RF-SCORE:    0.00 PKD
ROOT
HETATM    1  O   UNL     1     -12.322  15.427  63.829  1.00  0.00    -0.979 OA 
HETATM    2  C   UNL     1     -11.637  14.251  64.271  1.00  0.00    -0.282 C  
HETATM    3  H   UNL     1     -11.872  15.761  63.062  1.00  0.00     0.000 HD 
ENDROOT
BRANCH   2   4
HETATM    4  C   UNL     1     -12.362  13.713  65.508  1.00  0.00    -0.482 C  
HETATM    5  O   UNL     1     -12.633  12.310  65.325  1.00  0.00    -0.583 OA 
HETATM    6  H   UNL     1     -13.083  11.976  66.092  1.00  0.00     0.000 HD 
BRANCH   4   7
HETATM    7  C   UNL     1     -11.550  13.942  66.796  1.00  0.00    -0.378 C  
HETATM    8  H   UNL     1     -11.705  15.086  68.386  1.00  0.00     0.000 HD 
HETATM    9  O   UNL     1     -12.205  14.944  67.591  1.00  0.00    -0.159 OA 
BRANCH   7  10
HETATM   10  C   UNL     1     -10.096  14.350  66.479  1.00  0.00    -0.276 C  
HETATM   11  C   UNL     1      -9.125  13.287  66.959  1.00  0.00    -0.232 C  
HETATM   12  O   UNL     1      -9.715  15.589  67.073  1.00  0.00    -0.219 OA 
HETATM   13  O   UNL     1      -9.465  12.210  67.447  1.00  0.00    -0.174 OA 
HETATM   14  H   UNL     1      -8.820  15.839  66.878  1.00  0.00     0.000 HD 
ENDBRANCH   7  10
ENDBRANCH   4   7
ENDBRANCH   2   4
TORSDOF 3
ENDMDL
MODEL       98
REMARK 921   NORMALIZED FREE ENERGY PREDICTED BY IDOCK:   -2.85 KCAL/MOL
REMARK 922        TOTAL FREE ENERGY PREDICTED BY IDOCK:   -3.98 KCAL/MOL
REMARK 923 INTER-LIGAND FREE ENERGY PREDICTED BY IDOCK:   -3.89 KCAL/MOL
REMARK 924 INTRA-LIGAND FREE ENERGY PREDICTED BY IDOCK:   -0.09 KCAL/MOL
REMARK 927      BINDING AFFINITY PREDICTED BY RF-SCORE:    0.00 PKD
ROOT
HETATM    1  O   UNL     1     -14.060  15.648  70.817  1.00  0.00    -0.828 OA 
HETATM    2  C   UNL     1     -13.035  14.651  70.826  1.00  0.00    -0.347 C  
HETATM    3  H   UNL     1     -14.901  15.208  70.852  1.00  0.00     0.000 HD 
ENDROOT
BRANCH   2   4
HETATM    4  C   UNL     1     -11.679  15.362  70.770  1.00  0.00    -0.348 C  
HETATM    5  O   UNL     1     -10.925  15.038  71.953  1.00  0.00    -0.512 OA 
HETATM    6  H   UNL     1     -10.084  15.478  71.918  1.00  0.00     0.000 HD 
BRANCH   4   7
HETATM    7  C   UNL     1     -10.886  14.986  69.505  1.00  0.00    -0.262 C  
HETATM    8  H   UNL     1     -10.293  15.910  67.875  1.00  0.00     0.000 HD 
HETATM    9  O   UNL     1     -10.782  16.141  68.656  1.00  0.00    -0.261 OA 
BRANCH   7  10
HETATM   10  C   UNL     1     -11.543  13.807  68.758  1.00  0.00    -0.328 C  
HETATM   11  C   UNL     1     -10.487  12.857  68.222  1.00  0.00    -0.242 C  
HETATM   12  O   UNL     1     -12.357  14.217  67.662  1.00  0.00    -0.567 OA 
HETATM   13  O   UNL     1      -9.281  12.971  68.438  1.00  0.00    -0.196 OA 
HETATM   14  H   UNL     1     -12.762  13.491  67.203  1.00  0.00     0.000 HD 
ENDBRANCH   7  10
ENDBRANCH   4   7
ENDBRANCH   2   4
TORSDOF 3
ENDMDL
MODEL       99
REMARK 921   NORMALIZED FREE ENERGY PREDICTED BY IDOCK:   -2.84 KCAL/MOL
REMARK 922        TOTAL FREE ENERGY PREDICTED BY IDOCK:   -3.96 KCAL/MOL
REMARK 923 INTER-LIGAND FREE ENERGY PREDICTED BY IDOCK:   -3.61 KCAL/MOL
REMARK 924 INTRA-LIGAND FREE ENERGY PREDICTED BY IDOCK:   -0.36 KCAL/MOL
REMARK 927      BINDING AFFINITY PREDICTED BY RF-SCORE:    0.00 PKD
ROOT
HETATM    1  O   UNL     1     -11.414  14.123  71.059  1.00  0.00    -0.507 OA 
HETATM    2  C   UNL     1     -12.074  13.570  69.916  1.00  0.00    -0.341 C  
HETATM    3  H   UNL     1     -11.992  14.031  71.807  1.00  0.00     0.000 HD 
ENDROOT
BRANCH   2   4
HETATM    4  C   UNL     1     -11.141  13.718  68.710  1.00  0.00    -0.266 C  
HETATM    5  O   UNL     1      -9.828  14.091  69.170  1.00  0.00    -0.422 OA 
HETATM    6  H   UNL     1      -9.249  14.182  68.422  1.00  0.00     0.000 HD 
BRANCH   4   7
HETATM    7  C   UNL     1     -11.074  12.428  67.873  1.00  0.00    -0.239 C  
HETATM    8  H   UNL     1     -12.097  11.644  66.390  1.00  0.00     0.000 HD 
HETATM    9  O   UNL     1     -12.137  12.440  66.907  1.00  0.00    -0.564 OA 
BRANCH   7  10
HETATM   10  C   UNL     1     -11.153  11.172  68.768  1.00  0.00    -0.236 C  
HETATM   11  C   UNL     1      -9.762  10.670  69.110  1.00  0.00    -0.189 C  
HETATM   12  O   UNL     1     -11.870  10.097  68.168  1.00  0.00    -0.686 OA 
HETATM   13  O   UNL     1      -8.722  11.245  68.791  1.00  0.00    -0.157 OA 
HETATM   14  H   UNL     1     -11.919   9.325  68.718  1.00  0.00     0.000 HD 
ENDBRANCH   7  10
ENDBRANCH   4   7
ENDBRANCH   2   4
TORSDOF 3
ENDMDL
MODEL      100
REMARK 921   NORMALIZED FREE ENERGY PREDICTED BY IDOCK:   -2.84 KCAL/MOL
REMARK 922        TOTAL FREE ENERGY PREDICTED BY IDOCK:   -3.96 KCAL/MOL
REMARK 923 INTER-LIGAND FREE ENERGY PREDICTED BY IDOCK:   -4.15 KCAL/MOL
REMARK 924 INTRA-LIGAND FREE ENERGY PREDICTED BY IDOCK:    0.19 KCAL/MOL
REMARK 927      BINDING AFFINITY PREDICTED BY RF-SCORE:    0.00 PKD
ROOT
HETATM    1  O   UNL     1     -10.570  11.162  63.125  1.00  0.00    -0.689 OA 
HETATM    2  C   UNL     1     -10.322  10.831  64.494  1.00  0.00    -0.331 C  
HETATM    3  H   UNL     1     -10.327  10.414  62.592  1.00  0.00     0.000 HD 
ENDROOT
BRANCH   2   4
HETATM    4  C   UNL     1     -10.713  12.038  65.354  1.00  0.00    -0.287 C  
HETATM    5  O   UNL     1      -9.823  12.123  66.483  1.00  0.00    -0.209 OA 
HETATM    6  H   UNL     1     -10.065  12.871  67.016  1.00  0.00     0.000 HD 
BRANCH   4   7
HETATM    7  C   UNL     1     -10.691  13.349  64.548  1.00  0.00    -0.419 C  
HETATM    8  H   UNL     1      -9.854  15.117  64.738  1.00  0.00     0.000 HD 
HETATM    9  O   UNL     1      -9.868  14.307  65.235  1.00  0.00    -0.304 OA 
BRANCH   7  10
HETATM   10  C   UNL     1     -12.116  13.899  64.327  1.00  0.00    -0.440 C  
HETATM   11  C   UNL     1     -12.854  14.018  65.648  1.00  0.00    -0.406 C  
HETATM   12  O   UNL     1     -12.904  13.090  63.458  1.00  0.00    -0.664 OA 
HETATM   13  O   UNL     1     -12.347  13.793  66.746  1.00  0.00    -0.403 OA 
HETATM   14  H   UNL     1     -13.781  13.429  63.323  1.00  0.00     0.000 HD 
ENDBRANCH   7  10
ENDBRANCH   4   7
ENDBRANCH   2   4
TORSDOF 3
ENDMDL
MODEL      101
REMARK 921   NORMALIZED FREE ENERGY PREDICTED BY IDOCK:   -2.82 KCAL/MOL
REMARK 922        TOTAL FREE ENERGY PREDICTED BY IDOCK:   -3.94 KCAL/MOL
REMARK 923 INTER-LIGAND FREE ENERGY PREDICTED BY IDOCK:   -3.32 KCAL/MOL
REMARK 924 INTRA-LIGAND FREE ENERGY PREDICTED BY IDOCK:   -0.62 KCAL/MOL
REMARK 927      BINDING AFFINITY PREDICTED BY RF-SCORE:    0.00 PKD
ROOT
HETATM    1  O   UNL     1     -11.394  14.498  69.775  1.00  0.00    -0.256 OA 
HETATM    2  C   UNL     1     -10.299  15.398  69.584  1.00  0.00    -0.277 C  
HETATM    3  H   UNL     1     -11.821  14.721  70.594  1.00  0.00     0.000 HD 
ENDROOT
BRANCH   2   4
HETATM    4  C   UNL     1      -9.610  15.037  68.264  1.00  0.00    -0.210 C  
HETATM    5  O   UNL     1      -9.545  13.604  68.141  1.00  0.00    -0.210 OA 
HETATM    6  H   UNL     1      -9.118  13.380  67.323  1.00  0.00     0.000 HD 
BRANCH   4   7
HETATM    7  C   UNL     1     -10.333  15.651  67.052  1.00  0.00    -0.289 C  
HETATM    8  H   UNL     1     -11.586  17.134  66.748  1.00  0.00     0.000 HD 
HETATM    9  O   UNL     1     -11.140  16.754  67.496  1.00  0.00    -0.196 OA 
BRANCH   7  10
HETATM   10  C   UNL     1     -11.190  14.600  66.315  1.00  0.00    -0.340 C  
HETATM   11  C   UNL     1     -11.490  15.052  64.898  1.00  0.00    -0.399 C  
HETATM   12  O   UNL     1     -12.432  14.332  66.961  1.00  0.00    -0.588 OA 
HETATM   13  O   UNL     1     -11.032  16.073  64.386  1.00  0.00    -0.554 OA 
HETATM   14  H   UNL     1     -12.959  13.685  66.507  1.00  0.00     0.000 HD 
ENDBRANCH   7  10
ENDBRANCH   4   7
ENDBRANCH   2   4
TORSDOF 3
ENDMDL
MODEL      102
REMARK 921   NORMALIZED FREE ENERGY PREDICTED BY IDOCK:   -2.81 KCAL/MOL
REMARK 922        TOTAL FREE ENERGY PREDICTED BY IDOCK:   -3.93 KCAL/MOL
REMARK 923 INTER-LIGAND FREE ENERGY PREDICTED BY IDOCK:   -3.73 KCAL/MOL
REMARK 924 INTRA-LIGAND FREE ENERGY PREDICTED BY IDOCK:   -0.20 KCAL/MOL
REMARK 927      BINDING AFFINITY PREDICTED BY RF-SCORE:    0.00 PKD
ROOT
HETATM    1  O   UNL     1     -12.535  12.530  71.059  1.00  0.00    -0.369 OA 
HETATM    2  C   UNL     1     -12.025  12.070  69.804  1.00  0.00    -0.300 C  
HETATM    3  H   UNL     1     -12.649  11.776  71.626  1.00  0.00     0.000 HD 
ENDROOT
BRANCH   2   4
HETATM    4  C   UNL     1     -11.841  13.286  68.890  1.00  0.00    -0.327 C  
HETATM    5  O   UNL     1     -10.695  14.039  69.330  1.00  0.00    -0.404 OA 
HETATM    6  H   UNL     1     -10.581  14.793  68.764  1.00  0.00     0.000 HD 
BRANCH   4   7
HETATM    7  C   UNL     1     -11.683  12.877  67.414  1.00  0.00    -0.372 C  
HETATM    8  H   UNL     1     -10.738  11.466  66.426  1.00  0.00     0.000 HD 
HETATM    9  O   UNL     1     -10.835  11.719  67.337  1.00  0.00    -0.227 OA 
BRANCH   7  10
HETATM   10  C   UNL     1     -11.118  14.036  66.566  1.00  0.00    -0.314 C  
HETATM   11  C   UNL     1     -11.938  14.224  65.303  1.00  0.00    -0.389 C  
HETATM   12  O   UNL     1      -9.760  13.841  66.180  1.00  0.00    -0.302 OA 
HETATM   13  O   UNL     1     -12.964  13.597  65.045  1.00  0.00    -0.724 OA 
HETATM   14  H   UNL     1      -9.412  14.554  65.658  1.00  0.00     0.000 HD 
ENDBRANCH   7  10
ENDBRANCH   4   7
ENDBRANCH   2   4
TORSDOF 3
ENDMDL
MODEL      103
REMARK 921   NORMALIZED FREE ENERGY PREDICTED BY IDOCK:   -2.81 KCAL/MOL
REMARK 922        TOTAL FREE ENERGY PREDICTED BY IDOCK:   -3.92 KCAL/MOL
REMARK 923 INTER-LIGAND FREE ENERGY PREDICTED BY IDOCK:   -3.60 KCAL/MOL
REMARK 924 INTRA-LIGAND FREE ENERGY PREDICTED BY IDOCK:   -0.33 KCAL/MOL
REMARK 927      BINDING AFFINITY PREDICTED BY RF-SCORE:    0.00 PKD
ROOT
HETATM    1  O   UNL     1     -11.264   5.234  73.585  1.00  0.00    -0.435 OA 
HETATM    2  C   UNL     1     -11.721   6.051  72.503  1.00  0.00    -0.232 C  
HETATM    3  H   UNL     1     -11.568   4.347  73.435  1.00  0.00     0.000 HD 
ENDROOT
BRANCH   2   4
HETATM    4  C   UNL     1     -11.231   7.482  72.746  1.00  0.00    -0.352 C  
HETATM    5  O   UNL     1      -9.956   7.662  72.102  1.00  0.00    -0.171 OA 
HETATM    6  H   UNL     1      -9.652   8.549  72.252  1.00  0.00     0.000 HD 
BRANCH   4   7
HETATM    7  C   UNL     1     -12.242   8.528  72.243  1.00  0.00    -0.389 C  
HETATM    8  H   UNL     1     -13.981   8.496  71.330  1.00  0.00     0.000 HD 
HETATM    9  O   UNL     1     -13.357   7.851  71.640  1.00  0.00    -0.336 OA 
BRANCH   7  10
HETATM   10  C   UNL     1     -11.588   9.512  71.250  1.00  0.00    -0.374 C  
HETATM   11  C   UNL     1     -12.335  10.833  71.233  1.00  0.00    -0.365 C  
HETATM   12  O   UNL     1     -11.545   9.018  69.913  1.00  0.00    -0.452 OA 
HETATM   13  O   UNL     1     -13.274  11.105  71.980  1.00  0.00    -0.493 OA 
HETATM   14  H   UNL     1     -11.143   9.623  69.302  1.00  0.00     0.000 HD 
ENDBRANCH   7  10
ENDBRANCH   4   7
ENDBRANCH   2   4
TORSDOF 3
ENDMDL
MODEL      104
REMARK 921   NORMALIZED FREE ENERGY PREDICTED BY IDOCK:   -2.81 KCAL/MOL
REMARK 922        TOTAL FREE ENERGY PREDICTED BY IDOCK:   -3.92 KCAL/MOL
REMARK 923 INTER-LIGAND FREE ENERGY PREDICTED BY IDOCK:   -3.71 KCAL/MOL
REMARK 924 INTRA-LIGAND FREE ENERGY PREDICTED BY IDOCK:   -0.21 KCAL/MOL
REMARK 927      BINDING AFFINITY PREDICTED BY RF-SCORE:    0.00 PKD
ROOT
HETATM    1  O   UNL     1      -5.655  19.383  67.398  1.00  0.00    -0.169 OA 
HETATM    2  C   UNL     1      -7.018  19.698  67.701  1.00  0.00    -0.240 C  
HETATM    3  H   UNL     1      -5.169  19.363  68.214  1.00  0.00     0.000 HD 
ENDROOT
BRANCH   2   4
HETATM    4  C   UNL     1      -7.803  19.731  66.386  1.00  0.00    -0.312 C  
HETATM    5  O   UNL     1      -7.344  18.664  65.534  1.00  0.00    -0.513 OA 
HETATM    6  H   UNL     1      -7.831  18.684  64.719  1.00  0.00     0.000 HD 
BRANCH   4   7
HETATM    7  C   UNL     1      -9.320  19.620  66.619  1.00  0.00    -0.376 C  
HETATM    8  H   UNL     1     -10.721  20.753  67.404  1.00  0.00     0.000 HD 
HETATM    9  O   UNL     1      -9.785  20.821  67.259  1.00  0.00    -0.479 OA 
BRANCH   7  10
HETATM   10  C   UNL     1      -9.672  18.374  67.459  1.00  0.00    -0.297 C  
HETATM   11  C   UNL     1     -10.303  17.303  66.588  1.00  0.00    -0.305 C  
HETATM   12  O   UNL     1     -10.569  18.650  68.531  1.00  0.00    -0.369 OA 
HETATM   13  O   UNL     1     -10.428  17.389  65.367  1.00  0.00    -0.648 OA 
HETATM   14  H   UNL     1     -10.785  17.883  69.047  1.00  0.00     0.000 HD 
ENDBRANCH   7  10
ENDBRANCH   4   7
ENDBRANCH   2   4
TORSDOF 3
ENDMDL
MODEL      105
REMARK 921   NORMALIZED FREE ENERGY PREDICTED BY IDOCK:   -2.80 KCAL/MOL
REMARK 922        TOTAL FREE ENERGY PREDICTED BY IDOCK:   -3.92 KCAL/MOL
REMARK 923 INTER-LIGAND FREE ENERGY PREDICTED BY IDOCK:   -3.77 KCAL/MOL
REMARK 924 INTRA-LIGAND FREE ENERGY PREDICTED BY IDOCK:   -0.15 KCAL/MOL
REMARK 927      BINDING AFFINITY PREDICTED BY RF-SCORE:    0.00 PKD
ROOT
HETATM    1  O   UNL     1      -8.834   9.834  64.876  1.00  0.00    -0.169 OA 
HETATM    2  C   UNL     1      -9.792  10.419  65.763  1.00  0.00    -0.239 C  
HETATM    3  H   UNL     1      -8.776   8.907  65.072  1.00  0.00     0.000 HD 
ENDROOT
BRANCH   2   4
HETATM    4  C   UNL     1      -9.884  11.915  65.446  1.00  0.00    -0.233 C  
HETATM    5  O   UNL     1      -9.653  12.115  64.039  1.00  0.00    -0.518 OA 
HETATM    6  H   UNL     1      -9.710  13.043  63.842  1.00  0.00     0.000 HD 
BRANCH   4   7
HETATM    7  C   UNL     1     -11.244  12.507  65.859  1.00  0.00    -0.320 C  
HETATM    8  H   UNL     1     -12.803  11.897  66.888  1.00  0.00     0.000 HD 
HETATM    9  O   UNL     1     -11.964  11.532  66.632  1.00  0.00    -0.428 OA 
BRANCH   7  10
HETATM   10  C   UNL     1     -12.062  12.952  64.628  1.00  0.00    -0.418 C  
HETATM   11  C   UNL     1     -12.223  14.461  64.610  1.00  0.00    -0.464 C  
HETATM   12  O   UNL     1     -13.363  12.374  64.577  1.00  0.00    -0.800 OA 
HETATM   13  O   UNL     1     -11.692  15.223  65.417  1.00  0.00    -0.181 OA 
HETATM   14  H   UNL     1     -13.866  12.648  63.820  1.00  0.00     0.000 HD 
ENDBRANCH   7  10
ENDBRANCH   4   7
ENDBRANCH   2   4
TORSDOF 3
ENDMDL
MODEL      106
REMARK 921   NORMALIZED FREE ENERGY PREDICTED BY IDOCK:   -2.80 KCAL/MOL
REMARK 922        TOTAL FREE ENERGY PREDICTED BY IDOCK:   -3.91 KCAL/MOL
REMARK 923 INTER-LIGAND FREE ENERGY PREDICTED BY IDOCK:   -3.52 KCAL/MOL
REMARK 924 INTRA-LIGAND FREE ENERGY PREDICTED BY IDOCK:   -0.39 KCAL/MOL
REMARK 927      BINDING AFFINITY PREDICTED BY RF-SCORE:    0.00 PKD
ROOT
HETATM    1  O   UNL     1      -9.330  11.533  68.876  1.00  0.00    -0.367 OA 
HETATM    2  C   UNL     1      -8.740  11.648  67.578  1.00  0.00    -0.156 C  
HETATM    3  H   UNL     1      -8.811  10.918  69.383  1.00  0.00     0.000 HD 
ENDROOT
BRANCH   2   4
HETATM    4  C   UNL     1      -9.576  12.638  66.761  1.00  0.00    -0.241 C  
HETATM    5  O   UNL     1      -9.418  12.347  65.359  1.00  0.00    -0.440 OA 
HETATM    6  H   UNL     1      -9.936  12.961  64.852  1.00  0.00     0.000 HD 
BRANCH   4   7
HETATM    7  C   UNL     1     -11.063  12.598  67.156  1.00  0.00    -0.280 C  
HETATM    8  H   UNL     1     -12.749  12.086  66.287  1.00  0.00     0.000 HD 
HETATM    9  O   UNL     1     -11.831  12.111  66.043  1.00  0.00    -0.522 OA 
BRANCH   7  10
HETATM   10  C   UNL     1     -11.563  13.986  67.609  1.00  0.00    -0.354 C  
HETATM   11  C   UNL     1     -12.003  13.949  69.061  1.00  0.00    -0.364 C  
HETATM   12  O   UNL     1     -12.656  14.472  66.834  1.00  0.00    -0.492 OA 
HETATM   13  O   UNL     1     -11.887  12.968  69.794  1.00  0.00    -0.308 OA 
HETATM   14  H   UNL     1     -12.964  15.326  67.113  1.00  0.00     0.000 HD 
ENDBRANCH   7  10
ENDBRANCH   4   7
ENDBRANCH   2   4
TORSDOF 3
ENDMDL
MODEL      107
REMARK 921   NORMALIZED FREE ENERGY PREDICTED BY IDOCK:   -2.77 KCAL/MOL
REMARK 922        TOTAL FREE ENERGY PREDICTED BY IDOCK:   -3.88 KCAL/MOL
REMARK 923 INTER-LIGAND FREE ENERGY PREDICTED BY IDOCK:   -3.55 KCAL/MOL
REMARK 924 INTRA-LIGAND FREE ENERGY PREDICTED BY IDOCK:   -0.33 KCAL/MOL
REMARK 927      BINDING AFFINITY PREDICTED BY RF-SCORE:    0.00 PKD
ROOT
HETATM    1  O   UNL     1      -8.488  13.873  66.414  1.00  0.00    -0.381 OA 
HETATM    2  C   UNL     1      -9.062  12.649  66.881  1.00  0.00    -0.218 C  
HETATM    3  H   UNL     1      -8.083  14.311  67.153  1.00  0.00     0.000 HD 
ENDROOT
BRANCH   2   4
HETATM    4  C   UNL     1      -9.715  11.942  65.688  1.00  0.00    -0.227 C  
HETATM    5  O   UNL     1      -8.772  11.019  65.111  1.00  0.00    -0.310 OA 
HETATM    6  H   UNL     1      -9.177  10.581  64.372  1.00  0.00     0.000 HD 
BRANCH   4   7
HETATM    7  C   UNL     1     -11.009  11.212  66.091  1.00  0.00    -0.138 C  
HETATM    8  H   UNL     1     -12.907  11.684  66.275  1.00  0.00     0.000 HD 
HETATM    9  O   UNL     1     -12.108  12.135  66.026  1.00  0.00    -0.612 OA 
BRANCH   7  10
HETATM   10  C   UNL     1     -10.889  10.589  67.498  1.00  0.00    -0.301 C  
HETATM   11  C   UNL     1     -10.421   9.148  67.409  1.00  0.00    -0.271 C  
HETATM   12  O   UNL     1     -12.113  10.606  68.228  1.00  0.00    -0.817 OA 
HETATM   13  O   UNL     1     -10.095   8.591  66.361  1.00  0.00    -0.279 OA 
HETATM   14  H   UNL     1     -12.040  10.223  69.094  1.00  0.00     0.000 HD 
ENDBRANCH   7  10
ENDBRANCH   4   7
ENDBRANCH   2   4
TORSDOF 3
ENDMDL
MODEL      108
REMARK 921   NORMALIZED FREE ENERGY PREDICTED BY IDOCK:   -2.76 KCAL/MOL
REMARK 922        TOTAL FREE ENERGY PREDICTED BY IDOCK:   -3.87 KCAL/MOL
REMARK 923 INTER-LIGAND FREE ENERGY PREDICTED BY IDOCK:   -3.36 KCAL/MOL
REMARK 924 INTRA-LIGAND FREE ENERGY PREDICTED BY IDOCK:   -0.52 KCAL/MOL
REMARK 927      BINDING AFFINITY PREDICTED BY RF-SCORE:    0.00 PKD
ROOT
HETATM    1  O   UNL     1      -9.367   5.747  70.909  1.00  0.00    -0.157 OA 
HETATM    2  C   UNL     1      -9.596   6.737  71.916  1.00  0.00    -0.148 C  
HETATM    3  H   UNL     1      -8.445   5.768  70.678  1.00  0.00     0.000 HD 
ENDROOT
BRANCH   2   4
HETATM    4  C   UNL     1     -11.082   6.703  72.288  1.00  0.00    -0.258 C  
HETATM    5  O   UNL     1     -11.267   7.363  73.554  1.00  0.00    -0.590 OA 
HETATM    6  H   UNL     1     -12.188   7.343  73.785  1.00  0.00     0.000 HD 
BRANCH   4   7
HETATM    7  C   UNL     1     -11.960   7.356  71.205  1.00  0.00    -0.320 C  
HETATM    8  H   UNL     1     -12.524   6.910  69.377  1.00  0.00     0.000 HD 
HETATM    9  O   UNL     1     -11.982   6.508  70.045  1.00  0.00    -0.358 OA 
BRANCH   7  10
HETATM   10  C   UNL     1     -11.455   8.770  70.847  1.00  0.00    -0.284 C  
HETATM   11  C   UNL     1     -12.270   9.828  71.568  1.00  0.00    -0.406 C  
HETATM   12  O   UNL     1     -11.510   9.053  69.451  1.00  0.00    -0.421 OA 
HETATM   13  O   UNL     1     -13.149   9.581  72.393  1.00  0.00    -0.413 OA 
HETATM   14  H   UNL     1     -11.200   9.923  69.232  1.00  0.00     0.000 HD 
ENDBRANCH   7  10
ENDBRANCH   4   7
ENDBRANCH   2   4
TORSDOF 3
ENDMDL
MODEL      109
REMARK 921   NORMALIZED FREE ENERGY PREDICTED BY IDOCK:   -2.75 KCAL/MOL
REMARK 922        TOTAL FREE ENERGY PREDICTED BY IDOCK:   -3.86 KCAL/MOL
REMARK 923 INTER-LIGAND FREE ENERGY PREDICTED BY IDOCK:   -3.46 KCAL/MOL
REMARK 924 INTRA-LIGAND FREE ENERGY PREDICTED BY IDOCK:   -0.40 KCAL/MOL
REMARK 927      BINDING AFFINITY PREDICTED BY RF-SCORE:    0.00 PKD
ROOT
HETATM    1  O   UNL     1     -11.998  12.715  70.685  1.00  0.00    -0.510 OA 
HETATM    2  C   UNL     1     -11.693  13.907  69.956  1.00  0.00    -0.268 C  
HETATM    3  H   UNL     1     -11.666  12.816  71.570  1.00  0.00     0.000 HD 
ENDROOT
BRANCH   2   4
HETATM    4  C   UNL     1     -12.227  13.743  68.530  1.00  0.00    -0.159 C  
HETATM    5  O   UNL     1     -12.036  14.975  67.809  1.00  0.00    -0.502 OA 
HETATM    6  H   UNL     1     -12.368  14.874  66.924  1.00  0.00     0.000 HD 
BRANCH   4   7
HETATM    7  C   UNL     1     -11.548  12.575  67.792  1.00  0.00    -0.343 C  
HETATM    8  H   UNL     1     -11.707  10.617  67.787  1.00  0.00     0.000 HD 
HETATM    9  O   UNL     1     -12.125  11.338  68.241  1.00  0.00    -0.619 OA 
BRANCH   7  10
HETATM   10  C   UNL     1     -10.020  12.585  68.009  1.00  0.00    -0.219 C  
HETATM   11  C   UNL     1      -9.291  12.396  66.690  1.00  0.00    -0.227 C  
HETATM   12  O   UNL     1      -9.571  11.571  68.904  1.00  0.00    -0.361 OA 
HETATM   13  O   UNL     1      -9.848  12.338  65.595  1.00  0.00    -0.250 OA 
HETATM   14  H   UNL     1      -8.631  11.577  69.037  1.00  0.00     0.000 HD 
ENDBRANCH   7  10
ENDBRANCH   4   7
ENDBRANCH   2   4
TORSDOF 3
ENDMDL
MODEL      110
REMARK 921   NORMALIZED FREE ENERGY PREDICTED BY IDOCK:   -2.75 KCAL/MOL
REMARK 922        TOTAL FREE ENERGY PREDICTED BY IDOCK:   -3.86 KCAL/MOL
REMARK 923 INTER-LIGAND FREE ENERGY PREDICTED BY IDOCK:   -3.16 KCAL/MOL
REMARK 924 INTRA-LIGAND FREE ENERGY PREDICTED BY IDOCK:   -0.70 KCAL/MOL
REMARK 927      BINDING AFFINITY PREDICTED BY RF-SCORE:    0.00 PKD
ROOT
HETATM    1  O   UNL     1     -10.623   8.408  66.572  1.00  0.00    -0.338 OA 
HETATM    2  C   UNL     1      -9.987   9.688  66.625  1.00  0.00    -0.236 C  
HETATM    3  H   UNL     1     -10.369   7.986  65.759  1.00  0.00     0.000 HD 
ENDROOT
BRANCH   2   4
HETATM    4  C   UNL     1     -10.398  10.370  67.935  1.00  0.00    -0.190 C  
HETATM    5  O   UNL     1     -11.835  10.397  68.024  1.00  0.00    -0.746 OA 
HETATM    6  H   UNL     1     -12.089  10.819  68.836  1.00  0.00     0.000 HD 
BRANCH   4   7
HETATM    7  C   UNL     1      -9.794   9.665  69.163  1.00  0.00    -0.186 C  
HETATM    8  H   UNL     1      -8.512   8.209  69.475  1.00  0.00     0.000 HD 
HETATM    9  O   UNL     1      -8.885   8.644  68.718  1.00  0.00    -0.137 OA 
BRANCH   7  10
HETATM   10  C   UNL     1     -10.894   9.070  70.068  1.00  0.00    -0.231 C  
HETATM   11  C   UNL     1     -10.359   8.821  71.467  1.00  0.00    -0.303 C  
HETATM   12  O   UNL     1     -11.424   7.842  69.578  1.00  0.00    -0.437 OA 
HETATM   13  O   UNL     1      -9.231   9.138  71.842  1.00  0.00    -0.354 OA 
HETATM   14  H   UNL     1     -12.101   7.476  70.136  1.00  0.00     0.000 HD 
ENDBRANCH   7  10
ENDBRANCH   4   7
ENDBRANCH   2   4
TORSDOF 3
ENDMDL
MODEL      111
REMARK 921   NORMALIZED FREE ENERGY PREDICTED BY IDOCK:   -2.74 KCAL/MOL
REMARK 922        TOTAL FREE ENERGY PREDICTED BY IDOCK:   -3.85 KCAL/MOL
REMARK 923 INTER-LIGAND FREE ENERGY PREDICTED BY IDOCK:   -3.40 KCAL/MOL
REMARK 924 INTRA-LIGAND FREE ENERGY PREDICTED BY IDOCK:   -0.45 KCAL/MOL
REMARK 927      BINDING AFFINITY PREDICTED BY RF-SCORE:    0.00 PKD
ROOT
HETATM    1  O   UNL     1     -12.520   8.416  72.788  1.00  0.00    -0.589 OA 
HETATM    2  C   UNL     1     -12.856   7.998  71.462  1.00  0.00    -0.311 C  
HETATM    3  H   UNL     1     -13.306   8.753  73.200  1.00  0.00     0.000 HD 
ENDROOT
BRANCH   2   4
HETATM    4  C   UNL     1     -11.587   7.455  70.797  1.00  0.00    -0.290 C  
HETATM    5  O   UNL     1     -11.951   6.720  69.613  1.00  0.00    -0.650 OA 
HETATM    6  H   UNL     1     -11.165   6.383  69.201  1.00  0.00     0.000 HD 
BRANCH   4   7
HETATM    7  C   UNL     1     -10.594   8.579  70.450  1.00  0.00    -0.223 C  
HETATM    8  H   UNL     1      -9.336   9.717  71.441  1.00  0.00     0.000 HD 
HETATM    9  O   UNL     1      -9.950   9.024  71.655  1.00  0.00    -0.309 OA 
BRANCH   7  10
HETATM   10  C   UNL     1     -11.298   9.751  69.733  1.00  0.00    -0.158 C  
HETATM   11  C   UNL     1     -10.751   9.925  68.328  1.00  0.00    -0.234 C  
HETATM   12  O   UNL     1     -11.155  10.995  70.414  1.00  0.00    -0.467 OA 
HETATM   13  O   UNL     1      -9.928   9.173  67.808  1.00  0.00    -0.169 OA 
HETATM   14  H   UNL     1     -11.588  11.716  69.972  1.00  0.00     0.000 HD 
ENDBRANCH   7  10
ENDBRANCH   4   7
ENDBRANCH   2   4
TORSDOF 3
ENDMDL
MODEL      112
REMARK 921   NORMALIZED FREE ENERGY PREDICTED BY IDOCK:   -2.74 KCAL/MOL
REMARK 922        TOTAL FREE ENERGY PREDICTED BY IDOCK:   -3.85 KCAL/MOL
REMARK 923 INTER-LIGAND FREE ENERGY PREDICTED BY IDOCK:   -3.13 KCAL/MOL
REMARK 924 INTRA-LIGAND FREE ENERGY PREDICTED BY IDOCK:   -0.72 KCAL/MOL
REMARK 927      BINDING AFFINITY PREDICTED BY RF-SCORE:    0.00 PKD
ROOT
HETATM    1  O   UNL     1     -11.536   6.702  67.080  1.00  0.00    -0.779 OA 
HETATM    2  C   UNL     1     -10.657   5.733  67.660  1.00  0.00    -0.239 C  
HETATM    3  H   UNL     1     -12.148   6.244  66.516  1.00  0.00     0.000 HD 
ENDROOT
BRANCH   2   4
HETATM    4  C   UNL     1      -9.669   6.471  68.570  1.00  0.00    -0.129 C  
HETATM    5  O   UNL     1      -9.067   7.553  67.836  1.00  0.00    -0.131 OA 
HETATM    6  H   UNL     1      -8.455   8.011  68.400  1.00  0.00     0.000 HD 
BRANCH   4   7
HETATM    7  C   UNL     1     -10.348   6.997  69.847  1.00  0.00    -0.210 C  
HETATM    8  H   UNL     1     -12.090   6.767  70.726  1.00  0.00     0.000 HD 
HETATM    9  O   UNL     1     -11.670   6.442  69.938  1.00  0.00    -0.426 OA 
BRANCH   7  10
HETATM   10  C   UNL     1     -10.391   8.540  69.867  1.00  0.00    -0.210 C  
HETATM   11  C   UNL     1     -10.682   9.049  71.268  1.00  0.00    -0.309 C  
HETATM   12  O   UNL     1     -11.374   9.087  68.992  1.00  0.00    -0.419 OA 
HETATM   13  O   UNL     1     -10.775   8.328  72.260  1.00  0.00    -0.279 OA 
HETATM   14  H   UNL     1     -11.400  10.037  69.004  1.00  0.00     0.000 HD 
ENDBRANCH   7  10
ENDBRANCH   4   7
ENDBRANCH   2   4
TORSDOF 3
ENDMDL
MODEL      113
REMARK 921   NORMALIZED FREE ENERGY PREDICTED BY IDOCK:   -2.73 KCAL/MOL
REMARK 922        TOTAL FREE ENERGY PREDICTED BY IDOCK:   -3.84 KCAL/MOL
REMARK 923 INTER-LIGAND FREE ENERGY PREDICTED BY IDOCK:   -3.52 KCAL/MOL
REMARK 924 INTRA-LIGAND FREE ENERGY PREDICTED BY IDOCK:   -0.32 KCAL/MOL
REMARK 927      BINDING AFFINITY PREDICTED BY RF-SCORE:    0.00 PKD
ROOT
HETATM    1  O   UNL     1     -10.469  16.957  66.393  1.00  0.00    -0.305 OA 
HETATM    2  C   UNL     1      -9.801  17.390  67.581  1.00  0.00    -0.282 C  
HETATM    3  H   UNL     1     -11.324  16.624  66.639  1.00  0.00     0.000 HD 
ENDROOT
BRANCH   2   4
HETATM    4  C   UNL     1      -8.422  17.927  67.185  1.00  0.00    -0.233 C  
HETATM    5  O   UNL     1      -8.484  18.444  65.842  1.00  0.00    -0.497 OA 
HETATM    6  H   UNL     1      -7.629  18.777  65.596  1.00  0.00     0.000 HD 
BRANCH   4   7
HETATM    7  C   UNL     1      -7.926  19.011  68.159  1.00  0.00    -0.300 C  
HETATM    8  H   UNL     1      -8.732  20.162  69.532  1.00  0.00     0.000 HD 
HETATM    9  O   UNL     1      -9.038  19.493  68.931  1.00  0.00    -0.367 OA 
BRANCH   7  10
HETATM   10  C   UNL     1      -7.231  20.167  67.408  1.00  0.00    -0.276 C  
HETATM   11  C   UNL     1      -6.098  20.741  68.239  1.00  0.00    -0.341 C  
HETATM   12  O   UNL     1      -8.113  21.235  67.076  1.00  0.00    -0.657 OA 
HETATM   13  O   UNL     1      -5.732  20.281  69.320  1.00  0.00    -0.261 OA 
HETATM   14  H   UNL     1      -7.685  21.946  66.614  1.00  0.00     0.000 HD 
ENDBRANCH   7  10
ENDBRANCH   4   7
ENDBRANCH   2   4
TORSDOF 3
ENDMDL
MODEL      114
REMARK 921   NORMALIZED FREE ENERGY PREDICTED BY IDOCK:   -2.73 KCAL/MOL
REMARK 922        TOTAL FREE ENERGY PREDICTED BY IDOCK:   -3.83 KCAL/MOL
REMARK 923 INTER-LIGAND FREE ENERGY PREDICTED BY IDOCK:   -3.68 KCAL/MOL
REMARK 924 INTRA-LIGAND FREE ENERGY PREDICTED BY IDOCK:   -0.15 KCAL/MOL
REMARK 927      BINDING AFFINITY PREDICTED BY RF-SCORE:    0.00 PKD
ROOT
HETATM    1  O   UNL     1      -8.465  13.983  66.542  1.00  0.00    -0.422 OA 
HETATM    2  C   UNL     1      -9.043  12.687  66.727  1.00  0.00    -0.214 C  
HETATM    3  H   UNL     1      -8.469  14.430  67.379  1.00  0.00     0.000 HD 
ENDROOT
BRANCH   2   4
HETATM    4  C   UNL     1      -9.039  11.965  65.376  1.00  0.00     0.140 C  
HETATM    5  O   UNL     1      -7.978  10.992  65.363  1.00  0.00    -0.357 OA 
HETATM    6  H   UNL     1      -7.975  10.544  64.526  1.00  0.00     0.000 HD 
BRANCH   4   7
HETATM    7  C   UNL     1     -10.391  11.293  65.078  1.00  0.00    -0.301 C  
HETATM    8  H   UNL     1     -10.990   9.561  64.371  1.00  0.00     0.000 HD 
HETATM    9  O   UNL     1     -10.156   9.976  64.555  1.00  0.00    -0.243 OA 
BRANCH   7  10
HETATM   10  C   UNL     1     -11.236  12.136  64.099  1.00  0.00    -0.368 C  
HETATM   11  C   UNL     1     -12.352  12.854  64.835  1.00  0.00    -0.475 C  
HETATM   12  O   UNL     1     -11.826  11.365  63.056  1.00  0.00    -0.903 OA 
HETATM   13  O   UNL     1     -12.499  12.834  66.056  1.00  0.00    -0.540 OA 
HETATM   14  H   UNL     1     -12.345  11.884  62.453  1.00  0.00     0.000 HD 
ENDBRANCH   7  10
ENDBRANCH   4   7
ENDBRANCH   2   4
TORSDOF 3
ENDMDL
MODEL      115
REMARK 921   NORMALIZED FREE ENERGY PREDICTED BY IDOCK:   -2.72 KCAL/MOL
REMARK 922        TOTAL FREE ENERGY PREDICTED BY IDOCK:   -3.83 KCAL/MOL
REMARK 923 INTER-LIGAND FREE ENERGY PREDICTED BY IDOCK:   -3.62 KCAL/MOL
REMARK 924 INTRA-LIGAND FREE ENERGY PREDICTED BY IDOCK:   -0.21 KCAL/MOL
REMARK 927      BINDING AFFINITY PREDICTED BY RF-SCORE:    0.00 PKD
ROOT
HETATM    1  O   UNL     1      -9.034  15.032  69.909  1.00  0.00    -0.451 OA 
HETATM    2  C   UNL     1     -10.236  14.880  69.148  1.00  0.00    -0.242 C  
HETATM    3  H   UNL     1      -8.448  14.320  69.681  1.00  0.00     0.000 HD 
ENDROOT
BRANCH   2   4
HETATM    4  C   UNL     1     -11.181  16.028  69.517  1.00  0.00    -0.348 C  
HETATM    5  O   UNL     1     -12.069  16.283  68.412  1.00  0.00    -0.146 OA 
HETATM    6  H   UNL     1     -12.655  16.995  68.640  1.00  0.00     0.000 HD 
BRANCH   4   7
HETATM    7  C   UNL     1     -11.984  15.724  70.795  1.00  0.00    -0.407 C  
HETATM    8  H   UNL     1     -11.568  15.166  72.632  1.00  0.00     0.000 HD 
HETATM    9  O   UNL     1     -11.073  15.353  71.843  1.00  0.00    -0.371 OA 
BRANCH   7  10
HETATM   10  C   UNL     1     -13.030  14.615  70.552  1.00  0.00    -0.268 C  
HETATM   11  C   UNL     1     -14.208  14.775  71.496  1.00  0.00    -0.493 C  
HETATM   12  O   UNL     1     -12.508  13.300  70.724  1.00  0.00    -0.353 OA 
HETATM   13  O   UNL     1     -14.344  15.714  72.279  1.00  0.00    -0.539 OA 
HETATM   14  H   UNL     1     -13.152  12.618  70.574  1.00  0.00     0.000 HD 
ENDBRANCH   7  10
ENDBRANCH   4   7
ENDBRANCH   2   4
TORSDOF 3
ENDMDL
MODEL      116
REMARK 921   NORMALIZED FREE ENERGY PREDICTED BY IDOCK:   -2.71 KCAL/MOL
REMARK 922        TOTAL FREE ENERGY PREDICTED BY IDOCK:   -3.81 KCAL/MOL
REMARK 923 INTER-LIGAND FREE ENERGY PREDICTED BY IDOCK:   -3.16 KCAL/MOL
REMARK 924 INTRA-LIGAND FREE ENERGY PREDICTED BY IDOCK:   -0.65 KCAL/MOL
REMARK 927      BINDING AFFINITY PREDICTED BY RF-SCORE:    0.00 PKD
ROOT
HETATM    1  O   UNL     1     -10.098  15.812  66.717  1.00  0.00    -0.257 OA 
HETATM    2  C   UNL     1      -8.849  15.920  67.406  1.00  0.00    -0.188 C  
HETATM    3  H   UNL     1      -9.930  15.445  65.857  1.00  0.00     0.000 HD 
ENDROOT
BRANCH   2   4
HETATM    4  C   UNL     1      -9.119  16.512  68.793  1.00  0.00    -0.256 C  
HETATM    5  O   UNL     1      -9.786  17.780  68.644  1.00  0.00    -0.326 OA 
HETATM    6  H   UNL     1      -9.954  18.148  69.503  1.00  0.00     0.000 HD 
BRANCH   4   7
HETATM    7  C   UNL     1      -9.955  15.563  69.671  1.00  0.00    -0.284 C  
HETATM    8  H   UNL     1     -10.574  13.702  69.556  1.00  0.00     0.000 HD 
HETATM    9  O   UNL     1     -10.058  14.288  69.015  1.00  0.00    -0.209 OA 
BRANCH   7  10
HETATM   10  C   UNL     1     -11.352  16.150  69.964  1.00  0.00    -0.328 C  
HETATM   11  C   UNL     1     -11.853  15.688  71.320  1.00  0.00    -0.419 C  
HETATM   12  O   UNL     1     -12.330  15.791  68.991  1.00  0.00    -0.575 OA 
HETATM   13  O   UNL     1     -11.191  15.014  72.108  1.00  0.00    -0.315 OA 
HETATM   14  H   UNL     1     -13.189  16.153  69.172  1.00  0.00     0.000 HD 
ENDBRANCH   7  10
ENDBRANCH   4   7
ENDBRANCH   2   4
TORSDOF 3
ENDMDL
MODEL      117
REMARK 921   NORMALIZED FREE ENERGY PREDICTED BY IDOCK:   -2.71 KCAL/MOL
REMARK 922        TOTAL FREE ENERGY PREDICTED BY IDOCK:   -3.81 KCAL/MOL
REMARK 923 INTER-LIGAND FREE ENERGY PREDICTED BY IDOCK:   -3.46 KCAL/MOL
REMARK 924 INTRA-LIGAND FREE ENERGY PREDICTED BY IDOCK:   -0.34 KCAL/MOL
REMARK 927      BINDING AFFINITY PREDICTED BY RF-SCORE:    0.00 PKD
ROOT
HETATM    1  O   UNL     1      -9.907  20.709  66.568  1.00  0.00    -0.619 OA 
HETATM    2  C   UNL     1     -10.741  19.578  66.839  1.00  0.00    -0.464 C  
HETATM    3  H   UNL     1     -10.378  21.288  65.981  1.00  0.00     0.000 HD 
ENDROOT
BRANCH   2   4
HETATM    4  C   UNL     1      -9.982  18.643  67.786  1.00  0.00    -0.346 C  
HETATM    5  O   UNL     1     -10.747  17.437  67.973  1.00  0.00    -0.387 OA 
HETATM    6  H   UNL     1     -10.276  16.856  68.559  1.00  0.00     0.000 HD 
BRANCH   4   7
HETATM    7  C   UNL     1      -8.573  18.313  67.260  1.00  0.00    -0.254 C  
HETATM    8  H   UNL     1      -7.764  17.939  65.509  1.00  0.00     0.000 HD 
HETATM    9  O   UNL     1      -8.633  18.143  65.834  1.00  0.00    -0.507 OA 
BRANCH   7  10
HETATM   10  C   UNL     1      -7.997  17.055  67.945  1.00  0.00    -0.189 C  
HETATM   11  C   UNL     1      -6.995  17.441  69.018  1.00  0.00    -0.238 C  
HETATM   12  O   UNL     1      -7.346  16.168  67.038  1.00  0.00    -0.195 OA 
HETATM   13  O   UNL     1      -6.752  18.599  69.352  1.00  0.00    -0.264 OA 
HETATM   14  H   UNL     1      -6.992  15.394  67.460  1.00  0.00     0.000 HD 
ENDBRANCH   7  10
ENDBRANCH   4   7
ENDBRANCH   2   4
TORSDOF 3
ENDMDL
MODEL      118
REMARK 921   NORMALIZED FREE ENERGY PREDICTED BY IDOCK:   -2.70 KCAL/MOL
REMARK 922        TOTAL FREE ENERGY PREDICTED BY IDOCK:   -3.80 KCAL/MOL
REMARK 923 INTER-LIGAND FREE ENERGY PREDICTED BY IDOCK:   -3.38 KCAL/MOL
REMARK 924 INTRA-LIGAND FREE ENERGY PREDICTED BY IDOCK:   -0.42 KCAL/MOL
REMARK 927      BINDING AFFINITY PREDICTED BY RF-SCORE:    0.00 PKD
ROOT
HETATM    1  O   UNL     1     -10.630  17.256  69.057  1.00  0.00    -0.323 OA 
HETATM    2  C   UNL     1     -10.468  17.156  67.639  1.00  0.00    -0.355 C  
HETATM    3  H   UNL     1     -10.905  16.408  69.383  1.00  0.00     0.000 HD 
ENDROOT
BRANCH   2   4
HETATM    4  C   UNL     1     -10.025  18.524  67.112  1.00  0.00    -0.336 C  
HETATM    5  O   UNL     1     -10.259  19.520  68.125  1.00  0.00    -0.403 OA 
HETATM    6  H   UNL     1      -9.984  20.369  67.799  1.00  0.00     0.000 HD 
BRANCH   4   7
HETATM    7  C   UNL     1      -8.546  18.525  66.685  1.00  0.00    -0.286 C  
HETATM    8  H   UNL     1      -6.834  18.008  67.500  1.00  0.00     0.000 HD 
HETATM    9  O   UNL     1      -7.747  18.008  67.763  1.00  0.00    -0.215 OA 
BRANCH   7  10
HETATM   10  C   UNL     1      -8.078  19.938  66.277  1.00  0.00    -0.329 C  
HETATM   11  C   UNL     1      -6.885  19.857  65.342  1.00  0.00    -0.299 C  
HETATM   12  O   UNL     1      -7.708  20.752  67.387  1.00  0.00    -0.345 OA 
HETATM   13  O   UNL     1      -6.421  18.806  64.903  1.00  0.00    -0.492 OA 
HETATM   14  H   UNL     1      -7.420  21.621  67.135  1.00  0.00     0.000 HD 
ENDBRANCH   7  10
ENDBRANCH   4   7
ENDBRANCH   2   4
TORSDOF 3
ENDMDL
MODEL      119
REMARK 921   NORMALIZED FREE ENERGY PREDICTED BY IDOCK:   -2.68 KCAL/MOL
REMARK 922        TOTAL FREE ENERGY PREDICTED BY IDOCK:   -3.77 KCAL/MOL
REMARK 923 INTER-LIGAND FREE ENERGY PREDICTED BY IDOCK:   -3.29 KCAL/MOL
REMARK 924 INTRA-LIGAND FREE ENERGY PREDICTED BY IDOCK:   -0.48 KCAL/MOL
REMARK 927      BINDING AFFINITY PREDICTED BY RF-SCORE:    0.00 PKD
ROOT
HETATM    1  O   UNL     1      -9.780  12.770  63.861  1.00  0.00    -0.681 OA 
HETATM    2  C   UNL     1     -11.160  12.754  64.235  1.00  0.00    -0.370 C  
HETATM    3  H   UNL     1      -9.706  12.408  62.986  1.00  0.00     0.000 HD 
ENDROOT
BRANCH   2   4
HETATM    4  C   UNL     1     -11.279  13.338  65.647  1.00  0.00    -0.285 C  
HETATM    5  O   UNL     1     -12.164  12.513  66.427  1.00  0.00    -0.584 OA 
HETATM    6  H   UNL     1     -12.238  12.875  67.303  1.00  0.00     0.000 HD 
BRANCH   4   7
HETATM    7  C   UNL     1      -9.907  13.460  66.335  1.00  0.00    -0.296 C  
HETATM    8  H   UNL     1      -8.583  12.220  67.089  1.00  0.00     0.000 HD 
HETATM    9  O   UNL     1      -9.429  12.145  66.664  1.00  0.00    -0.211 OA 
BRANCH   7  10
HETATM   10  C   UNL     1      -9.985  14.352  67.593  1.00  0.00    -0.224 C  
HETATM   11  C   UNL     1      -8.636  14.982  67.887  1.00  0.00    -0.155 C  
HETATM   12  O   UNL     1     -10.401  13.646  68.759  1.00  0.00    -0.282 OA 
HETATM   13  O   UNL     1      -7.647  14.866  67.165  1.00  0.00    -0.200 OA 
HETATM   14  H   UNL     1     -10.449  14.195  69.533  1.00  0.00     0.000 HD 
ENDBRANCH   7  10
ENDBRANCH   4   7
ENDBRANCH   2   4
TORSDOF 3
ENDMDL
MODEL      120
REMARK 921   NORMALIZED FREE ENERGY PREDICTED BY IDOCK:   -2.67 KCAL/MOL
REMARK 922        TOTAL FREE ENERGY PREDICTED BY IDOCK:   -3.76 KCAL/MOL
REMARK 923 INTER-LIGAND FREE ENERGY PREDICTED BY IDOCK:   -3.23 KCAL/MOL
REMARK 924 INTRA-LIGAND FREE ENERGY PREDICTED BY IDOCK:   -0.54 KCAL/MOL
REMARK 927      BINDING AFFINITY PREDICTED BY RF-SCORE:    0.00 PKD
ROOT
HETATM    1  O   UNL     1      -9.972   9.418  65.480  1.00  0.00    -0.421 OA 
HETATM    2  C   UNL     1     -10.395   9.804  66.791  1.00  0.00    -0.218 C  
HETATM    3  H   UNL     1     -10.312   8.549  65.304  1.00  0.00     0.000 HD 
ENDROOT
BRANCH   2   4
HETATM    4  C   UNL     1      -9.844  11.206  67.075  1.00  0.00    -0.185 C  
HETATM    5  O   UNL     1      -8.593  11.372  66.383  1.00  0.00    -0.175 OA 
HETATM    6  H   UNL     1      -8.252  12.241  66.559  1.00  0.00     0.000 HD 
BRANCH   4   7
HETATM    7  C   UNL     1     -10.839  12.307  66.666  1.00  0.00    -0.258 C  
HETATM    8  H   UNL     1     -12.408  12.437  65.491  1.00  0.00     0.000 HD 
HETATM    9  O   UNL     1     -11.794  11.758  65.744  1.00  0.00    -0.379 OA 
BRANCH   7  10
HETATM   10  C   UNL     1     -10.111  13.523  66.053  1.00  0.00    -0.310 C  
HETATM   11  C   UNL     1     -10.932  14.786  66.237  1.00  0.00    -0.330 C  
HETATM   12  O   UNL     1      -9.843  13.375  64.661  1.00  0.00    -0.616 OA 
HETATM   13  O   UNL     1     -11.986  14.840  66.870  1.00  0.00    -0.334 OA 
HETATM   14  H   UNL     1      -9.396  14.123  64.284  1.00  0.00     0.000 HD 
ENDBRANCH   7  10
ENDBRANCH   4   7
ENDBRANCH   2   4
TORSDOF 3
ENDMDL
MODEL      121
REMARK 921   NORMALIZED FREE ENERGY PREDICTED BY IDOCK:   -2.67 KCAL/MOL
REMARK 922        TOTAL FREE ENERGY PREDICTED BY IDOCK:   -3.76 KCAL/MOL
REMARK 923 INTER-LIGAND FREE ENERGY PREDICTED BY IDOCK:   -3.21 KCAL/MOL
REMARK 924 INTRA-LIGAND FREE ENERGY PREDICTED BY IDOCK:   -0.54 KCAL/MOL
REMARK 927      BINDING AFFINITY PREDICTED BY RF-SCORE:    0.00 PKD
ROOT
HETATM    1  O   UNL     1     -10.799   7.544  74.154  1.00  0.00    -0.417 OA 
HETATM    2  C   UNL     1     -10.049   6.363  73.853  1.00  0.00    -0.288 C  
HETATM    3  H   UNL     1     -10.387   7.975  74.893  1.00  0.00     0.000 HD 
ENDROOT
BRANCH   2   4
HETATM    4  C   UNL     1     -10.714   5.667  72.662  1.00  0.00    -0.242 C  
HETATM    5  O   UNL     1     -12.143   5.806  72.769  1.00  0.00    -0.543 OA 
HETATM    6  H   UNL     1     -12.555   5.375  72.030  1.00  0.00     0.000 HD 
BRANCH   4   7
HETATM    7  C   UNL     1     -10.216   6.227  71.317  1.00  0.00    -0.200 C  
HETATM    8  H   UNL     1      -9.228   7.818  70.722  1.00  0.00     0.000 HD 
HETATM    9  O   UNL     1      -9.536   7.471  71.551  1.00  0.00    -0.150 OA 
BRANCH   7  10
HETATM   10  C   UNL     1     -11.378   6.410  70.318  1.00  0.00    -0.403 C  
HETATM   11  C   UNL     1     -10.913   6.139  68.899  1.00  0.00    -0.356 C  
HETATM   12  O   UNL     1     -11.947   7.717  70.349  1.00  0.00    -0.489 OA 
HETATM   13  O   UNL     1      -9.787   5.738  68.606  1.00  0.00    -0.125 OA 
HETATM   14  H   UNL     1     -12.662   7.829  69.734  1.00  0.00     0.000 HD 
ENDBRANCH   7  10
ENDBRANCH   4   7
ENDBRANCH   2   4
TORSDOF 3
ENDMDL
MODEL      122
REMARK 921   NORMALIZED FREE ENERGY PREDICTED BY IDOCK:   -2.66 KCAL/MOL
REMARK 922        TOTAL FREE ENERGY PREDICTED BY IDOCK:   -3.76 KCAL/MOL
REMARK 923 INTER-LIGAND FREE ENERGY PREDICTED BY IDOCK:   -3.24 KCAL/MOL
REMARK 924 INTRA-LIGAND FREE ENERGY PREDICTED BY IDOCK:   -0.52 KCAL/MOL
REMARK 927      BINDING AFFINITY PREDICTED BY RF-SCORE:    0.00 PKD
ROOT
HETATM    1  O   UNL     1     -11.381   8.767  69.724  1.00  0.00    -0.443 OA 
HETATM    2  C   UNL     1     -11.626   7.836  70.782  1.00  0.00    -0.255 C  
HETATM    3  H   UNL     1     -11.624   8.353  68.904  1.00  0.00     0.000 HD 
ENDROOT
BRANCH   2   4
HETATM    4  C   UNL     1     -11.234   8.504  72.104  1.00  0.00    -0.362 C  
HETATM    5  O   UNL     1     -11.972   7.893  73.179  1.00  0.00    -0.662 OA 
HETATM    6  H   UNL     1     -11.729   8.307  73.999  1.00  0.00     0.000 HD 
BRANCH   4   7
HETATM    7  C   UNL     1      -9.720   8.413  72.367  1.00  0.00    -0.306 C  
HETATM    8  H   UNL     1      -8.139   7.814  71.366  1.00  0.00     0.000 HD 
HETATM    9  O   UNL     1      -9.074   7.870  71.204  1.00  0.00    -0.139 OA 
BRANCH   7  10
HETATM   10  C   UNL     1      -9.417   7.561  73.618  1.00  0.00    -0.284 C  
HETATM   11  C   UNL     1      -8.093   7.972  74.238  1.00  0.00    -0.258 C  
HETATM   12  O   UNL     1      -9.355   6.163  73.347  1.00  0.00    -0.135 OA 
HETATM   13  O   UNL     1      -7.410   8.917  73.845  1.00  0.00    -0.396 OA 
HETATM   14  H   UNL     1      -9.168   5.639  74.116  1.00  0.00     0.000 HD 
ENDBRANCH   7  10
ENDBRANCH   4   7
ENDBRANCH   2   4
TORSDOF 3
ENDMDL
MODEL      123
REMARK 921   NORMALIZED FREE ENERGY PREDICTED BY IDOCK:   -2.66 KCAL/MOL
REMARK 922        TOTAL FREE ENERGY PREDICTED BY IDOCK:   -3.75 KCAL/MOL
REMARK 923 INTER-LIGAND FREE ENERGY PREDICTED BY IDOCK:   -3.26 KCAL/MOL
REMARK 924 INTRA-LIGAND FREE ENERGY PREDICTED BY IDOCK:   -0.49 KCAL/MOL
REMARK 927      BINDING AFFINITY PREDICTED BY RF-SCORE:    0.00 PKD
ROOT
HETATM    1  O   UNL     1     -12.913  14.627  70.034  1.00  0.00    -0.569 OA 
HETATM    2  C   UNL     1     -11.803  13.750  69.822  1.00  0.00    -0.331 C  
HETATM    3  H   UNL     1     -13.208  14.519  70.930  1.00  0.00     0.000 HD 
ENDROOT
BRANCH   2   4
HETATM    4  C   UNL     1     -11.327  13.923  68.376  1.00  0.00    -0.285 C  
HETATM    5  O   UNL     1     -12.473  13.981  67.506  1.00  0.00    -0.506 OA 
HETATM    6  H   UNL     1     -12.179  14.088  66.609  1.00  0.00     0.000 HD 
BRANCH   4   7
HETATM    7  C   UNL     1     -10.456  15.180  68.204  1.00  0.00    -0.245 C  
HETATM    8  H   UNL     1     -10.710  17.120  68.388  1.00  0.00     0.000 HD 
HETATM    9  O   UNL     1     -11.248  16.344  68.494  1.00  0.00    -0.358 OA 
BRANCH   7  10
HETATM   10  C   UNL     1      -9.854  15.259  66.785  1.00  0.00    -0.236 C  
HETATM   11  C   UNL     1      -8.590  16.099  66.784  1.00  0.00    -0.247 C  
HETATM   12  O   UNL     1     -10.748  15.816  65.824  1.00  0.00    -0.324 OA 
HETATM   13  O   UNL     1      -8.073  16.570  67.797  1.00  0.00    -0.158 OA 
HETATM   14  H   UNL     1     -10.378  15.864  64.951  1.00  0.00     0.000 HD 
ENDBRANCH   7  10
ENDBRANCH   4   7
ENDBRANCH   2   4
TORSDOF 3
ENDMDL
MODEL      124
REMARK 921   NORMALIZED FREE ENERGY PREDICTED BY IDOCK:   -2.66 KCAL/MOL
REMARK 922        TOTAL FREE ENERGY PREDICTED BY IDOCK:   -3.75 KCAL/MOL
REMARK 923 INTER-LIGAND FREE ENERGY PREDICTED BY IDOCK:   -3.39 KCAL/MOL
REMARK 924 INTRA-LIGAND FREE ENERGY PREDICTED BY IDOCK:   -0.36 KCAL/MOL
REMARK 927      BINDING AFFINITY PREDICTED BY RF-SCORE:    0.00 PKD
ROOT
HETATM    1  O   UNL     1     -12.203   5.784  72.777  1.00  0.00    -0.548 OA 
HETATM    2  C   UNL     1     -12.308   6.761  71.738  1.00  0.00    -0.356 C  
HETATM    3  H   UNL     1     -12.825   6.010  73.459  1.00  0.00     0.000 HD 
ENDROOT
BRANCH   2   4
HETATM    4  C   UNL     1     -11.304   6.397  70.639  1.00  0.00    -0.357 C  
HETATM    5  O   UNL     1     -11.886   6.685  69.353  1.00  0.00    -0.651 OA 
HETATM    6  H   UNL     1     -11.264   6.459  68.672  1.00  0.00     0.000 HD 
BRANCH   4   7
HETATM    7  C   UNL     1      -9.970   7.147  70.808  1.00  0.00    -0.189 C  
HETATM    8  H   UNL     1      -8.223   6.768  71.623  1.00  0.00     0.000 HD 
HETATM    9  O   UNL     1      -9.047   6.306  71.519  1.00  0.00    -0.145 OA 
BRANCH   7  10
HETATM   10  C   UNL     1     -10.169   8.493  71.537  1.00  0.00    -0.250 C  
HETATM   11  C   UNL     1     -10.443   9.605  70.542  1.00  0.00    -0.303 C  
HETATM   12  O   UNL     1      -9.045   8.878  72.324  1.00  0.00    -0.381 OA 
HETATM   13  O   UNL     1     -10.579   9.432  69.331  1.00  0.00    -0.213 OA 
HETATM   14  H   UNL     1      -9.168   9.706  72.773  1.00  0.00     0.000 HD 
ENDBRANCH   7  10
ENDBRANCH   4   7
ENDBRANCH   2   4
TORSDOF 3
ENDMDL
MODEL      125
REMARK 921   NORMALIZED FREE ENERGY PREDICTED BY IDOCK:   -2.65 KCAL/MOL
REMARK 922        TOTAL FREE ENERGY PREDICTED BY IDOCK:   -3.74 KCAL/MOL
REMARK 923 INTER-LIGAND FREE ENERGY PREDICTED BY IDOCK:   -3.22 KCAL/MOL
REMARK 924 INTRA-LIGAND FREE ENERGY PREDICTED BY IDOCK:   -0.52 KCAL/MOL
REMARK 927      BINDING AFFINITY PREDICTED BY RF-SCORE:    0.00 PKD
ROOT
HETATM    1  O   UNL     1      -8.760  20.157  65.367  1.00  0.00    -0.394 OA 
HETATM    2  C   UNL     1      -9.449  20.045  66.615  1.00  0.00    -0.404 C  
HETATM    3  H   UNL     1      -9.302  20.664  64.774  1.00  0.00     0.000 HD 
ENDROOT
BRANCH   2   4
HETATM    4  C   UNL     1      -8.574  19.226  67.571  1.00  0.00    -0.292 C  
HETATM    5  O   UNL     1      -7.974  18.136  66.846  1.00  0.00    -0.218 OA 
HETATM    6  H   UNL     1      -7.432  17.628  67.438  1.00  0.00     0.000 HD 
BRANCH   4   7
HETATM    7  C   UNL     1      -7.490  20.090  68.241  1.00  0.00    -0.244 C  
HETATM    8  H   UNL     1      -6.535  21.753  67.812  1.00  0.00     0.000 HD 
HETATM    9  O   UNL     1      -7.204  21.219  67.399  1.00  0.00    -0.511 OA 
BRANCH   7  10
HETATM   10  C   UNL     1      -6.212  19.271  68.523  1.00  0.00    -0.236 C  
HETATM   11  C   UNL     1      -5.533  19.760  69.789  1.00  0.00    -0.223 C  
HETATM   12  O   UNL     1      -5.259  19.331  67.465  1.00  0.00    -0.164 OA 
HETATM   13  O   UNL     1      -5.993  20.627  70.531  1.00  0.00    -0.531 OA 
HETATM   14  H   UNL     1      -4.473  18.828  67.639  1.00  0.00     0.000 HD 
ENDBRANCH   7  10
ENDBRANCH   4   7
ENDBRANCH   2   4
TORSDOF 3
ENDMDL
MODEL      126
REMARK 921   NORMALIZED FREE ENERGY PREDICTED BY IDOCK:   -2.65 KCAL/MOL
REMARK 922        TOTAL FREE ENERGY PREDICTED BY IDOCK:   -3.73 KCAL/MOL
REMARK 923 INTER-LIGAND FREE ENERGY PREDICTED BY IDOCK:   -3.03 KCAL/MOL
REMARK 924 INTRA-LIGAND FREE ENERGY PREDICTED BY IDOCK:   -0.70 KCAL/MOL
REMARK 927      BINDING AFFINITY PREDICTED BY RF-SCORE:    0.00 PKD
ROOT
HETATM    1  O   UNL     1     -10.563  16.315  67.317  1.00  0.00    -0.309 OA 
HETATM    2  C   UNL     1      -9.376  15.780  66.723  1.00  0.00    -0.242 C  
HETATM    3  H   UNL     1     -11.174  15.601  67.451  1.00  0.00     0.000 HD 
ENDROOT
BRANCH   2   4
HETATM    4  C   UNL     1      -8.390  16.933  66.506  1.00  0.00    -0.280 C  
HETATM    5  O   UNL     1      -9.068  18.015  65.840  1.00  0.00    -0.513 OA 
HETATM    6  H   UNL     1      -8.457  18.730  65.706  1.00  0.00     0.000 HD 
BRANCH   4   7
HETATM    7  C   UNL     1      -7.771  17.417  67.830  1.00  0.00    -0.199 C  
HETATM    8  H   UNL     1      -7.642  16.736  69.668  1.00  0.00     0.000 HD 
HETATM    9  O   UNL     1      -8.024  16.438  68.851  1.00  0.00    -0.214 OA 
BRANCH   7  10
HETATM   10  C   UNL     1      -8.323  18.799  68.238  1.00  0.00    -0.330 C  
HETATM   11  C   UNL     1      -7.327  19.537  69.114  1.00  0.00    -0.329 C  
HETATM   12  O   UNL     1      -9.557  18.726  68.948  1.00  0.00    -0.358 OA 
HETATM   13  O   UNL     1      -6.199  19.121  69.379  1.00  0.00    -0.255 OA 
HETATM   14  H   UNL     1      -9.897  19.577  69.199  1.00  0.00     0.000 HD 
ENDBRANCH   7  10
ENDBRANCH   4   7
ENDBRANCH   2   4
TORSDOF 3
ENDMDL
MODEL      127
REMARK 921   NORMALIZED FREE ENERGY PREDICTED BY IDOCK:   -2.61 KCAL/MOL
REMARK 922        TOTAL FREE ENERGY PREDICTED BY IDOCK:   -3.70 KCAL/MOL
REMARK 923 INTER-LIGAND FREE ENERGY PREDICTED BY IDOCK:   -3.60 KCAL/MOL
REMARK 924 INTRA-LIGAND FREE ENERGY PREDICTED BY IDOCK:   -0.10 KCAL/MOL
REMARK 927      BINDING AFFINITY PREDICTED BY RF-SCORE:    0.00 PKD
ROOT
HETATM    1  O   UNL     1      -9.705  20.455  65.641  1.00  0.00    -0.603 OA 
HETATM    2  C   UNL     1     -10.490  19.300  65.951  1.00  0.00    -0.451 C  
HETATM    3  H   UNL     1     -10.286  21.124  65.298  1.00  0.00     0.000 HD 
ENDROOT
BRANCH   2   4
HETATM    4  C   UNL     1      -9.553  18.221  66.503  1.00  0.00    -0.320 C  
HETATM    5  O   UNL     1      -9.109  18.607  67.817  1.00  0.00    -0.280 OA 
HETATM    6  H   UNL     1      -8.529  17.938  68.159  1.00  0.00     0.000 HD 
BRANCH   4   7
HETATM    7  C   UNL     1     -10.231  16.839  66.546  1.00  0.00    -0.316 C  
HETATM    8  H   UNL     1     -10.789  15.576  67.943  1.00  0.00     0.000 HD 
HETATM    9  O   UNL     1     -10.371  16.428  67.916  1.00  0.00    -0.267 OA 
BRANCH   7  10
HETATM   10  C   UNL     1      -9.434  15.796  65.733  1.00  0.00    -0.299 C  
HETATM   11  C   UNL     1     -10.361  14.990  64.841  1.00  0.00    -0.282 C  
HETATM   12  O   UNL     1      -8.709  14.880  66.550  1.00  0.00    -0.385 OA 
HETATM   13  O   UNL     1     -11.565  15.208  64.720  1.00  0.00    -0.398 OA 
HETATM   14  H   UNL     1      -8.219  14.238  66.050  1.00  0.00     0.000 HD 
ENDBRANCH   7  10
ENDBRANCH   4   7
ENDBRANCH   2   4
TORSDOF 3
ENDMDL
MODEL      128
REMARK 921   NORMALIZED FREE ENERGY PREDICTED BY IDOCK:   -2.61 KCAL/MOL
REMARK 922        TOTAL FREE ENERGY PREDICTED BY IDOCK:   -3.69 KCAL/MOL
REMARK 923 INTER-LIGAND FREE ENERGY PREDICTED BY IDOCK:   -3.34 KCAL/MOL
REMARK 924 INTRA-LIGAND FREE ENERGY PREDICTED BY IDOCK:   -0.34 KCAL/MOL
REMARK 927      BINDING AFFINITY PREDICTED BY RF-SCORE:    0.00 PKD
ROOT
HETATM    1  O   UNL     1      -7.696  18.017  65.820  1.00  0.00    -0.532 OA 
HETATM    2  C   UNL     1      -7.648  17.174  66.975  1.00  0.00    -0.190 C  
HETATM    3  H   UNL     1      -7.341  18.865  66.059  1.00  0.00     0.000 HD 
ENDROOT
BRANCH   2   4
HETATM    4  C   UNL     1      -8.221  15.806  66.590  1.00  0.00    -0.270 C  
HETATM    5  O   UNL     1      -7.846  14.838  67.588  1.00  0.00    -0.144 OA 
HETATM    6  H   UNL     1      -8.201  13.990  67.350  1.00  0.00     0.000 HD 
BRANCH   4   7
HETATM    7  C   UNL     1      -9.751  15.849  66.428  1.00  0.00    -0.287 C  
HETATM    8  H   UNL     1     -11.027  16.747  65.234  1.00  0.00     0.000 HD 
HETATM    9  O   UNL     1     -10.083  16.720  65.335  1.00  0.00    -0.587 OA 
BRANCH   7  10
HETATM   10  C   UNL     1     -10.443  16.305  67.730  1.00  0.00    -0.295 C  
HETATM   11  C   UNL     1     -11.636  15.420  68.042  1.00  0.00    -0.292 C  
HETATM   12  O   UNL     1     -10.901  17.654  67.682  1.00  0.00    -0.350 OA 
HETATM   13  O   UNL     1     -11.945  14.423  67.391  1.00  0.00    -0.398 OA 
HETATM   14  H   UNL     1     -11.327  17.935  68.483  1.00  0.00     0.000 HD 
ENDBRANCH   7  10
ENDBRANCH   4   7
ENDBRANCH   2   4
TORSDOF 3
ENDMDL
MODEL      129
REMARK 921   NORMALIZED FREE ENERGY PREDICTED BY IDOCK:   -2.60 KCAL/MOL
REMARK 922        TOTAL FREE ENERGY PREDICTED BY IDOCK:   -3.68 KCAL/MOL
REMARK 923 INTER-LIGAND FREE ENERGY PREDICTED BY IDOCK:   -2.97 KCAL/MOL
REMARK 924 INTRA-LIGAND FREE ENERGY PREDICTED BY IDOCK:   -0.71 KCAL/MOL
REMARK 927      BINDING AFFINITY PREDICTED BY RF-SCORE:    0.00 PKD
ROOT
HETATM    1  O   UNL     1      -9.990  14.289  66.884  1.00  0.00    -0.252 OA 
HETATM    2  C   UNL     1      -8.788  14.853  66.353  1.00  0.00    -0.161 C  
HETATM    3  H   UNL     1      -9.843  13.361  67.028  1.00  0.00     0.000 HD 
ENDROOT
BRANCH   2   4
HETATM    4  C   UNL     1      -9.026  16.349  66.121  1.00  0.00    -0.332 C  
HETATM    5  O   UNL     1     -10.275  16.527  65.426  1.00  0.00    -0.566 OA 
HETATM    6  H   UNL     1     -10.423  17.454  65.282  1.00  0.00     0.000 HD 
BRANCH   4   7
HETATM    7  C   UNL     1      -9.024  17.143  67.439  1.00  0.00    -0.220 C  
HETATM    8  H   UNL     1      -8.433  16.826  69.286  1.00  0.00     0.000 HD 
HETATM    9  O   UNL     1      -8.434  16.336  68.472  1.00  0.00    -0.186 OA 
BRANCH   7  10
HETATM   10  C   UNL     1     -10.450  17.588  67.831  1.00  0.00    -0.384 C  
HETATM   11  C   UNL     1     -10.400  18.786  68.761  1.00  0.00    -0.138 C  
HETATM   12  O   UNL     1     -11.202  16.564  68.477  1.00  0.00    -0.360 OA 
HETATM   13  O   UNL     1      -9.366  19.372  69.079  1.00  0.00    -0.373 OA 
HETATM   14  H   UNL     1     -12.079  16.838  68.718  1.00  0.00     0.000 HD 
ENDBRANCH   7  10
ENDBRANCH   4   7
ENDBRANCH   2   4
TORSDOF 3
ENDMDL
MODEL      130
REMARK 921   NORMALIZED FREE ENERGY PREDICTED BY IDOCK:   -2.59 KCAL/MOL
REMARK 922        TOTAL FREE ENERGY PREDICTED BY IDOCK:   -3.67 KCAL/MOL
REMARK 923 INTER-LIGAND FREE ENERGY PREDICTED BY IDOCK:   -3.15 KCAL/MOL
REMARK 924 INTRA-LIGAND FREE ENERGY PREDICTED BY IDOCK:   -0.51 KCAL/MOL
REMARK 927      BINDING AFFINITY PREDICTED BY RF-SCORE:    0.00 PKD
ROOT
HETATM    1  O   UNL     1      -7.717   8.717  74.004  1.00  0.00    -0.418 OA 
HETATM    2  C   UNL     1      -7.703   7.589  73.124  1.00  0.00    -0.101 C  
HETATM    3  H   UNL     1      -6.870   9.143  73.952  1.00  0.00     0.000 HD 
ENDROOT
BRANCH   2   4
HETATM    4  C   UNL     1      -9.070   6.902  73.208  1.00  0.00    -0.135 C  
HETATM    5  O   UNL     1      -9.646   7.152  74.504  1.00  0.00    -0.428 OA 
HETATM    6  H   UNL     1     -10.493   6.726  74.557  1.00  0.00     0.000 HD 
BRANCH   4   7
HETATM    7  C   UNL     1     -10.020   7.376  72.094  1.00  0.00    -0.170 C  
HETATM    8  H   UNL     1     -10.373   9.063  71.153  1.00  0.00     0.000 HD 
HETATM    9  O   UNL     1      -9.787   8.771  71.840  1.00  0.00    -0.287 OA 
BRANCH   7  10
HETATM   10  C   UNL     1     -11.496   7.120  72.467  1.00  0.00    -0.258 C  
HETATM   11  C   UNL     1     -12.302   6.743  71.237  1.00  0.00    -0.344 C  
HETATM   12  O   UNL     1     -12.128   8.244  73.074  1.00  0.00    -0.596 OA 
HETATM   13  O   UNL     1     -11.818   6.576  70.118  1.00  0.00    -0.416 OA 
HETATM   14  H   UNL     1     -13.036   8.087  73.303  1.00  0.00     0.000 HD 
ENDBRANCH   7  10
ENDBRANCH   4   7
ENDBRANCH   2   4
TORSDOF 3
ENDMDL
MODEL      131
REMARK 921   NORMALIZED FREE ENERGY PREDICTED BY IDOCK:   -2.59 KCAL/MOL
REMARK 922        TOTAL FREE ENERGY PREDICTED BY IDOCK:   -3.66 KCAL/MOL
REMARK 923 INTER-LIGAND FREE ENERGY PREDICTED BY IDOCK:   -3.44 KCAL/MOL
REMARK 924 INTRA-LIGAND FREE ENERGY PREDICTED BY IDOCK:   -0.22 KCAL/MOL
REMARK 927      BINDING AFFINITY PREDICTED BY RF-SCORE:    0.00 PKD
ROOT
HETATM    1  O   UNL     1      -9.161  18.825  66.576  1.00  0.00    -0.309 OA 
HETATM    2  C   UNL     1     -10.303  18.364  67.303  1.00  0.00    -0.392 C  
HETATM    3  H   UNL     1      -9.234  19.767  66.478  1.00  0.00     0.000 HD 
ENDROOT
BRANCH   2   4
HETATM    4  C   UNL     1     -10.185  16.844  67.462  1.00  0.00    -0.295 C  
HETATM    5  O   UNL     1     -11.410  16.331  68.017  1.00  0.00    -0.313 OA 
HETATM    6  H   UNL     1     -11.338  15.389  68.116  1.00  0.00     0.000 HD 
BRANCH   4   7
HETATM    7  C   UNL     1      -9.866  16.150  66.125  1.00  0.00    -0.333 C  
HETATM    8  H   UNL     1     -10.431  16.346  64.254  1.00  0.00     0.000 HD 
HETATM    9  O   UNL     1     -10.628  16.774  65.079  1.00  0.00    -0.695 OA 
BRANCH   7  10
HETATM   10  C   UNL     1     -10.155  14.635  66.195  1.00  0.00    -0.300 C  
HETATM   11  C   UNL     1      -8.998  13.899  66.846  1.00  0.00    -0.222 C  
HETATM   12  O   UNL     1     -10.383  14.046  64.917  1.00  0.00    -0.404 OA 
HETATM   13  O   UNL     1      -8.013  14.452  67.332  1.00  0.00    -0.182 OA 
HETATM   14  H   UNL     1     -10.561  13.114  64.960  1.00  0.00     0.000 HD 
ENDBRANCH   7  10
ENDBRANCH   4   7
ENDBRANCH   2   4
TORSDOF 3
ENDMDL
MODEL      132
REMARK 921   NORMALIZED FREE ENERGY PREDICTED BY IDOCK:   -2.57 KCAL/MOL
REMARK 922        TOTAL FREE ENERGY PREDICTED BY IDOCK:   -3.65 KCAL/MOL
REMARK 923 INTER-LIGAND FREE ENERGY PREDICTED BY IDOCK:   -3.26 KCAL/MOL
REMARK 924 INTRA-LIGAND FREE ENERGY PREDICTED BY IDOCK:   -0.38 KCAL/MOL
REMARK 927      BINDING AFFINITY PREDICTED BY RF-SCORE:    0.00 PKD
ROOT
HETATM    1  O   UNL     1      -8.223   8.748  72.509  1.00  0.00    -0.387 OA 
HETATM    2  C   UNL     1      -8.728   8.806  71.171  1.00  0.00    -0.212 C  
HETATM    3  H   UNL     1      -7.478   9.334  72.569  1.00  0.00     0.000 HD 
ENDROOT
BRANCH   2   4
HETATM    4  C   UNL     1      -9.929   7.860  71.074  1.00  0.00    -0.181 C  
HETATM    5  O   UNL     1      -9.500   6.518  71.371  1.00  0.00    -0.159 OA 
HETATM    6  H   UNL     1     -10.245   5.931  71.311  1.00  0.00     0.000 HD 
BRANCH   4   7
HETATM    7  C   UNL     1     -11.071   8.283  72.016  1.00  0.00    -0.311 C  
HETATM    8  H   UNL     1     -11.437   8.167  73.943  1.00  0.00     0.000 HD 
HETATM    9  O   UNL     1     -10.733   7.906  73.361  1.00  0.00    -0.282 OA 
BRANCH   7  10
HETATM   10  C   UNL     1     -12.416   7.658  71.587  1.00  0.00    -0.335 C  
HETATM   11  C   UNL     1     -13.565   8.604  71.884  1.00  0.00    -0.410 C  
HETATM   12  O   UNL     1     -12.693   6.418  72.234  1.00  0.00    -0.552 OA 
HETATM   13  O   UNL     1     -13.425   9.746  72.320  1.00  0.00    -0.434 OA 
HETATM   14  H   UNL     1     -13.521   6.034  71.970  1.00  0.00     0.000 HD 
ENDBRANCH   7  10
ENDBRANCH   4   7
ENDBRANCH   2   4
TORSDOF 3
ENDMDL
MODEL      133
REMARK 921   NORMALIZED FREE ENERGY PREDICTED BY IDOCK:   -2.57 KCAL/MOL
REMARK 922        TOTAL FREE ENERGY PREDICTED BY IDOCK:   -3.64 KCAL/MOL
REMARK 923 INTER-LIGAND FREE ENERGY PREDICTED BY IDOCK:   -3.50 KCAL/MOL
REMARK 924 INTRA-LIGAND FREE ENERGY PREDICTED BY IDOCK:   -0.14 KCAL/MOL
REMARK 927      BINDING AFFINITY PREDICTED BY RF-SCORE:    0.00 PKD
ROOT
HETATM    1  O   UNL     1     -11.135  16.406  63.951  1.00  0.00    -1.179 OA 
HETATM    2  C   UNL     1     -11.183  15.647  65.162  1.00  0.00    -0.282 C  
HETATM    3  H   UNL     1     -11.845  16.114  63.391  1.00  0.00     0.000 HD 
ENDROOT
BRANCH   2   4
HETATM    4  C   UNL     1     -10.037  16.117  66.065  1.00  0.00    -0.351 C  
HETATM    5  O   UNL     1     -10.468  17.267  66.816  1.00  0.00    -0.313 OA 
HETATM    6  H   UNL     1      -9.758  17.559  67.376  1.00  0.00     0.000 HD 
BRANCH   4   7
HETATM    7  C   UNL     1      -9.557  15.002  67.012  1.00  0.00    -0.225 C  
HETATM    8  H   UNL     1     -10.319  13.356  67.766  1.00  0.00     0.000 HD 
HETATM    9  O   UNL     1     -10.615  14.044  67.182  1.00  0.00    -0.272 OA 
BRANCH   7  10
HETATM   10  C   UNL     1      -9.104  15.575  68.371  1.00  0.00    -0.190 C  
HETATM   11  C   UNL     1      -7.590  15.554  68.483  1.00  0.00    -0.127 C  
HETATM   12  O   UNL     1      -9.634  14.865  69.487  1.00  0.00    -0.394 OA 
HETATM   13  O   UNL     1      -6.834  15.212  67.574  1.00  0.00    -0.166 OA 
HETATM   14  H   UNL     1      -9.355  15.217  70.324  1.00  0.00     0.000 HD 
ENDBRANCH   7  10
ENDBRANCH   4   7
ENDBRANCH   2   4
TORSDOF 3
ENDMDL
MODEL      134
REMARK 921   NORMALIZED FREE ENERGY PREDICTED BY IDOCK:   -2.56 KCAL/MOL
REMARK 922        TOTAL FREE ENERGY PREDICTED BY IDOCK:   -3.64 KCAL/MOL
REMARK 923 INTER-LIGAND FREE ENERGY PREDICTED BY IDOCK:   -3.33 KCAL/MOL
REMARK 924 INTRA-LIGAND FREE ENERGY PREDICTED BY IDOCK:   -0.30 KCAL/MOL
REMARK 927      BINDING AFFINITY PREDICTED BY RF-SCORE:    0.00 PKD
ROOT
HETATM    1  O   UNL     1     -11.038   8.429  68.073  1.00  0.00    -0.454 OA 
HETATM    2  C   UNL     1     -10.216   8.920  69.136  1.00  0.00    -0.206 C  
HETATM    3  H   UNL     1     -10.554   8.518  67.260  1.00  0.00     0.000 HD 
ENDROOT
BRANCH   2   4
HETATM    4  C   UNL     1     -10.997   8.778  70.447  1.00  0.00    -0.235 C  
HETATM    5  O   UNL     1     -12.327   9.300  70.264  1.00  0.00    -0.452 OA 
HETATM    6  H   UNL     1     -12.811   9.213  71.076  1.00  0.00     0.000 HD 
BRANCH   4   7
HETATM    7  C   UNL     1     -11.052   7.317  70.928  1.00  0.00    -0.261 C  
HETATM    8  H   UNL     1     -11.888   5.650  70.309  1.00  0.00     0.000 HD 
HETATM    9  O   UNL     1     -11.854   6.552  70.012  1.00  0.00    -0.404 OA 
BRANCH   7  10
HETATM   10  C   UNL     1     -11.606   7.218  72.365  1.00  0.00    -0.268 C  
HETATM   11  C   UNL     1     -10.473   7.097  73.368  1.00  0.00    -0.368 C  
HETATM   12  O   UNL     1     -12.480   6.109  72.558  1.00  0.00    -0.552 OA 
HETATM   13  O   UNL     1      -9.280   7.163  73.075  1.00  0.00    -0.133 OA 
HETATM   14  H   UNL     1     -12.820   6.048  73.442  1.00  0.00     0.000 HD 
ENDBRANCH   7  10
ENDBRANCH   4   7
ENDBRANCH   2   4
TORSDOF 3
ENDMDL
MODEL      135
REMARK 921   NORMALIZED FREE ENERGY PREDICTED BY IDOCK:   -2.55 KCAL/MOL
REMARK 922        TOTAL FREE ENERGY PREDICTED BY IDOCK:   -3.63 KCAL/MOL
REMARK 923 INTER-LIGAND FREE ENERGY PREDICTED BY IDOCK:   -3.29 KCAL/MOL
REMARK 924 INTRA-LIGAND FREE ENERGY PREDICTED BY IDOCK:   -0.34 KCAL/MOL
REMARK 927      BINDING AFFINITY PREDICTED BY RF-SCORE:    0.00 PKD
ROOT
HETATM    1  O   UNL     1     -11.537  12.378  67.706  1.00  0.00    -0.311 OA 
HETATM    2  C   UNL     1     -11.687  12.728  69.085  1.00  0.00    -0.322 C  
HETATM    3  H   UNL     1     -11.252  11.473  67.660  1.00  0.00     0.000 HD 
ENDROOT
BRANCH   2   4
HETATM    4  C   UNL     1     -12.147  14.187  69.159  1.00  0.00    -0.325 C  
HETATM    5  O   UNL     1     -13.013  14.353  70.298  1.00  0.00    -0.488 OA 
HETATM    6  H   UNL     1     -13.298  15.258  70.344  1.00  0.00     0.000 HD 
BRANCH   4   7
HETATM    7  C   UNL     1     -10.957  15.161  69.240  1.00  0.00    -0.258 C  
HETATM    8  H   UNL     1     -10.171  16.331  70.609  1.00  0.00     0.000 HD 
HETATM    9  O   UNL     1     -10.905  15.730  70.559  1.00  0.00    -0.319 OA 
BRANCH   7  10
HETATM   10  C   UNL     1     -11.058  16.264  68.165  1.00  0.00    -0.329 C  
HETATM   11  C   UNL     1     -10.413  15.808  66.868  1.00  0.00    -0.315 C  
HETATM   12  O   UNL     1     -10.440  17.488  68.553  1.00  0.00    -0.362 OA 
HETATM   13  O   UNL     1      -9.958  14.680  66.682  1.00  0.00    -0.258 OA 
HETATM   14  H   UNL     1     -10.503  18.166  67.891  1.00  0.00     0.000 HD 
ENDBRANCH   7  10
ENDBRANCH   4   7
ENDBRANCH   2   4
TORSDOF 3
ENDMDL
MODEL      136
REMARK 921   NORMALIZED FREE ENERGY PREDICTED BY IDOCK:   -2.55 KCAL/MOL
REMARK 922        TOTAL FREE ENERGY PREDICTED BY IDOCK:   -3.62 KCAL/MOL
REMARK 923 INTER-LIGAND FREE ENERGY PREDICTED BY IDOCK:   -3.16 KCAL/MOL
REMARK 924 INTRA-LIGAND FREE ENERGY PREDICTED BY IDOCK:   -0.46 KCAL/MOL
REMARK 927      BINDING AFFINITY PREDICTED BY RF-SCORE:    0.00 PKD
ROOT
HETATM    1  O   UNL     1     -10.468  15.374  67.190  1.00  0.00    -0.277 OA 
HETATM    2  C   UNL     1     -10.881  15.332  65.821  1.00  0.00    -0.358 C  
HETATM    3  H   UNL     1     -10.437  16.283  67.462  1.00  0.00     0.000 HD 
ENDROOT
BRANCH   2   4
HETATM    4  C   UNL     1     -10.930  13.865  65.383  1.00  0.00    -0.316 C  
HETATM    5  O   UNL     1     -10.117  13.695  64.206  1.00  0.00    -0.738 OA 
HETATM    6  H   UNL     1     -10.148  12.786  63.934  1.00  0.00     0.000 HD 
BRANCH   4   7
HETATM    7  C   UNL     1     -10.467  12.915  66.501  1.00  0.00    -0.265 C  
HETATM    8  H   UNL     1      -8.751  12.414  67.317  1.00  0.00     0.000 HD 
HETATM    9  O   UNL     1      -9.038  13.000  66.626  1.00  0.00    -0.230 OA 
BRANCH   7  10
HETATM   10  C   UNL     1     -10.913  11.463  66.228  1.00  0.00    -0.247 C  
HETATM   11  C   UNL     1     -11.027  10.684  67.526  1.00  0.00    -0.310 C  
HETATM   12  O   UNL     1     -10.025  10.752  65.370  1.00  0.00    -0.238 OA 
HETATM   13  O   UNL     1     -10.874  11.177  68.643  1.00  0.00    -0.182 OA 
HETATM   14  H   UNL     1     -10.300   9.859  65.202  1.00  0.00     0.000 HD 
ENDBRANCH   7  10
ENDBRANCH   4   7
ENDBRANCH   2   4
TORSDOF 3
ENDMDL
MODEL      137
REMARK 921   NORMALIZED FREE ENERGY PREDICTED BY IDOCK:   -2.54 KCAL/MOL
REMARK 922        TOTAL FREE ENERGY PREDICTED BY IDOCK:   -3.61 KCAL/MOL
REMARK 923 INTER-LIGAND FREE ENERGY PREDICTED BY IDOCK:   -3.29 KCAL/MOL
REMARK 924 INTRA-LIGAND FREE ENERGY PREDICTED BY IDOCK:   -0.33 KCAL/MOL
REMARK 927      BINDING AFFINITY PREDICTED BY RF-SCORE:    0.00 PKD
ROOT
HETATM    1  O   UNL     1      -8.045   9.458  68.718  1.00  0.00    -0.100 OA 
HETATM    2  C   UNL     1      -8.952   8.703  69.526  1.00  0.00    -0.145 C  
HETATM    3  H   UNL     1      -7.589   8.855  68.143  1.00  0.00     0.000 HD 
ENDROOT
BRANCH   2   4
HETATM    4  C   UNL     1      -9.687   9.675  70.454  1.00  0.00    -0.245 C  
HETATM    5  O   UNL     1      -9.834  10.944  69.788  1.00  0.00    -0.414 OA 
HETATM    6  H   UNL     1     -10.290  11.547  70.364  1.00  0.00     0.000 HD 
BRANCH   4   7
HETATM    7  C   UNL     1     -11.060   9.130  70.887  1.00  0.00    -0.291 C  
HETATM    8  H   UNL     1     -12.256   7.681  70.314  1.00  0.00     0.000 HD 
HETATM    9  O   UNL     1     -11.409   8.018  70.047  1.00  0.00    -0.161 OA 
BRANCH   7  10
HETATM   10  C   UNL     1     -12.144  10.227  70.833  1.00  0.00    -0.368 C  
HETATM   11  C   UNL     1     -13.242   9.945  71.842  1.00  0.00    -0.458 C  
HETATM   12  O   UNL     1     -12.753  10.356  69.551  1.00  0.00    -0.663 OA 
HETATM   13  O   UNL     1     -13.216   9.018  72.651  1.00  0.00    -0.443 OA 
HETATM   14  H   UNL     1     -13.420  11.031  69.518  1.00  0.00     0.000 HD 
ENDBRANCH   7  10
ENDBRANCH   4   7
ENDBRANCH   2   4
TORSDOF 3
ENDMDL
MODEL      138
REMARK 921   NORMALIZED FREE ENERGY PREDICTED BY IDOCK:   -2.54 KCAL/MOL
REMARK 922        TOTAL FREE ENERGY PREDICTED BY IDOCK:   -3.61 KCAL/MOL
REMARK 923 INTER-LIGAND FREE ENERGY PREDICTED BY IDOCK:   -3.12 KCAL/MOL
REMARK 924 INTRA-LIGAND FREE ENERGY PREDICTED BY IDOCK:   -0.49 KCAL/MOL
REMARK 927      BINDING AFFINITY PREDICTED BY RF-SCORE:    0.00 PKD
ROOT
HETATM    1  O   UNL     1     -11.986  15.620  70.550  1.00  0.00    -0.331 OA 
HETATM    2  C   UNL     1     -12.633  14.382  70.241  1.00  0.00    -0.323 C  
HETATM    3  H   UNL     1     -12.653  16.245  70.809  1.00  0.00     0.000 HD 
ENDROOT
BRANCH   2   4
HETATM    4  C   UNL     1     -11.558  13.374  69.822  1.00  0.00    -0.235 C  
HETATM    5  O   UNL     1     -12.075  12.039  69.979  1.00  0.00    -0.310 OA 
HETATM    6  H   UNL     1     -11.409  11.413  69.719  1.00  0.00     0.000 HD 
BRANCH   4   7
HETATM    7  C   UNL     1     -11.088  13.604  68.374  1.00  0.00    -0.264 C  
HETATM    8  H   UNL     1     -11.715  14.637  66.826  1.00  0.00     0.000 HD 
HETATM    9  O   UNL     1     -12.005  14.495  67.719  1.00  0.00    -0.363 OA 
BRANCH   7  10
HETATM   10  C   UNL     1     -10.963  12.272  67.604  1.00  0.00    -0.244 C  
HETATM   11  C   UNL     1      -9.755  12.296  66.685  1.00  0.00    -0.222 C  
HETATM   12  O   UNL     1     -12.108  11.969  66.812  1.00  0.00    -0.613 OA 
HETATM   13  O   UNL     1      -8.942  13.218  66.636  1.00  0.00    -0.214 OA 
HETATM   14  H   UNL     1     -12.031  11.149  66.339  1.00  0.00     0.000 HD 
ENDBRANCH   7  10
ENDBRANCH   4   7
ENDBRANCH   2   4
TORSDOF 3
ENDMDL
MODEL      139
REMARK 921   NORMALIZED FREE ENERGY PREDICTED BY IDOCK:   -2.54 KCAL/MOL
REMARK 922        TOTAL FREE ENERGY PREDICTED BY IDOCK:   -3.61 KCAL/MOL
REMARK 923 INTER-LIGAND FREE ENERGY PREDICTED BY IDOCK:   -3.23 KCAL/MOL
REMARK 924 INTRA-LIGAND FREE ENERGY PREDICTED BY IDOCK:   -0.37 KCAL/MOL
REMARK 927      BINDING AFFINITY PREDICTED BY RF-SCORE:    0.00 PKD
ROOT
HETATM    1  O   UNL     1      -8.095  17.433  66.371  1.00  0.00    -0.248 OA 
HETATM    2  C   UNL     1      -9.076  17.388  67.412  1.00  0.00    -0.236 C  
HETATM    3  H   UNL     1      -7.269  17.703  66.755  1.00  0.00     0.000 HD 
ENDROOT
BRANCH   2   4
HETATM    4  C   UNL     1     -10.408  16.955  66.792  1.00  0.00    -0.298 C  
HETATM    5  O   UNL     1     -10.222  16.725  65.383  1.00  0.00    -0.599 OA 
HETATM    6  H   UNL     1     -11.048  16.456  64.998  1.00  0.00     0.000 HD 
BRANCH   4   7
HETATM    7  C   UNL     1     -10.977  15.697  67.474  1.00  0.00    -0.309 C  
HETATM    8  H   UNL     1     -12.134  15.320  69.016  1.00  0.00     0.000 HD 
HETATM    9  O   UNL     1     -11.783  16.096  68.595  1.00  0.00    -0.362 OA 
BRANCH   7  10
HETATM   10  C   UNL     1      -9.851  14.737  67.914  1.00  0.00    -0.212 C  
HETATM   11  C   UNL     1      -9.619  13.667  66.864  1.00  0.00    -0.262 C  
HETATM   12  O   UNL     1     -10.120  14.083  69.152  1.00  0.00    -0.416 OA 
HETATM   13  O   UNL     1     -10.190  13.632  65.774  1.00  0.00    -0.293 OA 
HETATM   14  H   UNL     1      -9.427  13.493  69.422  1.00  0.00     0.000 HD 
ENDBRANCH   7  10
ENDBRANCH   4   7
ENDBRANCH   2   4
TORSDOF 3
ENDMDL
MODEL      140
REMARK 921   NORMALIZED FREE ENERGY PREDICTED BY IDOCK:   -2.52 KCAL/MOL
REMARK 922        TOTAL FREE ENERGY PREDICTED BY IDOCK:   -3.59 KCAL/MOL
REMARK 923 INTER-LIGAND FREE ENERGY PREDICTED BY IDOCK:   -3.23 KCAL/MOL
REMARK 924 INTRA-LIGAND FREE ENERGY PREDICTED BY IDOCK:   -0.36 KCAL/MOL
REMARK 927      BINDING AFFINITY PREDICTED BY RF-SCORE:    0.00 PKD
ROOT
HETATM    1  O   UNL     1     -10.172  10.184  65.036  1.00  0.00    -0.309 OA 
HETATM    2  C   UNL     1     -10.172  10.436  66.444  1.00  0.00    -0.230 C  
HETATM    3  H   UNL     1      -9.447   9.601  64.840  1.00  0.00     0.000 HD 
ENDROOT
BRANCH   2   4
HETATM    4  C   UNL     1     -11.341  11.376  66.759  1.00  0.00    -0.179 C  
HETATM    5  O   UNL     1     -12.029  10.898  67.931  1.00  0.00    -0.735 OA 
HETATM    6  H   UNL     1     -12.753  11.481  68.126  1.00  0.00     0.000 HD 
BRANCH   4   7
HETATM    7  C   UNL     1     -10.872  12.828  66.963  1.00  0.00    -0.257 C  
HETATM    8  H   UNL     1      -9.381  13.939  66.329  1.00  0.00     0.000 HD 
HETATM    9  O   UNL     1      -9.671  13.043  66.204  1.00  0.00    -0.274 OA 
BRANCH   7  10
HETATM   10  C   UNL     1     -10.646  13.142  68.457  1.00  0.00    -0.259 C  
HETATM   11  C   UNL     1     -10.978  14.594  68.755  1.00  0.00    -0.258 C  
HETATM   12  O   UNL     1      -9.309  12.903  68.888  1.00  0.00    -0.398 OA 
HETATM   13  O   UNL     1     -11.449  15.378  67.932  1.00  0.00    -0.335 OA 
HETATM   14  H   UNL     1      -9.171  13.097  69.808  1.00  0.00     0.000 HD 
ENDBRANCH   7  10
ENDBRANCH   4   7
ENDBRANCH   2   4
TORSDOF 3
ENDMDL
MODEL      141
REMARK 921   NORMALIZED FREE ENERGY PREDICTED BY IDOCK:   -2.51 KCAL/MOL
REMARK 922        TOTAL FREE ENERGY PREDICTED BY IDOCK:   -3.57 KCAL/MOL
REMARK 923 INTER-LIGAND FREE ENERGY PREDICTED BY IDOCK:   -3.45 KCAL/MOL
REMARK 924 INTRA-LIGAND FREE ENERGY PREDICTED BY IDOCK:   -0.12 KCAL/MOL
REMARK 927      BINDING AFFINITY PREDICTED BY RF-SCORE:    0.00 PKD
ROOT
HETATM    1  O   UNL     1     -12.362  14.545  67.806  1.00  0.00    -0.619 OA 
HETATM    2  C   UNL     1     -11.030  14.423  68.313  1.00  0.00    -0.247 C  
HETATM    3  H   UNL     1     -12.949  14.105  68.409  1.00  0.00     0.000 HD 
ENDROOT
BRANCH   2   4
HETATM    4  C   UNL     1     -10.082  15.131  67.339  1.00  0.00    -0.229 C  
HETATM    5  O   UNL     1     -10.800  15.461  66.136  1.00  0.00    -0.321 OA 
HETATM    6  H   UNL     1     -10.213  15.900  65.532  1.00  0.00     0.000 HD 
BRANCH   4   7
HETATM    7  C   UNL     1      -9.460  16.395  67.960  1.00  0.00    -0.217 C  
HETATM    8  H   UNL     1      -8.943  16.984  69.761  1.00  0.00     0.000 HD 
HETATM    9  O   UNL     1      -9.327  16.205  69.378  1.00  0.00    -0.252 OA 
BRANCH   7  10
HETATM   10  C   UNL     1     -10.303  17.650  67.646  1.00  0.00    -0.368 C  
HETATM   11  C   UNL     1      -9.616  18.508  66.600  1.00  0.00    -0.321 C  
HETATM   12  O   UNL     1     -10.546  18.466  68.789  1.00  0.00    -0.375 OA 
HETATM   13  O   UNL     1      -8.577  18.193  66.020  1.00  0.00    -0.496 OA 
HETATM   14  H   UNL     1     -11.065  19.238  68.596  1.00  0.00     0.000 HD 
ENDBRANCH   7  10
ENDBRANCH   4   7
ENDBRANCH   2   4
TORSDOF 3
ENDMDL
MODEL      142
REMARK 921   NORMALIZED FREE ENERGY PREDICTED BY IDOCK:   -2.50 KCAL/MOL
REMARK 922        TOTAL FREE ENERGY PREDICTED BY IDOCK:   -3.56 KCAL/MOL
REMARK 923 INTER-LIGAND FREE ENERGY PREDICTED BY IDOCK:   -3.16 KCAL/MOL
REMARK 924 INTRA-LIGAND FREE ENERGY PREDICTED BY IDOCK:   -0.41 KCAL/MOL
REMARK 927      BINDING AFFINITY PREDICTED BY RF-SCORE:    0.00 PKD
ROOT
HETATM    1  O   UNL     1     -10.837  15.975  66.607  1.00  0.00    -0.285 OA 
HETATM    2  C   UNL     1     -10.180  15.188  67.605  1.00  0.00    -0.241 C  
HETATM    3  H   UNL     1     -11.098  15.397  65.900  1.00  0.00     0.000 HD 
ENDROOT
BRANCH   2   4
HETATM    4  C   UNL     1      -9.759  16.121  68.746  1.00  0.00    -0.233 C  
HETATM    5  O   UNL     1      -9.529  15.341  69.934  1.00  0.00    -0.444 OA 
HETATM    6  H   UNL     1      -9.268  15.919  70.641  1.00  0.00     0.000 HD 
BRANCH   4   7
HETATM    7  C   UNL     1      -8.505  16.938  68.386  1.00  0.00    -0.239 C  
HETATM    8  H   UNL     1      -6.672  17.102  69.075  1.00  0.00     0.000 HD 
HETATM    9  O   UNL     1      -7.446  16.598  69.297  1.00  0.00    -0.241 OA 
BRANCH   7  10
HETATM   10  C   UNL     1      -8.794  18.454  68.413  1.00  0.00    -0.320 C  
HETATM   11  C   UNL     1      -9.067  18.972  67.013  1.00  0.00    -0.294 C  
HETATM   12  O   UNL     1      -7.726  19.222  68.962  1.00  0.00    -0.351 OA 
HETATM   13  O   UNL     1      -9.138  18.258  66.013  1.00  0.00    -0.510 OA 
HETATM   14  H   UNL     1      -7.904  20.155  68.978  1.00  0.00     0.000 HD 
ENDBRANCH   7  10
ENDBRANCH   4   7
ENDBRANCH   2   4
TORSDOF 3
ENDMDL
MODEL      143
REMARK 921   NORMALIZED FREE ENERGY PREDICTED BY IDOCK:   -2.49 KCAL/MOL
REMARK 922        TOTAL FREE ENERGY PREDICTED BY IDOCK:   -3.56 KCAL/MOL
REMARK 923 INTER-LIGAND FREE ENERGY PREDICTED BY IDOCK:   -3.00 KCAL/MOL
REMARK 924 INTRA-LIGAND FREE ENERGY PREDICTED BY IDOCK:   -0.55 KCAL/MOL
REMARK 927      BINDING AFFINITY PREDICTED BY RF-SCORE:    0.00 PKD
ROOT
HETATM    1  O   UNL     1      -9.913   5.670  71.507  1.00  0.00    -0.170 OA 
HETATM    2  C   UNL     1     -11.112   6.374  71.843  1.00  0.00    -0.268 C  
HETATM    3  H   UNL     1      -9.537   5.328  72.309  1.00  0.00     0.000 HD 
ENDROOT
BRANCH   2   4
HETATM    4  C   UNL     1     -11.719   6.927  70.549  1.00  0.00    -0.350 C  
HETATM    5  O   UNL     1     -13.118   7.195  70.760  1.00  0.00    -0.587 OA 
HETATM    6  H   UNL     1     -13.494   7.538  69.958  1.00  0.00     0.000 HD 
BRANCH   4   7
HETATM    7  C   UNL     1     -10.992   8.197  70.070  1.00  0.00    -0.199 C  
HETATM    8  H   UNL     1      -9.336   8.600  69.093  1.00  0.00     0.000 HD 
HETATM    9  O   UNL     1      -9.785   7.817  69.389  1.00  0.00    -0.166 OA 
BRANCH   7  10
HETATM   10  C   UNL     1     -10.688   9.149  71.246  1.00  0.00    -0.331 C  
HETATM   11  C   UNL     1     -11.716  10.264  71.312  1.00  0.00    -0.291 C  
HETATM   12  O   UNL     1      -9.398   9.749  71.167  1.00  0.00    -0.313 OA 
HETATM   13  O   UNL     1     -12.704  10.337  70.582  1.00  0.00    -0.327 OA 
HETATM   14  H   UNL     1      -9.211  10.335  71.890  1.00  0.00     0.000 HD 
ENDBRANCH   7  10
ENDBRANCH   4   7
ENDBRANCH   2   4
TORSDOF 3
ENDMDL
MODEL      144
REMARK 921   NORMALIZED FREE ENERGY PREDICTED BY IDOCK:   -2.49 KCAL/MOL
REMARK 922        TOTAL FREE ENERGY PREDICTED BY IDOCK:   -3.55 KCAL/MOL
REMARK 923 INTER-LIGAND FREE ENERGY PREDICTED BY IDOCK:   -3.28 KCAL/MOL
REMARK 924 INTRA-LIGAND FREE ENERGY PREDICTED BY IDOCK:   -0.28 KCAL/MOL
REMARK 927      BINDING AFFINITY PREDICTED BY RF-SCORE:    0.00 PKD
ROOT
HETATM    1  O   UNL     1      -9.994  16.347  68.938  1.00  0.00    -0.233 OA 
HETATM    2  C   UNL     1     -11.133  16.256  68.077  1.00  0.00    -0.299 C  
HETATM    3  H   UNL     1      -9.965  17.226  69.297  1.00  0.00     0.000 HD 
ENDROOT
BRANCH   2   4
HETATM    4  C   UNL     1     -11.180  14.838  67.498  1.00  0.00    -0.332 C  
HETATM    5  O   UNL     1      -9.837  14.390  67.232  1.00  0.00    -0.240 OA 
HETATM    6  H   UNL     1      -9.866  13.511  66.874  1.00  0.00     0.000 HD 
BRANCH   4   7
HETATM    7  C   UNL     1     -11.899  13.856  68.441  1.00  0.00    -0.374 C  
HETATM    8  H   UNL     1     -12.802  13.966  70.183  1.00  0.00     0.000 HD 
HETATM    9  O   UNL     1     -12.358  14.571  69.601  1.00  0.00    -0.306 OA 
BRANCH   7  10
HETATM   10  C   UNL     1     -10.979  12.683  68.842  1.00  0.00    -0.229 C  
HETATM   11  C   UNL     1     -11.205  11.490  67.930  1.00  0.00    -0.279 C  
HETATM   12  O   UNL     1     -11.171  12.249  70.185  1.00  0.00    -0.469 OA 
HETATM   13  O   UNL     1     -11.953  11.499  66.954  1.00  0.00    -0.516 OA 
HETATM   14  H   UNL     1     -10.605  11.527  70.431  1.00  0.00     0.000 HD 
ENDBRANCH   7  10
ENDBRANCH   4   7
ENDBRANCH   2   4
TORSDOF 3
ENDMDL
MODEL      145
REMARK 921   NORMALIZED FREE ENERGY PREDICTED BY IDOCK:   -2.49 KCAL/MOL
REMARK 922        TOTAL FREE ENERGY PREDICTED BY IDOCK:   -3.55 KCAL/MOL
REMARK 923 INTER-LIGAND FREE ENERGY PREDICTED BY IDOCK:   -3.24 KCAL/MOL
REMARK 924 INTRA-LIGAND FREE ENERGY PREDICTED BY IDOCK:   -0.31 KCAL/MOL
REMARK 927      BINDING AFFINITY PREDICTED BY RF-SCORE:    0.00 PKD
ROOT
HETATM    1  O   UNL     1      -9.555   6.327  68.466  1.00  0.00    -0.126 OA 
HETATM    2  C   UNL     1     -10.985   6.330  68.505  1.00  0.00    -0.340 C  
HETATM    3  H   UNL     1      -9.285   6.303  67.556  1.00  0.00     0.000 HD 
ENDROOT
BRANCH   2   4
HETATM    4  C   UNL     1     -11.421   6.367  69.974  1.00  0.00    -0.428 C  
HETATM    5  O   UNL     1     -10.717   5.344  70.703  1.00  0.00    -0.254 OA 
HETATM    6  H   UNL     1     -10.988   5.368  71.613  1.00  0.00     0.000 HD 
BRANCH   4   7
HETATM    7  C   UNL     1     -11.178   7.748  70.610  1.00  0.00    -0.268 C  
HETATM    8  H   UNL     1      -9.707   8.629  71.570  1.00  0.00     0.000 HD 
HETATM    9  O   UNL     1      -9.858   7.777  71.177  1.00  0.00    -0.169 OA 
BRANCH   7  10
HETATM   10  C   UNL     1     -12.247   8.073  71.676  1.00  0.00    -0.307 C  
HETATM   11  C   UNL     1     -12.471   9.571  71.769  1.00  0.00    -0.401 C  
HETATM   12  O   UNL     1     -11.907   7.601  72.977  1.00  0.00    -0.606 OA 
HETATM   13  O   UNL     1     -11.939  10.397  71.029  1.00  0.00    -0.339 OA 
HETATM   14  H   UNL     1     -12.564   7.801  73.632  1.00  0.00     0.000 HD 
ENDBRANCH   7  10
ENDBRANCH   4   7
ENDBRANCH   2   4
TORSDOF 3
ENDMDL
MODEL      146
REMARK 921   NORMALIZED FREE ENERGY PREDICTED BY IDOCK:   -2.47 KCAL/MOL
REMARK 922        TOTAL FREE ENERGY PREDICTED BY IDOCK:   -3.53 KCAL/MOL
REMARK 923 INTER-LIGAND FREE ENERGY PREDICTED BY IDOCK:   -3.40 KCAL/MOL
REMARK 924 INTRA-LIGAND FREE ENERGY PREDICTED BY IDOCK:   -0.13 KCAL/MOL
REMARK 927      BINDING AFFINITY PREDICTED BY RF-SCORE:    0.00 PKD
ROOT
HETATM    1  O   UNL     1      -8.889  11.553  64.538  1.00  0.00    -0.376 OA 
HETATM    2  C   UNL     1     -10.239  11.867  64.892  1.00  0.00    -0.271 C  
HETATM    3  H   UNL     1      -8.743  10.632  64.717  1.00  0.00     0.000 HD 
ENDROOT
BRANCH   2   4
HETATM    4  C   UNL     1     -10.474  13.353  64.604  1.00  0.00    -0.411 C  
HETATM    5  O   UNL     1     -11.537  13.486  63.642  1.00  0.00    -0.634 OA 
HETATM    6  H   UNL     1     -11.684  14.407  63.463  1.00  0.00     0.000 HD 
BRANCH   4   7
HETATM    7  C   UNL     1     -10.803  14.141  65.885  1.00  0.00    -0.294 C  
HETATM    8  H   UNL     1     -12.386  15.030  66.636  1.00  0.00     0.000 HD 
HETATM    9  O   UNL     1     -12.182  14.544  65.846  1.00  0.00    -0.349 OA 
BRANCH   7  10
HETATM   10  C   UNL     1      -9.874  15.362  66.049  1.00  0.00    -0.326 C  
HETATM   11  C   UNL     1      -8.630  14.987  66.835  1.00  0.00    -0.249 C  
HETATM   12  O   UNL     1     -10.496  16.459  66.713  1.00  0.00    -0.292 OA 
HETATM   13  O   UNL     1      -8.366  13.844  67.205  1.00  0.00    -0.196 OA 
HETATM   14  H   UNL     1      -9.923  17.210  66.814  1.00  0.00     0.000 HD 
ENDBRANCH   7  10
ENDBRANCH   4   7
ENDBRANCH   2   4
TORSDOF 3
ENDMDL
MODEL      147
REMARK 921   NORMALIZED FREE ENERGY PREDICTED BY IDOCK:   -2.47 KCAL/MOL
REMARK 922        TOTAL FREE ENERGY PREDICTED BY IDOCK:   -3.53 KCAL/MOL
REMARK 923 INTER-LIGAND FREE ENERGY PREDICTED BY IDOCK:   -3.36 KCAL/MOL
REMARK 924 INTRA-LIGAND FREE ENERGY PREDICTED BY IDOCK:   -0.17 KCAL/MOL
REMARK 927      BINDING AFFINITY PREDICTED BY RF-SCORE:    0.00 PKD
ROOT
HETATM    1  O   UNL     1     -13.224  14.901  70.088  1.00  0.00    -0.608 OA 
HETATM    2  C   UNL     1     -11.833  15.102  69.822  1.00  0.00    -0.333 C  
HETATM    3  H   UNL     1     -13.315  14.623  70.992  1.00  0.00     0.000 HD 
ENDROOT
BRANCH   2   4
HETATM    4  C   UNL     1     -11.686  15.549  68.364  1.00  0.00    -0.309 C  
HETATM    5  O   UNL     1     -10.698  16.593  68.287  1.00  0.00    -0.321 OA 
HETATM    6  H   UNL     1     -10.606  16.871  67.383  1.00  0.00     0.000 HD 
BRANCH   4   7
HETATM    7  C   UNL     1     -11.307  14.378  67.439  1.00  0.00    -0.337 C  
HETATM    8  H   UNL     1     -12.180  13.370  65.996  1.00  0.00     0.000 HD 
HETATM    9  O   UNL     1     -12.413  14.092  66.567  1.00  0.00    -0.447 OA 
BRANCH   7  10
HETATM   10  C   UNL     1     -10.904  13.128  68.250  1.00  0.00    -0.253 C  
HETATM   11  C   UNL     1      -9.615  12.534  67.712  1.00  0.00    -0.203 C  
HETATM   12  O   UNL     1     -11.895  12.104  68.238  1.00  0.00    -0.329 OA 
HETATM   13  O   UNL     1      -8.943  13.039  66.813  1.00  0.00    -0.221 OA 
HETATM   14  H   UNL     1     -11.646  11.335  68.737  1.00  0.00     0.000 HD 
ENDBRANCH   7  10
ENDBRANCH   4   7
ENDBRANCH   2   4
TORSDOF 3
ENDMDL
MODEL      148
REMARK 921   NORMALIZED FREE ENERGY PREDICTED BY IDOCK:   -2.47 KCAL/MOL
REMARK 922        TOTAL FREE ENERGY PREDICTED BY IDOCK:   -3.52 KCAL/MOL
REMARK 923 INTER-LIGAND FREE ENERGY PREDICTED BY IDOCK:   -3.06 KCAL/MOL
REMARK 924 INTRA-LIGAND FREE ENERGY PREDICTED BY IDOCK:   -0.46 KCAL/MOL
REMARK 927      BINDING AFFINITY PREDICTED BY RF-SCORE:    0.00 PKD
ROOT
HETATM    1  O   UNL     1      -8.211  19.651  66.126  1.00  0.00    -0.335 OA 
HETATM    2  C   UNL     1      -9.070  20.229  67.114  1.00  0.00    -0.378 C  
HETATM    3  H   UNL     1      -8.207  20.223  65.367  1.00  0.00     0.000 HD 
ENDROOT
BRANCH   2   4
HETATM    4  C   UNL     1      -9.076  19.307  68.337  1.00  0.00    -0.359 C  
HETATM    5  O   UNL     1     -10.114  19.729  69.242  1.00  0.00    -0.574 OA 
HETATM    6  H   UNL     1     -10.118  19.158  70.001  1.00  0.00     0.000 HD 
BRANCH   4   7
HETATM    7  C   UNL     1      -9.272  17.831  67.944  1.00  0.00    -0.265 C  
HETATM    8  H   UNL     1     -10.527  16.815  66.825  1.00  0.00     0.000 HD 
HETATM    9  O   UNL     1     -10.406  17.726  67.068  1.00  0.00    -0.332 OA 
BRANCH   7  10
HETATM   10  C   UNL     1      -9.448  16.935  69.189  1.00  0.00    -0.135 C  
HETATM   11  C   UNL     1      -8.704  15.624  69.013  1.00  0.00    -0.240 C  
HETATM   12  O   UNL     1     -10.810  16.629  69.475  1.00  0.00    -0.321 OA 
HETATM   13  O   UNL     1      -7.987  15.359  68.049  1.00  0.00    -0.124 OA 
HETATM   14  H   UNL     1     -10.918  16.078  70.240  1.00  0.00     0.000 HD 
ENDBRANCH   7  10
ENDBRANCH   4   7
ENDBRANCH   2   4
TORSDOF 3
ENDMDL
MODEL      149
REMARK 921   NORMALIZED FREE ENERGY PREDICTED BY IDOCK:   -2.46 KCAL/MOL
REMARK 922        TOTAL FREE ENERGY PREDICTED BY IDOCK:   -3.51 KCAL/MOL
REMARK 923 INTER-LIGAND FREE ENERGY PREDICTED BY IDOCK:   -3.34 KCAL/MOL
REMARK 924 INTRA-LIGAND FREE ENERGY PREDICTED BY IDOCK:   -0.18 KCAL/MOL
REMARK 927      BINDING AFFINITY PREDICTED BY RF-SCORE:    0.00 PKD
ROOT
HETATM    1  O   UNL     1     -13.808   8.458  71.266  1.00  0.00    -0.549 OA 
HETATM    2  C   UNL     1     -13.265   7.157  71.508  1.00  0.00    -0.360 C  
HETATM    3  H   UNL     1     -14.708   8.464  71.570  1.00  0.00     0.000 HD 
ENDROOT
BRANCH   2   4
HETATM    4  C   UNL     1     -11.814   7.147  71.016  1.00  0.00    -0.333 C  
HETATM    5  O   UNL     1     -11.791   6.803  69.618  1.00  0.00    -0.633 OA 
HETATM    6  H   UNL     1     -10.892   6.797  69.312  1.00  0.00     0.000 HD 
BRANCH   4   7
HETATM    7  C   UNL     1     -11.119   8.500  71.251  1.00  0.00    -0.262 C  
HETATM    8  H   UNL     1     -11.077  10.248  70.355  1.00  0.00     0.000 HD 
HETATM    9  O   UNL     1     -11.506   9.413  70.211  1.00  0.00    -0.244 OA 
BRANCH   7  10
HETATM   10  C   UNL     1      -9.584   8.342  71.305  1.00  0.00    -0.171 C  
HETATM   11  C   UNL     1      -9.140   7.906  72.689  1.00  0.00    -0.197 C  
HETATM   12  O   UNL     1      -8.882   9.538  70.978  1.00  0.00    -0.288 OA 
HETATM   13  O   UNL     1      -9.910   7.630  73.608  1.00  0.00    -0.301 OA 
HETATM   14  H   UNL     1      -7.938   9.441  71.012  1.00  0.00     0.000 HD 
ENDBRANCH   7  10
ENDBRANCH   4   7
ENDBRANCH   2   4
TORSDOF 3
ENDMDL
MODEL      150
REMARK 921   NORMALIZED FREE ENERGY PREDICTED BY IDOCK:   -2.45 KCAL/MOL
REMARK 922        TOTAL FREE ENERGY PREDICTED BY IDOCK:   -3.51 KCAL/MOL
REMARK 923 INTER-LIGAND FREE ENERGY PREDICTED BY IDOCK:   -3.14 KCAL/MOL
REMARK 924 INTRA-LIGAND FREE ENERGY PREDICTED BY IDOCK:   -0.36 KCAL/MOL
REMARK 927      BINDING AFFINITY PREDICTED BY RF-SCORE:    0.00 PKD
ROOT
HETATM    1  O   UNL     1     -11.546   6.382  68.088  1.00  0.00    -0.557 OA 
HETATM    2  C   UNL     1     -10.767   7.167  68.996  1.00  0.00    -0.184 C  
HETATM    3  H   UNL     1     -11.832   6.948  67.380  1.00  0.00     0.000 HD 
ENDROOT
BRANCH   2   4
HETATM    4  C   UNL     1     -10.305   6.256  70.137  1.00  0.00    -0.205 C  
HETATM    5  O   UNL     1      -9.079   6.772  70.688  1.00  0.00    -0.154 OA 
HETATM    6  H   UNL     1      -8.792   6.208  71.396  1.00  0.00     0.000 HD 
BRANCH   4   7
HETATM    7  C   UNL     1     -11.376   6.123  71.235  1.00  0.00    -0.272 C  
HETATM    8  H   UNL     1     -13.191   6.811  71.538  1.00  0.00     0.000 HD 
HETATM    9  O   UNL     1     -12.530   6.893  70.861  1.00  0.00    -0.378 OA 
BRANCH   7  10
HETATM   10  C   UNL     1     -10.832   6.571  72.609  1.00  0.00    -0.247 C  
HETATM   11  C   UNL     1     -10.849   5.416  73.594  1.00  0.00    -0.272 C  
HETATM   12  O   UNL     1     -11.571   7.646  73.184  1.00  0.00    -0.617 OA 
HETATM   13  O   UNL     1     -11.166   4.264  73.303  1.00  0.00    -0.257 OA 
HETATM   14  H   UNL     1     -11.236   7.921  74.029  1.00  0.00     0.000 HD 
ENDBRANCH   7  10
ENDBRANCH   4   7
ENDBRANCH   2   4
TORSDOF 3
ENDMDL
MODEL      151
REMARK 921   NORMALIZED FREE ENERGY PREDICTED BY IDOCK:   -2.45 KCAL/MOL
REMARK 922        TOTAL FREE ENERGY PREDICTED BY IDOCK:   -3.50 KCAL/MOL
REMARK 923 INTER-LIGAND FREE ENERGY PREDICTED BY IDOCK:   -2.92 KCAL/MOL
REMARK 924 INTRA-LIGAND FREE ENERGY PREDICTED BY IDOCK:   -0.58 KCAL/MOL
REMARK 927      BINDING AFFINITY PREDICTED BY RF-SCORE:    0.00 PKD
ROOT
HETATM    1  O   UNL     1     -12.584   6.930  70.181  1.00  0.00    -0.533 OA 
HETATM    2  C   UNL     1     -11.332   6.420  69.714  1.00  0.00    -0.427 C  
HETATM    3  H   UNL     1     -13.278   6.499  69.697  1.00  0.00     0.000 HD 
ENDROOT
BRANCH   2   4
HETATM    4  C   UNL     1     -10.212   7.117  70.494  1.00  0.00    -0.196 C  
HETATM    5  O   UNL     1     -10.590   8.484  70.744  1.00  0.00    -0.197 OA 
HETATM    6  H   UNL     1      -9.896   8.916  71.228  1.00  0.00     0.000 HD 
BRANCH   4   7
HETATM    7  C   UNL     1      -9.895   6.393  71.815  1.00  0.00    -0.162 C  
HETATM    8  H   UNL     1     -10.606   4.842  72.789  1.00  0.00     0.000 HD 
HETATM    9  O   UNL     1     -10.801   5.289  71.973  1.00  0.00    -0.218 OA 
BRANCH   7  10
HETATM   10  C   UNL     1      -9.980   7.356  73.019  1.00  0.00    -0.249 C  
HETATM   11  C   UNL     1      -9.084   6.881  74.148  1.00  0.00    -0.207 C  
HETATM   12  O   UNL     1     -11.300   7.495  73.538  1.00  0.00    -0.620 OA 
HETATM   13  O   UNL     1      -8.328   5.913  74.071  1.00  0.00    -0.113 OA 
HETATM   14  H   UNL     1     -11.351   8.088  74.278  1.00  0.00     0.000 HD 
ENDBRANCH   7  10
ENDBRANCH   4   7
ENDBRANCH   2   4
TORSDOF 3
ENDMDL
MODEL      152
REMARK 921   NORMALIZED FREE ENERGY PREDICTED BY IDOCK:   -2.43 KCAL/MOL
REMARK 922        TOTAL FREE ENERGY PREDICTED BY IDOCK:   -3.49 KCAL/MOL
REMARK 923 INTER-LIGAND FREE ENERGY PREDICTED BY IDOCK:   -3.16 KCAL/MOL
REMARK 924 INTRA-LIGAND FREE ENERGY PREDICTED BY IDOCK:   -0.33 KCAL/MOL
REMARK 927      BINDING AFFINITY PREDICTED BY RF-SCORE:    0.00 PKD
ROOT
HETATM    1  O   UNL     1     -11.646  15.898  70.101  1.00  0.00    -0.324 OA 
HETATM    2  C   UNL     1     -11.720  15.908  68.672  1.00  0.00    -0.322 C  
HETATM    3  H   UNL     1     -12.526  15.787  70.442  1.00  0.00     0.000 HD 
ENDROOT
BRANCH   2   4
HETATM    4  C   UNL     1     -10.301  16.087  68.123  1.00  0.00    -0.260 C  
HETATM    5  O   UNL     1     -10.230  15.517  66.802  1.00  0.00    -0.267 OA 
HETATM    6  H   UNL     1      -9.350  15.628  66.462  1.00  0.00     0.000 HD 
BRANCH   4   7
HETATM    7  C   UNL     1      -9.877  17.567  68.096  1.00  0.00    -0.306 C  
HETATM    8  H   UNL     1     -10.709  19.272  67.585  1.00  0.00     0.000 HD 
HETATM    9  O   UNL     1     -10.970  18.358  67.602  1.00  0.00    -0.346 OA 
BRANCH   7  10
HETATM   10  C   UNL     1      -8.610  17.774  67.239  1.00  0.00    -0.233 C  
HETATM   11  C   UNL     1      -7.776  18.918  67.786  1.00  0.00    -0.242 C  
HETATM   12  O   UNL     1      -8.895  18.057  65.872  1.00  0.00    -0.504 OA 
HETATM   13  O   UNL     1      -8.034  19.528  68.823  1.00  0.00    -0.352 OA 
HETATM   14  H   UNL     1      -8.115  18.185  65.345  1.00  0.00     0.000 HD 
ENDBRANCH   7  10
ENDBRANCH   4   7
ENDBRANCH   2   4
TORSDOF 3
ENDMDL
MODEL      153
REMARK 921   NORMALIZED FREE ENERGY PREDICTED BY IDOCK:   -2.43 KCAL/MOL
REMARK 922        TOTAL FREE ENERGY PREDICTED BY IDOCK:   -3.48 KCAL/MOL
REMARK 923 INTER-LIGAND FREE ENERGY PREDICTED BY IDOCK:   -3.11 KCAL/MOL
REMARK 924 INTRA-LIGAND FREE ENERGY PREDICTED BY IDOCK:   -0.37 KCAL/MOL
REMARK 927      BINDING AFFINITY PREDICTED BY RF-SCORE:    0.00 PKD
ROOT
HETATM    1  O   UNL     1     -12.139  12.267  66.775  1.00  0.00    -0.593 OA 
HETATM    2  C   UNL     1     -10.722  12.321  66.593  1.00  0.00    -0.245 C  
HETATM    3  H   UNL     1     -12.367  11.393  67.069  1.00  0.00     0.000 HD 
ENDROOT
BRANCH   2   4
HETATM    4  C   UNL     1     -10.355  13.731  66.117  1.00  0.00    -0.301 C  
HETATM    5  O   UNL     1     -10.819  13.910  64.766  1.00  0.00    -0.376 OA 
HETATM    6  H   UNL     1     -10.592  14.783  64.471  1.00  0.00     0.000 HD 
BRANCH   4   7
HETATM    7  C   UNL     1     -10.939  14.818  67.037  1.00  0.00    -0.324 C  
HETATM    8  H   UNL     1     -11.091  16.776  67.001  1.00  0.00     0.000 HD 
HETATM    9  O   UNL     1     -10.731  16.105  66.433  1.00  0.00    -0.294 OA 
BRANCH   7  10
HETATM   10  C   UNL     1     -10.312  14.759  68.447  1.00  0.00    -0.233 C  
HETATM   11  C   UNL     1     -11.362  14.411  69.486  1.00  0.00    -0.276 C  
HETATM   12  O   UNL     1      -9.696  15.982  68.841  1.00  0.00    -0.210 OA 
HETATM   13  O   UNL     1     -12.529  14.126  69.221  1.00  0.00    -0.255 OA 
HETATM   14  H   UNL     1      -9.311  15.946  69.708  1.00  0.00     0.000 HD 
ENDBRANCH   7  10
ENDBRANCH   4   7
ENDBRANCH   2   4
TORSDOF 3
ENDMDL
MODEL      154
REMARK 921   NORMALIZED FREE ENERGY PREDICTED BY IDOCK:   -2.42 KCAL/MOL
REMARK 922        TOTAL FREE ENERGY PREDICTED BY IDOCK:   -3.47 KCAL/MOL
REMARK 923 INTER-LIGAND FREE ENERGY PREDICTED BY IDOCK:   -3.23 KCAL/MOL
REMARK 924 INTRA-LIGAND FREE ENERGY PREDICTED BY IDOCK:   -0.25 KCAL/MOL
REMARK 927      BINDING AFFINITY PREDICTED BY RF-SCORE:    0.00 PKD
ROOT
HETATM    1  O   UNL     1      -9.049   5.380  74.354  1.00  0.00    -0.117 OA 
HETATM    2  C   UNL     1     -10.176   6.255  74.246  1.00  0.00    -0.335 C  
HETATM    3  H   UNL     1      -8.691   5.467  75.229  1.00  0.00     0.000 HD 
ENDROOT
BRANCH   2   4
HETATM    4  C   UNL     1     -10.753   6.116  72.833  1.00  0.00    -0.247 C  
HETATM    5  O   UNL     1     -12.057   5.511  72.913  1.00  0.00    -0.542 OA 
HETATM    6  H   UNL     1     -12.415   5.425  72.037  1.00  0.00     0.000 HD 
BRANCH   4   7
HETATM    7  C   UNL     1     -10.831   7.472  72.109  1.00  0.00    -0.240 C  
HETATM    8  H   UNL     1     -11.921   9.100  72.257  1.00  0.00     0.000 HD 
HETATM    9  O   UNL     1     -11.873   8.263  72.704  1.00  0.00    -0.401 OA 
BRANCH   7  10
HETATM   10  C   UNL     1     -11.070   7.289  70.595  1.00  0.00    -0.264 C  
HETATM   11  C   UNL     1     -10.654   8.533  69.832  1.00  0.00    -0.228 C  
HETATM   12  O   UNL     1     -12.430   7.011  70.269  1.00  0.00    -0.617 OA 
HETATM   13  O   UNL     1     -10.115   9.512  70.347  1.00  0.00    -0.235 OA 
HETATM   14  H   UNL     1     -12.577   6.899  69.337  1.00  0.00     0.000 HD 
ENDBRANCH   7  10
ENDBRANCH   4   7
ENDBRANCH   2   4
TORSDOF 3
ENDMDL
MODEL      155
REMARK 921   NORMALIZED FREE ENERGY PREDICTED BY IDOCK:   -2.42 KCAL/MOL
REMARK 922        TOTAL FREE ENERGY PREDICTED BY IDOCK:   -3.47 KCAL/MOL
REMARK 923 INTER-LIGAND FREE ENERGY PREDICTED BY IDOCK:   -3.07 KCAL/MOL
REMARK 924 INTRA-LIGAND FREE ENERGY PREDICTED BY IDOCK:   -0.40 KCAL/MOL
REMARK 927      BINDING AFFINITY PREDICTED BY RF-SCORE:    0.00 PKD
ROOT
HETATM    1  O   UNL     1      -9.569  14.472  69.639  1.00  0.00    -0.398 OA 
HETATM    2  C   UNL     1     -10.686  15.087  68.992  1.00  0.00    -0.239 C  
HETATM    3  H   UNL     1      -9.306  15.025  70.365  1.00  0.00     0.000 HD 
ENDROOT
BRANCH   2   4
HETATM    4  C   UNL     1     -11.109  14.195  67.820  1.00  0.00    -0.276 C  
HETATM    5  O   UNL     1     -12.353  14.680  67.282  1.00  0.00    -0.554 OA 
HETATM    6  H   UNL     1     -12.616  14.127  66.555  1.00  0.00     0.000 HD 
BRANCH   4   7
HETATM    7  C   UNL     1     -10.031  14.140  66.722  1.00  0.00    -0.267 C  
HETATM    8  H   UNL     1      -9.804  14.885  64.918  1.00  0.00     0.000 HD 
HETATM    9  O   UNL     1     -10.469  14.918  65.596  1.00  0.00    -0.304 OA 
BRANCH   7  10
HETATM   10  C   UNL     1      -9.725  12.686  66.305  1.00  0.00    -0.259 C  
HETATM   11  C   UNL     1      -8.517  12.156  67.056  1.00  0.00    -0.183 C  
HETATM   12  O   UNL     1      -9.470  12.541  64.910  1.00  0.00    -0.456 OA 
HETATM   13  O   UNL     1      -7.927  12.775  67.940  1.00  0.00    -0.132 OA 
HETATM   14  H   UNL     1      -9.282  11.646  64.654  1.00  0.00     0.000 HD 
ENDBRANCH   7  10
ENDBRANCH   4   7
ENDBRANCH   2   4
TORSDOF 3
ENDMDL
MODEL      156
REMARK 921   NORMALIZED FREE ENERGY PREDICTED BY IDOCK:   -2.41 KCAL/MOL
REMARK 922        TOTAL FREE ENERGY PREDICTED BY IDOCK:   -3.46 KCAL/MOL
REMARK 923 INTER-LIGAND FREE ENERGY PREDICTED BY IDOCK:   -3.10 KCAL/MOL
REMARK 924 INTRA-LIGAND FREE ENERGY PREDICTED BY IDOCK:   -0.36 KCAL/MOL
REMARK 927      BINDING AFFINITY PREDICTED BY RF-SCORE:    0.00 PKD
ROOT
HETATM    1  O   UNL     1      -8.613   8.828  69.126  1.00  0.00    -0.125 OA 
HETATM    2  C   UNL     1      -9.225  10.049  69.551  1.00  0.00    -0.221 C  
HETATM    3  H   UNL     1      -7.686   8.991  68.998  1.00  0.00     0.000 HD 
ENDROOT
BRANCH   2   4
HETATM    4  C   UNL     1     -10.721   9.785  69.757  1.00  0.00    -0.256 C  
HETATM    5  O   UNL     1     -11.151   8.761  68.842  1.00  0.00    -0.437 OA 
HETATM    6  H   UNL     1     -12.078   8.597  68.969  1.00  0.00     0.000 HD 
BRANCH   4   7
HETATM    7  C   UNL     1     -11.038   9.381  71.208  1.00  0.00    -0.376 C  
HETATM    8  H   UNL     1     -10.033   8.650  72.730  1.00  0.00     0.000 HD 
HETATM    9  O   UNL     1      -9.837   8.899  71.834  1.00  0.00    -0.312 OA 
BRANCH   7  10
HETATM   10  C   UNL     1     -12.157   8.318  71.265  1.00  0.00    -0.280 C  
HETATM   11  C   UNL     1     -13.416   8.899  71.881  1.00  0.00    -0.414 C  
HETATM   12  O   UNL     1     -11.797   7.161  72.015  1.00  0.00    -0.282 OA 
HETATM   13  O   UNL     1     -13.548  10.079  72.202  1.00  0.00    -0.395 OA 
HETATM   14  H   UNL     1     -12.486   6.507  72.050  1.00  0.00     0.000 HD 
ENDBRANCH   7  10
ENDBRANCH   4   7
ENDBRANCH   2   4
TORSDOF 3
ENDMDL
MODEL      157
REMARK 921   NORMALIZED FREE ENERGY PREDICTED BY IDOCK:   -2.40 KCAL/MOL
REMARK 922        TOTAL FREE ENERGY PREDICTED BY IDOCK:   -3.44 KCAL/MOL
REMARK 923 INTER-LIGAND FREE ENERGY PREDICTED BY IDOCK:   -3.29 KCAL/MOL
REMARK 924 INTRA-LIGAND FREE ENERGY PREDICTED BY IDOCK:   -0.15 KCAL/MOL
REMARK 927      BINDING AFFINITY PREDICTED BY RF-SCORE:    0.00 PKD
ROOT
HETATM    1  O   UNL     1     -11.026  13.673  65.474  1.00  0.00    -0.287 OA 
HETATM    2  C   UNL     1     -10.927  13.169  64.140  1.00  0.00    -0.390 C  
HETATM    3  H   UNL     1     -11.005  14.622  65.434  1.00  0.00     0.000 HD 
ENDROOT
BRANCH   2   4
HETATM    4  C   UNL     1     -10.959  11.639  64.205  1.00  0.00    -0.376 C  
HETATM    5  O   UNL     1     -11.043  11.110  62.868  1.00  0.00    -0.812 OA 
HETATM    6  H   UNL     1     -11.063  10.161  62.908  1.00  0.00     0.000 HD 
BRANCH   4   7
HETATM    7  C   UNL     1      -9.730  11.068  64.934  1.00  0.00    -0.254 C  
HETATM    8  H   UNL     1      -8.151  10.008  64.440  1.00  0.00     0.000 HD 
HETATM    9  O   UNL     1      -8.910  10.360  63.990  1.00  0.00    -0.187 OA 
BRANCH   7  10
HETATM   10  C   UNL     1     -10.145  10.152  66.105  1.00  0.00    -0.246 C  
HETATM   11  C   UNL     1      -9.344  10.480  67.352  1.00  0.00    -0.142 C  
HETATM   12  O   UNL     1      -9.967   8.765  65.826  1.00  0.00    -0.459 OA 
HETATM   13  O   UNL     1      -8.545  11.412  67.435  1.00  0.00    -0.136 OA 
HETATM   14  H   UNL     1     -10.222   8.202  66.546  1.00  0.00     0.000 HD 
ENDBRANCH   7  10
ENDBRANCH   4   7
ENDBRANCH   2   4
TORSDOF 3
ENDMDL
MODEL      158
REMARK 921   NORMALIZED FREE ENERGY PREDICTED BY IDOCK:   -2.39 KCAL/MOL
REMARK 922        TOTAL FREE ENERGY PREDICTED BY IDOCK:   -3.44 KCAL/MOL
REMARK 923 INTER-LIGAND FREE ENERGY PREDICTED BY IDOCK:   -3.12 KCAL/MOL
REMARK 924 INTRA-LIGAND FREE ENERGY PREDICTED BY IDOCK:   -0.32 KCAL/MOL
REMARK 927      BINDING AFFINITY PREDICTED BY RF-SCORE:    0.00 PKD
ROOT
HETATM    1  O   UNL     1      -9.703  10.962  69.279  1.00  0.00    -0.361 OA 
HETATM    2  C   UNL     1     -10.636  10.112  68.606  1.00  0.00    -0.210 C  
HETATM    3  H   UNL     1      -9.398  10.509  70.056  1.00  0.00     0.000 HD 
ENDROOT
BRANCH   2   4
HETATM    4  C   UNL     1     -11.127  10.842  67.352  1.00  0.00    -0.307 C  
HETATM    5  O   UNL     1     -12.159  11.776  67.722  1.00  0.00    -0.595 OA 
HETATM    6  H   UNL     1     -12.464  12.229  66.945  1.00  0.00     0.000 HD 
BRANCH   4   7
HETATM    7  C   UNL     1      -9.981  11.565  66.622  1.00  0.00    -0.207 C  
HETATM    8  H   UNL     1      -9.136  13.337  66.712  1.00  0.00     0.000 HD 
HETATM    9  O   UNL     1      -9.844  12.890  67.162  1.00  0.00    -0.217 OA 
BRANCH   7  10
HETATM   10  C   UNL     1     -10.224  11.611  65.098  1.00  0.00    -0.274 C  
HETATM   11  C   UNL     1      -9.307  10.636  64.381  1.00  0.00    -0.251 C  
HETATM   12  O   UNL     1     -10.016  12.902  64.532  1.00  0.00    -0.554 OA 
HETATM   13  O   UNL     1      -8.546   9.856  64.951  1.00  0.00    -0.147 OA 
HETATM   14  H   UNL     1     -10.165  12.929  63.595  1.00  0.00     0.000 HD 
ENDBRANCH   7  10
ENDBRANCH   4   7
ENDBRANCH   2   4
TORSDOF 3
ENDMDL
MODEL      159
REMARK 921   NORMALIZED FREE ENERGY PREDICTED BY IDOCK:   -2.38 KCAL/MOL
REMARK 922        TOTAL FREE ENERGY PREDICTED BY IDOCK:   -3.42 KCAL/MOL
REMARK 923 INTER-LIGAND FREE ENERGY PREDICTED BY IDOCK:   -3.12 KCAL/MOL
REMARK 924 INTRA-LIGAND FREE ENERGY PREDICTED BY IDOCK:   -0.30 KCAL/MOL
REMARK 927      BINDING AFFINITY PREDICTED BY RF-SCORE:    0.00 PKD
ROOT
HETATM    1  O   UNL     1      -9.698  14.772  69.543  1.00  0.00    -0.405 OA 
HETATM    2  C   UNL     1     -10.966  15.238  69.072  1.00  0.00    -0.254 C  
HETATM    3  H   UNL     1      -9.334  15.435  70.117  1.00  0.00     0.000 HD 
ENDROOT
BRANCH   2   4
HETATM    4  C   UNL     1     -11.553  14.168  68.145  1.00  0.00    -0.331 C  
HETATM    5  O   UNL     1     -11.670  14.708  66.815  1.00  0.00    -0.373 OA 
HETATM    6  H   UNL     1     -12.033  14.045  66.240  1.00  0.00     0.000 HD 
BRANCH   4   7
HETATM    7  C   UNL     1     -10.700  12.886  68.135  1.00  0.00    -0.241 C  
HETATM    8  H   UNL     1      -9.209  12.183  67.067  1.00  0.00     0.000 HD 
HETATM    9  O   UNL     1      -9.735  12.973  67.073  1.00  0.00    -0.223 OA 
BRANCH   7  10
HETATM   10  C   UNL     1     -11.580  11.627  67.982  1.00  0.00    -0.313 C  
HETATM   11  C   UNL     1     -12.033  11.123  69.340  1.00  0.00    -0.349 C  
HETATM   12  O   UNL     1     -10.917  10.554  67.318  1.00  0.00    -0.291 OA 
HETATM   13  O   UNL     1     -11.805  11.699  70.403  1.00  0.00    -0.343 OA 
HETATM   14  H   UNL     1     -11.458   9.779  67.225  1.00  0.00     0.000 HD 
ENDBRANCH   7  10
ENDBRANCH   4   7
ENDBRANCH   2   4
TORSDOF 3
ENDMDL
MODEL      160
REMARK 921   NORMALIZED FREE ENERGY PREDICTED BY IDOCK:   -2.38 KCAL/MOL
REMARK 922        TOTAL FREE ENERGY PREDICTED BY IDOCK:   -3.42 KCAL/MOL
REMARK 923 INTER-LIGAND FREE ENERGY PREDICTED BY IDOCK:   -3.24 KCAL/MOL
REMARK 924 INTRA-LIGAND FREE ENERGY PREDICTED BY IDOCK:   -0.18 KCAL/MOL
REMARK 927      BINDING AFFINITY PREDICTED BY RF-SCORE:    0.00 PKD
ROOT
HETATM    1  O   UNL     1     -11.235   6.472  66.776  1.00  0.00    -0.661 OA 
HETATM    2  C   UNL     1     -10.636   7.274  67.799  1.00  0.00    -0.221 C  
HETATM    3  H   UNL     1     -11.796   5.830  67.195  1.00  0.00     0.000 HD 
ENDROOT
BRANCH   2   4
HETATM    4  C   UNL     1      -9.731   8.309  67.123  1.00  0.00    -0.195 C  
HETATM    5  O   UNL     1     -10.131   8.463  65.749  1.00  0.00    -0.363 OA 
HETATM    6  H   UNL     1      -9.570   9.104  65.330  1.00  0.00     0.000 HD 
BRANCH   4   7
HETATM    7  C   UNL     1      -9.766   9.665  67.851  1.00  0.00    -0.146 C  
HETATM    8  H   UNL     1      -9.804  10.272  69.719  1.00  0.00     0.000 HD 
HETATM    9  O   UNL     1      -9.783   9.436  69.269  1.00  0.00    -0.162 OA 
BRANCH   7  10
HETATM   10  C   UNL     1     -10.982  10.508  67.412  1.00  0.00    -0.288 C  
HETATM   11  C   UNL     1     -10.539  11.879  66.933  1.00  0.00    -0.230 C  
HETATM   12  O   UNL     1     -11.941  10.697  68.449  1.00  0.00    -0.775 OA 
HETATM   13  O   UNL     1      -9.364  12.227  66.826  1.00  0.00    -0.205 OA 
HETATM   14  H   UNL     1     -12.689  11.216  68.178  1.00  0.00     0.000 HD 
ENDBRANCH   7  10
ENDBRANCH   4   7
ENDBRANCH   2   4
TORSDOF 3
ENDMDL
MODEL      161
REMARK 921   NORMALIZED FREE ENERGY PREDICTED BY IDOCK:   -2.38 KCAL/MOL
REMARK 922        TOTAL FREE ENERGY PREDICTED BY IDOCK:   -3.42 KCAL/MOL
REMARK 923 INTER-LIGAND FREE ENERGY PREDICTED BY IDOCK:   -3.25 KCAL/MOL
REMARK 924 INTRA-LIGAND FREE ENERGY PREDICTED BY IDOCK:   -0.17 KCAL/MOL
REMARK 927      BINDING AFFINITY PREDICTED BY RF-SCORE:    0.00 PKD
ROOT
HETATM    1  O   UNL     1     -10.621  15.290  67.210  1.00  0.00    -0.278 OA 
HETATM    2  C   UNL     1     -11.144  14.490  66.145  1.00  0.00    -0.334 C  
HETATM    3  H   UNL     1     -10.344  16.122  66.846  1.00  0.00     0.000 HD 
ENDROOT
BRANCH   2   4
HETATM    4  C   UNL     1     -11.590  13.147  66.732  1.00  0.00    -0.366 C  
HETATM    5  O   UNL     1     -12.339  12.422  65.739  1.00  0.00    -0.644 OA 
HETATM    6  H   UNL     1     -12.616  11.589  66.103  1.00  0.00     0.000 HD 
BRANCH   4   7
HETATM    7  C   UNL     1     -10.396  12.311  67.226  1.00  0.00    -0.214 C  
HETATM    8  H   UNL     1      -9.087  11.090  66.415  1.00  0.00     0.000 HD 
HETATM    9  O   UNL     1      -9.825  11.606  66.111  1.00  0.00    -0.210 OA 
BRANCH   7  10
HETATM   10  C   UNL     1     -10.817  11.332  68.343  1.00  0.00    -0.205 C  
HETATM   11  C   UNL     1      -9.597  10.736  69.020  1.00  0.00    -0.180 C  
HETATM   12  O   UNL     1     -11.625  10.255  67.874  1.00  0.00    -0.672 OA 
HETATM   13  O   UNL     1      -8.438  11.064  68.770  1.00  0.00    -0.148 OA 
HETATM   14  H   UNL     1     -11.884   9.653  68.561  1.00  0.00     0.000 HD 
ENDBRANCH   7  10
ENDBRANCH   4   7
ENDBRANCH   2   4
TORSDOF 3
ENDMDL
MODEL      162
REMARK 921   NORMALIZED FREE ENERGY PREDICTED BY IDOCK:   -2.37 KCAL/MOL
REMARK 922        TOTAL FREE ENERGY PREDICTED BY IDOCK:   -3.41 KCAL/MOL
REMARK 923 INTER-LIGAND FREE ENERGY PREDICTED BY IDOCK:   -3.26 KCAL/MOL
REMARK 924 INTRA-LIGAND FREE ENERGY PREDICTED BY IDOCK:   -0.16 KCAL/MOL
REMARK 927      BINDING AFFINITY PREDICTED BY RF-SCORE:    0.00 PKD
ROOT
HETATM    1  O   UNL     1     -10.753  17.775  69.141  1.00  0.00    -0.351 OA 
HETATM    2  C   UNL     1     -10.536  17.304  67.807  1.00  0.00    -0.367 C  
HETATM    3  H   UNL     1     -11.021  17.037  69.675  1.00  0.00     0.000 HD 
ENDROOT
BRANCH   2   4
HETATM    4  C   UNL     1     -10.105  18.496  66.945  1.00  0.00    -0.370 C  
HETATM    5  O   UNL     1     -10.844  19.664  67.350  1.00  0.00    -0.463 OA 
HETATM    6  H   UNL     1     -10.577  20.402  66.816  1.00  0.00     0.000 HD 
BRANCH   4   7
HETATM    7  C   UNL     1      -8.591  18.755  67.040  1.00  0.00    -0.282 C  
HETATM    8  H   UNL     1      -7.362  20.194  66.510  1.00  0.00     0.000 HD 
HETATM    9  O   UNL     1      -8.297  20.033  66.452  1.00  0.00    -0.322 OA 
BRANCH   7  10
HETATM   10  C   UNL     1      -7.784  17.632  66.355  1.00  0.00    -0.290 C  
HETATM   11  C   UNL     1      -6.878  16.938  67.356  1.00  0.00    -0.153 C  
HETATM   12  O   UNL     1      -6.971  18.096  65.280  1.00  0.00    -0.484 OA 
HETATM   13  O   UNL     1      -6.864  17.182  68.562  1.00  0.00    -0.173 OA 
HETATM   14  H   UNL     1      -6.475  17.404  64.859  1.00  0.00     0.000 HD 
ENDBRANCH   7  10
ENDBRANCH   4   7
ENDBRANCH   2   4
TORSDOF 3
ENDMDL
MODEL      163
REMARK 921   NORMALIZED FREE ENERGY PREDICTED BY IDOCK:   -2.36 KCAL/MOL
REMARK 922        TOTAL FREE ENERGY PREDICTED BY IDOCK:   -3.40 KCAL/MOL
REMARK 923 INTER-LIGAND FREE ENERGY PREDICTED BY IDOCK:   -2.86 KCAL/MOL
REMARK 924 INTRA-LIGAND FREE ENERGY PREDICTED BY IDOCK:   -0.54 KCAL/MOL
REMARK 927      BINDING AFFINITY PREDICTED BY RF-SCORE:    0.00 PKD
ROOT
HETATM    1  O   UNL     1     -11.647   4.585  65.064  1.00  0.00    -1.101 OA 
HETATM    2  C   UNL     1     -10.261   4.249  65.175  1.00  0.00    -0.211 C  
HETATM    3  H   UNL     1     -11.893   4.525  64.148  1.00  0.00     0.000 HD 
ENDROOT
BRANCH   2   4
HETATM    4  C   UNL     1      -9.865   4.346  66.652  1.00  0.00    -0.226 C  
HETATM    5  O   UNL     1      -8.607   3.673  66.849  1.00  0.00    -0.103 OA 
HETATM    6  H   UNL     1      -8.361   3.733  67.765  1.00  0.00     0.000 HD 
BRANCH   4   7
HETATM    7  C   UNL     1      -9.776   5.807  67.128  1.00  0.00    -0.136 C  
HETATM    8  H   UNL     1     -11.051   7.225  67.602  1.00  0.00     0.000 HD 
HETATM    9  O   UNL     1     -11.105   6.323  67.308  1.00  0.00    -0.353 OA 
BRANCH   7  10
HETATM   10  C   UNL     1      -8.974   6.675  66.136  1.00  0.00    -0.139 C  
HETATM   11  C   UNL     1      -7.558   6.892  66.637  1.00  0.00    -0.089 C  
HETATM   12  O   UNL     1      -9.557   7.956  65.908  1.00  0.00    -0.421 OA 
HETATM   13  O   UNL     1      -7.095   6.368  67.649  1.00  0.00    -0.079 OA 
HETATM   14  H   UNL     1      -9.063   8.490  65.297  1.00  0.00     0.000 HD 
ENDBRANCH   7  10
ENDBRANCH   4   7
ENDBRANCH   2   4
TORSDOF 3
ENDMDL
MODEL      164
REMARK 921   NORMALIZED FREE ENERGY PREDICTED BY IDOCK:   -2.36 KCAL/MOL
REMARK 922        TOTAL FREE ENERGY PREDICTED BY IDOCK:   -3.40 KCAL/MOL
REMARK 923 INTER-LIGAND FREE ENERGY PREDICTED BY IDOCK:   -2.89 KCAL/MOL
REMARK 924 INTRA-LIGAND FREE ENERGY PREDICTED BY IDOCK:   -0.50 KCAL/MOL
REMARK 927      BINDING AFFINITY PREDICTED BY RF-SCORE:    0.00 PKD
ROOT
HETATM    1  O   UNL     1      -8.752  13.937  66.439  1.00  0.00    -0.451 OA 
HETATM    2  C   UNL     1      -9.944  14.721  66.332  1.00  0.00    -0.277 C  
HETATM    3  H   UNL     1      -9.004  13.042  66.635  1.00  0.00     0.000 HD 
ENDROOT
BRANCH   2   4
HETATM    4  C   UNL     1      -9.537  16.165  66.016  1.00  0.00    -0.346 C  
HETATM    5  O   UNL     1     -10.532  17.062  66.544  1.00  0.00    -0.305 OA 
HETATM    6  H   UNL     1     -10.280  17.957  66.349  1.00  0.00     0.000 HD 
BRANCH   4   7
HETATM    7  C   UNL     1      -8.147  16.506  66.582  1.00  0.00    -0.278 C  
HETATM    8  H   UNL     1      -7.319  16.587  68.362  1.00  0.00     0.000 HD 
HETATM    9  O   UNL     1      -8.177  16.376  68.012  1.00  0.00    -0.164 OA 
BRANCH   7  10
HETATM   10  C   UNL     1      -7.702  17.925  66.164  1.00  0.00    -0.237 C  
HETATM   11  C   UNL     1      -6.191  17.996  66.037  1.00  0.00    -0.242 C  
HETATM   12  O   UNL     1      -8.112  18.936  67.081  1.00  0.00    -0.257 OA 
HETATM   13  O   UNL     1      -5.441  17.029  66.160  1.00  0.00    -0.336 OA 
HETATM   14  H   UNL     1      -7.838  19.809  66.824  1.00  0.00     0.000 HD 
ENDBRANCH   7  10
ENDBRANCH   4   7
ENDBRANCH   2   4
TORSDOF 3
ENDMDL
MODEL      165
REMARK 921   NORMALIZED FREE ENERGY PREDICTED BY IDOCK:   -2.36 KCAL/MOL
REMARK 922        TOTAL FREE ENERGY PREDICTED BY IDOCK:   -3.39 KCAL/MOL
REMARK 923 INTER-LIGAND FREE ENERGY PREDICTED BY IDOCK:   -2.89 KCAL/MOL
REMARK 924 INTRA-LIGAND FREE ENERGY PREDICTED BY IDOCK:   -0.50 KCAL/MOL
REMARK 927      BINDING AFFINITY PREDICTED BY RF-SCORE:    0.00 PKD
ROOT
HETATM    1  O   UNL     1     -14.136   7.584  70.839  1.00  0.00    -0.647 OA 
HETATM    2  C   UNL     1     -13.040   7.252  71.696  1.00  0.00    -0.369 C  
HETATM    3  H   UNL     1     -14.887   7.067  71.106  1.00  0.00     0.000 HD 
ENDROOT
BRANCH   2   4
HETATM    4  C   UNL     1     -11.829   8.086  71.265  1.00  0.00    -0.294 C  
HETATM    5  O   UNL     1     -11.045   8.416  72.428  1.00  0.00    -0.346 OA 
HETATM    6  H   UNL     1     -10.294   8.933  72.161  1.00  0.00     0.000 HD 
BRANCH   4   7
HETATM    7  C   UNL     1     -10.966   7.351  70.223  1.00  0.00    -0.255 C  
HETATM    8  H   UNL     1     -11.125   5.713  69.151  1.00  0.00     0.000 HD 
HETATM    9  O   UNL     1     -11.657   6.166  69.794  1.00  0.00    -0.405 OA 
BRANCH   7  10
HETATM   10  C   UNL     1      -9.572   7.006  70.789  1.00  0.00    -0.164 C  
HETATM   11  C   UNL     1      -8.549   6.911  69.672  1.00  0.00    -0.134 C  
HETATM   12  O   UNL     1      -9.545   5.777  71.511  1.00  0.00    -0.152 OA 
HETATM   13  O   UNL     1      -8.788   7.167  68.492  1.00  0.00    -0.126 OA 
HETATM   14  H   UNL     1      -8.687   5.565  71.859  1.00  0.00     0.000 HD 
ENDBRANCH   7  10
ENDBRANCH   4   7
ENDBRANCH   2   4
TORSDOF 3
ENDMDL
MODEL      166
REMARK 921   NORMALIZED FREE ENERGY PREDICTED BY IDOCK:   -2.36 KCAL/MOL
REMARK 922        TOTAL FREE ENERGY PREDICTED BY IDOCK:   -3.39 KCAL/MOL
REMARK 923 INTER-LIGAND FREE ENERGY PREDICTED BY IDOCK:   -3.59 KCAL/MOL
REMARK 924 INTRA-LIGAND FREE ENERGY PREDICTED BY IDOCK:    0.20 KCAL/MOL
REMARK 927      BINDING AFFINITY PREDICTED BY RF-SCORE:    0.00 PKD
ROOT
HETATM    1  O   UNL     1     -10.220   9.121  65.952  1.00  0.00    -0.361 OA 
HETATM    2  C   UNL     1     -10.448   9.596  67.282  1.00  0.00    -0.258 C  
HETATM    3  H   UNL     1      -9.727   8.312  66.007  1.00  0.00     0.000 HD 
ENDROOT
BRANCH   2   4
HETATM    4  C   UNL     1     -11.244  10.902  67.193  1.00  0.00    -0.184 C  
HETATM    5  O   UNL     1     -12.162  10.973  68.300  1.00  0.00    -0.769 OA 
HETATM    6  H   UNL     1     -12.656  11.782  68.245  1.00  0.00     0.000 HD 
BRANCH   4   7
HETATM    7  C   UNL     1     -10.324  12.136  67.174  1.00  0.00    -0.214 C  
HETATM    8  H   UNL     1     -10.259  13.871  68.093  1.00  0.00     0.000 HD 
HETATM    9  O   UNL     1     -10.827  13.109  68.104  1.00  0.00    -0.236 OA 
BRANCH   7  10
HETATM   10  C   UNL     1     -10.209  12.732  65.755  1.00  0.00    -0.289 C  
HETATM   11  C   UNL     1     -11.586  13.008  65.178  1.00  0.00    -0.324 C  
HETATM   12  O   UNL     1      -9.516  11.885  64.842  1.00  0.00    -0.421 OA 
HETATM   13  O   UNL     1     -12.638  12.862  65.799  1.00  0.00    -0.538 OA 
HETATM   14  H   UNL     1      -9.445  12.252  63.969  1.00  0.00     0.000 HD 
ENDBRANCH   7  10
ENDBRANCH   4   7
ENDBRANCH   2   4
TORSDOF 3
ENDMDL
MODEL      167
REMARK 921   NORMALIZED FREE ENERGY PREDICTED BY IDOCK:   -2.35 KCAL/MOL
REMARK 922        TOTAL FREE ENERGY PREDICTED BY IDOCK:   -3.39 KCAL/MOL
REMARK 923 INTER-LIGAND FREE ENERGY PREDICTED BY IDOCK:   -3.22 KCAL/MOL
REMARK 924 INTRA-LIGAND FREE ENERGY PREDICTED BY IDOCK:   -0.17 KCAL/MOL
REMARK 927      BINDING AFFINITY PREDICTED BY RF-SCORE:    0.00 PKD
ROOT
HETATM    1  O   UNL     1      -9.925   8.662  68.474  1.00  0.00    -0.172 OA 
HETATM    2  C   UNL     1     -10.171   9.994  68.934  1.00  0.00    -0.193 C  
HETATM    3  H   UNL     1      -9.202   8.305  68.977  1.00  0.00     0.000 HD 
ENDROOT
BRANCH   2   4
HETATM    4  C   UNL     1     -11.337  10.570  68.123  1.00  0.00    -0.254 C  
HETATM    5  O   UNL     1     -12.526  10.564  68.935  1.00  0.00    -0.776 OA 
HETATM    6  H   UNL     1     -13.249  10.921  68.433  1.00  0.00     0.000 HD 
BRANCH   4   7
HETATM    7  C   UNL     1     -11.036  11.991  67.615  1.00  0.00    -0.264 C  
HETATM    8  H   UNL     1     -11.726  13.168  66.202  1.00  0.00     0.000 HD 
HETATM    9  O   UNL     1     -11.911  12.291  66.515  1.00  0.00    -0.596 OA 
BRANCH   7  10
HETATM   10  C   UNL     1      -9.556  12.141  67.203  1.00  0.00    -0.194 C  
HETATM   11  C   UNL     1      -8.932  13.349  67.877  1.00  0.00    -0.201 C  
HETATM   12  O   UNL     1      -9.375  12.284  65.796  1.00  0.00    -0.398 OA 
HETATM   13  O   UNL     1      -9.507  14.051  68.708  1.00  0.00    -0.175 OA 
HETATM   14  H   UNL     1      -8.464  12.376  65.543  1.00  0.00     0.000 HD 
ENDBRANCH   7  10
ENDBRANCH   4   7
ENDBRANCH   2   4
TORSDOF 3
ENDMDL
MODEL      168
REMARK 921   NORMALIZED FREE ENERGY PREDICTED BY IDOCK:   -2.35 KCAL/MOL
REMARK 922        TOTAL FREE ENERGY PREDICTED BY IDOCK:   -3.39 KCAL/MOL
REMARK 923 INTER-LIGAND FREE ENERGY PREDICTED BY IDOCK:   -3.23 KCAL/MOL
REMARK 924 INTRA-LIGAND FREE ENERGY PREDICTED BY IDOCK:   -0.16 KCAL/MOL
REMARK 927      BINDING AFFINITY PREDICTED BY RF-SCORE:    0.00 PKD
ROOT
HETATM    1  O   UNL     1      -8.157   9.660  70.379  1.00  0.00    -0.180 OA 
HETATM    2  C   UNL     1      -9.553   9.346  70.374  1.00  0.00    -0.266 C  
HETATM    3  H   UNL     1      -7.772   9.284  71.162  1.00  0.00     0.000 HD 
ENDROOT
BRANCH   2   4
HETATM    4  C   UNL     1     -10.174   9.953  69.112  1.00  0.00    -0.205 C  
HETATM    5  O   UNL     1     -10.081   9.002  68.035  1.00  0.00    -0.172 OA 
HETATM    6  H   UNL     1     -10.466   9.379  67.252  1.00  0.00     0.000 HD 
BRANCH   4   7
HETATM    7  C   UNL     1     -11.637  10.374  69.337  1.00  0.00    -0.202 C  
HETATM    8  H   UNL     1     -12.953  11.489  68.397  1.00  0.00     0.000 HD 
HETATM    9  O   UNL     1     -12.050  11.230  68.259  1.00  0.00    -0.619 OA 
BRANCH   7  10
HETATM   10  C   UNL     1     -11.819  11.073  70.701  1.00  0.00    -0.333 C  
HETATM   11  C   UNL     1     -12.980  10.463  71.465  1.00  0.00    -0.458 C  
HETATM   12  O   UNL     1     -12.059  12.474  70.588  1.00  0.00    -0.457 OA 
HETATM   13  O   UNL     1     -13.622   9.486  71.082  1.00  0.00    -0.337 OA 
HETATM   14  H   UNL     1     -12.171  12.904  71.427  1.00  0.00     0.000 HD 
ENDBRANCH   7  10
ENDBRANCH   4   7
ENDBRANCH   2   4
TORSDOF 3
ENDMDL
MODEL      169
REMARK 921   NORMALIZED FREE ENERGY PREDICTED BY IDOCK:   -2.34 KCAL/MOL
REMARK 922        TOTAL FREE ENERGY PREDICTED BY IDOCK:   -3.38 KCAL/MOL
REMARK 923 INTER-LIGAND FREE ENERGY PREDICTED BY IDOCK:   -3.19 KCAL/MOL
REMARK 924 INTRA-LIGAND FREE ENERGY PREDICTED BY IDOCK:   -0.19 KCAL/MOL
REMARK 927      BINDING AFFINITY PREDICTED BY RF-SCORE:    0.00 PKD
ROOT
HETATM    1  O   UNL     1     -11.324   4.772  65.477  1.00  0.00    -0.940 OA 
HETATM    2  C   UNL     1     -10.266   4.696  66.438  1.00  0.00    -0.260 C  
HETATM    3  H   UNL     1     -11.513   3.891  65.176  1.00  0.00     0.000 HD 
ENDROOT
BRANCH   2   4
HETATM    4  C   UNL     1      -9.961   6.117  66.924  1.00  0.00    -0.168 C  
HETATM    5  O   UNL     1     -11.132   6.937  66.750  1.00  0.00    -0.536 OA 
HETATM    6  H   UNL     1     -10.943   7.818  67.052  1.00  0.00     0.000 HD 
BRANCH   4   7
HETATM    7  C   UNL     1      -9.501   6.135  68.393  1.00  0.00    -0.118 C  
HETATM    8  H   UNL     1      -8.006   5.383  69.421  1.00  0.00     0.000 HD 
HETATM    9  O   UNL     1      -8.290   5.372  68.514  1.00  0.00    -0.097 OA 
BRANCH   7  10
HETATM   10  C   UNL     1     -10.597   5.589  69.333  1.00  0.00    -0.279 C  
HETATM   11  C   UNL     1     -11.105   6.682  70.255  1.00  0.00    -0.326 C  
HETATM   12  O   UNL     1     -10.155   4.504  70.144  1.00  0.00    -0.229 OA 
HETATM   13  O   UNL     1     -10.751   7.859  70.192  1.00  0.00    -0.237 OA 
HETATM   14  H   UNL     1     -10.829   4.168  70.722  1.00  0.00     0.000 HD 
ENDBRANCH   7  10
ENDBRANCH   4   7
ENDBRANCH   2   4
TORSDOF 3
ENDMDL
MODEL      170
REMARK 921   NORMALIZED FREE ENERGY PREDICTED BY IDOCK:   -2.34 KCAL/MOL
REMARK 922        TOTAL FREE ENERGY PREDICTED BY IDOCK:   -3.37 KCAL/MOL
REMARK 923 INTER-LIGAND FREE ENERGY PREDICTED BY IDOCK:   -3.18 KCAL/MOL
REMARK 924 INTRA-LIGAND FREE ENERGY PREDICTED BY IDOCK:   -0.19 KCAL/MOL
REMARK 927      BINDING AFFINITY PREDICTED BY RF-SCORE:    0.00 PKD
ROOT
HETATM    1  O   UNL     1     -12.628  14.358  67.683  1.00  0.00    -0.525 OA 
HETATM    2  C   UNL     1     -11.670  13.764  68.564  1.00  0.00    -0.356 C  
HETATM    3  H   UNL     1     -13.124  13.659  67.273  1.00  0.00     0.000 HD 
ENDROOT
BRANCH   2   4
HETATM    4  C   UNL     1     -10.868  14.890  69.225  1.00  0.00    -0.266 C  
HETATM    5  O   UNL     1     -10.419  15.809  68.212  1.00  0.00    -0.246 OA 
HETATM    6  H   UNL     1      -9.923  16.508  68.622  1.00  0.00     0.000 HD 
BRANCH   4   7
HETATM    7  C   UNL     1     -11.691  15.628  70.297  1.00  0.00    -0.357 C  
HETATM    8  H   UNL     1     -11.429  17.186  71.464  1.00  0.00     0.000 HD 
HETATM    9  O   UNL     1     -10.921  16.731  70.803  1.00  0.00    -0.039 OA 
BRANCH   7  10
HETATM   10  C   UNL     1     -12.113  14.677  71.437  1.00  0.00    -0.355 C  
HETATM   11  C   UNL     1     -13.617  14.711  71.634  1.00  0.00    -0.393 C  
HETATM   12  O   UNL     1     -11.502  14.989  72.686  1.00  0.00    -0.337 OA 
HETATM   13  O   UNL     1     -14.394  15.342  70.919  1.00  0.00    -0.308 OA 
HETATM   14  H   UNL     1     -11.761  14.403  73.388  1.00  0.00     0.000 HD 
ENDBRANCH   7  10
ENDBRANCH   4   7
ENDBRANCH   2   4
TORSDOF 3
ENDMDL
MODEL      171
REMARK 921   NORMALIZED FREE ENERGY PREDICTED BY IDOCK:   -2.33 KCAL/MOL
REMARK 922        TOTAL FREE ENERGY PREDICTED BY IDOCK:   -3.37 KCAL/MOL
REMARK 923 INTER-LIGAND FREE ENERGY PREDICTED BY IDOCK:   -2.83 KCAL/MOL
REMARK 924 INTRA-LIGAND FREE ENERGY PREDICTED BY IDOCK:   -0.54 KCAL/MOL
REMARK 927      BINDING AFFINITY PREDICTED BY RF-SCORE:    0.00 PKD
ROOT
HETATM    1  O   UNL     1     -10.780  14.406  65.990  1.00  0.00    -0.291 OA 
HETATM    2  C   UNL     1      -9.706  14.242  66.920  1.00  0.00    -0.264 C  
HETATM    3  H   UNL     1     -10.647  13.796  65.274  1.00  0.00     0.000 HD 
ENDROOT
BRANCH   2   4
HETATM    4  C   UNL     1      -9.921  15.226  68.075  1.00  0.00    -0.224 C  
HETATM    5  O   UNL     1      -9.138  14.805  69.208  1.00  0.00    -0.355 OA 
HETATM    6  H   UNL     1      -9.271  15.415  69.924  1.00  0.00     0.000 HD 
BRANCH   4   7
HETATM    7  C   UNL     1      -9.559  16.668  67.676  1.00  0.00    -0.239 C  
HETATM    8  H   UNL     1     -10.422  18.122  66.674  1.00  0.00     0.000 HD 
HETATM    9  O   UNL     1     -10.644  17.232  66.921  1.00  0.00    -0.300 OA 
BRANCH   7  10
HETATM   10  C   UNL     1      -8.242  16.717  66.873  1.00  0.00    -0.212 C  
HETATM   11  C   UNL     1      -7.095  17.178  67.754  1.00  0.00    -0.153 C  
HETATM   12  O   UNL     1      -8.301  17.585  65.744  1.00  0.00    -0.538 OA 
HETATM   13  O   UNL     1      -7.193  17.391  68.962  1.00  0.00    -0.251 OA 
HETATM   14  H   UNL     1      -7.490  17.615  65.251  1.00  0.00     0.000 HD 
ENDBRANCH   7  10
ENDBRANCH   4   7
ENDBRANCH   2   4
TORSDOF 3
ENDMDL
MODEL      172
REMARK 921   NORMALIZED FREE ENERGY PREDICTED BY IDOCK:   -2.31 KCAL/MOL
REMARK 922        TOTAL FREE ENERGY PREDICTED BY IDOCK:   -3.34 KCAL/MOL
REMARK 923 INTER-LIGAND FREE ENERGY PREDICTED BY IDOCK:   -3.23 KCAL/MOL
REMARK 924 INTRA-LIGAND FREE ENERGY PREDICTED BY IDOCK:   -0.12 KCAL/MOL
REMARK 927      BINDING AFFINITY PREDICTED BY RF-SCORE:    0.00 PKD
ROOT
HETATM    1  O   UNL     1     -11.203   9.936  68.462  1.00  0.00    -0.453 OA 
HETATM    2  C   UNL     1     -10.749  10.383  69.743  1.00  0.00    -0.278 C  
HETATM    3  H   UNL     1     -10.569  10.213  67.811  1.00  0.00     0.000 HD 
ENDROOT
BRANCH   2   4
HETATM    4  C   UNL     1     -11.772   9.938  70.793  1.00  0.00    -0.341 C  
HETATM    5  O   UNL     1     -13.099  10.097  70.258  1.00  0.00    -0.586 OA 
HETATM    6  H   UNL     1     -13.734   9.821  70.909  1.00  0.00     0.000 HD 
BRANCH   4   7
HETATM    7  C   UNL     1     -11.541   8.483  71.240  1.00  0.00    -0.283 C  
HETATM    8  H   UNL     1     -11.638   7.485  72.930  1.00  0.00     0.000 HD 
HETATM    9  O   UNL     1     -11.780   8.383  72.654  1.00  0.00    -0.386 OA 
BRANCH   7  10
HETATM   10  C   UNL     1     -10.117   8.004  70.884  1.00  0.00    -0.191 C  
HETATM   11  C   UNL     1     -10.173   6.767  70.006  1.00  0.00    -0.191 C  
HETATM   12  O   UNL     1      -9.325   7.693  72.027  1.00  0.00    -0.136 OA 
HETATM   13  O   UNL     1     -11.213   6.277  69.568  1.00  0.00    -0.380 OA 
HETATM   14  H   UNL     1      -8.449   7.398  71.807  1.00  0.00     0.000 HD 
ENDBRANCH   7  10
ENDBRANCH   4   7
ENDBRANCH   2   4
TORSDOF 3
ENDMDL
MODEL      173
REMARK 921   NORMALIZED FREE ENERGY PREDICTED BY IDOCK:   -2.31 KCAL/MOL
REMARK 922        TOTAL FREE ENERGY PREDICTED BY IDOCK:   -3.33 KCAL/MOL
REMARK 923 INTER-LIGAND FREE ENERGY PREDICTED BY IDOCK:   -3.24 KCAL/MOL
REMARK 924 INTRA-LIGAND FREE ENERGY PREDICTED BY IDOCK:   -0.10 KCAL/MOL
REMARK 927      BINDING AFFINITY PREDICTED BY RF-SCORE:    0.00 PKD
ROOT
HETATM    1  O   UNL     1     -10.825   2.616  64.106  1.00  0.00    -0.442 OA 
HETATM    2  C   UNL     1      -9.765   3.297  64.783  1.00  0.00    -0.131 C  
HETATM    3  H   UNL     1     -10.505   1.763  63.837  1.00  0.00     0.000 HD 
ENDROOT
BRANCH   2   4
HETATM    4  C   UNL     1     -10.282   4.672  65.216  1.00  0.00    -0.095 C  
HETATM    5  O   UNL     1     -11.720   4.684  65.135  1.00  0.00    -1.054 OA 
HETATM    6  H   UNL     1     -12.041   5.537  65.403  1.00  0.00     0.000 HD 
BRANCH   4   7
HETATM    7  C   UNL     1      -9.819   5.040  66.637  1.00  0.00    -0.196 C  
HETATM    8  H   UNL     1      -9.394   4.063  68.288  1.00  0.00     0.000 HD 
HETATM    9  O   UNL     1      -9.680   3.837  67.411  1.00  0.00    -0.197 OA 
BRANCH   7  10
HETATM   10  C   UNL     1     -10.799   6.023  67.312  1.00  0.00    -0.315 C  
HETATM   11  C   UNL     1     -10.420   7.459  66.995  1.00  0.00    -0.333 C  
HETATM   12  O   UNL     1     -10.846   5.887  68.730  1.00  0.00    -0.286 OA 
HETATM   13  O   UNL     1      -9.513   7.781  66.229  1.00  0.00    -0.189 OA 
HETATM   14  H   UNL     1     -11.448   6.493  69.145  1.00  0.00     0.000 HD 
ENDBRANCH   7  10
ENDBRANCH   4   7
ENDBRANCH   2   4
TORSDOF 3
ENDMDL
MODEL      174
REMARK 921   NORMALIZED FREE ENERGY PREDICTED BY IDOCK:   -2.29 KCAL/MOL
REMARK 922        TOTAL FREE ENERGY PREDICTED BY IDOCK:   -3.32 KCAL/MOL
REMARK 923 INTER-LIGAND FREE ENERGY PREDICTED BY IDOCK:   -2.74 KCAL/MOL
REMARK 924 INTRA-LIGAND FREE ENERGY PREDICTED BY IDOCK:   -0.58 KCAL/MOL
REMARK 927      BINDING AFFINITY PREDICTED BY RF-SCORE:    0.00 PKD
ROOT
HETATM    1  O   UNL     1     -10.337  14.840  66.521  1.00  0.00    -0.274 OA 
HETATM    2  C   UNL     1     -11.134  14.051  67.408  1.00  0.00    -0.303 C  
HETATM    3  H   UNL     1      -9.993  15.578  67.010  1.00  0.00     0.000 HD 
ENDROOT
BRANCH   2   4
HETATM    4  C   UNL     1     -11.689  12.860  66.620  1.00  0.00    -0.390 C  
HETATM    5  O   UNL     1     -12.180  13.323  65.348  1.00  0.00    -0.401 OA 
HETATM    6  H   UNL     1     -12.524  12.585  64.858  1.00  0.00     0.000 HD 
BRANCH   4   7
HETATM    7  C   UNL     1     -10.631  11.759  66.422  1.00  0.00    -0.255 C  
HETATM    8  H   UNL     1      -8.733  11.518  66.869  1.00  0.00     0.000 HD 
HETATM    9  O   UNL     1      -9.386  12.197  66.990  1.00  0.00    -0.190 OA 
BRANCH   7  10
HETATM   10  C   UNL     1     -10.463  11.401  64.929  1.00  0.00    -0.305 C  
HETATM   11  C   UNL     1     -10.040   9.952  64.771  1.00  0.00     0.088 C  
HETATM   12  O   UNL     1      -9.501  12.213  64.260  1.00  0.00    -0.477 OA 
HETATM   13  O   UNL     1      -9.938   9.156  65.703  1.00  0.00    -0.232 OA 
HETATM   14  H   UNL     1      -9.398  11.992  63.342  1.00  0.00     0.000 HD 
ENDBRANCH   7  10
ENDBRANCH   4   7
ENDBRANCH   2   4
TORSDOF 3
ENDMDL
MODEL      175
REMARK 921   NORMALIZED FREE ENERGY PREDICTED BY IDOCK:   -2.27 KCAL/MOL
REMARK 922        TOTAL FREE ENERGY PREDICTED BY IDOCK:   -3.29 KCAL/MOL
REMARK 923 INTER-LIGAND FREE ENERGY PREDICTED BY IDOCK:   -3.15 KCAL/MOL
REMARK 924 INTRA-LIGAND FREE ENERGY PREDICTED BY IDOCK:   -0.13 KCAL/MOL
REMARK 927      BINDING AFFINITY PREDICTED BY RF-SCORE:    0.00 PKD
ROOT
HETATM    1  O   UNL     1     -12.915  10.865  70.802  1.00  0.00    -0.314 OA 
HETATM    2  C   UNL     1     -11.895  11.513  70.037  1.00  0.00    -0.355 C  
HETATM    3  H   UNL     1     -12.769   9.928  70.757  1.00  0.00     0.000 HD 
ENDROOT
BRANCH   2   4
HETATM    4  C   UNL     1     -12.132  13.025  70.109  1.00  0.00    -0.307 C  
HETATM    5  O   UNL     1     -11.838  13.487  71.441  1.00  0.00    -0.245 OA 
HETATM    6  H   UNL     1     -11.984  14.424  71.486  1.00  0.00     0.000 HD 
BRANCH   4   7
HETATM    7  C   UNL     1     -11.287  13.789  69.073  1.00  0.00    -0.289 C  
HETATM    8  H   UNL     1     -10.890  15.672  68.678  1.00  0.00     0.000 HD 
HETATM    9  O   UNL     1     -11.411  15.200  69.316  1.00  0.00    -0.273 OA 
BRANCH   7  10
HETATM   10  C   UNL     1     -11.710  13.436  67.631  1.00  0.00    -0.359 C  
HETATM   11  C   UNL     1     -10.497  13.093  66.786  1.00  0.00    -0.261 C  
HETATM   12  O   UNL     1     -12.414  14.488  66.977  1.00  0.00    -0.547 OA 
HETATM   13  O   UNL     1      -9.349  13.018  67.223  1.00  0.00    -0.205 OA 
HETATM   14  H   UNL     1     -12.674  14.271  66.089  1.00  0.00     0.000 HD 
ENDBRANCH   7  10
ENDBRANCH   4   7
ENDBRANCH   2   4
TORSDOF 3
ENDMDL
MODEL      176
REMARK 921   NORMALIZED FREE ENERGY PREDICTED BY IDOCK:   -2.26 KCAL/MOL
REMARK 922        TOTAL FREE ENERGY PREDICTED BY IDOCK:   -3.28 KCAL/MOL
REMARK 923 INTER-LIGAND FREE ENERGY PREDICTED BY IDOCK:   -2.65 KCAL/MOL
REMARK 924 INTRA-LIGAND FREE ENERGY PREDICTED BY IDOCK:   -0.64 KCAL/MOL
REMARK 927      BINDING AFFINITY PREDICTED BY RF-SCORE:    0.00 PKD
ROOT
HETATM    1  O   UNL     1      -8.822  11.191  69.375  1.00  0.00    -0.381 OA 
HETATM    2  C   UNL     1     -10.150  11.071  68.858  1.00  0.00    -0.199 C  
HETATM    3  H   UNL     1      -8.569  12.106  69.330  1.00  0.00     0.000 HD 
ENDROOT
BRANCH   2   4
HETATM    4  C   UNL     1     -10.558   9.596  68.929  1.00  0.00    -0.217 C  
HETATM    5  O   UNL     1      -9.420   8.775  68.605  1.00  0.00    -0.141 OA 
HETATM    6  H   UNL     1      -9.672   7.860  68.649  1.00  0.00     0.000 HD 
BRANCH   4   7
HETATM    7  C   UNL     1     -11.118   9.221  70.313  1.00  0.00    -0.251 C  
HETATM    8  H   UNL     1     -11.805  10.192  71.876  1.00  0.00     0.000 HD 
HETATM    9  O   UNL     1     -11.459  10.423  71.022  1.00  0.00    -0.328 OA 
BRANCH   7  10
HETATM   10  C   UNL     1     -10.112   8.370  71.116  1.00  0.00    -0.196 C  
HETATM   11  C   UNL     1     -10.790   7.722  72.309  1.00  0.00    -0.283 C  
HETATM   12  O   UNL     1      -9.000   9.119  71.600  1.00  0.00    -0.336 OA 
HETATM   13  O   UNL     1     -11.996   7.796  72.543  1.00  0.00    -0.313 OA 
HETATM   14  H   UNL     1      -8.381   8.596  72.094  1.00  0.00     0.000 HD 
ENDBRANCH   7  10
ENDBRANCH   4   7
ENDBRANCH   2   4
TORSDOF 3
ENDMDL
MODEL      177
REMARK 921   NORMALIZED FREE ENERGY PREDICTED BY IDOCK:   -2.26 KCAL/MOL
REMARK 922        TOTAL FREE ENERGY PREDICTED BY IDOCK:   -3.28 KCAL/MOL
REMARK 923 INTER-LIGAND FREE ENERGY PREDICTED BY IDOCK:   -2.94 KCAL/MOL
REMARK 924 INTRA-LIGAND FREE ENERGY PREDICTED BY IDOCK:   -0.33 KCAL/MOL
REMARK 927      BINDING AFFINITY PREDICTED BY RF-SCORE:    0.00 PKD
ROOT
HETATM    1  O   UNL     1     -10.109  14.482  69.515  1.00  0.00    -0.413 OA 
HETATM    2  C   UNL     1     -10.643  15.566  68.750  1.00  0.00    -0.242 C  
HETATM    3  H   UNL     1     -10.680  13.731  69.403  1.00  0.00     0.000 HD 
ENDROOT
BRANCH   2   4
HETATM    4  C   UNL     1      -9.723  16.777  68.932  1.00  0.00    -0.257 C  
HETATM    5  O   UNL     1      -8.390  16.318  69.225  1.00  0.00    -0.228 OA 
HETATM    6  H   UNL     1      -7.819  17.069  69.338  1.00  0.00     0.000 HD 
BRANCH   4   7
HETATM    7  C   UNL     1      -9.720  17.688  67.691  1.00  0.00    -0.277 C  
HETATM    8  H   UNL     1     -10.860  19.120  66.979  1.00  0.00     0.000 HD 
HETATM    9  O   UNL     1     -10.862  18.558  67.745  1.00  0.00    -0.388 OA 
BRANCH   7  10
HETATM   10  C   UNL     1      -9.713  16.862  66.387  1.00  0.00    -0.284 C  
HETATM   11  C   UNL     1      -8.302  16.737  65.840  1.00  0.00     0.041 C  
HETATM   12  O   UNL     1     -10.530  17.421  65.362  1.00  0.00    -0.648 OA 
HETATM   13  O   UNL     1      -7.299  17.159  66.413  1.00  0.00    -0.248 OA 
HETATM   14  H   UNL     1     -10.526  16.913  64.559  1.00  0.00     0.000 HD 
ENDBRANCH   7  10
ENDBRANCH   4   7
ENDBRANCH   2   4
TORSDOF 3
ENDMDL
MODEL      178
REMARK 921   NORMALIZED FREE ENERGY PREDICTED BY IDOCK:   -2.23 KCAL/MOL
REMARK 922        TOTAL FREE ENERGY PREDICTED BY IDOCK:   -3.25 KCAL/MOL
REMARK 923 INTER-LIGAND FREE ENERGY PREDICTED BY IDOCK:   -2.82 KCAL/MOL
REMARK 924 INTRA-LIGAND FREE ENERGY PREDICTED BY IDOCK:   -0.42 KCAL/MOL
REMARK 927      BINDING AFFINITY PREDICTED BY RF-SCORE:    0.00 PKD
ROOT
HETATM    1  O   UNL     1     -10.489  14.420  65.409  1.00  0.00    -0.326 OA 
HETATM    2  C   UNL     1     -11.036  13.110  65.589  1.00  0.00    -0.277 C  
HETATM    3  H   UNL     1     -10.358  14.560  64.479  1.00  0.00     0.000 HD 
ENDROOT
BRANCH   2   4
HETATM    4  C   UNL     1     -11.246  12.883  67.089  1.00  0.00    -0.289 C  
HETATM    5  O   UNL     1     -11.961  11.648  67.285  1.00  0.00    -0.627 OA 
HETATM    6  H   UNL     1     -12.091  11.507  68.215  1.00  0.00     0.000 HD 
BRANCH   4   7
HETATM    7  C   UNL     1      -9.914  12.863  67.860  1.00  0.00    -0.233 C  
HETATM    8  H   UNL     1      -8.600  14.196  68.456  1.00  0.00     0.000 HD 
HETATM    9  O   UNL     1      -9.422  14.208  67.981  1.00  0.00    -0.200 OA 
BRANCH   7  10
HETATM   10  C   UNL     1      -8.876  11.954  67.167  1.00  0.00    -0.180 C  
HETATM   11  C   UNL     1      -8.508  10.784  68.061  1.00  0.00    -0.124 C  
HETATM   12  O   UNL     1      -7.672  12.634  66.821  1.00  0.00    -0.389 OA 
HETATM   13  O   UNL     1      -9.038  10.550  69.147  1.00  0.00    -0.178 OA 
HETATM   14  H   UNL     1      -7.034  12.075  66.395  1.00  0.00     0.000 HD 
ENDBRANCH   7  10
ENDBRANCH   4   7
ENDBRANCH   2   4
TORSDOF 3
ENDMDL
MODEL      179
REMARK 921   NORMALIZED FREE ENERGY PREDICTED BY IDOCK:   -2.21 KCAL/MOL
REMARK 922        TOTAL FREE ENERGY PREDICTED BY IDOCK:   -3.23 KCAL/MOL
REMARK 923 INTER-LIGAND FREE ENERGY PREDICTED BY IDOCK:   -3.46 KCAL/MOL
REMARK 924 INTRA-LIGAND FREE ENERGY PREDICTED BY IDOCK:    0.24 KCAL/MOL
REMARK 927      BINDING AFFINITY PREDICTED BY RF-SCORE:    0.00 PKD
ROOT
HETATM    1  O   UNL     1     -10.034  13.426  63.855  1.00  0.00    -0.715 OA 
HETATM    2  C   UNL     1     -11.330  13.966  64.134  1.00  0.00    -0.207 C  
HETATM    3  H   UNL     1      -9.838  13.588  62.939  1.00  0.00     0.000 HD 
ENDROOT
BRANCH   2   4
HETATM    4  C   UNL     1     -11.647  13.704  65.610  1.00  0.00    -0.328 C  
HETATM    5  O   UNL     1     -12.531  12.572  65.710  1.00  0.00    -0.626 OA 
HETATM    6  H   UNL     1     -12.728  12.410  66.625  1.00  0.00     0.000 HD 
BRANCH   4   7
HETATM    7  C   UNL     1     -10.372  13.469  66.439  1.00  0.00    -0.289 C  
HETATM    8  H   UNL     1      -9.548  11.951  67.375  1.00  0.00     0.000 HD 
HETATM    9  O   UNL     1     -10.335  12.097  66.863  1.00  0.00    -0.211 OA 
BRANCH   7  10
HETATM   10  C   UNL     1     -10.302  14.425  67.648  1.00  0.00    -0.237 C  
HETATM   11  C   UNL     1     -11.455  14.168  68.601  1.00  0.00    -0.299 C  
HETATM   12  O   UNL     1     -10.337  15.802  67.281  1.00  0.00    -0.276 OA 
HETATM   13  O   UNL     1     -12.274  13.260  68.466  1.00  0.00    -0.272 OA 
HETATM   14  H   UNL     1     -10.295  16.390  68.026  1.00  0.00     0.000 HD 
ENDBRANCH   7  10
ENDBRANCH   4   7
ENDBRANCH   2   4
TORSDOF 3
ENDMDL
MODEL      180
REMARK 921   NORMALIZED FREE ENERGY PREDICTED BY IDOCK:   -2.20 KCAL/MOL
REMARK 922        TOTAL FREE ENERGY PREDICTED BY IDOCK:   -3.22 KCAL/MOL
REMARK 923 INTER-LIGAND FREE ENERGY PREDICTED BY IDOCK:   -2.81 KCAL/MOL
REMARK 924 INTRA-LIGAND FREE ENERGY PREDICTED BY IDOCK:   -0.41 KCAL/MOL
REMARK 927      BINDING AFFINITY PREDICTED BY RF-SCORE:    0.00 PKD
ROOT
HETATM    1  O   UNL     1     -11.552   1.846  63.561  1.00  0.00    -0.581 OA 
HETATM    2  C   UNL     1     -10.430   1.940  62.679  1.00  0.00    -0.112 C  
HETATM    3  H   UNL     1     -11.953   0.994  63.439  1.00  0.00     0.000 HD 
ENDROOT
BRANCH   2   4
HETATM    4  C   UNL     1      -9.783   3.315  62.876  1.00  0.00    -0.097 C  
HETATM    5  O   UNL     1     -10.750   4.339  62.577  1.00  0.00    -0.381 OA 
HETATM    6  H   UNL     1     -10.349   5.192  62.699  1.00  0.00     0.000 HD 
BRANCH   4   7
HETATM    7  C   UNL     1      -9.232   3.492  64.302  1.00  0.00    -0.131 C  
HETATM    8  H   UNL     1      -8.917   2.332  65.856  1.00  0.00     0.000 HD 
HETATM    9  O   UNL     1      -9.257   2.223  64.975  1.00  0.00    -0.136 OA 
BRANCH   7  10
HETATM   10  C   UNL     1     -10.033   4.553  65.087  1.00  0.00    -0.131 C  
HETATM   11  C   UNL     1      -9.484   4.704  66.495  1.00  0.00    -0.166 C  
HETATM   12  O   UNL     1     -11.421   4.248  65.191  1.00  0.00    -0.974 OA 
HETATM   13  O   UNL     1      -8.482   4.125  66.912  1.00  0.00    -0.100 OA 
HETATM   14  H   UNL     1     -11.914   4.900  65.674  1.00  0.00     0.000 HD 
ENDBRANCH   7  10
ENDBRANCH   4   7
ENDBRANCH   2   4
TORSDOF 3
ENDMDL
MODEL      181
REMARK 921   NORMALIZED FREE ENERGY PREDICTED BY IDOCK:   -2.19 KCAL/MOL
REMARK 922        TOTAL FREE ENERGY PREDICTED BY IDOCK:   -3.20 KCAL/MOL
REMARK 923 INTER-LIGAND FREE ENERGY PREDICTED BY IDOCK:   -2.85 KCAL/MOL
REMARK 924 INTRA-LIGAND FREE ENERGY PREDICTED BY IDOCK:   -0.36 KCAL/MOL
REMARK 927      BINDING AFFINITY PREDICTED BY RF-SCORE:    0.00 PKD
ROOT
HETATM    1  O   UNL     1      -9.843   9.428  68.013  1.00  0.00    -0.154 OA 
HETATM    2  C   UNL     1      -8.890  10.302  67.399  1.00  0.00    -0.131 C  
HETATM    3  H   UNL     1      -9.369   8.805  68.551  1.00  0.00     0.000 HD 
ENDROOT
BRANCH   2   4
HETATM    4  C   UNL     1      -9.655  11.306  66.532  1.00  0.00    -0.191 C  
HETATM    5  O   UNL     1      -8.771  12.381  66.162  1.00  0.00    -0.414 OA 
HETATM    6  H   UNL     1      -9.245  13.004  65.624  1.00  0.00     0.000 HD 
BRANCH   4   7
HETATM    7  C   UNL     1     -10.254  10.644  65.278  1.00  0.00    -0.282 C  
HETATM    8  H   UNL     1      -9.988   8.963  64.297  1.00  0.00     0.000 HD 
HETATM    9  O   UNL     1      -9.618   9.372  65.071  1.00  0.00    -0.228 OA 
BRANCH   7  10
HETATM   10  C   UNL     1     -10.101  11.548  64.036  1.00  0.00    -0.321 C  
HETATM   11  C   UNL     1     -11.428  12.191  63.675  1.00  0.00    -0.481 C  
HETATM   12  O   UNL     1      -9.627  10.852  62.886  1.00  0.00    -0.307 OA 
HETATM   13  O   UNL     1     -12.456  12.075  64.341  1.00  0.00    -0.335 OA 
HETATM   14  H   UNL     1      -9.533  11.409  62.123  1.00  0.00     0.000 HD 
ENDBRANCH   7  10
ENDBRANCH   4   7
ENDBRANCH   2   4
TORSDOF 3
ENDMDL
MODEL      182
REMARK 921   NORMALIZED FREE ENERGY PREDICTED BY IDOCK:   -2.19 KCAL/MOL
REMARK 922        TOTAL FREE ENERGY PREDICTED BY IDOCK:   -3.20 KCAL/MOL
REMARK 923 INTER-LIGAND FREE ENERGY PREDICTED BY IDOCK:   -2.79 KCAL/MOL
REMARK 924 INTRA-LIGAND FREE ENERGY PREDICTED BY IDOCK:   -0.41 KCAL/MOL
REMARK 927      BINDING AFFINITY PREDICTED BY RF-SCORE:    0.00 PKD
ROOT
HETATM    1  O   UNL     1      -8.842  12.647  68.740  1.00  0.00    -0.381 OA 
HETATM    2  C   UNL     1      -9.802  12.149  67.805  1.00  0.00    -0.199 C  
HETATM    3  H   UNL     1      -8.735  11.998  69.426  1.00  0.00     0.000 HD 
ENDROOT
BRANCH   2   4
HETATM    4  C   UNL     1      -9.976  13.195  66.698  1.00  0.00    -0.270 C  
HETATM    5  O   UNL     1     -10.603  12.578  65.558  1.00  0.00    -0.263 OA 
HETATM    6  H   UNL     1     -10.711  13.226  64.872  1.00  0.00     0.000 HD 
BRANCH   4   7
HETATM    7  C   UNL     1     -10.796  14.407  67.176  1.00  0.00    -0.292 C  
HETATM    8  H   UNL     1     -12.474  15.282  66.647  1.00  0.00     0.000 HD 
HETATM    9  O   UNL     1     -11.967  14.534  66.353  1.00  0.00    -0.392 OA 
BRANCH   7  10
HETATM   10  C   UNL     1      -9.957  15.702  67.150  1.00  0.00    -0.240 C  
HETATM   11  C   UNL     1      -9.529  16.091  68.553  1.00  0.00    -0.216 C  
HETATM   12  O   UNL     1     -10.648  16.810  66.580  1.00  0.00    -0.286 OA 
HETATM   13  O   UNL     1      -9.748  15.413  69.556  1.00  0.00    -0.248 OA 
HETATM   14  H   UNL     1     -10.131  17.607  66.564  1.00  0.00     0.000 HD 
ENDBRANCH   7  10
ENDBRANCH   4   7
ENDBRANCH   2   4
TORSDOF 3
ENDMDL
MODEL      183
REMARK 921   NORMALIZED FREE ENERGY PREDICTED BY IDOCK:   -2.18 KCAL/MOL
REMARK 922        TOTAL FREE ENERGY PREDICTED BY IDOCK:   -3.19 KCAL/MOL
REMARK 923 INTER-LIGAND FREE ENERGY PREDICTED BY IDOCK:   -2.88 KCAL/MOL
REMARK 924 INTRA-LIGAND FREE ENERGY PREDICTED BY IDOCK:   -0.31 KCAL/MOL
REMARK 927      BINDING AFFINITY PREDICTED BY RF-SCORE:    0.00 PKD
ROOT
HETATM    1  O   UNL     1      -9.228  10.903  69.341  1.00  0.00    -0.396 OA 
HETATM    2  C   UNL     1      -9.342   9.827  70.277  1.00  0.00    -0.182 C  
HETATM    3  H   UNL     1      -8.539  11.484  69.642  1.00  0.00     0.000 HD 
ENDROOT
BRANCH   2   4
HETATM    4  C   UNL     1     -10.454   8.890  69.793  1.00  0.00    -0.212 C  
HETATM    5  O   UNL     1     -11.535   9.676  69.258  1.00  0.00    -0.448 OA 
HETATM    6  H   UNL     1     -12.224   9.096  68.958  1.00  0.00     0.000 HD 
BRANCH   4   7
HETATM    7  C   UNL     1      -9.943   7.888  68.743  1.00  0.00    -0.187 C  
HETATM    8  H   UNL     1      -9.535   7.930  66.821  1.00  0.00     0.000 HD 
HETATM    9  O   UNL     1      -9.850   8.549  67.470  1.00  0.00    -0.156 OA 
BRANCH   7  10
HETATM   10  C   UNL     1     -10.858   6.647  68.657  1.00  0.00    -0.262 C  
HETATM   11  C   UNL     1     -10.061   5.377  68.897  1.00  0.00    -0.195 C  
HETATM   12  O   UNL     1     -11.517   6.518  67.400  1.00  0.00    -0.740 OA 
HETATM   13  O   UNL     1      -8.871   5.356  69.207  1.00  0.00    -0.100 OA 
HETATM   14  H   UNL     1     -12.080   5.755  67.348  1.00  0.00     0.000 HD 
ENDBRANCH   7  10
ENDBRANCH   4   7
ENDBRANCH   2   4
TORSDOF 3
ENDMDL
MODEL      184
REMARK 921   NORMALIZED FREE ENERGY PREDICTED BY IDOCK:   -2.16 KCAL/MOL
REMARK 922        TOTAL FREE ENERGY PREDICTED BY IDOCK:   -3.17 KCAL/MOL
REMARK 923 INTER-LIGAND FREE ENERGY PREDICTED BY IDOCK:   -3.10 KCAL/MOL
REMARK 924 INTRA-LIGAND FREE ENERGY PREDICTED BY IDOCK:   -0.07 KCAL/MOL
REMARK 927      BINDING AFFINITY PREDICTED BY RF-SCORE:    0.00 PKD
ROOT
HETATM    1  O   UNL     1      -7.991   9.161  68.857  1.00  0.00    -0.096 OA 
HETATM    2  C   UNL     1      -8.997   8.406  69.537  1.00  0.00    -0.149 C  
HETATM    3  H   UNL     1      -7.506   8.568  68.295  1.00  0.00     0.000 HD 
ENDROOT
BRANCH   2   4
HETATM    4  C   UNL     1      -9.779   9.362  70.444  1.00  0.00    -0.261 C  
HETATM    5  O   UNL     1      -9.999  10.602  69.745  1.00  0.00    -0.429 OA 
HETATM    6  H   UNL     1     -10.484  11.195  70.307  1.00  0.00     0.000 HD 
BRANCH   4   7
HETATM    7  C   UNL     1     -11.118   8.755  70.901  1.00  0.00    -0.268 C  
HETATM    8  H   UNL     1     -12.724   9.400  71.831  1.00  0.00     0.000 HD 
HETATM    9  O   UNL     1     -11.898   9.774  71.548  1.00  0.00    -0.379 OA 
BRANCH   7  10
HETATM   10  C   UNL     1     -10.898   7.547  71.837  1.00  0.00    -0.227 C  
HETATM   11  C   UNL     1     -11.297   6.256  71.146  1.00  0.00    -0.303 C  
HETATM   12  O   UNL     1     -11.634   7.636  73.054  1.00  0.00    -0.596 OA 
HETATM   13  O   UNL     1     -11.656   6.182  69.972  1.00  0.00    -0.392 OA 
HETATM   14  H   UNL     1     -11.499   6.893  73.629  1.00  0.00     0.000 HD 
ENDBRANCH   7  10
ENDBRANCH   4   7
ENDBRANCH   2   4
TORSDOF 3
ENDMDL
MODEL      185
REMARK 921   NORMALIZED FREE ENERGY PREDICTED BY IDOCK:   -2.16 KCAL/MOL
REMARK 922        TOTAL FREE ENERGY PREDICTED BY IDOCK:   -3.17 KCAL/MOL
REMARK 923 INTER-LIGAND FREE ENERGY PREDICTED BY IDOCK:   -3.11 KCAL/MOL
REMARK 924 INTRA-LIGAND FREE ENERGY PREDICTED BY IDOCK:   -0.05 KCAL/MOL
REMARK 927      BINDING AFFINITY PREDICTED BY RF-SCORE:    0.00 PKD
ROOT
HETATM    1  O   UNL     1     -13.020  15.405  71.110  1.00  0.00    -0.414 OA 
HETATM    2  C   UNL     1     -13.160  14.110  70.520  1.00  0.00    -0.074 C  
HETATM    3  H   UNL     1     -13.865  15.664  71.459  1.00  0.00     0.000 HD 
ENDROOT
BRANCH   2   4
HETATM    4  C   UNL     1     -11.797  13.692  69.957  1.00  0.00    -0.308 C  
HETATM    5  O   UNL     1     -11.461  12.384  70.456  1.00  0.00    -0.419 OA 
HETATM    6  H   UNL     1     -10.616  12.125  70.107  1.00  0.00     0.000 HD 
BRANCH   4   7
HETATM    7  C   UNL     1     -11.783  13.704  68.418  1.00  0.00    -0.358 C  
HETATM    8  H   UNL     1     -12.141  12.407  66.986  1.00  0.00     0.000 HD 
HETATM    9  O   UNL     1     -12.149  12.400  67.936  1.00  0.00    -0.428 OA 
BRANCH   7  10
HETATM   10  C   UNL     1     -10.404  14.129  67.871  1.00  0.00    -0.234 C  
HETATM   11  C   UNL     1     -10.287  15.642  67.831  1.00  0.00    -0.259 C  
HETATM   12  O   UNL     1     -10.141  13.637  66.559  1.00  0.00    -0.272 OA 
HETATM   13  O   UNL     1     -11.143  16.413  68.264  1.00  0.00    -0.347 OA 
HETATM   14  H   UNL     1      -9.292  13.899  66.223  1.00  0.00     0.000 HD 
ENDBRANCH   7  10
ENDBRANCH   4   7
ENDBRANCH   2   4
TORSDOF 3
ENDMDL
MODEL      186
REMARK 921   NORMALIZED FREE ENERGY PREDICTED BY IDOCK:   -2.15 KCAL/MOL
REMARK 922        TOTAL FREE ENERGY PREDICTED BY IDOCK:   -3.15 KCAL/MOL
REMARK 923 INTER-LIGAND FREE ENERGY PREDICTED BY IDOCK:   -2.99 KCAL/MOL
REMARK 924 INTRA-LIGAND FREE ENERGY PREDICTED BY IDOCK:   -0.16 KCAL/MOL
REMARK 927      BINDING AFFINITY PREDICTED BY RF-SCORE:    0.00 PKD
ROOT
HETATM    1  O   UNL     1      -8.395   8.658  72.838  1.00  0.00    -0.400 OA 
HETATM    2  C   UNL     1      -9.426   7.833  73.389  1.00  0.00    -0.287 C  
HETATM    3  H   UNL     1      -7.603   8.519  73.343  1.00  0.00     0.000 HD 
ENDROOT
BRANCH   2   4
HETATM    4  C   UNL     1     -10.704   8.058  72.574  1.00  0.00    -0.341 C  
HETATM    5  O   UNL     1     -10.515   9.186  71.700  1.00  0.00    -0.331 OA 
HETATM    6  H   UNL     1     -11.307   9.325  71.194  1.00  0.00     0.000 HD 
BRANCH   4   7
HETATM    7  C   UNL     1     -11.097   6.808  71.766  1.00  0.00    -0.242 C  
HETATM    8  H   UNL     1     -12.754   6.069  71.012  1.00  0.00     0.000 HD 
HETATM    9  O   UNL     1     -12.511   6.840  71.511  1.00  0.00    -0.355 OA 
BRANCH   7  10
HETATM   10  C   UNL     1     -10.696   5.512  72.503  1.00  0.00    -0.240 C  
HETATM   11  C   UNL     1     -10.066   4.522  71.541  1.00  0.00    -0.169 C  
HETATM   12  O   UNL     1     -11.794   4.863  73.139  1.00  0.00    -0.422 OA 
HETATM   13  O   UNL     1      -9.826   4.764  70.358  1.00  0.00    -0.201 OA 
HETATM   14  H   UNL     1     -11.547   4.066  73.592  1.00  0.00     0.000 HD 
ENDBRANCH   7  10
ENDBRANCH   4   7
ENDBRANCH   2   4
TORSDOF 3
ENDMDL
MODEL      187
REMARK 921   NORMALIZED FREE ENERGY PREDICTED BY IDOCK:   -2.13 KCAL/MOL
REMARK 922        TOTAL FREE ENERGY PREDICTED BY IDOCK:   -3.12 KCAL/MOL
REMARK 923 INTER-LIGAND FREE ENERGY PREDICTED BY IDOCK:   -2.84 KCAL/MOL
REMARK 924 INTRA-LIGAND FREE ENERGY PREDICTED BY IDOCK:   -0.29 KCAL/MOL
REMARK 927      BINDING AFFINITY PREDICTED BY RF-SCORE:    0.00 PKD
ROOT
HETATM    1  O   UNL     1      -7.143   8.435  70.951  1.00  0.00    -0.048 OA 
HETATM    2  C   UNL     1      -7.939   9.454  70.340  1.00  0.00    -0.172 C  
HETATM    3  H   UNL     1      -6.257   8.514  70.620  1.00  0.00     0.000 HD 
ENDROOT
BRANCH   2   4
HETATM    4  C   UNL     1      -9.370   9.326  70.873  1.00  0.00    -0.245 C  
HETATM    5  O   UNL     1     -10.210  10.289  70.210  1.00  0.00    -0.413 OA 
HETATM    6  H   UNL     1     -11.097  10.210  70.540  1.00  0.00     0.000 HD 
BRANCH   4   7
HETATM    7  C   UNL     1      -9.928   7.904  70.687  1.00  0.00    -0.186 C  
HETATM    8  H   UNL     1      -9.770   6.483  69.339  1.00  0.00     0.000 HD 
HETATM    9  O   UNL     1      -9.426   7.361  69.455  1.00  0.00    -0.155 OA 
BRANCH   7  10
HETATM   10  C   UNL     1     -11.471   7.897  70.709  1.00  0.00    -0.263 C  
HETATM   11  C   UNL     1     -11.986   7.745  72.128  1.00  0.00    -0.317 C  
HETATM   12  O   UNL     1     -12.041   6.853  69.923  1.00  0.00    -0.635 OA 
HETATM   13  O   UNL     1     -11.267   7.724  73.126  1.00  0.00    -0.402 OA 
HETATM   14  H   UNL     1     -12.991   6.849  69.937  1.00  0.00     0.000 HD 
ENDBRANCH   7  10
ENDBRANCH   4   7
ENDBRANCH   2   4
TORSDOF 3
ENDMDL
MODEL      188
REMARK 921   NORMALIZED FREE ENERGY PREDICTED BY IDOCK:   -2.10 KCAL/MOL
REMARK 922        TOTAL FREE ENERGY PREDICTED BY IDOCK:   -3.10 KCAL/MOL
REMARK 923 INTER-LIGAND FREE ENERGY PREDICTED BY IDOCK:   -2.69 KCAL/MOL
REMARK 924 INTRA-LIGAND FREE ENERGY PREDICTED BY IDOCK:   -0.41 KCAL/MOL
REMARK 927      BINDING AFFINITY PREDICTED BY RF-SCORE:    0.00 PKD
ROOT
HETATM    1  O   UNL     1      -8.747   8.646  72.934  1.00  0.00    -0.384 OA 
HETATM    2  C   UNL     1      -7.895   8.103  71.922  1.00  0.00    -0.112 C  
HETATM    3  H   UNL     1      -8.226   8.785  73.716  1.00  0.00     0.000 HD 
ENDROOT
BRANCH   2   4
HETATM    4  C   UNL     1      -8.736   7.878  70.661  1.00  0.00    -0.135 C  
HETATM    5  O   UNL     1      -7.902   7.317  69.630  1.00  0.00    -0.112 OA 
HETATM    6  H   UNL     1      -8.423   7.178  68.848  1.00  0.00     0.000 HD 
BRANCH   4   7
HETATM    7  C   UNL     1      -9.946   6.966  70.933  1.00  0.00    -0.189 C  
HETATM    8  H   UNL     1     -10.446   5.112  70.517  1.00  0.00     0.000 HD 
HETATM    9  O   UNL     1      -9.700   5.675  70.349  1.00  0.00    -0.166 OA 
BRANCH   7  10
HETATM   10  C   UNL     1     -11.251   7.582  70.385  1.00  0.00    -0.253 C  
HETATM   11  C   UNL     1     -12.049   8.227  71.503  1.00  0.00    -0.299 C  
HETATM   12  O   UNL     1     -12.094   6.633  69.737  1.00  0.00    -0.638 OA 
HETATM   13  O   UNL     1     -11.658   8.321  72.666  1.00  0.00    -0.399 OA 
HETATM   14  H   UNL     1     -12.897   7.013  69.400  1.00  0.00     0.000 HD 
ENDBRANCH   7  10
ENDBRANCH   4   7
ENDBRANCH   2   4
TORSDOF 3
ENDMDL
MODEL      189
REMARK 921   NORMALIZED FREE ENERGY PREDICTED BY IDOCK:   -2.10 KCAL/MOL
REMARK 922        TOTAL FREE ENERGY PREDICTED BY IDOCK:   -3.10 KCAL/MOL
REMARK 923 INTER-LIGAND FREE ENERGY PREDICTED BY IDOCK:   -2.92 KCAL/MOL
REMARK 924 INTRA-LIGAND FREE ENERGY PREDICTED BY IDOCK:   -0.17 KCAL/MOL
REMARK 927      BINDING AFFINITY PREDICTED BY RF-SCORE:    0.00 PKD
ROOT
HETATM    1  O   UNL     1     -11.436   4.388  65.000  1.00  0.00    -1.090 OA 
HETATM    2  C   UNL     1     -10.514   4.643  66.064  1.00  0.00    -0.264 C  
HETATM    3  H   UNL     1     -12.264   4.125  65.383  1.00  0.00     0.000 HD 
ENDROOT
BRANCH   2   4
HETATM    4  C   UNL     1      -9.178   5.067  65.446  1.00  0.00    -0.138 C  
HETATM    5  O   UNL     1      -9.283   5.016  64.011  1.00  0.00    -0.352 OA 
HETATM    6  H   UNL     1      -8.455   5.279  63.627  1.00  0.00     0.000 HD 
BRANCH   4   7
HETATM    7  C   UNL     1      -8.751   6.472  65.907  1.00  0.00    -0.141 C  
HETATM    8  H   UNL     1      -7.124   7.292  66.640  1.00  0.00     0.000 HD 
HETATM    9  O   UNL     1      -7.387   6.425  66.356  1.00  0.00    -0.077 OA 
BRANCH   7  10
HETATM   10  C   UNL     1      -9.682   7.007  67.016  1.00  0.00    -0.167 C  
HETATM   11  C   UNL     1     -10.082   8.444  66.733  1.00  0.00    -0.303 C  
HETATM   12  O   UNL     1      -9.094   6.966  68.314  1.00  0.00    -0.127 OA 
HETATM   13  O   UNL     1      -9.777   9.058  65.711  1.00  0.00    -0.265 OA 
HETATM   14  H   UNL     1      -9.666   7.295  68.996  1.00  0.00     0.000 HD 
ENDBRANCH   7  10
ENDBRANCH   4   7
ENDBRANCH   2   4
TORSDOF 3
ENDMDL
MODEL      190
REMARK 921   NORMALIZED FREE ENERGY PREDICTED BY IDOCK:   -2.10 KCAL/MOL
REMARK 922        TOTAL FREE ENERGY PREDICTED BY IDOCK:   -3.09 KCAL/MOL
REMARK 923 INTER-LIGAND FREE ENERGY PREDICTED BY IDOCK:   -2.57 KCAL/MOL
REMARK 924 INTRA-LIGAND FREE ENERGY PREDICTED BY IDOCK:   -0.52 KCAL/MOL
REMARK 927      BINDING AFFINITY PREDICTED BY RF-SCORE:    0.00 PKD
ROOT
HETATM    1  O   UNL     1     -11.345   6.145  66.465  1.00  0.00    -0.745 OA 
HETATM    2  C   UNL     1     -10.544   5.490  67.452  1.00  0.00    -0.199 C  
HETATM    3  H   UNL     1     -11.265   5.662  65.651  1.00  0.00     0.000 HD 
ENDROOT
BRANCH   2   4
HETATM    4  C   UNL     1     -10.672   6.270  68.764  1.00  0.00    -0.297 C  
HETATM    5  O   UNL     1      -9.701   5.774  69.705  1.00  0.00    -0.151 OA 
HETATM    6  H   UNL     1      -9.780   6.258  70.519  1.00  0.00     0.000 HD 
BRANCH   4   7
HETATM    7  C   UNL     1     -10.494   7.784  68.552  1.00  0.00    -0.168 C  
HETATM    8  H   UNL     1      -9.306   8.939  67.497  1.00  0.00     0.000 HD 
HETATM    9  O   UNL     1      -9.416   8.005  67.628  1.00  0.00    -0.141 OA 
BRANCH   7  10
HETATM   10  C   UNL     1     -10.237   8.513  69.888  1.00  0.00    -0.204 C  
HETATM   11  C   UNL     1     -10.807   9.920  69.849  1.00  0.00    -0.278 C  
HETATM   12  O   UNL     1      -8.854   8.612  70.220  1.00  0.00    -0.138 OA 
HETATM   13  O   UNL     1     -11.462  10.374  68.912  1.00  0.00    -0.244 OA 
HETATM   14  H   UNL     1      -8.696   9.060  71.042  1.00  0.00     0.000 HD 
ENDBRANCH   7  10
ENDBRANCH   4   7
ENDBRANCH   2   4
TORSDOF 3
ENDMDL
MODEL      191
REMARK 921   NORMALIZED FREE ENERGY PREDICTED BY IDOCK:   -2.09 KCAL/MOL
REMARK 922        TOTAL FREE ENERGY PREDICTED BY IDOCK:   -3.08 KCAL/MOL
REMARK 923 INTER-LIGAND FREE ENERGY PREDICTED BY IDOCK:   -2.71 KCAL/MOL
REMARK 924 INTRA-LIGAND FREE ENERGY PREDICTED BY IDOCK:   -0.37 KCAL/MOL
REMARK 927      BINDING AFFINITY PREDICTED BY RF-SCORE:    0.00 PKD
ROOT
HETATM    1  O   UNL     1      -9.506   8.721  68.492  1.00  0.00    -0.144 OA 
HETATM    2  C   UNL     1      -9.584  10.003  69.122  1.00  0.00    -0.210 C  
HETATM    3  H   UNL     1      -8.636   8.370  68.642  1.00  0.00     0.000 HD 
ENDROOT
BRANCH   2   4
HETATM    4  C   UNL     1     -10.987  10.570  68.879  1.00  0.00    -0.246 C  
HETATM    5  O   UNL     1     -11.342  11.437  69.972  1.00  0.00    -0.422 OA 
HETATM    6  H   UNL     1     -12.212  11.788  69.822  1.00  0.00     0.000 HD 
BRANCH   4   7
HETATM    7  C   UNL     1     -11.078  11.324  67.540  1.00  0.00    -0.286 C  
HETATM    8  H   UNL     1     -10.231  11.185  65.773  1.00  0.00     0.000 HD 
HETATM    9  O   UNL     1     -10.175  10.720  66.599  1.00  0.00    -0.217 OA 
BRANCH   7  10
HETATM   10  C   UNL     1     -10.771  12.826  67.718  1.00  0.00    -0.220 C  
HETATM   11  C   UNL     1     -11.530  13.652  66.696  1.00  0.00    -0.343 C  
HETATM   12  O   UNL     1      -9.386  13.137  67.588  1.00  0.00    -0.191 OA 
HETATM   13  O   UNL     1     -12.347  13.189  65.901  1.00  0.00    -0.434 OA 
HETATM   14  H   UNL     1      -9.197  14.061  67.697  1.00  0.00     0.000 HD 
ENDBRANCH   7  10
ENDBRANCH   4   7
ENDBRANCH   2   4
TORSDOF 3
ENDMDL
MODEL      192
REMARK 921   NORMALIZED FREE ENERGY PREDICTED BY IDOCK:   -2.08 KCAL/MOL
REMARK 922        TOTAL FREE ENERGY PREDICTED BY IDOCK:   -3.07 KCAL/MOL
REMARK 923 INTER-LIGAND FREE ENERGY PREDICTED BY IDOCK:   -2.98 KCAL/MOL
REMARK 924 INTRA-LIGAND FREE ENERGY PREDICTED BY IDOCK:   -0.09 KCAL/MOL
REMARK 927      BINDING AFFINITY PREDICTED BY RF-SCORE:    0.00 PKD
ROOT
HETATM    1  O   UNL     1      -7.536  20.269  64.899  1.00  0.00    -0.337 OA 
HETATM    2  C   UNL     1      -7.728  19.943  66.278  1.00  0.00    -0.315 C  
HETATM    3  H   UNL     1      -7.691  21.200  64.791  1.00  0.00     0.000 HD 
ENDROOT
BRANCH   2   4
HETATM    4  C   UNL     1      -7.479  18.441  66.452  1.00  0.00    -0.247 C  
HETATM    5  O   UNL     1      -6.263  18.245  67.197  1.00  0.00    -0.165 OA 
HETATM    6  H   UNL     1      -6.109  17.314  67.305  1.00  0.00     0.000 HD 
BRANCH   4   7
HETATM    7  C   UNL     1      -8.659  17.740  67.150  1.00  0.00    -0.233 C  
HETATM    8  H   UNL     1      -9.233  17.436  69.004  1.00  0.00     0.000 HD 
HETATM    9  O   UNL     1      -8.505  17.868  68.573  1.00  0.00    -0.296 OA 
BRANCH   7  10
HETATM   10  C   UNL     1      -8.759  16.257  66.734  1.00  0.00    -0.231 C  
HETATM   11  C   UNL     1      -9.912  16.048  65.769  1.00  0.00    -0.351 C  
HETATM   12  O   UNL     1      -8.949  15.374  67.837  1.00  0.00    -0.171 OA 
HETATM   13  O   UNL     1     -10.606  16.956  65.314  1.00  0.00    -0.633 OA 
HETATM   14  H   UNL     1      -9.010  14.462  67.581  1.00  0.00     0.000 HD 
ENDBRANCH   7  10
ENDBRANCH   4   7
ENDBRANCH   2   4
TORSDOF 3
ENDMDL
MODEL      193
REMARK 921   NORMALIZED FREE ENERGY PREDICTED BY IDOCK:   -2.07 KCAL/MOL
REMARK 922        TOTAL FREE ENERGY PREDICTED BY IDOCK:   -3.06 KCAL/MOL
REMARK 923 INTER-LIGAND FREE ENERGY PREDICTED BY IDOCK:   -2.68 KCAL/MOL
REMARK 924 INTRA-LIGAND FREE ENERGY PREDICTED BY IDOCK:   -0.38 KCAL/MOL
REMARK 927      BINDING AFFINITY PREDICTED BY RF-SCORE:    0.00 PKD
ROOT
HETATM    1  O   UNL     1     -10.252  17.796  67.572  1.00  0.00    -0.325 OA 
HETATM    2  C   UNL     1     -10.758  16.485  67.839  1.00  0.00    -0.337 C  
HETATM    3  H   UNL     1     -10.984  18.354  67.340  1.00  0.00     0.000 HD 
ENDROOT
BRANCH   2   4
HETATM    4  C   UNL     1      -9.576  15.585  68.213  1.00  0.00    -0.201 C  
HETATM    5  O   UNL     1     -10.073  14.290  68.602  1.00  0.00    -0.233 OA 
HETATM    6  H   UNL     1      -9.340  13.732  68.834  1.00  0.00     0.000 HD 
BRANCH   4   7
HETATM    7  C   UNL     1      -8.567  15.451  67.058  1.00  0.00    -0.234 C  
HETATM    8  H   UNL     1      -7.805  13.979  66.004  1.00  0.00     0.000 HD 
HETATM    9  O   UNL     1      -8.427  14.062  66.716  1.00  0.00    -0.141 OA 
BRANCH   7  10
HETATM   10  C   UNL     1      -7.203  16.071  67.428  1.00  0.00    -0.187 C  
HETATM   11  C   UNL     1      -6.979  17.366  66.668  1.00  0.00    -0.233 C  
HETATM   12  O   UNL     1      -6.100  15.210  67.157  1.00  0.00    -0.276 OA 
HETATM   13  O   UNL     1      -7.815  17.888  65.933  1.00  0.00    -0.515 OA 
HETATM   14  H   UNL     1      -5.261  15.591  67.384  1.00  0.00     0.000 HD 
ENDBRANCH   7  10
ENDBRANCH   4   7
ENDBRANCH   2   4
TORSDOF 3
ENDMDL
MODEL      194
REMARK 921   NORMALIZED FREE ENERGY PREDICTED BY IDOCK:   -2.03 KCAL/MOL
REMARK 922        TOTAL FREE ENERGY PREDICTED BY IDOCK:   -3.01 KCAL/MOL
REMARK 923 INTER-LIGAND FREE ENERGY PREDICTED BY IDOCK:   -2.99 KCAL/MOL
REMARK 924 INTRA-LIGAND FREE ENERGY PREDICTED BY IDOCK:   -0.02 KCAL/MOL
REMARK 927      BINDING AFFINITY PREDICTED BY RF-SCORE:    0.00 PKD
ROOT
HETATM    1  O   UNL     1     -12.041  14.568  66.382  1.00  0.00    -0.385 OA 
HETATM    2  C   UNL     1     -10.915  13.927  66.988  1.00  0.00    -0.295 C  
HETATM    3  H   UNL     1     -11.888  14.610  65.445  1.00  0.00     0.000 HD 
ENDROOT
BRANCH   2   4
HETATM    4  C   UNL     1     -11.161  13.861  68.499  1.00  0.00    -0.270 C  
HETATM    5  O   UNL     1     -10.499  12.700  69.036  1.00  0.00    -0.416 OA 
HETATM    6  H   UNL     1     -10.651  12.659  69.973  1.00  0.00     0.000 HD 
BRANCH   4   7
HETATM    7  C   UNL     1     -10.682  15.136  69.216  1.00  0.00    -0.250 C  
HETATM    8  H   UNL     1     -11.485  16.492  70.389  1.00  0.00     0.000 HD 
HETATM    9  O   UNL     1     -11.781  15.705  69.946  1.00  0.00    -0.315 OA 
BRANCH   7  10
HETATM   10  C   UNL     1     -10.093  16.156  68.217  1.00  0.00    -0.232 C  
HETATM   11  C   UNL     1      -8.643  16.455  68.549  1.00  0.00    -0.223 C  
HETATM   12  O   UNL     1     -10.799  17.394  68.194  1.00  0.00    -0.373 OA 
HETATM   13  O   UNL     1      -8.006  15.888  69.437  1.00  0.00    -0.232 OA 
HETATM   14  H   UNL     1     -10.437  18.021  67.579  1.00  0.00     0.000 HD 
ENDBRANCH   7  10
ENDBRANCH   4   7
ENDBRANCH   2   4
TORSDOF 3
ENDMDL
MODEL      195
REMARK 921   NORMALIZED FREE ENERGY PREDICTED BY IDOCK:   -1.98 KCAL/MOL
REMARK 922        TOTAL FREE ENERGY PREDICTED BY IDOCK:   -2.95 KCAL/MOL
REMARK 923 INTER-LIGAND FREE ENERGY PREDICTED BY IDOCK:   -2.82 KCAL/MOL
REMARK 924 INTRA-LIGAND FREE ENERGY PREDICTED BY IDOCK:   -0.13 KCAL/MOL
REMARK 927      BINDING AFFINITY PREDICTED BY RF-SCORE:    0.00 PKD
ROOT
HETATM    1  O   UNL     1      -8.981   8.150  66.881  1.00  0.00    -0.131 OA 
HETATM    2  C   UNL     1      -8.938   8.027  68.306  1.00  0.00    -0.132 C  
HETATM    3  H   UNL     1      -8.090   8.245  66.566  1.00  0.00     0.000 HD 
ENDROOT
BRANCH   2   4
HETATM    4  C   UNL     1     -10.375   7.875  68.815  1.00  0.00    -0.203 C  
HETATM    5  O   UNL     1     -11.226   7.485  67.720  1.00  0.00    -0.479 OA 
HETATM    6  H   UNL     1     -12.117   7.390  68.035  1.00  0.00     0.000 HD 
BRANCH   4   7
HETATM    7  C   UNL     1     -10.473   6.855  69.964  1.00  0.00    -0.207 C  
HETATM    8  H   UNL     1     -10.773   4.920  70.122  1.00  0.00     0.000 HD 
HETATM    9  O   UNL     1     -10.713   5.550  69.413  1.00  0.00    -0.295 OA 
BRANCH   7  10
HETATM   10  C   UNL     1     -11.579   7.244  70.969  1.00  0.00    -0.299 C  
HETATM   11  C   UNL     1     -11.437   6.450  72.254  1.00  0.00    -0.298 C  
HETATM   12  O   UNL     1     -12.896   7.032  70.468  1.00  0.00    -0.583 OA 
HETATM   13  O   UNL     1     -10.511   5.674  72.489  1.00  0.00    -0.197 OA 
HETATM   14  H   UNL     1     -13.576   7.271  71.087  1.00  0.00     0.000 HD 
ENDBRANCH   7  10
ENDBRANCH   4   7
ENDBRANCH   2   4
TORSDOF 3
ENDMDL
MODEL      196
REMARK 921   NORMALIZED FREE ENERGY PREDICTED BY IDOCK:   -1.97 KCAL/MOL
REMARK 922        TOTAL FREE ENERGY PREDICTED BY IDOCK:   -2.94 KCAL/MOL
REMARK 923 INTER-LIGAND FREE ENERGY PREDICTED BY IDOCK:   -3.51 KCAL/MOL
REMARK 924 INTRA-LIGAND FREE ENERGY PREDICTED BY IDOCK:    0.56 KCAL/MOL
REMARK 927      BINDING AFFINITY PREDICTED BY RF-SCORE:    0.00 PKD
ROOT
HETATM    1  O   UNL     1      -8.928  14.751  69.355  1.00  0.00    -0.392 OA 
HETATM    2  C   UNL     1      -9.590  15.756  68.581  1.00  0.00    -0.207 C  
HETATM    3  H   UNL     1      -8.754  15.110  70.218  1.00  0.00     0.000 HD 
ENDROOT
BRANCH   2   4
HETATM    4  C   UNL     1      -9.870  15.178  67.190  1.00  0.00    -0.228 C  
HETATM    5  O   UNL     1      -8.693  15.321  66.373  1.00  0.00    -0.351 OA 
HETATM    6  H   UNL     1      -8.867  14.963  65.510  1.00  0.00     0.000 HD 
BRANCH   4   7
HETATM    7  C   UNL     1     -10.305  13.703  67.257  1.00  0.00    -0.249 C  
HETATM    8  H   UNL     1      -9.963  12.074  66.214  1.00  0.00     0.000 HD 
HETATM    9  O   UNL     1      -9.695  12.984  66.173  1.00  0.00    -0.274 OA 
BRANCH   7  10
HETATM   10  C   UNL     1     -11.843  13.567  67.216  1.00  0.00    -0.385 C  
HETATM   11  C   UNL     1     -12.386  14.037  65.879  1.00  0.00    -0.486 C  
HETATM   12  O   UNL     1     -12.502  14.308  68.240  1.00  0.00    -0.563 OA 
HETATM   13  O   UNL     1     -11.683  14.389  64.933  1.00  0.00    -0.369 OA 
HETATM   14  H   UNL     1     -13.447  14.224  68.215  1.00  0.00     0.000 HD 
ENDBRANCH   7  10
ENDBRANCH   4   7
ENDBRANCH   2   4
TORSDOF 3
ENDMDL
MODEL      197
REMARK 921   NORMALIZED FREE ENERGY PREDICTED BY IDOCK:   -1.97 KCAL/MOL
REMARK 922        TOTAL FREE ENERGY PREDICTED BY IDOCK:   -2.94 KCAL/MOL
REMARK 923 INTER-LIGAND FREE ENERGY PREDICTED BY IDOCK:   -2.34 KCAL/MOL
REMARK 924 INTRA-LIGAND FREE ENERGY PREDICTED BY IDOCK:   -0.59 KCAL/MOL
REMARK 927      BINDING AFFINITY PREDICTED BY RF-SCORE:    0.00 PKD
ROOT
HETATM    1  O   UNL     1     -11.503   4.289  64.694  1.00  0.00    -0.921 OA 
HETATM    2  C   UNL     1     -10.775   3.230  64.067  1.00  0.00    -0.135 C  
HETATM    3  H   UNL     1     -12.300   3.924  65.060  1.00  0.00     0.000 HD 
ENDROOT
BRANCH   2   4
HETATM    4  C   UNL     1      -9.490   3.819  63.476  1.00  0.00    -0.133 C  
HETATM    5  O   UNL     1      -9.829   4.916  62.608  1.00  0.00    -0.365 OA 
HETATM    6  H   UNL     1      -9.032   5.282  62.241  1.00  0.00     0.000 HD 
BRANCH   4   7
HETATM    7  C   UNL     1      -8.512   4.280  64.572  1.00  0.00    -0.111 C  
HETATM    8  H   UNL     1      -8.463   4.246  66.536  1.00  0.00     0.000 HD 
HETATM    9  O   UNL     1      -9.066   3.961  65.859  1.00  0.00    -0.132 OA 
BRANCH   7  10
HETATM   10  C   UNL     1      -8.209   5.789  64.457  1.00  0.00    -0.122 C  
HETATM   11  C   UNL     1      -6.821   6.098  64.989  1.00  0.00    -0.051 C  
HETATM   12  O   UNL     1      -9.138   6.606  65.164  1.00  0.00    -0.350 OA 
HETATM   13  O   UNL     1      -6.021   5.244  65.370  1.00  0.00    -0.024 OA 
HETATM   14  H   UNL     1      -8.951   7.535  65.093  1.00  0.00     0.000 HD 
ENDBRANCH   7  10
ENDBRANCH   4   7
ENDBRANCH   2   4
TORSDOF 3
ENDMDL
MODEL      198
REMARK 921   NORMALIZED FREE ENERGY PREDICTED BY IDOCK:   -1.97 KCAL/MOL
REMARK 922        TOTAL FREE ENERGY PREDICTED BY IDOCK:   -2.94 KCAL/MOL
REMARK 923 INTER-LIGAND FREE ENERGY PREDICTED BY IDOCK:   -2.86 KCAL/MOL
REMARK 924 INTRA-LIGAND FREE ENERGY PREDICTED BY IDOCK:   -0.08 KCAL/MOL
REMARK 927      BINDING AFFINITY PREDICTED BY RF-SCORE:    0.00 PKD
ROOT
HETATM    1  O   UNL     1     -12.122   6.621  69.685  1.00  0.00    -0.615 OA 
HETATM    2  C   UNL     1     -10.880   5.916  69.609  1.00  0.00    -0.374 C  
HETATM    3  H   UNL     1     -12.526   6.602  68.826  1.00  0.00     0.000 HD 
ENDROOT
BRANCH   2   4
HETATM    4  C   UNL     1     -10.229   5.947  70.996  1.00  0.00    -0.211 C  
HETATM    5  O   UNL     1      -8.829   5.635  70.868  1.00  0.00    -0.136 OA 
HETATM    6  H   UNL     1      -8.425   5.655  71.727  1.00  0.00     0.000 HD 
BRANCH   4   7
HETATM    7  C   UNL     1     -10.417   7.309  71.689  1.00  0.00    -0.198 C  
HETATM    8  H   UNL     1      -9.266   8.593  72.630  1.00  0.00     0.000 HD 
HETATM    9  O   UNL     1      -9.151   7.753  72.202  1.00  0.00    -0.130 OA 
BRANCH   7  10
HETATM   10  C   UNL     1     -11.473   7.228  72.812  1.00  0.00    -0.230 C  
HETATM   11  C   UNL     1     -12.360   8.460  72.802  1.00  0.00    -0.073 C  
HETATM   12  O   UNL     1     -10.904   7.110  74.113  1.00  0.00    -0.532 OA 
HETATM   13  O   UNL     1     -12.298   9.350  71.955  1.00  0.00    -0.359 OA 
HETATM   14  H   UNL     1     -11.554   7.060  74.804  1.00  0.00     0.000 HD 
ENDBRANCH   7  10
ENDBRANCH   4   7
ENDBRANCH   2   4
TORSDOF 3
ENDMDL
MODEL      199
REMARK 921   NORMALIZED FREE ENERGY PREDICTED BY IDOCK:   -1.94 KCAL/MOL
REMARK 922        TOTAL FREE ENERGY PREDICTED BY IDOCK:   -2.91 KCAL/MOL
REMARK 923 INTER-LIGAND FREE ENERGY PREDICTED BY IDOCK:   -2.57 KCAL/MOL
REMARK 924 INTRA-LIGAND FREE ENERGY PREDICTED BY IDOCK:   -0.33 KCAL/MOL
REMARK 927      BINDING AFFINITY PREDICTED BY RF-SCORE:    0.00 PKD
ROOT
HETATM    1  O   UNL     1      -7.868   9.327  71.344  1.00  0.00    -0.335 OA 
HETATM    2  C   UNL     1      -9.114   8.626  71.403  1.00  0.00    -0.229 C  
HETATM    3  H   UNL     1      -8.002  10.199  71.694  1.00  0.00     0.000 HD 
ENDROOT
BRANCH   2   4
HETATM    4  C   UNL     1      -8.897   7.219  70.837  1.00  0.00    -0.149 C  
HETATM    5  O   UNL     1      -8.203   6.419  71.812  1.00  0.00    -0.112 OA 
HETATM    6  H   UNL     1      -8.069   5.546  71.461  1.00  0.00     0.000 HD 
BRANCH   4   7
HETATM    7  C   UNL     1     -10.224   6.551  70.435  1.00  0.00    -0.193 C  
HETATM    8  H   UNL     1     -11.376   6.526  68.843  1.00  0.00     0.000 HD 
HETATM    9  O   UNL     1     -10.557   6.939  69.091  1.00  0.00    -0.204 OA 
BRANCH   7  10
HETATM   10  C   UNL     1     -11.359   6.919  71.414  1.00  0.00    -0.270 C  
HETATM   11  C   UNL     1     -11.532   5.837  72.464  1.00  0.00    -0.296 C  
HETATM   12  O   UNL     1     -12.618   7.110  70.773  1.00  0.00    -0.575 OA 
HETATM   13  O   UNL     1     -10.803   4.851  72.568  1.00  0.00    -0.211 OA 
HETATM   14  H   UNL     1     -13.316   7.337  71.376  1.00  0.00     0.000 HD 
ENDBRANCH   7  10
ENDBRANCH   4   7
ENDBRANCH   2   4
TORSDOF 3
ENDMDL
MODEL      200
REMARK 921   NORMALIZED FREE ENERGY PREDICTED BY IDOCK:   -1.93 KCAL/MOL
REMARK 922        TOTAL FREE ENERGY PREDICTED BY IDOCK:   -2.90 KCAL/MOL
REMARK 923 INTER-LIGAND FREE ENERGY PREDICTED BY IDOCK:   -2.67 KCAL/MOL
REMARK 924 INTRA-LIGAND FREE ENERGY PREDICTED BY IDOCK:   -0.22 KCAL/MOL
REMARK 927      BINDING AFFINITY PREDICTED BY RF-SCORE:    0.00 PKD
ROOT
HETATM    1  O   UNL     1     -10.693  13.088  64.609  1.00  0.00    -0.324 OA 
HETATM    2  C   UNL     1     -10.906  11.749  65.066  1.00  0.00    -0.295 C  
HETATM    3  H   UNL     1     -11.467  13.364  64.132  1.00  0.00     0.000 HD 
ENDROOT
BRANCH   2   4
HETATM    4  C   UNL     1      -9.658  11.303  65.834  1.00  0.00    -0.221 C  
HETATM    5  O   UNL     1      -8.553  11.192  64.916  1.00  0.00    -0.373 OA 
HETATM    6  H   UNL     1      -7.779  10.916  65.392  1.00  0.00     0.000 HD 
BRANCH   4   7
HETATM    7  C   UNL     1      -9.312  12.270  66.981  1.00  0.00    -0.205 C  
HETATM    8  H   UNL     1      -7.794  12.544  68.197  1.00  0.00     0.000 HD 
HETATM    9  O   UNL     1      -8.008  11.947  67.489  1.00  0.00    -0.137 OA 
BRANCH   7  10
HETATM   10  C   UNL     1     -10.373  12.216  68.101  1.00  0.00    -0.207 C  
HETATM   11  C   UNL     1     -10.886  13.609  68.420  1.00  0.00    -0.256 C  
HETATM   12  O   UNL     1      -9.885  11.643  69.311  1.00  0.00    -0.405 OA 
HETATM   13  O   UNL     1     -10.563  14.622  67.802  1.00  0.00    -0.247 OA 
HETATM   14  H   UNL     1     -10.538  11.610  70.001  1.00  0.00     0.000 HD 
ENDBRANCH   7  10
ENDBRANCH   4   7
ENDBRANCH   2   4
TORSDOF 3
ENDMDL
MODEL      201
REMARK 921   NORMALIZED FREE ENERGY PREDICTED BY IDOCK:   -1.92 KCAL/MOL
REMARK 922        TOTAL FREE ENERGY PREDICTED BY IDOCK:   -2.88 KCAL/MOL
REMARK 923 INTER-LIGAND FREE ENERGY PREDICTED BY IDOCK:   -2.51 KCAL/MOL
REMARK 924 INTRA-LIGAND FREE ENERGY PREDICTED BY IDOCK:   -0.37 KCAL/MOL
REMARK 927      BINDING AFFINITY PREDICTED BY RF-SCORE:    0.00 PKD
ROOT
HETATM    1  O   UNL     1     -10.920  14.670  68.050  1.00  0.00    -0.254 OA 
HETATM    2  C   UNL     1     -10.081  14.538  66.899  1.00  0.00    -0.257 C  
HETATM    3  H   UNL     1     -11.750  14.250  67.860  1.00  0.00     0.000 HD 
ENDROOT
BRANCH   2   4
HETATM    4  C   UNL     1      -8.741  15.216  67.206  1.00  0.00    -0.202 C  
HETATM    5  O   UNL     1      -7.679  14.469  66.584  1.00  0.00    -0.216 OA 
HETATM    6  H   UNL     1      -6.849  14.889  66.774  1.00  0.00     0.000 HD 
BRANCH   4   7
HETATM    7  C   UNL     1      -8.718  16.681  66.735  1.00  0.00    -0.226 C  
HETATM    8  H   UNL     1      -7.543  17.795  65.622  1.00  0.00     0.000 HD 
HETATM    9  O   UNL     1      -7.558  16.891  65.913  1.00  0.00    -0.276 OA 
BRANCH   7  10
HETATM   10  C   UNL     1      -8.733  17.657  67.931  1.00  0.00    -0.245 C  
HETATM   11  C   UNL     1     -10.145  18.139  68.211  1.00  0.00    -0.386 C  
HETATM   12  O   UNL     1      -7.912  18.805  67.733  1.00  0.00    -0.248 OA 
HETATM   13  O   UNL     1     -11.144  17.730  67.621  1.00  0.00    -0.201 OA 
HETATM   14  H   UNL     1      -7.922  19.405  68.469  1.00  0.00     0.000 HD 
ENDBRANCH   7  10
ENDBRANCH   4   7
ENDBRANCH   2   4
TORSDOF 3
ENDMDL
MODEL      202
REMARK 921   NORMALIZED FREE ENERGY PREDICTED BY IDOCK:   -1.92 KCAL/MOL
REMARK 922        TOTAL FREE ENERGY PREDICTED BY IDOCK:   -2.88 KCAL/MOL
REMARK 923 INTER-LIGAND FREE ENERGY PREDICTED BY IDOCK:   -2.50 KCAL/MOL
REMARK 924 INTRA-LIGAND FREE ENERGY PREDICTED BY IDOCK:   -0.38 KCAL/MOL
REMARK 927      BINDING AFFINITY PREDICTED BY RF-SCORE:    0.00 PKD
ROOT
HETATM    1  O   UNL     1     -13.021   6.645  71.942  1.00  0.00    -0.459 OA 
HETATM    2  C   UNL     1     -11.593   6.692  72.028  1.00  0.00    -0.301 C  
HETATM    3  H   UNL     1     -13.343   6.120  72.665  1.00  0.00     0.000 HD 
ENDROOT
BRANCH   2   4
HETATM    4  C   UNL     1     -11.073   7.538  70.862  1.00  0.00    -0.263 C  
HETATM    5  O   UNL     1      -9.857   8.197  71.261  1.00  0.00    -0.157 OA 
HETATM    6  H   UNL     1      -9.534   8.722  70.538  1.00  0.00     0.000 HD 
BRANCH   4   7
HETATM    7  C   UNL     1     -10.839   6.692  69.597  1.00  0.00    -0.286 C  
HETATM    8  H   UNL     1     -10.584   4.787  69.192  1.00  0.00     0.000 HD 
HETATM    9  O   UNL     1     -10.728   5.309  69.972  1.00  0.00    -0.287 OA 
BRANCH   7  10
HETATM   10  C   UNL     1      -9.584   7.161  68.831  1.00  0.00    -0.142 C  
HETATM   11  C   UNL     1      -9.830   7.133  67.333  1.00  0.00    -0.155 C  
HETATM   12  O   UNL     1      -8.431   6.367  69.098  1.00  0.00    -0.120 OA 
HETATM   13  O   UNL     1     -10.913   6.862  66.815  1.00  0.00    -0.329 OA 
HETATM   14  H   UNL     1      -7.659   6.655  68.626  1.00  0.00     0.000 HD 
ENDBRANCH   7  10
ENDBRANCH   4   7
ENDBRANCH   2   4
TORSDOF 3
ENDMDL
MODEL      203
REMARK 921   NORMALIZED FREE ENERGY PREDICTED BY IDOCK:   -1.91 KCAL/MOL
REMARK 922        TOTAL FREE ENERGY PREDICTED BY IDOCK:   -2.87 KCAL/MOL
REMARK 923 INTER-LIGAND FREE ENERGY PREDICTED BY IDOCK:   -2.69 KCAL/MOL
REMARK 924 INTRA-LIGAND FREE ENERGY PREDICTED BY IDOCK:   -0.18 KCAL/MOL
REMARK 927      BINDING AFFINITY PREDICTED BY RF-SCORE:    0.00 PKD
ROOT
HETATM    1  O   UNL     1      -8.948  12.665  68.630  1.00  0.00    -0.372 OA 
HETATM    2  C   UNL     1     -10.326  12.873  68.307  1.00  0.00    -0.244 C  
HETATM    3  H   UNL     1      -8.534  13.516  68.718  1.00  0.00     0.000 HD 
ENDROOT
BRANCH   2   4
HETATM    4  C   UNL     1     -10.994  11.501  68.166  1.00  0.00    -0.228 C  
HETATM    5  O   UNL     1     -11.925  11.539  67.067  1.00  0.00    -0.556 OA 
HETATM    6  H   UNL     1     -12.339  10.689  66.979  1.00  0.00     0.000 HD 
BRANCH   4   7
HETATM    7  C   UNL     1      -9.962  10.378  67.960  1.00  0.00    -0.155 C  
HETATM    8  H   UNL     1      -9.214   9.401  66.429  1.00  0.00     0.000 HD 
HETATM    9  O   UNL     1      -9.851  10.094  66.556  1.00  0.00    -0.193 OA 
BRANCH   7  10
HETATM   10  C   UNL     1     -10.345   9.110  68.753  1.00  0.00    -0.214 C  
HETATM   11  C   UNL     1      -9.116   8.483  69.387  1.00  0.00    -0.150 C  
HETATM   12  O   UNL     1     -10.978   8.114  67.953  1.00  0.00    -0.480 OA 
HETATM   13  O   UNL     1      -7.990   8.977  69.346  1.00  0.00    -0.094 OA 
HETATM   14  H   UNL     1     -11.214   7.334  68.442  1.00  0.00     0.000 HD 
ENDBRANCH   7  10
ENDBRANCH   4   7
ENDBRANCH   2   4
TORSDOF 3
ENDMDL
MODEL      204
REMARK 921   NORMALIZED FREE ENERGY PREDICTED BY IDOCK:   -1.91 KCAL/MOL
REMARK 922        TOTAL FREE ENERGY PREDICTED BY IDOCK:   -2.87 KCAL/MOL
REMARK 923 INTER-LIGAND FREE ENERGY PREDICTED BY IDOCK:   -2.68 KCAL/MOL
REMARK 924 INTRA-LIGAND FREE ENERGY PREDICTED BY IDOCK:   -0.19 KCAL/MOL
REMARK 927      BINDING AFFINITY PREDICTED BY RF-SCORE:    0.00 PKD
ROOT
HETATM    1  O   UNL     1      -8.880  15.579  69.490  1.00  0.00    -0.262 OA 
HETATM    2  C   UNL     1      -8.145  14.642  68.698  1.00  0.00    -0.150 C  
HETATM    3  H   UNL     1      -8.410  15.711  70.305  1.00  0.00     0.000 HD 
ENDROOT
BRANCH   2   4
HETATM    4  C   UNL     1      -8.905  14.429  67.385  1.00  0.00    -0.203 C  
HETATM    5  O   UNL     1     -10.283  14.130  67.678  1.00  0.00    -0.237 OA 
HETATM    6  H   UNL     1     -10.754  13.998  66.864  1.00  0.00     0.000 HD 
BRANCH   4   7
HETATM    7  C   UNL     1      -8.804  15.653  66.457  1.00  0.00    -0.310 C  
HETATM    8  H   UNL     1      -7.665  17.249  66.334  1.00  0.00     0.000 HD 
HETATM    9  O   UNL     1      -7.728  16.493  66.906  1.00  0.00    -0.181 OA 
BRANCH   7  10
HETATM   10  C   UNL     1     -10.134  16.435  66.410  1.00  0.00    -0.316 C  
HETATM   11  C   UNL     1     -11.019  15.917  65.291  1.00  0.00    -0.324 C  
HETATM   12  O   UNL     1      -9.958  17.835  66.214  1.00  0.00    -0.321 OA 
HETATM   13  O   UNL     1     -10.746  14.947  64.585  1.00  0.00    -0.371 OA 
HETATM   14  H   UNL     1     -10.777  18.316  66.184  1.00  0.00     0.000 HD 
ENDBRANCH   7  10
ENDBRANCH   4   7
ENDBRANCH   2   4
TORSDOF 3
ENDMDL
MODEL      205
REMARK 921   NORMALIZED FREE ENERGY PREDICTED BY IDOCK:   -1.87 KCAL/MOL
REMARK 922        TOTAL FREE ENERGY PREDICTED BY IDOCK:   -2.83 KCAL/MOL
REMARK 923 INTER-LIGAND FREE ENERGY PREDICTED BY IDOCK:   -2.35 KCAL/MOL
REMARK 924 INTRA-LIGAND FREE ENERGY PREDICTED BY IDOCK:   -0.48 KCAL/MOL
REMARK 927      BINDING AFFINITY PREDICTED BY RF-SCORE:    0.00 PKD
ROOT
HETATM    1  O   UNL     1     -10.794   8.856  70.018  1.00  0.00    -0.230 OA 
HETATM    2  C   UNL     1     -11.390   7.977  70.976  1.00  0.00    -0.273 C  
HETATM    3  H   UNL     1     -10.830   9.740  70.365  1.00  0.00     0.000 HD 
ENDROOT
BRANCH   2   4
HETATM    4  C   UNL     1     -11.332   6.552  70.416  1.00  0.00    -0.383 C  
HETATM    5  O   UNL     1     -11.684   6.578  69.020  1.00  0.00    -0.595 OA 
HETATM    6  H   UNL     1     -11.648   5.695  68.672  1.00  0.00     0.000 HD 
BRANCH   4   7
HETATM    7  C   UNL     1      -9.945   5.914  70.611  1.00  0.00    -0.189 C  
HETATM    8  H   UNL     1      -8.119   6.265  69.976  1.00  0.00     0.000 HD 
HETATM    9  O   UNL     1      -8.976   6.659  69.855  1.00  0.00    -0.143 OA 
BRANCH   7  10
HETATM   10  C   UNL     1      -9.946   4.427  70.197  1.00  0.00    -0.179 C  
HETATM   11  C   UNL     1      -8.961   3.636  71.039  1.00  0.00    -0.096 C  
HETATM   12  O   UNL     1      -9.612   4.222  68.827  1.00  0.00    -0.158 OA 
HETATM   13  O   UNL     1      -8.323   4.106  71.980  1.00  0.00    -0.100 OA 
HETATM   14  H   UNL     1      -9.613   3.307  68.573  1.00  0.00     0.000 HD 
ENDBRANCH   7  10
ENDBRANCH   4   7
ENDBRANCH   2   4
TORSDOF 3
ENDMDL
MODEL      206
REMARK 921   NORMALIZED FREE ENERGY PREDICTED BY IDOCK:   -1.87 KCAL/MOL
REMARK 922        TOTAL FREE ENERGY PREDICTED BY IDOCK:   -2.82 KCAL/MOL
REMARK 923 INTER-LIGAND FREE ENERGY PREDICTED BY IDOCK:   -2.55 KCAL/MOL
REMARK 924 INTRA-LIGAND FREE ENERGY PREDICTED BY IDOCK:   -0.27 KCAL/MOL
REMARK 927      BINDING AFFINITY PREDICTED BY RF-SCORE:    0.00 PKD
ROOT
HETATM    1  O   UNL     1     -12.293   7.400  72.691  1.00  0.00    -0.521 OA 
HETATM    2  C   UNL     1     -11.397   8.426  72.254  1.00  0.00    -0.378 C  
HETATM    3  H   UNL     1     -12.351   7.442  73.638  1.00  0.00     0.000 HD 
ENDROOT
BRANCH   2   4
HETATM    4  C   UNL     1     -11.303   8.358  70.726  1.00  0.00    -0.265 C  
HETATM    5  O   UNL     1     -11.789   9.593  70.168  1.00  0.00    -0.435 OA 
HETATM    6  H   UNL     1     -11.731   9.552  69.220  1.00  0.00     0.000 HD 
BRANCH   4   7
HETATM    7  C   UNL     1      -9.866   8.079  70.250  1.00  0.00    -0.184 C  
HETATM    8  H   UNL     1      -8.143   9.021  70.310  1.00  0.00     0.000 HD 
HETATM    9  O   UNL     1      -9.030   9.193  70.604  1.00  0.00    -0.205 OA 
BRANCH   7  10
HETATM   10  C   UNL     1      -9.819   7.810  68.730  1.00  0.00    -0.169 C  
HETATM   11  C   UNL     1      -8.596   6.987  68.370  1.00  0.00    -0.126 C  
HETATM   12  O   UNL     1      -9.788   9.002  67.948  1.00  0.00    -0.158 OA 
HETATM   13  O   UNL     1      -7.808   6.523  69.194  1.00  0.00    -0.106 OA 
HETATM   14  H   UNL     1      -9.759   8.836  67.014  1.00  0.00     0.000 HD 
ENDBRANCH   7  10
ENDBRANCH   4   7
ENDBRANCH   2   4
TORSDOF 3
ENDMDL
MODEL      207
REMARK 921   NORMALIZED FREE ENERGY PREDICTED BY IDOCK:   -1.86 KCAL/MOL
REMARK 922        TOTAL FREE ENERGY PREDICTED BY IDOCK:   -2.81 KCAL/MOL
REMARK 923 INTER-LIGAND FREE ENERGY PREDICTED BY IDOCK:   -2.71 KCAL/MOL
REMARK 924 INTRA-LIGAND FREE ENERGY PREDICTED BY IDOCK:   -0.10 KCAL/MOL
REMARK 927      BINDING AFFINITY PREDICTED BY RF-SCORE:    0.00 PKD
ROOT
HETATM    1  O   UNL     1      -8.065  17.625  65.547  1.00  0.00    -0.335 OA 
HETATM    2  C   UNL     1      -8.260  17.058  66.846  1.00  0.00    -0.213 C  
HETATM    3  H   UNL     1      -8.075  18.571  65.633  1.00  0.00     0.000 HD 
ENDROOT
BRANCH   2   4
HETATM    4  C   UNL     1      -8.245  15.532  66.708  1.00  0.00    -0.242 C  
HETATM    5  O   UNL     1      -6.942  15.037  67.069  1.00  0.00    -0.306 OA 
HETATM    6  H   UNL     1      -6.932  14.091  66.984  1.00  0.00     0.000 HD 
BRANCH   4   7
HETATM    7  C   UNL     1      -9.333  14.866  67.569  1.00  0.00    -0.193 C  
HETATM    8  H   UNL     1      -9.432  13.336  68.798  1.00  0.00     0.000 HD 
HETATM    9  O   UNL     1      -8.760  13.748  68.266  1.00  0.00    -0.172 OA 
BRANCH   7  10
HETATM   10  C   UNL     1     -10.539  14.427  66.712  1.00  0.00    -0.282 C  
HETATM   11  C   UNL     1     -11.833  14.576  67.491  1.00  0.00    -0.374 C  
HETATM   12  O   UNL     1     -10.451  13.075  66.266  1.00  0.00    -0.268 OA 
HETATM   13  O   UNL     1     -11.909  15.068  68.616  1.00  0.00    -0.327 OA 
HETATM   14  H   UNL     1     -11.193  12.805  65.739  1.00  0.00     0.000 HD 
ENDBRANCH   7  10
ENDBRANCH   4   7
ENDBRANCH   2   4
TORSDOF 3
ENDMDL
MODEL      208
REMARK 921   NORMALIZED FREE ENERGY PREDICTED BY IDOCK:   -1.85 KCAL/MOL
REMARK 922        TOTAL FREE ENERGY PREDICTED BY IDOCK:   -2.80 KCAL/MOL
REMARK 923 INTER-LIGAND FREE ENERGY PREDICTED BY IDOCK:   -2.49 KCAL/MOL
REMARK 924 INTRA-LIGAND FREE ENERGY PREDICTED BY IDOCK:   -0.31 KCAL/MOL
REMARK 927      BINDING AFFINITY PREDICTED BY RF-SCORE:    0.00 PKD
ROOT
HETATM    1  O   UNL     1      -7.730   9.211  64.567  1.00  0.00    -0.106 OA 
HETATM    2  C   UNL     1      -9.113   9.302  64.919  1.00  0.00    -0.170 C  
HETATM    3  H   UNL     1      -7.666   8.759  63.734  1.00  0.00     0.000 HD 
ENDROOT
BRANCH   2   4
HETATM    4  C   UNL     1      -9.216  10.030  66.264  1.00  0.00    -0.162 C  
HETATM    5  O   UNL     1      -9.970  11.244  66.088  1.00  0.00    -0.213 OA 
HETATM    6  H   UNL     1     -10.034  11.695  66.921  1.00  0.00     0.000 HD 
BRANCH   4   7
HETATM    7  C   UNL     1      -9.860   9.147  67.348  1.00  0.00    -0.184 C  
HETATM    8  H   UNL     1     -11.160   7.675  67.391  1.00  0.00     0.000 HD 
HETATM    9  O   UNL     1     -10.763   8.220  66.723  1.00  0.00    -0.267 OA 
BRANCH   7  10
HETATM   10  C   UNL     1     -10.587   9.999  68.410  1.00  0.00    -0.220 C  
HETATM   11  C   UNL     1     -10.680   9.249  69.726  1.00  0.00    -0.231 C  
HETATM   12  O   UNL     1     -11.908  10.371  68.025  1.00  0.00    -0.746 OA 
HETATM   13  O   UNL     1     -10.162   8.153  69.935  1.00  0.00    -0.196 OA 
HETATM   14  H   UNL     1     -12.356  10.895  68.679  1.00  0.00     0.000 HD 
ENDBRANCH   7  10
ENDBRANCH   4   7
ENDBRANCH   2   4
TORSDOF 3
ENDMDL
MODEL      209
REMARK 921   NORMALIZED FREE ENERGY PREDICTED BY IDOCK:   -1.83 KCAL/MOL
REMARK 922        TOTAL FREE ENERGY PREDICTED BY IDOCK:   -2.78 KCAL/MOL
REMARK 923 INTER-LIGAND FREE ENERGY PREDICTED BY IDOCK:   -2.72 KCAL/MOL
REMARK 924 INTRA-LIGAND FREE ENERGY PREDICTED BY IDOCK:   -0.06 KCAL/MOL
REMARK 927      BINDING AFFINITY PREDICTED BY RF-SCORE:    0.00 PKD
ROOT
HETATM    1  O   UNL     1      -8.453  10.944  64.887  1.00  0.00    -0.338 OA 
HETATM    2  C   UNL     1      -9.645  11.035  64.102  1.00  0.00    -0.266 C  
HETATM    3  H   UNL     1      -7.713  10.881  64.294  1.00  0.00     0.000 HD 
ENDROOT
BRANCH   2   4
HETATM    4  C   UNL     1     -10.838  11.136  65.058  1.00  0.00    -0.173 C  
HETATM    5  O   UNL     1     -10.378  10.957  66.410  1.00  0.00    -0.237 OA 
HETATM    6  H   UNL     1     -11.117  11.020  67.003  1.00  0.00     0.000 HD 
BRANCH   4   7
HETATM    7  C   UNL     1     -11.579  12.478  64.912  1.00  0.00    -0.341 C  
HETATM    8  H   UNL     1     -13.245  13.261  65.598  1.00  0.00     0.000 HD 
HETATM    9  O   UNL     1     -12.788  12.433  65.687  1.00  0.00    -0.308 OA 
BRANCH   7  10
HETATM   10  C   UNL     1     -11.880  12.798  63.432  1.00  0.00    -0.518 C  
HETATM   11  C   UNL     1     -12.222  14.267  63.261  1.00  0.00     0.701 C  
HETATM   12  O   UNL     1     -12.958  12.033  62.899  1.00  0.00    -0.638 OA 
HETATM   13  O   UNL     1     -12.173  15.098  64.166  1.00  0.00    -0.600 OA 
HETATM   14  H   UNL     1     -13.143  12.230  61.988  1.00  0.00     0.000 HD 
ENDBRANCH   7  10
ENDBRANCH   4   7
ENDBRANCH   2   4
TORSDOF 3
ENDMDL
MODEL      210
REMARK 921   NORMALIZED FREE ENERGY PREDICTED BY IDOCK:   -1.81 KCAL/MOL
REMARK 922        TOTAL FREE ENERGY PREDICTED BY IDOCK:   -2.75 KCAL/MOL
REMARK 923 INTER-LIGAND FREE ENERGY PREDICTED BY IDOCK:   -3.07 KCAL/MOL
REMARK 924 INTRA-LIGAND FREE ENERGY PREDICTED BY IDOCK:    0.31 KCAL/MOL
REMARK 927      BINDING AFFINITY PREDICTED BY RF-SCORE:    0.00 PKD
ROOT
HETATM    1  O   UNL     1     -10.196  10.957  69.679  1.00  0.00    -0.426 OA 
HETATM    2  C   UNL     1     -10.951  11.426  68.558  1.00  0.00    -0.221 C  
HETATM    3  H   UNL     1     -10.472  10.069  69.870  1.00  0.00     0.000 HD 
ENDROOT
BRANCH   2   4
HETATM    4  C   UNL     1     -10.507  12.859  68.249  1.00  0.00    -0.242 C  
HETATM    5  O   UNL     1     -10.006  12.919  66.901  1.00  0.00    -0.229 OA 
HETATM    6  H   UNL     1      -9.730  13.808  66.709  1.00  0.00     0.000 HD 
BRANCH   4   7
HETATM    7  C   UNL     1     -11.651  13.871  68.446  1.00  0.00    -0.332 C  
HETATM    8  H   UNL     1     -12.648  15.123  67.307  1.00  0.00     0.000 HD 
HETATM    9  O   UNL     1     -11.942  14.499  67.187  1.00  0.00    -0.406 OA 
BRANCH   7  10
HETATM   10  C   UNL     1     -11.296  14.921  69.520  1.00  0.00    -0.281 C  
HETATM   11  C   UNL     1     -10.065  15.710  69.111  1.00  0.00    -0.237 C  
HETATM   12  O   UNL     1     -11.043  14.352  70.802  1.00  0.00    -0.499 OA 
HETATM   13  O   UNL     1      -9.492  15.586  68.029  1.00  0.00    -0.193 OA 
HETATM   14  H   UNL     1     -10.824  14.999  71.463  1.00  0.00     0.000 HD 
ENDBRANCH   7  10
ENDBRANCH   4   7
ENDBRANCH   2   4
TORSDOF 3
ENDMDL
MODEL      211
REMARK 921   NORMALIZED FREE ENERGY PREDICTED BY IDOCK:   -1.81 KCAL/MOL
REMARK 922        TOTAL FREE ENERGY PREDICTED BY IDOCK:   -2.75 KCAL/MOL
REMARK 923 INTER-LIGAND FREE ENERGY PREDICTED BY IDOCK:   -2.42 KCAL/MOL
REMARK 924 INTRA-LIGAND FREE ENERGY PREDICTED BY IDOCK:   -0.33 KCAL/MOL
REMARK 927      BINDING AFFINITY PREDICTED BY RF-SCORE:    0.00 PKD
ROOT
HETATM    1  O   UNL     1      -7.386   9.242  67.750  1.00  0.00    -0.083 OA 
HETATM    2  C   UNL     1      -8.189  10.413  67.581  1.00  0.00    -0.110 C  
HETATM    3  H   UNL     1      -6.910   9.090  66.942  1.00  0.00     0.000 HD 
ENDROOT
BRANCH   2   4
HETATM    4  C   UNL     1      -8.957  10.658  68.883  1.00  0.00    -0.168 C  
HETATM    5  O   UNL     1      -9.428  12.018  68.907  1.00  0.00    -0.403 OA 
HETATM    6  H   UNL     1      -9.904  12.170  69.714  1.00  0.00     0.000 HD 
BRANCH   4   7
HETATM    7  C   UNL     1     -10.132   9.677  69.050  1.00  0.00    -0.186 C  
HETATM    8  H   UNL     1     -11.524   8.920  67.889  1.00  0.00     0.000 HD 
HETATM    9  O   UNL     1     -10.799   9.525  67.787  1.00  0.00    -0.269 OA 
BRANCH   7  10
HETATM   10  C   UNL     1     -11.113  10.154  70.142  1.00  0.00    -0.315 C  
HETATM   11  C   UNL     1     -11.748   8.969  70.846  1.00  0.00    -0.276 C  
HETATM   12  O   UNL     1     -12.163  10.975  69.636  1.00  0.00    -0.330 OA 
HETATM   13  O   UNL     1     -11.447   7.796  70.633  1.00  0.00    -0.279 OA 
HETATM   14  H   UNL     1     -12.766  11.269  70.308  1.00  0.00     0.000 HD 
ENDBRANCH   7  10
ENDBRANCH   4   7
ENDBRANCH   2   4
TORSDOF 3
ENDMDL
MODEL      212
REMARK 921   NORMALIZED FREE ENERGY PREDICTED BY IDOCK:   -1.80 KCAL/MOL
REMARK 922        TOTAL FREE ENERGY PREDICTED BY IDOCK:   -2.75 KCAL/MOL
REMARK 923 INTER-LIGAND FREE ENERGY PREDICTED BY IDOCK:   -2.64 KCAL/MOL
REMARK 924 INTRA-LIGAND FREE ENERGY PREDICTED BY IDOCK:   -0.10 KCAL/MOL
REMARK 927      BINDING AFFINITY PREDICTED BY RF-SCORE:    0.00 PKD
ROOT
HETATM    1  O   UNL     1     -10.807   7.532  74.141  1.00  0.00    -0.417 OA 
HETATM    2  C   UNL     1     -10.085   6.338  73.827  1.00  0.00    -0.249 C  
HETATM    3  H   UNL     1     -10.368   7.961  74.866  1.00  0.00     0.000 HD 
ENDROOT
BRANCH   2   4
HETATM    4  C   UNL     1     -10.793   5.647  72.657  1.00  0.00    -0.256 C  
HETATM    5  O   UNL     1     -12.217   5.804  72.807  1.00  0.00    -0.548 OA 
HETATM    6  H   UNL     1     -12.656   5.375  72.082  1.00  0.00     0.000 HD 
BRANCH   4   7
HETATM    7  C   UNL     1     -10.329   6.198  71.297  1.00  0.00    -0.217 C  
HETATM    8  H   UNL     1     -11.171   6.609  69.571  1.00  0.00     0.000 HD 
HETATM    9  O   UNL     1     -11.457   6.269  70.410  1.00  0.00    -0.364 OA 
BRANCH   7  10
HETATM   10  C   UNL     1      -9.202   5.332  70.694  1.00  0.00    -0.148 C  
HETATM   11  C   UNL     1      -8.225   6.193  69.914  1.00  0.00    -0.120 C  
HETATM   12  O   UNL     1      -9.681   4.314  69.819  1.00  0.00    -0.200 OA 
HETATM   13  O   UNL     1      -8.280   7.420  69.854  1.00  0.00    -0.127 OA 
HETATM   14  H   UNL     1      -8.988   3.781  69.447  1.00  0.00     0.000 HD 
ENDBRANCH   7  10
ENDBRANCH   4   7
ENDBRANCH   2   4
TORSDOF 3
ENDMDL
MODEL      213
REMARK 921   NORMALIZED FREE ENERGY PREDICTED BY IDOCK:   -1.73 KCAL/MOL
REMARK 922        TOTAL FREE ENERGY PREDICTED BY IDOCK:   -2.66 KCAL/MOL
REMARK 923 INTER-LIGAND FREE ENERGY PREDICTED BY IDOCK:   -2.89 KCAL/MOL
REMARK 924 INTRA-LIGAND FREE ENERGY PREDICTED BY IDOCK:    0.23 KCAL/MOL
REMARK 927      BINDING AFFINITY PREDICTED BY RF-SCORE:    0.00 PKD
ROOT
HETATM    1  O   UNL     1     -10.968  15.116  68.470  1.00  0.00    -0.243 OA 
HETATM    2  C   UNL     1     -11.367  16.482  68.620  1.00  0.00    -0.237 C  
HETATM    3  H   UNL     1     -11.573  14.576  68.965  1.00  0.00     0.000 HD 
ENDROOT
BRANCH   2   4
HETATM    4  C   UNL     1     -10.392  17.354  67.822  1.00  0.00    -0.358 C  
HETATM    5  O   UNL     1     -10.885  18.706  67.788  1.00  0.00    -0.390 OA 
HETATM    6  H   UNL     1     -10.280  19.247  67.294  1.00  0.00     0.000 HD 
BRANCH   4   7
HETATM    7  C   UNL     1      -8.970  17.312  68.410  1.00  0.00    -0.269 C  
HETATM    8  H   UNL     1      -7.608  18.631  68.925  1.00  0.00     0.000 HD 
HETATM    9  O   UNL     1      -8.486  18.656  68.562  1.00  0.00    -0.327 OA 
BRANCH   7  10
HETATM   10  C   UNL     1      -8.019  16.476  67.527  1.00  0.00    -0.158 C  
HETATM   11  C   UNL     1      -7.930  17.066  66.131  1.00  0.00    -0.264 C  
HETATM   12  O   UNL     1      -8.419  15.114  67.400  1.00  0.00    -0.159 OA 
HETATM   13  O   UNL     1      -8.470  18.117  65.788  1.00  0.00    -0.482 OA 
HETATM   14  H   UNL     1      -7.834  14.601  66.856  1.00  0.00     0.000 HD 
ENDBRANCH   7  10
ENDBRANCH   4   7
ENDBRANCH   2   4
TORSDOF 3
ENDMDL
MODEL      214
REMARK 921   NORMALIZED FREE ENERGY PREDICTED BY IDOCK:   -1.72 KCAL/MOL
REMARK 922        TOTAL FREE ENERGY PREDICTED BY IDOCK:   -2.65 KCAL/MOL
REMARK 923 INTER-LIGAND FREE ENERGY PREDICTED BY IDOCK:   -2.25 KCAL/MOL
REMARK 924 INTRA-LIGAND FREE ENERGY PREDICTED BY IDOCK:   -0.40 KCAL/MOL
REMARK 927      BINDING AFFINITY PREDICTED BY RF-SCORE:    0.00 PKD
ROOT
HETATM    1  O   UNL     1      -8.611   4.611  66.539  1.00  0.00    -0.112 OA 
HETATM    2  C   UNL     1      -9.995   4.944  66.391  1.00  0.00    -0.234 C  
HETATM    3  H   UNL     1      -8.446   3.812  66.051  1.00  0.00     0.000 HD 
ENDROOT
BRANCH   2   4
HETATM    4  C   UNL     1     -10.262   6.231  67.177  1.00  0.00    -0.196 C  
HETATM    5  O   UNL     1     -11.650   6.588  67.042  1.00  0.00    -0.729 OA 
HETATM    6  H   UNL     1     -11.816   7.386  67.530  1.00  0.00     0.000 HD 
BRANCH   4   7
HETATM    7  C   UNL     1      -9.884   6.086  68.662  1.00  0.00    -0.138 C  
HETATM    8  H   UNL     1     -10.851   5.856  70.357  1.00  0.00     0.000 HD 
HETATM    9  O   UNL     1     -11.084   5.946  69.440  1.00  0.00    -0.363 OA 
BRANCH   7  10
HETATM   10  C   UNL     1      -9.045   7.287  69.150  1.00  0.00    -0.137 C  
HETATM   11  C   UNL     1      -7.570   6.928  69.190  1.00  0.00    -0.097 C  
HETATM   12  O   UNL     1      -9.417   7.746  70.446  1.00  0.00    -0.163 OA 
HETATM   13  O   UNL     1      -7.108   5.857  68.798  1.00  0.00    -0.075 OA 
HETATM   14  H   UNL     1      -8.901   8.484  70.746  1.00  0.00     0.000 HD 
ENDBRANCH   7  10
ENDBRANCH   4   7
ENDBRANCH   2   4
TORSDOF 3
ENDMDL
MODEL      215
REMARK 921   NORMALIZED FREE ENERGY PREDICTED BY IDOCK:   -1.72 KCAL/MOL
REMARK 922        TOTAL FREE ENERGY PREDICTED BY IDOCK:   -2.64 KCAL/MOL
REMARK 923 INTER-LIGAND FREE ENERGY PREDICTED BY IDOCK:   -2.40 KCAL/MOL
REMARK 924 INTRA-LIGAND FREE ENERGY PREDICTED BY IDOCK:   -0.24 KCAL/MOL
REMARK 927      BINDING AFFINITY PREDICTED BY RF-SCORE:    0.00 PKD
ROOT
HETATM    1  O   UNL     1     -11.348   6.111  66.459  1.00  0.00    -0.745 OA 
HETATM    2  C   UNL     1     -10.574   5.811  67.624  1.00  0.00    -0.239 C  
HETATM    3  H   UNL     1     -11.040   5.559  65.749  1.00  0.00     0.000 HD 
ENDROOT
BRANCH   2   4
HETATM    4  C   UNL     1     -11.070   6.701  68.768  1.00  0.00    -0.227 C  
HETATM    5  O   UNL     1     -11.166   5.916  69.971  1.00  0.00    -0.364 OA 
HETATM    6  H   UNL     1     -11.473   6.468  70.680  1.00  0.00     0.000 HD 
BRANCH   4   7
HETATM    7  C   UNL     1     -10.153   7.918  68.988  1.00  0.00    -0.200 C  
HETATM    8  H   UNL     1     -10.195   9.828  68.529  1.00  0.00     0.000 HD 
HETATM    9  O   UNL     1     -10.761   9.077  68.393  1.00  0.00    -0.186 OA 
BRANCH   7  10
HETATM   10  C   UNL     1      -8.743   7.673  68.410  1.00  0.00    -0.127 C  
HETATM   11  C   UNL     1      -7.692   7.779  69.500  1.00  0.00    -0.105 C  
HETATM   12  O   UNL     1      -8.392   8.586  67.374  1.00  0.00    -0.118 OA 
HETATM   13  O   UNL     1      -7.947   7.945  70.692  1.00  0.00    -0.093 OA 
HETATM   14  H   UNL     1      -7.524   8.435  67.019  1.00  0.00     0.000 HD 
ENDBRANCH   7  10
ENDBRANCH   4   7
ENDBRANCH   2   4
TORSDOF 3
ENDMDL
MODEL      216
REMARK 921   NORMALIZED FREE ENERGY PREDICTED BY IDOCK:   -1.72 KCAL/MOL
REMARK 922        TOTAL FREE ENERGY PREDICTED BY IDOCK:   -2.64 KCAL/MOL
REMARK 923 INTER-LIGAND FREE ENERGY PREDICTED BY IDOCK:   -2.51 KCAL/MOL
REMARK 924 INTRA-LIGAND FREE ENERGY PREDICTED BY IDOCK:   -0.14 KCAL/MOL
REMARK 927      BINDING AFFINITY PREDICTED BY RF-SCORE:    0.00 PKD
ROOT
HETATM    1  O   UNL     1      -7.063   9.247  63.593  1.00  0.00    -0.093 OA 
HETATM    2  C   UNL     1      -8.463   9.275  63.883  1.00  0.00    -0.190 C  
HETATM    3  H   UNL     1      -6.951   8.926  62.705  1.00  0.00     0.000 HD 
ENDROOT
BRANCH   2   4
HETATM    4  C   UNL     1      -8.643   9.792  65.314  1.00  0.00    -0.153 C  
HETATM    5  O   UNL     1      -7.464  10.519  65.706  1.00  0.00    -0.143 OA 
HETATM    6  H   UNL     1      -7.575  10.839  66.593  1.00  0.00     0.000 HD 
BRANCH   4   7
HETATM    7  C   UNL     1      -9.895  10.678  65.452  1.00  0.00    -0.267 C  
HETATM    8  H   UNL     1     -10.847  11.973  64.322  1.00  0.00     0.000 HD 
HETATM    9  O   UNL     1     -10.075  11.426  64.238  1.00  0.00    -0.253 OA 
BRANCH   7  10
HETATM   10  C   UNL     1      -9.787  11.618  66.671  1.00  0.00    -0.200 C  
HETATM   11  C   UNL     1     -11.132  12.252  66.979  1.00  0.00    -0.287 C  
HETATM   12  O   UNL     1      -8.841  12.668  66.492  1.00  0.00    -0.371 OA 
HETATM   13  O   UNL     1     -12.176  11.977  66.390  1.00  0.00    -0.551 OA 
HETATM   14  H   UNL     1      -8.775  13.246  67.242  1.00  0.00     0.000 HD 
ENDBRANCH   7  10
ENDBRANCH   4   7
ENDBRANCH   2   4
TORSDOF 3
ENDMDL
MODEL      217
REMARK 921   NORMALIZED FREE ENERGY PREDICTED BY IDOCK:   -1.71 KCAL/MOL
REMARK 922        TOTAL FREE ENERGY PREDICTED BY IDOCK:   -2.63 KCAL/MOL
REMARK 923 INTER-LIGAND FREE ENERGY PREDICTED BY IDOCK:   -2.11 KCAL/MOL
REMARK 924 INTRA-LIGAND FREE ENERGY PREDICTED BY IDOCK:   -0.53 KCAL/MOL
REMARK 927      BINDING AFFINITY PREDICTED BY RF-SCORE:    0.00 PKD
ROOT
HETATM    1  O   UNL     1      -9.375   7.968  67.736  1.00  0.00    -0.136 OA 
HETATM    2  C   UNL     1     -10.158   7.442  66.661  1.00  0.00    -0.183 C  
HETATM    3  H   UNL     1      -9.127   8.857  67.514  1.00  0.00     0.000 HD 
ENDROOT
BRANCH   2   4
HETATM    4  C   UNL     1     -10.557   6.006  67.020  1.00  0.00    -0.316 C  
HETATM    5  O   UNL     1     -11.397   5.475  65.978  1.00  0.00    -0.753 OA 
HETATM    6  H   UNL     1     -11.645   4.585  66.200  1.00  0.00     0.000 HD 
BRANCH   4   7
HETATM    7  C   UNL     1      -9.328   5.105  67.235  1.00  0.00    -0.122 C  
HETATM    8  H   UNL     1      -7.450   5.105  66.658  1.00  0.00     0.000 HD 
HETATM    9  O   UNL     1      -8.209   5.661  66.525  1.00  0.00    -0.105 OA 
BRANCH   7  10
HETATM   10  C   UNL     1      -9.606   3.656  66.782  1.00  0.00    -0.149 C  
HETATM   11  C   UNL     1      -8.790   2.673  67.601  1.00  0.00    -0.132 C  
HETATM   12  O   UNL     1      -9.311   3.429  65.406  1.00  0.00    -0.151 OA 
HETATM   13  O   UNL     1      -8.079   2.990  68.554  1.00  0.00    -0.060 OA 
HETATM   14  H   UNL     1      -9.482   2.537  65.128  1.00  0.00     0.000 HD 
ENDBRANCH   7  10
ENDBRANCH   4   7
ENDBRANCH   2   4
TORSDOF 3
ENDMDL
MODEL      218
REMARK 921   NORMALIZED FREE ENERGY PREDICTED BY IDOCK:   -1.71 KCAL/MOL
REMARK 922        TOTAL FREE ENERGY PREDICTED BY IDOCK:   -2.63 KCAL/MOL
REMARK 923 INTER-LIGAND FREE ENERGY PREDICTED BY IDOCK:   -3.05 KCAL/MOL
REMARK 924 INTRA-LIGAND FREE ENERGY PREDICTED BY IDOCK:    0.41 KCAL/MOL
REMARK 927      BINDING AFFINITY PREDICTED BY RF-SCORE:    0.00 PKD
ROOT
HETATM    1  O   UNL     1     -10.862   9.672  71.222  1.00  0.00    -0.350 OA 
HETATM    2  C   UNL     1      -9.991   8.904  72.058  1.00  0.00    -0.268 C  
HETATM    3  H   UNL     1     -10.480  10.535  71.113  1.00  0.00     0.000 HD 
ENDROOT
BRANCH   2   4
HETATM    4  C   UNL     1     -10.606   7.512  72.235  1.00  0.00    -0.236 C  
HETATM    5  O   UNL     1     -11.095   7.378  73.584  1.00  0.00    -0.576 OA 
HETATM    6  H   UNL     1     -11.477   6.515  73.694  1.00  0.00     0.000 HD 
BRANCH   4   7
HETATM    7  C   UNL     1     -11.737   7.250  71.223  1.00  0.00    -0.296 C  
HETATM    8  H   UNL     1     -13.565   6.535  71.292  1.00  0.00     0.000 HD 
HETATM    9  O   UNL     1     -12.868   6.696  71.916  1.00  0.00    -0.328 OA 
BRANCH   7  10
HETATM   10  C   UNL     1     -11.270   6.313  70.088  1.00  0.00    -0.403 C  
HETATM   11  C   UNL     1     -10.497   5.134  70.651  1.00  0.00    -0.199 C  
HETATM   12  O   UNL     1     -10.439   6.961  69.129  1.00  0.00    -0.190 OA 
HETATM   13  O   UNL     1     -10.349   4.914  71.852  1.00  0.00    -0.200 OA 
HETATM   14  H   UNL     1     -10.152   6.385  68.431  1.00  0.00     0.000 HD 
ENDBRANCH   7  10
ENDBRANCH   4   7
ENDBRANCH   2   4
TORSDOF 3
ENDMDL
MODEL      219
REMARK 921   NORMALIZED FREE ENERGY PREDICTED BY IDOCK:   -1.71 KCAL/MOL
REMARK 922        TOTAL FREE ENERGY PREDICTED BY IDOCK:   -2.63 KCAL/MOL
REMARK 923 INTER-LIGAND FREE ENERGY PREDICTED BY IDOCK:   -2.30 KCAL/MOL
REMARK 924 INTRA-LIGAND FREE ENERGY PREDICTED BY IDOCK:   -0.34 KCAL/MOL
REMARK 927      BINDING AFFINITY PREDICTED BY RF-SCORE:    0.00 PKD
ROOT
HETATM    1  O   UNL     1      -8.973   8.194  67.498  1.00  0.00    -0.136 OA 
HETATM    2  C   UNL     1      -9.077   8.755  68.810  1.00  0.00    -0.138 C  
HETATM    3  H   UNL     1      -8.092   8.351  67.179  1.00  0.00     0.000 HD 
ENDROOT
BRANCH   2   4
HETATM    4  C   UNL     1     -10.498   8.502  69.325  1.00  0.00    -0.215 C  
HETATM    5  O   UNL     1     -10.993   7.272  68.763  1.00  0.00    -0.408 OA 
HETATM    6  H   UNL     1     -11.874   7.115  69.082  1.00  0.00     0.000 HD 
BRANCH   4   7
HETATM    7  C   UNL     1     -10.552   8.454  70.862  1.00  0.00    -0.204 C  
HETATM    8  H   UNL     1     -10.952   9.722  72.309  1.00  0.00     0.000 HD 
HETATM    9  O   UNL     1     -10.918   9.751  71.360  1.00  0.00    -0.342 OA 
BRANCH   7  10
HETATM   10  C   UNL     1      -9.205   7.992  71.459  1.00  0.00    -0.147 C  
HETATM   11  C   UNL     1      -9.219   6.496  71.717  1.00  0.00    -0.149 C  
HETATM   12  O   UNL     1      -8.878   8.643  72.684  1.00  0.00    -0.371 OA 
HETATM   13  O   UNL     1     -10.145   5.749  71.404  1.00  0.00    -0.186 OA 
HETATM   14  H   UNL     1      -8.049   8.359  73.050  1.00  0.00     0.000 HD 
ENDBRANCH   7  10
ENDBRANCH   4   7
ENDBRANCH   2   4
TORSDOF 3
ENDMDL
MODEL      220
REMARK 921   NORMALIZED FREE ENERGY PREDICTED BY IDOCK:   -1.69 KCAL/MOL
REMARK 922        TOTAL FREE ENERGY PREDICTED BY IDOCK:   -2.62 KCAL/MOL
REMARK 923 INTER-LIGAND FREE ENERGY PREDICTED BY IDOCK:   -2.15 KCAL/MOL
REMARK 924 INTRA-LIGAND FREE ENERGY PREDICTED BY IDOCK:   -0.47 KCAL/MOL
REMARK 927      BINDING AFFINITY PREDICTED BY RF-SCORE:    0.00 PKD
ROOT
HETATM    1  O   UNL     1      -8.047   9.020  67.010  1.00  0.00    -0.104 OA 
HETATM    2  C   UNL     1      -9.350   8.464  66.814  1.00  0.00    -0.184 C  
HETATM    3  H   UNL     1      -7.766   9.411  66.191  1.00  0.00     0.000 HD 
ENDROOT
BRANCH   2   4
HETATM    4  C   UNL     1      -9.803   7.832  68.134  1.00  0.00    -0.167 C  
HETATM    5  O   UNL     1      -8.713   7.077  68.695  1.00  0.00    -0.124 OA 
HETATM    6  H   UNL     1      -8.993   6.685  69.514  1.00  0.00     0.000 HD 
BRANCH   4   7
HETATM    7  C   UNL     1     -10.298   8.890  69.137  1.00  0.00    -0.220 C  
HETATM    8  H   UNL     1     -10.535  10.840  69.141  1.00  0.00     0.000 HD 
HETATM    9  O   UNL     1     -10.229  10.187  68.522  1.00  0.00    -0.161 OA 
BRANCH   7  10
HETATM   10  C   UNL     1      -9.480   8.852  70.445  1.00  0.00    -0.195 C  
HETATM   11  C   UNL     1     -10.392   8.995  71.651  1.00  0.00    -0.350 C  
HETATM   12  O   UNL     1      -8.492   9.877  70.522  1.00  0.00    -0.338 OA 
HETATM   13  O   UNL     1     -11.620   9.040  71.587  1.00  0.00    -0.307 OA 
HETATM   14  H   UNL     1      -7.989   9.853  71.328  1.00  0.00     0.000 HD 
ENDBRANCH   7  10
ENDBRANCH   4   7
ENDBRANCH   2   4
TORSDOF 3
ENDMDL
MODEL      221
REMARK 921   NORMALIZED FREE ENERGY PREDICTED BY IDOCK:   -1.67 KCAL/MOL
REMARK 922        TOTAL FREE ENERGY PREDICTED BY IDOCK:   -2.59 KCAL/MOL
REMARK 923 INTER-LIGAND FREE ENERGY PREDICTED BY IDOCK:   -3.22 KCAL/MOL
REMARK 924 INTRA-LIGAND FREE ENERGY PREDICTED BY IDOCK:    0.63 KCAL/MOL
REMARK 927      BINDING AFFINITY PREDICTED BY RF-SCORE:    0.00 PKD
ROOT
HETATM    1  O   UNL     1     -12.116   7.354  72.861  1.00  0.00    -0.542 OA 
HETATM    2  C   UNL     1     -11.340   8.411  72.290  1.00  0.00    -0.378 C  
HETATM    3  H   UNL     1     -12.018   7.392  73.805  1.00  0.00     0.000 HD 
ENDROOT
BRANCH   2   4
HETATM    4  C   UNL     1     -11.498   8.348  70.767  1.00  0.00    -0.255 C  
HETATM    5  O   UNL     1     -12.297   9.463  70.328  1.00  0.00    -0.465 OA 
HETATM    6  H   UNL     1     -12.395   9.424  69.384  1.00  0.00     0.000 HD 
BRANCH   4   7
HETATM    7  C   UNL     1     -10.137   8.343  70.048  1.00  0.00    -0.192 C  
HETATM    8  H   UNL     1      -8.783   9.682  69.563  1.00  0.00     0.000 HD 
HETATM    9  O   UNL     1      -9.623   9.685  70.007  1.00  0.00    -0.214 OA 
BRANCH   7  10
HETATM   10  C   UNL     1     -10.253   7.751  68.627  1.00  0.00    -0.201 C  
HETATM   11  C   UNL     1     -10.660   8.822  67.632  1.00  0.00    -0.213 C  
HETATM   12  O   UNL     1     -11.197   6.688  68.535  1.00  0.00    -0.505 OA 
HETATM   13  O   UNL     1     -10.787  10.013  67.912  1.00  0.00    -0.253 OA 
HETATM   14  H   UNL     1     -11.268   6.323  67.661  1.00  0.00     0.000 HD 
ENDBRANCH   7  10
ENDBRANCH   4   7
ENDBRANCH   2   4
TORSDOF 3
ENDMDL
MODEL      222
REMARK 921   NORMALIZED FREE ENERGY PREDICTED BY IDOCK:   -1.66 KCAL/MOL
REMARK 922        TOTAL FREE ENERGY PREDICTED BY IDOCK:   -2.57 KCAL/MOL
REMARK 923 INTER-LIGAND FREE ENERGY PREDICTED BY IDOCK:   -2.28 KCAL/MOL
REMARK 924 INTRA-LIGAND FREE ENERGY PREDICTED BY IDOCK:   -0.30 KCAL/MOL
REMARK 927      BINDING AFFINITY PREDICTED BY RF-SCORE:    0.00 PKD
ROOT
HETATM    1  O   UNL     1      -9.302   8.027  66.855  1.00  0.00    -0.145 OA 
HETATM    2  C   UNL     1      -9.467   7.770  68.252  1.00  0.00    -0.147 C  
HETATM    3  H   UNL     1      -8.458   8.445  66.729  1.00  0.00     0.000 HD 
ENDROOT
BRANCH   2   4
HETATM    4  C   UNL     1     -10.828   7.097  68.456  1.00  0.00    -0.095 C  
HETATM    5  O   UNL     1     -11.426   6.840  67.171  1.00  0.00    -0.756 OA 
HETATM    6  H   UNL     1     -12.270   6.423  67.297  1.00  0.00     0.000 HD 
BRANCH   4   7
HETATM    7  C   UNL     1     -10.709   5.793  69.266  1.00  0.00    -0.316 C  
HETATM    8  H   UNL     1     -11.047   5.238  71.120  1.00  0.00     0.000 HD 
HETATM    9  O   UNL     1     -11.120   6.043  70.620  1.00  0.00    -0.302 OA 
BRANCH   7  10
HETATM   10  C   UNL     1      -9.272   5.230  69.218  1.00  0.00    -0.114 C  
HETATM   11  C   UNL     1      -9.097   4.312  68.022  1.00  0.00    -0.131 C  
HETATM   12  O   UNL     1      -8.915   4.496  70.387  1.00  0.00    -0.087 OA 
HETATM   13  O   UNL     1      -9.957   4.123  67.163  1.00  0.00    -0.184 OA 
HETATM   14  H   UNL     1      -8.032   4.150  70.357  1.00  0.00     0.000 HD 
ENDBRANCH   7  10
ENDBRANCH   4   7
ENDBRANCH   2   4
TORSDOF 3
ENDMDL
MODEL      223
REMARK 921   NORMALIZED FREE ENERGY PREDICTED BY IDOCK:   -1.65 KCAL/MOL
REMARK 922        TOTAL FREE ENERGY PREDICTED BY IDOCK:   -2.56 KCAL/MOL
REMARK 923 INTER-LIGAND FREE ENERGY PREDICTED BY IDOCK:   -2.44 KCAL/MOL
REMARK 924 INTRA-LIGAND FREE ENERGY PREDICTED BY IDOCK:   -0.12 KCAL/MOL
REMARK 927      BINDING AFFINITY PREDICTED BY RF-SCORE:    0.00 PKD
ROOT
HETATM    1  O   UNL     1      -6.502  10.021  67.778  1.00  0.00    -0.065 OA 
HETATM    2  C   UNL     1      -7.397  10.959  67.173  1.00  0.00    -0.105 C  
HETATM    3  H   UNL     1      -5.951   9.655  67.096  1.00  0.00     0.000 HD 
ENDROOT
BRANCH   2   4
HETATM    4  C   UNL     1      -8.285  11.549  68.273  1.00  0.00    -0.152 C  
HETATM    5  O   UNL     1      -7.476  12.348  69.156  1.00  0.00    -0.314 OA 
HETATM    6  H   UNL     1      -8.027  12.714  69.838  1.00  0.00     0.000 HD 
BRANCH   4   7
HETATM    7  C   UNL     1      -9.439  12.386  67.692  1.00  0.00    -0.190 C  
HETATM    8  H   UNL     1      -9.633  14.161  66.874  1.00  0.00     0.000 HD 
HETATM    9  O   UNL     1      -8.921  13.645  67.233  1.00  0.00    -0.204 OA 
BRANCH   7  10
HETATM   10  C   UNL     1     -10.561  12.594  68.731  1.00  0.00    -0.186 C  
HETATM   11  C   UNL     1     -11.925  12.398  68.094  1.00  0.00    -0.214 C  
HETATM   12  O   UNL     1     -10.542  13.888  69.330  1.00  0.00    -0.407 OA 
HETATM   13  O   UNL     1     -12.099  12.032  66.932  1.00  0.00    -0.608 OA 
HETATM   14  H   UNL     1     -11.232  14.016  69.969  1.00  0.00     0.000 HD 
ENDBRANCH   7  10
ENDBRANCH   4   7
ENDBRANCH   2   4
TORSDOF 3
ENDMDL
MODEL      224
REMARK 921   NORMALIZED FREE ENERGY PREDICTED BY IDOCK:   -1.64 KCAL/MOL
REMARK 922        TOTAL FREE ENERGY PREDICTED BY IDOCK:   -2.56 KCAL/MOL
REMARK 923 INTER-LIGAND FREE ENERGY PREDICTED BY IDOCK:   -2.14 KCAL/MOL
REMARK 924 INTRA-LIGAND FREE ENERGY PREDICTED BY IDOCK:   -0.41 KCAL/MOL
REMARK 927      BINDING AFFINITY PREDICTED BY RF-SCORE:    0.00 PKD
ROOT
HETATM    1  O   UNL     1      -8.926   9.099  69.367  1.00  0.00    -0.139 OA 
HETATM    2  C   UNL     1     -10.306   8.728  69.435  1.00  0.00    -0.214 C  
HETATM    3  H   UNL     1      -8.856  10.018  69.598  1.00  0.00     0.000 HD 
ENDROOT
BRANCH   2   4
HETATM    4  C   UNL     1     -10.419   7.246  69.062  1.00  0.00    -0.211 C  
HETATM    5  O   UNL     1     -11.767   6.799  69.303  1.00  0.00    -0.618 OA 
HETATM    6  H   UNL     1     -11.837   5.881  69.072  1.00  0.00     0.000 HD 
BRANCH   4   7
HETATM    7  C   UNL     1     -10.019   6.989  67.598  1.00  0.00    -0.154 C  
HETATM    8  H   UNL     1     -10.940   6.449  65.949  1.00  0.00     0.000 HD 
HETATM    9  O   UNL     1     -11.187   6.608  66.853  1.00  0.00    -0.391 OA 
BRANCH   7  10
HETATM   10  C   UNL     1      -8.919   5.911  67.496  1.00  0.00    -0.107 C  
HETATM   11  C   UNL     1      -7.560   6.551  67.279  1.00  0.00    -0.096 C  
HETATM   12  O   UNL     1      -9.137   4.982  66.437  1.00  0.00    -0.123 OA 
HETATM   13  O   UNL     1      -7.360   7.765  67.280  1.00  0.00    -0.087 OA 
HETATM   14  H   UNL     1      -8.460   4.319  66.375  1.00  0.00     0.000 HD 
ENDBRANCH   7  10
ENDBRANCH   4   7
ENDBRANCH   2   4
TORSDOF 3
ENDMDL
MODEL      225
REMARK 921   NORMALIZED FREE ENERGY PREDICTED BY IDOCK:   -1.64 KCAL/MOL
REMARK 922        TOTAL FREE ENERGY PREDICTED BY IDOCK:   -2.55 KCAL/MOL
REMARK 923 INTER-LIGAND FREE ENERGY PREDICTED BY IDOCK:   -2.31 KCAL/MOL
REMARK 924 INTRA-LIGAND FREE ENERGY PREDICTED BY IDOCK:   -0.25 KCAL/MOL
REMARK 927      BINDING AFFINITY PREDICTED BY RF-SCORE:    0.00 PKD
ROOT
HETATM    1  O   UNL     1     -12.060   6.604  72.246  1.00  0.00    -0.446 OA 
HETATM    2  C   UNL     1     -11.018   7.359  71.619  1.00  0.00    -0.225 C  
HETATM    3  H   UNL     1     -11.946   6.669  73.187  1.00  0.00     0.000 HD 
ENDROOT
BRANCH   2   4
HETATM    4  C   UNL     1     -11.201   7.254  70.102  1.00  0.00    -0.239 C  
HETATM    5  O   UNL     1     -11.152   8.574  69.527  1.00  0.00    -0.422 OA 
HETATM    6  H   UNL     1     -11.265   8.509  68.586  1.00  0.00     0.000 HD 
BRANCH   4   7
HETATM    7  C   UNL     1     -10.140   6.344  69.457  1.00  0.00    -0.170 C  
HETATM    8  H   UNL     1      -8.192   6.394  69.205  1.00  0.00     0.000 HD 
HETATM    9  O   UNL     1      -8.847   6.955  69.603  1.00  0.00    -0.140 OA 
BRANCH   7  10
HETATM   10  C   UNL     1     -10.459   6.073  67.971  1.00  0.00    -0.233 C  
HETATM   11  C   UNL     1     -10.027   4.672  67.578  1.00  0.00    -0.121 C  
HETATM   12  O   UNL     1      -9.827   6.990  67.082  1.00  0.00    -0.151 OA 
HETATM   13  O   UNL     1      -9.572   3.843  68.364  1.00  0.00    -0.162 OA 
HETATM   14  H   UNL     1     -10.023   6.823  66.168  1.00  0.00     0.000 HD 
ENDBRANCH   7  10
ENDBRANCH   4   7
ENDBRANCH   2   4
TORSDOF 3
ENDMDL
MODEL      226
REMARK 921   NORMALIZED FREE ENERGY PREDICTED BY IDOCK:   -1.63 KCAL/MOL
REMARK 922        TOTAL FREE ENERGY PREDICTED BY IDOCK:   -2.55 KCAL/MOL
REMARK 923 INTER-LIGAND FREE ENERGY PREDICTED BY IDOCK:   -2.10 KCAL/MOL
REMARK 924 INTRA-LIGAND FREE ENERGY PREDICTED BY IDOCK:   -0.44 KCAL/MOL
REMARK 927      BINDING AFFINITY PREDICTED BY RF-SCORE:    0.00 PKD
ROOT
HETATM    1  O   UNL     1      -9.928   5.004  67.678  1.00  0.00    -0.161 OA 
HETATM    2  C   UNL     1     -10.461   6.233  67.177  1.00  0.00    -0.263 C  
HETATM    3  H   UNL     1      -9.714   4.450  66.936  1.00  0.00     0.000 HD 
ENDROOT
BRANCH   2   4
HETATM    4  C   UNL     1     -10.806   7.126  68.374  1.00  0.00    -0.097 C  
HETATM    5  O   UNL     1     -11.744   6.438  69.222  1.00  0.00    -0.608 OA 
HETATM    6  H   UNL     1     -11.958   6.991  69.964  1.00  0.00     0.000 HD 
BRANCH   4   7
HETATM    7  C   UNL     1      -9.552   7.528  69.171  1.00  0.00    -0.157 C  
HETATM    8  H   UNL     1      -8.305   6.636  70.400  1.00  0.00     0.000 HD 
HETATM    9  O   UNL     1      -9.079   6.388  69.908  1.00  0.00    -0.141 OA 
BRANCH   7  10
HETATM   10  C   UNL     1      -9.841   8.716  70.114  1.00  0.00    -0.180 C  
HETATM   11  C   UNL     1      -8.559   9.455  70.452  1.00  0.00    -0.230 C  
HETATM   12  O   UNL     1     -10.456   8.326  71.339  1.00  0.00    -0.205 OA 
HETATM   13  O   UNL     1      -7.461   9.194  69.963  1.00  0.00    -0.060 OA 
HETATM   14  H   UNL     1     -10.634   9.057  71.919  1.00  0.00     0.000 HD 
ENDBRANCH   7  10
ENDBRANCH   4   7
ENDBRANCH   2   4
TORSDOF 3
ENDMDL
MODEL      227
REMARK 921   NORMALIZED FREE ENERGY PREDICTED BY IDOCK:   -1.62 KCAL/MOL
REMARK 922        TOTAL FREE ENERGY PREDICTED BY IDOCK:   -2.52 KCAL/MOL
REMARK 923 INTER-LIGAND FREE ENERGY PREDICTED BY IDOCK:   -2.38 KCAL/MOL
REMARK 924 INTRA-LIGAND FREE ENERGY PREDICTED BY IDOCK:   -0.15 KCAL/MOL
REMARK 927      BINDING AFFINITY PREDICTED BY RF-SCORE:    0.00 PKD
ROOT
HETATM    1  O   UNL     1      -7.678  10.413  68.776  1.00  0.00    -0.090 OA 
HETATM    2  C   UNL     1      -7.265  11.244  67.687  1.00  0.00    -0.092 C  
HETATM    3  H   UNL     1      -7.378  10.814  69.583  1.00  0.00     0.000 HD 
ENDROOT
BRANCH   2   4
HETATM    4  C   UNL     1      -7.749  10.598  66.384  1.00  0.00    -0.141 C  
HETATM    5  O   UNL     1      -7.210   9.267  66.288  1.00  0.00    -0.086 OA 
HETATM    6  H   UNL     1      -7.509   8.866  65.481  1.00  0.00     0.000 HD 
BRANCH   4   7
HETATM    7  C   UNL     1      -9.286  10.566  66.295  1.00  0.00    -0.168 C  
HETATM    8  H   UNL     1     -10.621   9.767  65.095  1.00  0.00     0.000 HD 
HETATM    9  O   UNL     1      -9.672   9.788  65.150  1.00  0.00    -0.294 OA 
BRANCH   7  10
HETATM   10  C   UNL     1      -9.875  11.991  66.221  1.00  0.00    -0.231 C  
HETATM   11  C   UNL     1     -11.232  12.044  66.898  1.00  0.00    -0.320 C  
HETATM   12  O   UNL     1     -10.034  12.466  64.887  1.00  0.00    -0.381 OA 
HETATM   13  O   UNL     1     -11.742  11.101  67.501  1.00  0.00    -0.574 OA 
HETATM   14  H   UNL     1     -10.397  13.343  64.841  1.00  0.00     0.000 HD 
ENDBRANCH   7  10
ENDBRANCH   4   7
ENDBRANCH   2   4
TORSDOF 3
ENDMDL
MODEL      228
REMARK 921   NORMALIZED FREE ENERGY PREDICTED BY IDOCK:   -1.60 KCAL/MOL
REMARK 922        TOTAL FREE ENERGY PREDICTED BY IDOCK:   -2.50 KCAL/MOL
REMARK 923 INTER-LIGAND FREE ENERGY PREDICTED BY IDOCK:   -2.37 KCAL/MOL
REMARK 924 INTRA-LIGAND FREE ENERGY PREDICTED BY IDOCK:   -0.13 KCAL/MOL
REMARK 927      BINDING AFFINITY PREDICTED BY RF-SCORE:    0.00 PKD
ROOT
HETATM    1  O   UNL     1     -11.980   6.705  69.802  1.00  0.00    -0.654 OA 
HETATM    2  C   UNL     1     -10.703   6.890  69.186  1.00  0.00    -0.234 C  
HETATM    3  H   UNL     1     -12.049   5.796  70.072  1.00  0.00     0.000 HD 
ENDROOT
BRANCH   2   4
HETATM    4  C   UNL     1     -10.592   8.355  68.750  1.00  0.00    -0.125 C  
HETATM    5  O   UNL     1     -11.259   9.188  69.717  1.00  0.00    -0.391 OA 
HETATM    6  H   UNL     1     -11.190  10.096  69.447  1.00  0.00     0.000 HD 
BRANCH   4   7
HETATM    7  C   UNL     1      -9.126   8.794  68.578  1.00  0.00    -0.138 C  
HETATM    8  H   UNL     1      -7.436   8.502  69.537  1.00  0.00     0.000 HD 
HETATM    9  O   UNL     1      -8.341   8.232  69.642  1.00  0.00    -0.120 OA 
BRANCH   7  10
HETATM   10  C   UNL     1      -8.999  10.332  68.549  1.00  0.00    -0.134 C  
HETATM   11  C   UNL     1      -8.619  10.811  67.160  1.00  0.00    -0.128 C  
HETATM   12  O   UNL     1      -8.030  10.835  69.465  1.00  0.00    -0.323 OA 
HETATM   13  O   UNL     1      -8.519  10.076  66.178  1.00  0.00    -0.123 OA 
HETATM   14  H   UNL     1      -7.952  11.781  69.446  1.00  0.00     0.000 HD 
ENDBRANCH   7  10
ENDBRANCH   4   7
ENDBRANCH   2   4
TORSDOF 3
ENDMDL
MODEL      229
REMARK 921   NORMALIZED FREE ENERGY PREDICTED BY IDOCK:   -1.59 KCAL/MOL
REMARK 922        TOTAL FREE ENERGY PREDICTED BY IDOCK:   -2.49 KCAL/MOL
REMARK 923 INTER-LIGAND FREE ENERGY PREDICTED BY IDOCK:   -2.39 KCAL/MOL
REMARK 924 INTRA-LIGAND FREE ENERGY PREDICTED BY IDOCK:   -0.10 KCAL/MOL
REMARK 927      BINDING AFFINITY PREDICTED BY RF-SCORE:    0.00 PKD
ROOT
HETATM    1  O   UNL     1      -8.192   8.551  73.480  1.00  0.00    -0.381 OA 
HETATM    2  C   UNL     1      -7.650   8.418  72.163  1.00  0.00    -0.113 C  
HETATM    3  H   UNL     1      -7.524   8.288  74.102  1.00  0.00     0.000 HD 
ENDROOT
BRANCH   2   4
HETATM    4  C   UNL     1      -8.728   8.841  71.160  1.00  0.00    -0.212 C  
HETATM    5  O   UNL     1      -8.360  10.103  70.573  1.00  0.00    -0.379 OA 
HETATM    6  H   UNL     1      -9.028  10.366  69.951  1.00  0.00     0.000 HD 
BRANCH   4   7
HETATM    7  C   UNL     1      -8.943   7.780  70.066  1.00  0.00    -0.142 C  
HETATM    8  H   UNL     1      -8.680   7.672  68.122  1.00  0.00     0.000 HD 
HETATM    9  O   UNL     1      -8.547   8.327  68.797  1.00  0.00    -0.131 OA 
BRANCH   7  10
HETATM   10  C   UNL     1     -10.410   7.299  70.028  1.00  0.00    -0.213 C  
HETATM   11  C   UNL     1     -10.491   5.866  69.535  1.00  0.00    -0.278 C  
HETATM   12  O   UNL     1     -11.243   8.096  69.191  1.00  0.00    -0.423 OA 
HETATM   13  O   UNL     1      -9.511   5.162  69.290  1.00  0.00    -0.122 OA 
HETATM   14  H   UNL     1     -12.145   7.800  69.168  1.00  0.00     0.000 HD 
ENDBRANCH   7  10
ENDBRANCH   4   7
ENDBRANCH   2   4
TORSDOF 3
ENDMDL
MODEL      230
REMARK 921   NORMALIZED FREE ENERGY PREDICTED BY IDOCK:   -1.59 KCAL/MOL
REMARK 922        TOTAL FREE ENERGY PREDICTED BY IDOCK:   -2.49 KCAL/MOL
REMARK 923 INTER-LIGAND FREE ENERGY PREDICTED BY IDOCK:   -1.77 KCAL/MOL
REMARK 924 INTRA-LIGAND FREE ENERGY PREDICTED BY IDOCK:   -0.72 KCAL/MOL
REMARK 927      BINDING AFFINITY PREDICTED BY RF-SCORE:    0.00 PKD
ROOT
HETATM    1  O   UNL     1      -9.175   8.146  67.111  1.00  0.00    -0.137 OA 
HETATM    2  C   UNL     1      -9.434   8.187  68.517  1.00  0.00    -0.143 C  
HETATM    3  H   UNL     1      -8.670   8.916  66.881  1.00  0.00     0.000 HD 
ENDROOT
BRANCH   2   4
HETATM    4  C   UNL     1     -10.250   6.945  68.889  1.00  0.00    -0.177 C  
HETATM    5  O   UNL     1     -11.321   6.782  67.941  1.00  0.00    -0.560 OA 
HETATM    6  H   UNL     1     -11.827   6.011  68.171  1.00  0.00     0.000 HD 
BRANCH   4   7
HETATM    7  C   UNL     1      -9.376   5.678  68.940  1.00  0.00    -0.120 C  
HETATM    8  H   UNL     1      -7.452   5.281  68.956  1.00  0.00     0.000 HD 
HETATM    9  O   UNL     1      -7.992   6.062  68.924  1.00  0.00    -0.098 OA 
BRANCH   7  10
HETATM   10  C   UNL     1      -9.700   4.724  67.770  1.00  0.00    -0.156 C  
HETATM   11  C   UNL     1      -9.178   3.328  68.059  1.00  0.00    -0.193 C  
HETATM   12  O   UNL     1      -9.147   5.148  66.527  1.00  0.00    -0.122 OA 
HETATM   13  O   UNL     1      -8.654   2.991  69.119  1.00  0.00    -0.064 OA 
HETATM   14  H   UNL     1      -9.346   4.561  65.808  1.00  0.00     0.000 HD 
ENDBRANCH   7  10
ENDBRANCH   4   7
ENDBRANCH   2   4
TORSDOF 3
ENDMDL
MODEL      231
REMARK 921   NORMALIZED FREE ENERGY PREDICTED BY IDOCK:   -1.58 KCAL/MOL
REMARK 922        TOTAL FREE ENERGY PREDICTED BY IDOCK:   -2.49 KCAL/MOL
REMARK 923 INTER-LIGAND FREE ENERGY PREDICTED BY IDOCK:   -2.34 KCAL/MOL
REMARK 924 INTRA-LIGAND FREE ENERGY PREDICTED BY IDOCK:   -0.15 KCAL/MOL
REMARK 927      BINDING AFFINITY PREDICTED BY RF-SCORE:    0.00 PKD
ROOT
HETATM    1  O   UNL     1      -7.309  21.042  64.163  1.00  0.00    -0.213 OA 
HETATM    2  C   UNL     1      -6.846  20.485  65.396  1.00  0.00    -0.198 C  
HETATM    3  H   UNL     1      -7.198  21.984  64.204  1.00  0.00     0.000 HD 
ENDROOT
BRANCH   2   4
HETATM    4  C   UNL     1      -7.026  18.965  65.330  1.00  0.00    -0.102 C  
HETATM    5  O   UNL     1      -5.994  18.402  64.498  1.00  0.00    -0.233 OA 
HETATM    6  H   UNL     1      -6.105  17.460  64.457  1.00  0.00     0.000 HD 
BRANCH   4   7
HETATM    7  C   UNL     1      -7.002  18.322  66.729  1.00  0.00    -0.196 C  
HETATM    8  H   UNL     1      -6.679  16.527  67.460  1.00  0.00     0.000 HD 
HETATM    9  O   UNL     1      -6.694  16.924  66.597  1.00  0.00    -0.207 OA 
BRANCH   7  10
HETATM   10  C   UNL     1      -8.342  18.527  67.466  1.00  0.00    -0.257 C  
HETATM   11  C   UNL     1      -8.135  19.322  68.742  1.00  0.00    -0.356 C  
HETATM   12  O   UNL     1      -8.987  17.304  67.814  1.00  0.00    -0.229 OA 
HETATM   13  O   UNL     1      -7.060  19.812  69.085  1.00  0.00    -0.349 OA 
HETATM   14  H   UNL     1      -9.812  17.431  68.267  1.00  0.00     0.000 HD 
ENDBRANCH   7  10
ENDBRANCH   4   7
ENDBRANCH   2   4
TORSDOF 3
ENDMDL
MODEL      232
REMARK 921   NORMALIZED FREE ENERGY PREDICTED BY IDOCK:   -1.54 KCAL/MOL
REMARK 922        TOTAL FREE ENERGY PREDICTED BY IDOCK:   -2.43 KCAL/MOL
REMARK 923 INTER-LIGAND FREE ENERGY PREDICTED BY IDOCK:   -2.12 KCAL/MOL
REMARK 924 INTRA-LIGAND FREE ENERGY PREDICTED BY IDOCK:   -0.31 KCAL/MOL
REMARK 927      BINDING AFFINITY PREDICTED BY RF-SCORE:    0.00 PKD
ROOT
HETATM    1  O   UNL     1      -8.821   3.651  66.006  1.00  0.00    -0.116 OA 
HETATM    2  C   UNL     1      -9.952   4.404  66.454  1.00  0.00    -0.232 C  
HETATM    3  H   UNL     1      -8.955   3.432  65.092  1.00  0.00     0.000 HD 
ENDROOT
BRANCH   2   4
HETATM    4  C   UNL     1      -9.736   4.758  67.929  1.00  0.00    -0.149 C  
HETATM    5  O   UNL     1      -8.358   5.124  68.131  1.00  0.00    -0.097 OA 
HETATM    6  H   UNL     1      -8.224   5.343  69.045  1.00  0.00     0.000 HD 
BRANCH   4   7
HETATM    7  C   UNL     1     -10.669   5.892  68.391  1.00  0.00    -0.250 C  
HETATM    8  H   UNL     1     -11.730   7.298  67.522  1.00  0.00     0.000 HD 
HETATM    9  O   UNL     1     -11.154   6.599  67.237  1.00  0.00    -0.370 OA 
BRANCH   7  10
HETATM   10  C   UNL     1      -9.952   6.849  69.366  1.00  0.00    -0.160 C  
HETATM   11  C   UNL     1     -10.912   7.347  70.431  1.00  0.00    -0.251 C  
HETATM   12  O   UNL     1      -9.384   7.988  68.724  1.00  0.00    -0.147 OA 
HETATM   13  O   UNL     1     -12.075   6.962  70.547  1.00  0.00    -0.353 OA 
HETATM   14  H   UNL     1      -8.943   8.576  69.324  1.00  0.00     0.000 HD 
ENDBRANCH   7  10
ENDBRANCH   4   7
ENDBRANCH   2   4
TORSDOF 3
ENDMDL
MODEL      233
REMARK 921   NORMALIZED FREE ENERGY PREDICTED BY IDOCK:   -1.52 KCAL/MOL
REMARK 922        TOTAL FREE ENERGY PREDICTED BY IDOCK:   -2.41 KCAL/MOL
REMARK 923 INTER-LIGAND FREE ENERGY PREDICTED BY IDOCK:   -2.07 KCAL/MOL
REMARK 924 INTRA-LIGAND FREE ENERGY PREDICTED BY IDOCK:   -0.34 KCAL/MOL
REMARK 927      BINDING AFFINITY PREDICTED BY RF-SCORE:    0.00 PKD
ROOT
HETATM    1  O   UNL     1      -7.404  10.345  70.576  1.00  0.00    -0.449 OA 
HETATM    2  C   UNL     1      -8.311   9.249  70.428  1.00  0.00    -0.199 C  
HETATM    3  H   UNL     1      -7.563  10.748  71.422  1.00  0.00     0.000 HD 
ENDROOT
BRANCH   2   4
HETATM    4  C   UNL     1      -8.055   8.600  69.064  1.00  0.00    -0.121 C  
HETATM    5  O   UNL     1      -6.885   7.765  69.150  1.00  0.00    -0.047 OA 
HETATM    6  H   UNL     1      -6.726   7.362  68.304  1.00  0.00     0.000 HD 
BRANCH   4   7
HETATM    7  C   UNL     1      -9.267   7.783  68.580  1.00  0.00    -0.138 C  
HETATM    8  H   UNL     1     -10.882   8.135  67.518  1.00  0.00     0.000 HD 
HETATM    9  O   UNL     1     -10.134   8.638  67.817  1.00  0.00    -0.186 OA 
BRANCH   7  10
HETATM   10  C   UNL     1     -10.022   7.142  69.764  1.00  0.00    -0.178 C  
HETATM   11  C   UNL     1      -9.546   5.719  69.995  1.00  0.00    -0.164 C  
HETATM   12  O   UNL     1     -11.435   7.104  69.577  1.00  0.00    -0.497 OA 
HETATM   13  O   UNL     1      -8.621   5.191  69.379  1.00  0.00    -0.095 OA 
HETATM   14  H   UNL     1     -11.899   6.709  70.305  1.00  0.00     0.000 HD 
ENDBRANCH   7  10
ENDBRANCH   4   7
ENDBRANCH   2   4
TORSDOF 3
ENDMDL
MODEL      234
REMARK 921   NORMALIZED FREE ENERGY PREDICTED BY IDOCK:   -1.52 KCAL/MOL
REMARK 922        TOTAL FREE ENERGY PREDICTED BY IDOCK:   -2.41 KCAL/MOL
REMARK 923 INTER-LIGAND FREE ENERGY PREDICTED BY IDOCK:   -2.11 KCAL/MOL
REMARK 924 INTRA-LIGAND FREE ENERGY PREDICTED BY IDOCK:   -0.30 KCAL/MOL
REMARK 927      BINDING AFFINITY PREDICTED BY RF-SCORE:    0.00 PKD
ROOT
HETATM    1  O   UNL     1     -10.447   7.883  67.878  1.00  0.00    -0.233 OA 
HETATM    2  C   UNL     1     -10.739   8.649  66.706  1.00  0.00    -0.015 C  
HETATM    3  H   UNL     1     -10.844   7.026  67.777  1.00  0.00     0.000 HD 
ENDROOT
BRANCH   2   4
HETATM    4  C   UNL     1     -10.098  10.032  66.870  1.00  0.00    -0.229 C  
HETATM    5  O   UNL     1      -8.963   9.926  67.750  1.00  0.00    -0.131 OA 
HETATM    6  H   UNL     1      -8.566  10.783  67.851  1.00  0.00     0.000 HD 
BRANCH   4   7
HETATM    7  C   UNL     1      -9.678  10.633  65.516  1.00  0.00    -0.237 C  
HETATM    8  H   UNL     1     -10.569  11.595  64.053  1.00  0.00     0.000 HD 
HETATM    9  O   UNL     1     -10.828  11.224  64.888  1.00  0.00    -0.291 OA 
BRANCH   7  10
HETATM   10  C   UNL     1      -9.033   9.569  64.603  1.00  0.00    -0.221 C  
HETATM   11  C   UNL     1      -7.522   9.720  64.589  1.00  0.00    -0.134 C  
HETATM   12  O   UNL     1      -9.490   9.632  63.254  1.00  0.00    -0.496 OA 
HETATM   13  O   UNL     1      -6.901  10.523  65.285  1.00  0.00    -0.123 OA 
HETATM   14  H   UNL     1      -9.093   8.977  62.693  1.00  0.00     0.000 HD 
ENDBRANCH   7  10
ENDBRANCH   4   7
ENDBRANCH   2   4
TORSDOF 3
ENDMDL
MODEL      235
REMARK 921   NORMALIZED FREE ENERGY PREDICTED BY IDOCK:   -1.51 KCAL/MOL
REMARK 922        TOTAL FREE ENERGY PREDICTED BY IDOCK:   -2.40 KCAL/MOL
REMARK 923 INTER-LIGAND FREE ENERGY PREDICTED BY IDOCK:   -1.92 KCAL/MOL
REMARK 924 INTRA-LIGAND FREE ENERGY PREDICTED BY IDOCK:   -0.47 KCAL/MOL
REMARK 927      BINDING AFFINITY PREDICTED BY RF-SCORE:    0.00 PKD
ROOT
HETATM    1  O   UNL     1      -7.774   7.134  69.811  1.00  0.00    -0.103 OA 
HETATM    2  C   UNL     1      -8.620   8.011  70.560  1.00  0.00    -0.134 C  
HETATM    3  H   UNL     1      -6.895   7.495  69.817  1.00  0.00     0.000 HD 
ENDROOT
BRANCH   2   4
HETATM    4  C   UNL     1     -10.038   7.430  70.549  1.00  0.00    -0.191 C  
HETATM    5  O   UNL     1     -10.659   7.675  71.825  1.00  0.00    -0.210 OA 
HETATM    6  H   UNL     1     -11.538   7.315  71.819  1.00  0.00     0.000 HD 
BRANCH   4   7
HETATM    7  C   UNL     1     -10.892   8.018  69.411  1.00  0.00    -0.094 C  
HETATM    8  H   UNL     1     -11.126   7.677  67.491  1.00  0.00     0.000 HD 
HETATM    9  O   UNL     1     -10.599   7.314  68.193  1.00  0.00    -0.203 OA 
BRANCH   7  10
HETATM   10  C   UNL     1     -10.646   9.534  69.248  1.00  0.00    -0.220 C  
HETATM   11  C   UNL     1     -11.695  10.330  70.003  1.00  0.00    -0.254 C  
HETATM   12  O   UNL     1     -10.664   9.965  67.890  1.00  0.00    -0.238 OA 
HETATM   13  O   UNL     1     -12.561   9.829  70.718  1.00  0.00    -0.276 OA 
HETATM   14  H   UNL     1     -10.513  10.897  67.790  1.00  0.00     0.000 HD 
ENDBRANCH   7  10
ENDBRANCH   4   7
ENDBRANCH   2   4
TORSDOF 3
ENDMDL
MODEL      236
REMARK 921   NORMALIZED FREE ENERGY PREDICTED BY IDOCK:   -1.51 KCAL/MOL
REMARK 922        TOTAL FREE ENERGY PREDICTED BY IDOCK:   -2.40 KCAL/MOL
REMARK 923 INTER-LIGAND FREE ENERGY PREDICTED BY IDOCK:   -2.12 KCAL/MOL
REMARK 924 INTRA-LIGAND FREE ENERGY PREDICTED BY IDOCK:   -0.27 KCAL/MOL
REMARK 927      BINDING AFFINITY PREDICTED BY RF-SCORE:    0.00 PKD
ROOT
HETATM    1  O   UNL     1      -7.043   7.942  63.921  1.00  0.00    -0.073 OA 
HETATM    2  C   UNL     1      -8.256   8.547  63.465  1.00  0.00    -0.133 C  
HETATM    3  H   UNL     1      -6.685   7.424  63.209  1.00  0.00     0.000 HD 
ENDROOT
BRANCH   2   4
HETATM    4  C   UNL     1      -8.833   9.382  64.612  1.00  0.00    -0.200 C  
HETATM    5  O   UNL     1     -10.132   9.874  64.233  1.00  0.00    -0.443 OA 
HETATM    6  H   UNL     1     -10.491  10.391  64.944  1.00  0.00     0.000 HD 
BRANCH   4   7
HETATM    7  C   UNL     1      -8.923   8.576  65.921  1.00  0.00    -0.189 C  
HETATM    8  H   UNL     1      -9.017   6.676  66.414  1.00  0.00     0.000 HD 
HETATM    9  O   UNL     1      -8.962   7.174  65.607  1.00  0.00    -0.081 OA 
BRANCH   7  10
HETATM   10  C   UNL     1     -10.153   8.992  66.755  1.00  0.00    -0.274 C  
HETATM   11  C   UNL     1      -9.722   9.604  68.076  1.00  0.00    -0.146 C  
HETATM   12  O   UNL     1     -11.031   7.907  67.044  1.00  0.00    -0.465 OA 
HETATM   13  O   UNL     1      -8.552   9.820  68.388  1.00  0.00    -0.117 OA 
HETATM   14  H   UNL     1     -11.788   8.163  67.557  1.00  0.00     0.000 HD 
ENDBRANCH   7  10
ENDBRANCH   4   7
ENDBRANCH   2   4
TORSDOF 3
ENDMDL
MODEL      237
REMARK 921   NORMALIZED FREE ENERGY PREDICTED BY IDOCK:   -1.50 KCAL/MOL
REMARK 922        TOTAL FREE ENERGY PREDICTED BY IDOCK:   -2.39 KCAL/MOL
REMARK 923 INTER-LIGAND FREE ENERGY PREDICTED BY IDOCK:   -2.06 KCAL/MOL
REMARK 924 INTRA-LIGAND FREE ENERGY PREDICTED BY IDOCK:   -0.33 KCAL/MOL
REMARK 927      BINDING AFFINITY PREDICTED BY RF-SCORE:    0.00 PKD
ROOT
HETATM    1  O   UNL     1      -6.239   7.847  68.955  1.00  0.00    -0.037 OA 
HETATM    2  C   UNL     1      -7.452   8.414  68.448  1.00  0.00    -0.095 C  
HETATM    3  H   UNL     1      -5.722   7.548  68.217  1.00  0.00     0.000 HD 
ENDROOT
BRANCH   2   4
HETATM    4  C   UNL     1      -8.286   8.897  69.639  1.00  0.00    -0.123 C  
HETATM    5  O   UNL     1      -8.171  10.328  69.748  1.00  0.00    -0.267 OA 
HETATM    6  H   UNL     1      -8.688  10.628  70.486  1.00  0.00     0.000 HD 
BRANCH   4   7
HETATM    7  C   UNL     1      -9.763   8.482  69.512  1.00  0.00    -0.176 C  
HETATM    8  H   UNL     1     -10.880   6.996  70.148  1.00  0.00     0.000 HD 
HETATM    9  O   UNL     1      -9.968   7.253  70.227  1.00  0.00    -0.187 OA 
BRANCH   7  10
HETATM   10  C   UNL     1     -10.182   8.340  68.033  1.00  0.00    -0.214 C  
HETATM   11  C   UNL     1     -10.758   9.644  67.512  1.00  0.00    -0.256 C  
HETATM   12  O   UNL     1     -11.152   7.317  67.818  1.00  0.00    -0.496 OA 
HETATM   13  O   UNL     1     -10.796  10.690  68.158  1.00  0.00    -0.206 OA 
HETATM   14  H   UNL     1     -11.409   7.230  66.908  1.00  0.00     0.000 HD 
ENDBRANCH   7  10
ENDBRANCH   4   7
ENDBRANCH   2   4
TORSDOF 3
ENDMDL
MODEL      238
REMARK 921   NORMALIZED FREE ENERGY PREDICTED BY IDOCK:   -1.50 KCAL/MOL
REMARK 922        TOTAL FREE ENERGY PREDICTED BY IDOCK:   -2.39 KCAL/MOL
REMARK 923 INTER-LIGAND FREE ENERGY PREDICTED BY IDOCK:   -2.63 KCAL/MOL
REMARK 924 INTRA-LIGAND FREE ENERGY PREDICTED BY IDOCK:    0.24 KCAL/MOL
REMARK 927      BINDING AFFINITY PREDICTED BY RF-SCORE:    0.00 PKD
ROOT
HETATM    1  O   UNL     1      -8.312   8.616  73.846  1.00  0.00    -0.349 OA 
HETATM    2  C   UNL     1      -7.887   8.187  72.550  1.00  0.00    -0.136 C  
HETATM    3  H   UNL     1      -7.538   8.817  74.360  1.00  0.00     0.000 HD 
ENDROOT
BRANCH   2   4
HETATM    4  C   UNL     1      -9.135   7.863  71.722  1.00  0.00    -0.147 C  
HETATM    5  O   UNL     1      -9.607   6.549  72.073  1.00  0.00    -0.152 OA 
HETATM    6  H   UNL     1     -10.381   6.348  71.560  1.00  0.00     0.000 HD 
BRANCH   4   7
HETATM    7  C   UNL     1     -10.246   8.909  71.924  1.00  0.00    -0.333 C  
HETATM    8  H   UNL     1     -12.106   8.898  72.556  1.00  0.00     0.000 HD 
HETATM    9  O   UNL     1     -11.420   8.253  72.431  1.00  0.00    -0.355 OA 
BRANCH   7  10
HETATM   10  C   UNL     1     -10.554   9.664  70.614  1.00  0.00    -0.319 C  
HETATM   11  C   UNL     1     -11.738  10.596  70.799  1.00  0.00    -0.335 C  
HETATM   12  O   UNL     1     -10.848   8.798  69.520  1.00  0.00    -0.319 OA 
HETATM   13  O   UNL     1     -12.307  10.786  71.873  1.00  0.00    -0.188 OA 
HETATM   14  H   UNL     1     -11.037   9.263  68.714  1.00  0.00     0.000 HD 
ENDBRANCH   7  10
ENDBRANCH   4   7
ENDBRANCH   2   4
TORSDOF 3
ENDMDL
MODEL      239
REMARK 921   NORMALIZED FREE ENERGY PREDICTED BY IDOCK:   -1.50 KCAL/MOL
REMARK 922        TOTAL FREE ENERGY PREDICTED BY IDOCK:   -2.38 KCAL/MOL
REMARK 923 INTER-LIGAND FREE ENERGY PREDICTED BY IDOCK:   -2.05 KCAL/MOL
REMARK 924 INTRA-LIGAND FREE ENERGY PREDICTED BY IDOCK:   -0.33 KCAL/MOL
REMARK 927      BINDING AFFINITY PREDICTED BY RF-SCORE:    0.00 PKD
ROOT
HETATM    1  O   UNL     1      -6.278   8.127  62.597  1.00  0.00    -0.083 OA 
HETATM    2  C   UNL     1      -7.549   8.732  62.849  1.00  0.00    -0.110 C  
HETATM    3  H   UNL     1      -6.429   7.252  62.258  1.00  0.00     0.000 HD 
ENDROOT
BRANCH   2   4
HETATM    4  C   UNL     1      -7.306  10.142  63.397  1.00  0.00    -0.132 C  
HETATM    5  O   UNL     1      -7.477  11.099  62.335  1.00  0.00    -0.400 OA 
HETATM    6  H   UNL     1      -7.327  11.973  62.675  1.00  0.00     0.000 HD 
BRANCH   4   7
HETATM    7  C   UNL     1      -8.241  10.470  64.576  1.00  0.00    -0.077 C  
HETATM    8  H   UNL     1      -8.235  10.170  66.517  1.00  0.00     0.000 HD 
HETATM    9  O   UNL     1      -7.658   9.968  65.790  1.00  0.00    -0.109 OA 
BRANCH   7  10
HETATM   10  C   UNL     1      -9.652   9.884  64.355  1.00  0.00    -0.189 C  
HETATM   11  C   UNL     1     -10.602  10.953  63.846  1.00  0.00    -0.214 C  
HETATM   12  O   UNL     1     -10.219   9.321  65.535  1.00  0.00    -0.319 OA 
HETATM   13  O   UNL     1     -10.263  12.101  63.564  1.00  0.00    -0.423 OA 
HETATM   14  H   UNL     1     -11.087   8.960  65.398  1.00  0.00     0.000 HD 
ENDBRANCH   7  10
ENDBRANCH   4   7
ENDBRANCH   2   4
TORSDOF 3
ENDMDL
MODEL      240
REMARK 921   NORMALIZED FREE ENERGY PREDICTED BY IDOCK:   -1.49 KCAL/MOL
REMARK 922        TOTAL FREE ENERGY PREDICTED BY IDOCK:   -2.38 KCAL/MOL
REMARK 923 INTER-LIGAND FREE ENERGY PREDICTED BY IDOCK:   -2.24 KCAL/MOL
REMARK 924 INTRA-LIGAND FREE ENERGY PREDICTED BY IDOCK:   -0.14 KCAL/MOL
REMARK 927      BINDING AFFINITY PREDICTED BY RF-SCORE:    0.00 PKD
ROOT
HETATM    1  O   UNL     1      -7.132   6.585  65.482  1.00  0.00    -0.061 OA 
HETATM    2  C   UNL     1      -8.087   6.079  66.419  1.00  0.00    -0.110 C  
HETATM    3  H   UNL     1      -6.771   5.849  65.002  1.00  0.00     0.000 HD 
ENDROOT
BRANCH   2   4
HETATM    4  C   UNL     1      -8.670   7.266  67.193  1.00  0.00    -0.121 C  
HETATM    5  O   UNL     1      -8.833   8.381  66.297  1.00  0.00    -0.140 OA 
HETATM    6  H   UNL     1      -9.194   9.117  66.777  1.00  0.00     0.000 HD 
BRANCH   4   7
HETATM    7  C   UNL     1     -10.009   6.912  67.864  1.00  0.00    -0.147 C  
HETATM    8  H   UNL     1     -11.882   6.745  67.294  1.00  0.00     0.000 HD 
HETATM    9  O   UNL     1     -11.055   6.963  66.880  1.00  0.00    -0.379 OA 
BRANCH   7  10
HETATM   10  C   UNL     1     -10.314   7.857  69.046  1.00  0.00    -0.214 C  
HETATM   11  C   UNL     1     -11.008   7.106  70.167  1.00  0.00    -0.267 C  
HETATM   12  O   UNL     1     -11.138   8.963  68.686  1.00  0.00    -0.444 OA 
HETATM   13  O   UNL     1     -11.212   5.893  70.164  1.00  0.00    -0.353 OA 
HETATM   14  H   UNL     1     -11.326   9.544  69.413  1.00  0.00     0.000 HD 
ENDBRANCH   7  10
ENDBRANCH   4   7
ENDBRANCH   2   4
TORSDOF 3
ENDMDL
MODEL      241
REMARK 921   NORMALIZED FREE ENERGY PREDICTED BY IDOCK:   -1.49 KCAL/MOL
REMARK 922        TOTAL FREE ENERGY PREDICTED BY IDOCK:   -2.38 KCAL/MOL
REMARK 923 INTER-LIGAND FREE ENERGY PREDICTED BY IDOCK:   -2.19 KCAL/MOL
REMARK 924 INTRA-LIGAND FREE ENERGY PREDICTED BY IDOCK:   -0.19 KCAL/MOL
REMARK 927      BINDING AFFINITY PREDICTED BY RF-SCORE:    0.00 PKD
ROOT
HETATM    1  O   UNL     1     -11.378   6.018  71.002  1.00  0.00    -0.295 OA 
HETATM    2  C   UNL     1     -11.120   6.120  69.599  1.00  0.00    -0.419 C  
HETATM    3  H   UNL     1     -12.241   6.377  71.171  1.00  0.00     0.000 HD 
ENDROOT
BRANCH   2   4
HETATM    4  C   UNL     1      -9.728   5.541  69.327  1.00  0.00    -0.159 C  
HETATM    5  O   UNL     1      -9.844   4.127  69.080  1.00  0.00    -0.167 OA 
HETATM    6  H   UNL     1      -8.981   3.767  68.911  1.00  0.00     0.000 HD 
BRANCH   4   7
HETATM    7  C   UNL     1      -9.036   6.240  68.143  1.00  0.00    -0.115 C  
HETATM    8  H   UNL     1      -8.294   8.024  67.786  1.00  0.00     0.000 HD 
HETATM    9  O   UNL     1      -8.721   7.592  68.516  1.00  0.00    -0.128 OA 
BRANCH   7  10
HETATM   10  C   UNL     1      -9.916   6.206  66.876  1.00  0.00    -0.168 C  
HETATM   11  C   UNL     1      -9.317   5.279  65.833  1.00  0.00    -0.155 C  
HETATM   12  O   UNL     1     -10.087   7.486  66.274  1.00  0.00    -0.468 OA 
HETATM   13  O   UNL     1      -8.319   4.584  66.018  1.00  0.00    -0.112 OA 
HETATM   14  H   UNL     1     -10.629   7.465  65.494  1.00  0.00     0.000 HD 
ENDBRANCH   7  10
ENDBRANCH   4   7
ENDBRANCH   2   4
TORSDOF 3
ENDMDL
MODEL      242
REMARK 921   NORMALIZED FREE ENERGY PREDICTED BY IDOCK:   -1.49 KCAL/MOL
REMARK 922        TOTAL FREE ENERGY PREDICTED BY IDOCK:   -2.37 KCAL/MOL
REMARK 923 INTER-LIGAND FREE ENERGY PREDICTED BY IDOCK:   -2.17 KCAL/MOL
REMARK 924 INTRA-LIGAND FREE ENERGY PREDICTED BY IDOCK:   -0.21 KCAL/MOL
REMARK 927      BINDING AFFINITY PREDICTED BY RF-SCORE:    0.00 PKD
ROOT
HETATM    1  O   UNL     1      -7.386  10.396  70.559  1.00  0.00    -0.449 OA 
HETATM    2  C   UNL     1      -8.298   9.570  69.829  1.00  0.00    -0.164 C  
HETATM    3  H   UNL     1      -7.751  10.547  71.423  1.00  0.00     0.000 HD 
ENDROOT
BRANCH   2   4
HETATM    4  C   UNL     1      -7.711   9.328  68.435  1.00  0.00    -0.090 C  
HETATM    5  O   UNL     1      -6.956   8.101  68.447  1.00  0.00    -0.069 OA 
HETATM    6  H   UNL     1      -6.592   7.950  67.582  1.00  0.00     0.000 HD 
BRANCH   4   7
HETATM    7  C   UNL     1      -8.803   9.279  67.352  1.00  0.00    -0.117 C  
HETATM    8  H   UNL     1      -9.737  10.585  66.219  1.00  0.00     0.000 HD 
HETATM    9  O   UNL     1      -9.063  10.614  66.887  1.00  0.00    -0.153 OA 
BRANCH   7  10
HETATM   10  C   UNL     1     -10.093   8.617  67.882  1.00  0.00    -0.203 C  
HETATM   11  C   UNL     1     -10.379   7.327  67.134  1.00  0.00    -0.297 C  
HETATM   12  O   UNL     1     -11.243   9.451  67.768  1.00  0.00    -0.492 OA 
HETATM   13  O   UNL     1      -9.630   6.838  66.289  1.00  0.00    -0.134 OA 
HETATM   14  H   UNL     1     -12.036   9.043  68.094  1.00  0.00     0.000 HD 
ENDBRANCH   7  10
ENDBRANCH   4   7
ENDBRANCH   2   4
TORSDOF 3
ENDMDL
MODEL      243
REMARK 921   NORMALIZED FREE ENERGY PREDICTED BY IDOCK:   -1.48 KCAL/MOL
REMARK 922        TOTAL FREE ENERGY PREDICTED BY IDOCK:   -2.36 KCAL/MOL
REMARK 923 INTER-LIGAND FREE ENERGY PREDICTED BY IDOCK:   -2.21 KCAL/MOL
REMARK 924 INTRA-LIGAND FREE ENERGY PREDICTED BY IDOCK:   -0.16 KCAL/MOL
REMARK 927      BINDING AFFINITY PREDICTED BY RF-SCORE:    0.00 PKD
ROOT
HETATM    1  O   UNL     1      -8.224  10.299  68.158  1.00  0.00    -0.111 OA 
HETATM    2  C   UNL     1      -8.589   8.938  68.404  1.00  0.00    -0.134 C  
HETATM    3  H   UNL     1      -7.306  10.404  68.378  1.00  0.00     0.000 HD 
ENDROOT
BRANCH   2   4
HETATM    4  C   UNL     1     -10.070   8.770  68.049  1.00  0.00    -0.196 C  
HETATM    5  O   UNL     1     -10.709  10.061  68.060  1.00  0.00    -0.223 OA 
HETATM    6  H   UNL     1     -11.627   9.957  67.839  1.00  0.00     0.000 HD 
BRANCH   4   7
HETATM    7  C   UNL     1     -10.259   8.085  66.684  1.00  0.00    -0.245 C  
HETATM    8  H   UNL     1     -11.084   6.426  66.031  1.00  0.00     0.000 HD 
HETATM    9  O   UNL     1     -10.967   6.849  66.873  1.00  0.00    -0.377 OA 
BRANCH   7  10
HETATM   10  C   UNL     1      -8.905   7.846  65.981  1.00  0.00    -0.158 C  
HETATM   11  C   UNL     1      -8.691   8.861  64.873  1.00  0.00    -0.149 C  
HETATM   12  O   UNL     1      -8.788   6.546  65.410  1.00  0.00    -0.335 OA 
HETATM   13  O   UNL     1      -9.454   9.798  64.636  1.00  0.00    -0.280 OA 
HETATM   14  H   UNL     1      -7.955   6.399  64.978  1.00  0.00     0.000 HD 
ENDBRANCH   7  10
ENDBRANCH   4   7
ENDBRANCH   2   4
TORSDOF 3
ENDMDL
MODEL      244
REMARK 921   NORMALIZED FREE ENERGY PREDICTED BY IDOCK:   -1.47 KCAL/MOL
REMARK 922        TOTAL FREE ENERGY PREDICTED BY IDOCK:   -2.36 KCAL/MOL
REMARK 923 INTER-LIGAND FREE ENERGY PREDICTED BY IDOCK:   -2.24 KCAL/MOL
REMARK 924 INTRA-LIGAND FREE ENERGY PREDICTED BY IDOCK:   -0.11 KCAL/MOL
REMARK 927      BINDING AFFINITY PREDICTED BY RF-SCORE:    0.00 PKD
ROOT
HETATM    1  O   UNL     1      -7.843  11.056  69.867  1.00  0.00    -0.315 OA 
HETATM    2  C   UNL     1      -8.815  10.278  69.163  1.00  0.00    -0.176 C  
HETATM    3  H   UNL     1      -8.150  11.178  70.758  1.00  0.00     0.000 HD 
ENDROOT
BRANCH   2   4
HETATM    4  C   UNL     1      -8.320  10.083  67.727  1.00  0.00    -0.114 C  
HETATM    5  O   UNL     1      -7.272   9.096  67.718  1.00  0.00    -0.079 OA 
HETATM    6  H   UNL     1      -6.965   8.974  66.827  1.00  0.00     0.000 HD 
BRANCH   4   7
HETATM    7  C   UNL     1      -9.459   9.669  66.777  1.00  0.00    -0.161 C  
HETATM    8  H   UNL     1     -10.679   8.139  66.607  1.00  0.00     0.000 HD 
HETATM    9  O   UNL     1      -9.976   8.395  67.193  1.00  0.00    -0.190 OA 
BRANCH   7  10
HETATM   10  C   UNL     1      -8.981   9.622  65.310  1.00  0.00    -0.204 C  
HETATM   11  C   UNL     1      -9.788  10.579  64.453  1.00  0.00    -0.341 C  
HETATM   12  O   UNL     1      -9.078   8.325  64.727  1.00  0.00    -0.374 OA 
HETATM   13  O   UNL     1     -10.641  11.350  64.892  1.00  0.00    -0.289 OA 
HETATM   14  H   UNL     1      -8.783   8.297  63.825  1.00  0.00     0.000 HD 
ENDBRANCH   7  10
ENDBRANCH   4   7
ENDBRANCH   2   4
TORSDOF 3
ENDMDL
MODEL      245
REMARK 921   NORMALIZED FREE ENERGY PREDICTED BY IDOCK:   -1.46 KCAL/MOL
REMARK 922        TOTAL FREE ENERGY PREDICTED BY IDOCK:   -2.34 KCAL/MOL
REMARK 923 INTER-LIGAND FREE ENERGY PREDICTED BY IDOCK:   -2.07 KCAL/MOL
REMARK 924 INTRA-LIGAND FREE ENERGY PREDICTED BY IDOCK:   -0.27 KCAL/MOL
REMARK 927      BINDING AFFINITY PREDICTED BY RF-SCORE:    0.00 PKD
ROOT
HETATM    1  O   UNL     1      -7.751   9.134  64.406  1.00  0.00    -0.110 OA 
HETATM    2  C   UNL     1      -9.153   9.270  64.156  1.00  0.00     0.008 C  
HETATM    3  H   UNL     1      -7.517   8.221  64.285  1.00  0.00     0.000 HD 
ENDROOT
BRANCH   2   4
HETATM    4  C   UNL     1      -9.531  10.742  64.351  1.00  0.00    -0.256 C  
HETATM    5  O   UNL     1     -10.719  11.029  63.588  1.00  0.00    -0.529 OA 
HETATM    6  H   UNL     1     -10.954  11.942  63.709  1.00  0.00     0.000 HD 
BRANCH   4   7
HETATM    7  C   UNL     1      -9.745  11.089  65.835  1.00  0.00    -0.224 C  
HETATM    8  H   UNL     1     -11.055  10.629  67.225  1.00  0.00     0.000 HD 
HETATM    9  O   UNL     1     -10.923  10.415  66.309  1.00  0.00    -0.030 OA 
BRANCH   7  10
HETATM   10  C   UNL     1      -9.857  12.614  66.046  1.00  0.00    -0.254 C  
HETATM   11  C   UNL     1      -9.359  13.001  67.427  1.00  0.00    -0.209 C  
HETATM   12  O   UNL     1     -11.187  13.106  65.908  1.00  0.00    -0.284 OA 
HETATM   13  O   UNL     1      -8.853  12.213  68.225  1.00  0.00    -0.184 OA 
HETATM   14  H   UNL     1     -11.255  14.044  66.038  1.00  0.00     0.000 HD 
ENDBRANCH   7  10
ENDBRANCH   4   7
ENDBRANCH   2   4
TORSDOF 3
ENDMDL
MODEL      246
REMARK 921   NORMALIZED FREE ENERGY PREDICTED BY IDOCK:   -1.46 KCAL/MOL
REMARK 922        TOTAL FREE ENERGY PREDICTED BY IDOCK:   -2.34 KCAL/MOL
REMARK 923 INTER-LIGAND FREE ENERGY PREDICTED BY IDOCK:   -1.98 KCAL/MOL
REMARK 924 INTRA-LIGAND FREE ENERGY PREDICTED BY IDOCK:   -0.35 KCAL/MOL
REMARK 927      BINDING AFFINITY PREDICTED BY RF-SCORE:    0.00 PKD
ROOT
HETATM    1  O   UNL     1     -10.358   6.610  73.367  1.00  0.00    -0.224 OA 
HETATM    2  C   UNL     1     -10.135   5.221  73.107  1.00  0.00    -0.180 C  
HETATM    3  H   UNL     1     -10.877   6.683  74.159  1.00  0.00     0.000 HD 
ENDROOT
BRANCH   2   4
HETATM    4  C   UNL     1      -9.297   5.105  71.829  1.00  0.00    -0.146 C  
HETATM    5  O   UNL     1      -8.511   3.899  71.887  1.00  0.00    -0.094 OA 
HETATM    6  H   UNL     1      -7.992   3.827  71.095  1.00  0.00     0.000 HD 
BRANCH   4   7
HETATM    7  C   UNL     1     -10.175   5.116  70.564  1.00  0.00    -0.260 C  
HETATM    8  H   UNL     1     -10.292   4.064  68.909  1.00  0.00     0.000 HD 
HETATM    9  O   UNL     1      -9.751   4.057  69.690  1.00  0.00    -0.206 OA 
BRANCH   7  10
HETATM   10  C   UNL     1     -10.113   6.483  69.849  1.00  0.00    -0.173 C  
HETATM   11  C   UNL     1     -11.336   7.317  70.183  1.00  0.00    -0.207 C  
HETATM   12  O   UNL     1     -10.033   6.374  68.430  1.00  0.00    -0.133 OA 
HETATM   13  O   UNL     1     -12.205   6.980  70.986  1.00  0.00    -0.361 OA 
HETATM   14  H   UNL     1      -9.996   7.215  67.990  1.00  0.00     0.000 HD 
ENDBRANCH   7  10
ENDBRANCH   4   7
ENDBRANCH   2   4
TORSDOF 3
ENDMDL
MODEL      247
REMARK 921   NORMALIZED FREE ENERGY PREDICTED BY IDOCK:   -1.44 KCAL/MOL
REMARK 922        TOTAL FREE ENERGY PREDICTED BY IDOCK:   -2.32 KCAL/MOL
REMARK 923 INTER-LIGAND FREE ENERGY PREDICTED BY IDOCK:   -2.15 KCAL/MOL
REMARK 924 INTRA-LIGAND FREE ENERGY PREDICTED BY IDOCK:   -0.18 KCAL/MOL
REMARK 927      BINDING AFFINITY PREDICTED BY RF-SCORE:    0.00 PKD
ROOT
HETATM    1  O   UNL     1      -7.577   4.206  68.677  1.00  0.00    -0.059 OA 
HETATM    2  C   UNL     1      -7.872   5.009  69.824  1.00  0.00    -0.071 C  
HETATM    3  H   UNL     1      -6.664   3.947  68.725  1.00  0.00     0.000 HD 
ENDROOT
BRANCH   2   4
HETATM    4  C   UNL     1      -9.344   5.427  69.747  1.00  0.00    -0.142 C  
HETATM    5  O   UNL     1     -10.147   4.459  70.447  1.00  0.00    -0.209 OA 
HETATM    6  H   UNL     1     -11.060   4.718  70.400  1.00  0.00     0.000 HD 
BRANCH   4   7
HETATM    7  C   UNL     1      -9.571   6.836  70.323  1.00  0.00    -0.165 C  
HETATM    8  H   UNL     1      -9.829   7.615  72.108  1.00  0.00     0.000 HD 
HETATM    9  O   UNL     1      -9.689   6.745  71.752  1.00  0.00    -0.162 OA 
BRANCH   7  10
HETATM   10  C   UNL     1     -10.820   7.502  69.706  1.00  0.00    -0.225 C  
HETATM   11  C   UNL     1     -10.824   8.994  69.983  1.00  0.00    -0.231 C  
HETATM   12  O   UNL     1     -12.046   6.964  70.196  1.00  0.00    -0.627 OA 
HETATM   13  O   UNL     1      -9.907   9.596  70.542  1.00  0.00    -0.256 OA 
HETATM   14  H   UNL     1     -12.814   7.374  69.816  1.00  0.00     0.000 HD 
ENDBRANCH   7  10
ENDBRANCH   4   7
ENDBRANCH   2   4
TORSDOF 3
ENDMDL
MODEL      248
REMARK 921   NORMALIZED FREE ENERGY PREDICTED BY IDOCK:   -1.44 KCAL/MOL
REMARK 922        TOTAL FREE ENERGY PREDICTED BY IDOCK:   -2.32 KCAL/MOL
REMARK 923 INTER-LIGAND FREE ENERGY PREDICTED BY IDOCK:   -2.63 KCAL/MOL
REMARK 924 INTRA-LIGAND FREE ENERGY PREDICTED BY IDOCK:    0.31 KCAL/MOL
REMARK 927      BINDING AFFINITY PREDICTED BY RF-SCORE:    0.00 PKD
ROOT
HETATM    1  O   UNL     1      -9.055   6.453  68.109  1.00  0.00    -0.116 OA 
HETATM    2  C   UNL     1     -10.163   7.359  68.112  1.00  0.00    -0.187 C  
HETATM    3  H   UNL     1      -8.666   6.466  67.243  1.00  0.00     0.000 HD 
ENDROOT
BRANCH   2   4
HETATM    4  C   UNL     1     -10.792   7.338  69.509  1.00  0.00    -0.209 C  
HETATM    5  O   UNL     1     -11.280   6.013  69.788  1.00  0.00    -0.394 OA 
HETATM    6  H   UNL     1     -11.670   6.000  70.655  1.00  0.00     0.000 HD 
BRANCH   4   7
HETATM    7  C   UNL     1      -9.796   7.787  70.594  1.00  0.00    -0.182 C  
HETATM    8  H   UNL     1      -9.036   7.009  72.231  1.00  0.00     0.000 HD 
HETATM    9  O   UNL     1      -9.650   6.733  71.561  1.00  0.00    -0.164 OA 
BRANCH   7  10
HETATM   10  C   UNL     1     -10.251   9.098  71.269  1.00  0.00    -0.329 C  
HETATM   11  C   UNL     1     -11.593   8.911  71.953  1.00  0.00    -0.371 C  
HETATM   12  O   UNL     1     -10.374  10.188  70.358  1.00  0.00    -0.386 OA 
HETATM   13  O   UNL     1     -12.184   7.835  72.032  1.00  0.00    -0.295 OA 
HETATM   14  H   UNL     1     -10.654  10.994  70.773  1.00  0.00     0.000 HD 
ENDBRANCH   7  10
ENDBRANCH   4   7
ENDBRANCH   2   4
TORSDOF 3
ENDMDL
MODEL      249
REMARK 921   NORMALIZED FREE ENERGY PREDICTED BY IDOCK:   -1.43 KCAL/MOL
REMARK 922        TOTAL FREE ENERGY PREDICTED BY IDOCK:   -2.31 KCAL/MOL
REMARK 923 INTER-LIGAND FREE ENERGY PREDICTED BY IDOCK:   -1.88 KCAL/MOL
REMARK 924 INTRA-LIGAND FREE ENERGY PREDICTED BY IDOCK:   -0.42 KCAL/MOL
REMARK 927      BINDING AFFINITY PREDICTED BY RF-SCORE:    0.00 PKD
ROOT
HETATM    1  O   UNL     1     -11.221   6.255  70.199  1.00  0.00    -0.343 OA 
HETATM    2  C   UNL     1     -10.325   5.266  69.683  1.00  0.00    -0.278 C  
HETATM    3  H   UNL     1     -11.838   6.481  69.514  1.00  0.00     0.000 HD 
ENDROOT
BRANCH   2   4
HETATM    4  C   UNL     1      -9.330   4.900  70.789  1.00  0.00    -0.152 C  
HETATM    5  O   UNL     1      -8.117   4.407  70.189  1.00  0.00    -0.059 OA 
HETATM    6  H   UNL     1      -7.499   4.180  70.875  1.00  0.00     0.000 HD 
BRANCH   4   7
HETATM    7  C   UNL     1      -9.029   6.097  71.709  1.00  0.00    -0.141 C  
HETATM    8  H   UNL     1      -7.496   7.279  72.044  1.00  0.00     0.000 HD 
HETATM    9  O   UNL     1      -7.682   6.541  71.476  1.00  0.00    -0.096 OA 
BRANCH   7  10
HETATM   10  C   UNL     1      -9.242   5.732  73.194  1.00  0.00    -0.136 C  
HETATM   11  C   UNL     1     -10.500   6.390  73.731  1.00  0.00    -0.303 C  
HETATM   12  O   UNL     1      -8.156   6.119  74.032  1.00  0.00    -0.106 OA 
HETATM   13  O   UNL     1     -11.284   7.046  73.046  1.00  0.00    -0.270 OA 
HETATM   14  H   UNL     1      -8.288   5.895  74.945  1.00  0.00     0.000 HD 
ENDBRANCH   7  10
ENDBRANCH   4   7
ENDBRANCH   2   4
TORSDOF 3
ENDMDL
MODEL      250
REMARK 921   NORMALIZED FREE ENERGY PREDICTED BY IDOCK:   -1.43 KCAL/MOL
REMARK 922        TOTAL FREE ENERGY PREDICTED BY IDOCK:   -2.30 KCAL/MOL
REMARK 923 INTER-LIGAND FREE ENERGY PREDICTED BY IDOCK:   -2.07 KCAL/MOL
REMARK 924 INTRA-LIGAND FREE ENERGY PREDICTED BY IDOCK:   -0.23 KCAL/MOL
REMARK 927      BINDING AFFINITY PREDICTED BY RF-SCORE:    0.00 PKD
ROOT
HETATM    1  O   UNL     1     -10.693   6.942  74.354  1.00  0.00    -0.468 OA 
HETATM    2  C   UNL     1     -10.395   5.544  74.296  1.00  0.00    -0.271 C  
HETATM    3  H   UNL     1     -10.236   7.311  75.101  1.00  0.00     0.000 HD 
ENDROOT
BRANCH   2   4
HETATM    4  C   UNL     1     -11.133   4.949  73.093  1.00  0.00    -0.322 C  
HETATM    5  O   UNL     1     -11.417   5.996  72.146  1.00  0.00    -0.289 OA 
HETATM    6  H   UNL     1     -11.875   5.627  71.400  1.00  0.00     0.000 HD 
BRANCH   4   7
HETATM    7  C   UNL     1     -10.327   3.821  72.424  1.00  0.00    -0.114 C  
HETATM    8  H   UNL     1      -9.616   2.071  72.966  1.00  0.00     0.000 HD 
HETATM    9  O   UNL     1     -10.113   2.768  73.378  1.00  0.00    -0.102 OA 
BRANCH   7  10
HETATM   10  C   UNL     1      -8.985   4.343  71.866  1.00  0.00    -0.124 C  
HETATM   11  C   UNL     1      -9.080   4.566  70.367  1.00  0.00    -0.111 C  
HETATM   12  O   UNL     1      -7.893   3.460  72.107  1.00  0.00    -0.057 OA 
HETATM   13  O   UNL     1     -10.114   4.436  69.713  1.00  0.00    -0.214 OA 
HETATM   14  H   UNL     1      -7.068   3.781  71.763  1.00  0.00     0.000 HD 
ENDBRANCH   7  10
ENDBRANCH   4   7
ENDBRANCH   2   4
TORSDOF 3
ENDMDL
MODEL      251
REMARK 921   NORMALIZED FREE ENERGY PREDICTED BY IDOCK:   -1.43 KCAL/MOL
REMARK 922        TOTAL FREE ENERGY PREDICTED BY IDOCK:   -2.30 KCAL/MOL
REMARK 923 INTER-LIGAND FREE ENERGY PREDICTED BY IDOCK:   -1.99 KCAL/MOL
REMARK 924 INTRA-LIGAND FREE ENERGY PREDICTED BY IDOCK:   -0.31 KCAL/MOL
REMARK 927      BINDING AFFINITY PREDICTED BY RF-SCORE:    0.00 PKD
ROOT
HETATM    1  O   UNL     1     -10.005   4.318  68.010  1.00  0.00    -0.091 OA 
HETATM    2  C   UNL     1      -9.312   5.563  67.878  1.00  0.00    -0.110 C  
HETATM    3  H   UNL     1      -9.721   3.905  68.817  1.00  0.00     0.000 HD 
ENDROOT
BRANCH   2   4
HETATM    4  C   UNL     1      -9.771   6.228  66.577  1.00  0.00    -0.137 C  
HETATM    5  O   UNL     1     -11.207   6.329  66.577  1.00  0.00    -0.726 OA 
HETATM    6  H   UNL     1     -11.492   6.742  65.771  1.00  0.00     0.000 HD 
BRANCH   4   7
HETATM    7  C   UNL     1      -9.132   7.616  66.385  1.00  0.00    -0.174 C  
HETATM    8  H   UNL     1      -7.580   8.343  65.425  1.00  0.00     0.000 HD 
HETATM    9  O   UNL     1      -7.974   7.487  65.544  1.00  0.00    -0.106 OA 
BRANCH   7  10
HETATM   10  C   UNL     1      -8.765   8.258  67.739  1.00  0.00    -0.134 C  
HETATM   11  C   UNL     1      -9.846   9.227  68.183  1.00  0.00    -0.162 C  
HETATM   12  O   UNL     1      -7.529   8.967  67.710  1.00  0.00    -0.084 OA 
HETATM   13  O   UNL     1     -10.907   9.400  67.585  1.00  0.00    -0.267 OA 
HETATM   14  H   UNL     1      -7.303   9.363  68.543  1.00  0.00     0.000 HD 
ENDBRANCH   7  10
ENDBRANCH   4   7
ENDBRANCH   2   4
TORSDOF 3
ENDMDL
MODEL      252
REMARK 921   NORMALIZED FREE ENERGY PREDICTED BY IDOCK:   -1.42 KCAL/MOL
REMARK 922        TOTAL FREE ENERGY PREDICTED BY IDOCK:   -2.30 KCAL/MOL
REMARK 923 INTER-LIGAND FREE ENERGY PREDICTED BY IDOCK:   -2.00 KCAL/MOL
REMARK 924 INTRA-LIGAND FREE ENERGY PREDICTED BY IDOCK:   -0.30 KCAL/MOL
REMARK 927      BINDING AFFINITY PREDICTED BY RF-SCORE:    0.00 PKD
ROOT
HETATM    1  O   UNL     1      -6.565   5.173  68.920  1.00  0.00    -0.044 OA 
HETATM    2  C   UNL     1      -7.414   5.848  67.988  1.00  0.00    -0.085 C  
HETATM    3  H   UNL     1      -5.915   5.793  69.231  1.00  0.00     0.000 HD 
ENDROOT
BRANCH   2   4
HETATM    4  C   UNL     1      -8.461   4.849  67.486  1.00  0.00    -0.104 C  
HETATM    5  O   UNL     1      -9.636   4.939  68.314  1.00  0.00    -0.131 OA 
HETATM    6  H   UNL     1     -10.285   4.319  68.004  1.00  0.00     0.000 HD 
BRANCH   4   7
HETATM    7  C   UNL     1      -8.823   5.088  66.009  1.00  0.00    -0.130 C  
HETATM    8  H   UNL     1      -9.173   6.649  64.869  1.00  0.00     0.000 HD 
HETATM    9  O   UNL     1      -8.951   6.501  65.780  1.00  0.00    -0.134 OA 
BRANCH   7  10
HETATM   10  C   UNL     1     -10.118   4.344  65.619  1.00  0.00    -0.241 C  
HETATM   11  C   UNL     1     -10.057   3.886  64.173  1.00  0.00    -0.201 C  
HETATM   12  O   UNL     1     -11.292   5.136  65.776  1.00  0.00    -0.812 OA 
HETATM   13  O   UNL     1      -9.070   4.012  63.448  1.00  0.00    -0.114 OA 
HETATM   14  H   UNL     1     -12.089   4.678  65.536  1.00  0.00     0.000 HD 
ENDBRANCH   7  10
ENDBRANCH   4   7
ENDBRANCH   2   4
TORSDOF 3
ENDMDL
MODEL      253
REMARK 921   NORMALIZED FREE ENERGY PREDICTED BY IDOCK:   -1.41 KCAL/MOL
REMARK 922        TOTAL FREE ENERGY PREDICTED BY IDOCK:   -2.29 KCAL/MOL
REMARK 923 INTER-LIGAND FREE ENERGY PREDICTED BY IDOCK:   -1.76 KCAL/MOL
REMARK 924 INTRA-LIGAND FREE ENERGY PREDICTED BY IDOCK:   -0.53 KCAL/MOL
REMARK 927      BINDING AFFINITY PREDICTED BY RF-SCORE:    0.00 PKD
ROOT
HETATM    1  O   UNL     1      -6.602   7.548  69.182  1.00  0.00    -0.039 OA 
HETATM    2  C   UNL     1      -7.866   7.574  68.513  1.00  0.00    -0.122 C  
HETATM    3  H   UNL     1      -5.983   7.089  68.627  1.00  0.00     0.000 HD 
ENDROOT
BRANCH   2   4
HETATM    4  C   UNL     1      -8.864   8.314  69.409  1.00  0.00    -0.146 C  
HETATM    5  O   UNL     1     -10.020   8.676  68.630  1.00  0.00    -0.172 OA 
HETATM    6  H   UNL     1     -10.640   9.134  69.185  1.00  0.00     0.000 HD 
BRANCH   4   7
HETATM    7  C   UNL     1      -9.278   7.470  70.628  1.00  0.00    -0.159 C  
HETATM    8  H   UNL     1      -8.583   7.158  72.439  1.00  0.00     0.000 HD 
HETATM    9  O   UNL     1      -8.328   7.679  71.686  1.00  0.00    -0.104 OA 
BRANCH   7  10
HETATM   10  C   UNL     1      -9.384   5.973  70.267  1.00  0.00    -0.159 C  
HETATM   11  C   UNL     1     -10.822   5.598  69.956  1.00  0.00    -0.296 C  
HETATM   12  O   UNL     1      -8.922   5.109  71.302  1.00  0.00    -0.135 OA 
HETATM   13  O   UNL     1     -11.752   6.403  69.911  1.00  0.00    -0.426 OA 
HETATM   14  H   UNL     1      -8.988   4.188  71.079  1.00  0.00     0.000 HD 
ENDBRANCH   7  10
ENDBRANCH   4   7
ENDBRANCH   2   4
TORSDOF 3
ENDMDL
MODEL      254
REMARK 921   NORMALIZED FREE ENERGY PREDICTED BY IDOCK:   -1.41 KCAL/MOL
REMARK 922        TOTAL FREE ENERGY PREDICTED BY IDOCK:   -2.29 KCAL/MOL
REMARK 923 INTER-LIGAND FREE ENERGY PREDICTED BY IDOCK:   -1.91 KCAL/MOL
REMARK 924 INTRA-LIGAND FREE ENERGY PREDICTED BY IDOCK:   -0.38 KCAL/MOL
REMARK 927      BINDING AFFINITY PREDICTED BY RF-SCORE:    0.00 PKD
ROOT
HETATM    1  O   UNL     1     -10.130   9.934  65.580  1.00  0.00    -0.289 OA 
HETATM    2  C   UNL     1      -9.889  10.431  66.900  1.00  0.00    -0.191 C  
HETATM    3  H   UNL     1     -10.891  10.383  65.230  1.00  0.00     0.000 HD 
ENDROOT
BRANCH   2   4
HETATM    4  C   UNL     1      -8.663   9.707  67.465  1.00  0.00    -0.125 C  
HETATM    5  O   UNL     1      -7.981  10.580  68.385  1.00  0.00    -0.107 OA 
HETATM    6  H   UNL     1      -7.220  10.131  68.736  1.00  0.00     0.000 HD 
BRANCH   4   7
HETATM    7  C   UNL     1      -9.043   8.385  68.157  1.00  0.00    -0.138 C  
HETATM    8  H   UNL     1      -9.947   6.720  67.635  1.00  0.00     0.000 HD 
HETATM    9  O   UNL     1      -9.712   7.536  67.209  1.00  0.00    -0.147 OA 
BRANCH   7  10
HETATM   10  C   UNL     1      -9.926   8.633  69.398  1.00  0.00    -0.197 C  
HETATM   11  C   UNL     1      -9.390   7.872  70.597  1.00  0.00    -0.158 C  
HETATM   12  O   UNL     1     -11.286   8.248  69.209  1.00  0.00    -0.431 OA 
HETATM   13  O   UNL     1      -8.344   7.224  70.593  1.00  0.00    -0.125 OA 
HETATM   14  H   UNL     1     -11.828   8.400  69.973  1.00  0.00     0.000 HD 
ENDBRANCH   7  10
ENDBRANCH   4   7
ENDBRANCH   2   4
TORSDOF 3
ENDMDL
MODEL      255
REMARK 921   NORMALIZED FREE ENERGY PREDICTED BY IDOCK:   -1.41 KCAL/MOL
REMARK 922        TOTAL FREE ENERGY PREDICTED BY IDOCK:   -2.28 KCAL/MOL
REMARK 923 INTER-LIGAND FREE ENERGY PREDICTED BY IDOCK:   -2.08 KCAL/MOL
REMARK 924 INTRA-LIGAND FREE ENERGY PREDICTED BY IDOCK:   -0.20 KCAL/MOL
REMARK 927      BINDING AFFINITY PREDICTED BY RF-SCORE:    0.00 PKD
ROOT
HETATM    1  O   UNL     1     -12.050   6.622  69.740  1.00  0.00    -0.638 OA 
HETATM    2  C   UNL     1     -10.889   6.547  68.908  1.00  0.00    -0.301 C  
HETATM    3  H   UNL     1     -12.130   5.800  70.211  1.00  0.00     0.000 HD 
ENDROOT
BRANCH   2   4
HETATM    4  C   UNL     1     -10.761   7.872  68.149  1.00  0.00    -0.040 C  
HETATM    5  O   UNL     1     -11.159   8.953  69.013  1.00  0.00    -0.432 OA 
HETATM    6  H   UNL     1     -11.080   9.774  68.543  1.00  0.00     0.000 HD 
BRANCH   4   7
HETATM    7  C   UNL     1      -9.331   8.098  67.625  1.00  0.00    -0.140 C  
HETATM    8  H   UNL     1      -8.195   7.322  66.223  1.00  0.00     0.000 HD 
HETATM    9  O   UNL     1      -9.077   7.183  66.547  1.00  0.00    -0.144 OA 
BRANCH   7  10
HETATM   10  C   UNL     1      -8.287   7.933  68.750  1.00  0.00    -0.128 C  
HETATM   11  C   UNL     1      -7.618   9.261  69.058  1.00  0.00    -0.074 C  
HETATM   12  O   UNL     1      -7.264   6.992  68.436  1.00  0.00    -0.082 OA 
HETATM   13  O   UNL     1      -7.937  10.331  68.543  1.00  0.00    -0.099 OA 
HETATM   14  H   UNL     1      -6.622   6.891  69.128  1.00  0.00     0.000 HD 
ENDBRANCH   7  10
ENDBRANCH   4   7
ENDBRANCH   2   4
TORSDOF 3
ENDMDL
MODEL      256
REMARK 921   NORMALIZED FREE ENERGY PREDICTED BY IDOCK:   -1.39 KCAL/MOL
REMARK 922        TOTAL FREE ENERGY PREDICTED BY IDOCK:   -2.26 KCAL/MOL
REMARK 923 INTER-LIGAND FREE ENERGY PREDICTED BY IDOCK:   -2.24 KCAL/MOL
REMARK 924 INTRA-LIGAND FREE ENERGY PREDICTED BY IDOCK:   -0.02 KCAL/MOL
REMARK 927      BINDING AFFINITY PREDICTED BY RF-SCORE:    0.00 PKD
ROOT
HETATM    1  O   UNL     1     -11.204   6.948  69.235  1.00  0.00    -0.443 OA 
HETATM    2  C   UNL     1     -10.125   6.606  68.360  1.00  0.00    -0.156 C  
HETATM    3  H   UNL     1     -11.091   6.466  70.046  1.00  0.00     0.000 HD 
ENDROOT
BRANCH   2   4
HETATM    4  C   UNL     1     -10.307   7.384  67.053  1.00  0.00    -0.314 C  
HETATM    5  O   UNL     1     -11.050   8.588  67.318  1.00  0.00    -0.401 OA 
HETATM    6  H   UNL     1     -11.163   9.071  66.508  1.00  0.00     0.000 HD 
BRANCH   4   7
HETATM    7  C   UNL     1      -8.958   7.717  66.390  1.00  0.00    -0.163 C  
HETATM    8  H   UNL     1      -7.144   6.962  66.407  1.00  0.00     0.000 HD 
HETATM    9  O   UNL     1      -7.977   6.757  66.816  1.00  0.00    -0.105 OA 
BRANCH   7  10
HETATM   10  C   UNL     1      -8.507   9.155  66.723  1.00  0.00    -0.123 C  
HETATM   11  C   UNL     1      -8.814  10.093  65.570  1.00  0.00    -0.169 C  
HETATM   12  O   UNL     1      -7.114   9.257  67.010  1.00  0.00    -0.084 OA 
HETATM   13  O   UNL     1      -9.422   9.763  64.553  1.00  0.00    -0.282 OA 
HETATM   14  H   UNL     1      -6.837  10.142  67.215  1.00  0.00     0.000 HD 
ENDBRANCH   7  10
ENDBRANCH   4   7
ENDBRANCH   2   4
TORSDOF 3
ENDMDL
MODEL      257
REMARK 921   NORMALIZED FREE ENERGY PREDICTED BY IDOCK:   -1.34 KCAL/MOL
REMARK 922        TOTAL FREE ENERGY PREDICTED BY IDOCK:   -2.20 KCAL/MOL
REMARK 923 INTER-LIGAND FREE ENERGY PREDICTED BY IDOCK:   -2.40 KCAL/MOL
REMARK 924 INTRA-LIGAND FREE ENERGY PREDICTED BY IDOCK:    0.20 KCAL/MOL
REMARK 927      BINDING AFFINITY PREDICTED BY RF-SCORE:    0.00 PKD
ROOT
HETATM    1  O   UNL     1     -10.263   6.938  74.561  1.00  0.00    -0.457 OA 
HETATM    2  C   UNL     1      -9.612   6.789  73.296  1.00  0.00    -0.162 C  
HETATM    3  H   UNL     1      -9.951   6.250  75.137  1.00  0.00     0.000 HD 
ENDROOT
BRANCH   2   4
HETATM    4  C   UNL     1     -10.116   7.899  72.367  1.00  0.00    -0.248 C  
HETATM    5  O   UNL     1      -9.063   8.859  72.163  1.00  0.00    -0.375 OA 
HETATM    6  H   UNL     1      -9.375   9.547  71.587  1.00  0.00     0.000 HD 
BRANCH   4   7
HETATM    7  C   UNL     1     -10.608   7.341  71.019  1.00  0.00    -0.221 C  
HETATM    8  H   UNL     1     -11.963   6.048  70.428  1.00  0.00     0.000 HD 
HETATM    9  O   UNL     1     -11.660   6.392  71.260  1.00  0.00    -0.305 OA 
BRANCH   7  10
HETATM   10  C   UNL     1      -9.453   6.697  70.222  1.00  0.00    -0.162 C  
HETATM   11  C   UNL     1      -9.812   6.593  68.750  1.00  0.00    -0.138 C  
HETATM   12  O   UNL     1      -9.109   5.392  70.681  1.00  0.00    -0.139 OA 
HETATM   13  O   UNL     1     -10.843   7.046  68.257  1.00  0.00    -0.198 OA 
HETATM   14  H   UNL     1      -8.399   4.997  70.190  1.00  0.00     0.000 HD 
ENDBRANCH   7  10
ENDBRANCH   4   7
ENDBRANCH   2   4
TORSDOF 3
ENDMDL
MODEL      258
REMARK 921   NORMALIZED FREE ENERGY PREDICTED BY IDOCK:   -1.31 KCAL/MOL
REMARK 922        TOTAL FREE ENERGY PREDICTED BY IDOCK:   -2.17 KCAL/MOL
REMARK 923 INTER-LIGAND FREE ENERGY PREDICTED BY IDOCK:   -2.00 KCAL/MOL
REMARK 924 INTRA-LIGAND FREE ENERGY PREDICTED BY IDOCK:   -0.17 KCAL/MOL
REMARK 927      BINDING AFFINITY PREDICTED BY RF-SCORE:    0.00 PKD
ROOT
HETATM    1  O   UNL     1      -8.125   7.600  68.139  1.00  0.00    -0.121 OA 
HETATM    2  C   UNL     1      -8.265   8.110  66.809  1.00  0.00    -0.107 C  
HETATM    3  H   UNL     1      -7.240   7.268  68.236  1.00  0.00     0.000 HD 
ENDROOT
BRANCH   2   4
HETATM    4  C   UNL     1      -9.692   8.645  66.652  1.00  0.00    -0.247 C  
HETATM    5  O   UNL     1     -10.435   8.370  67.855  1.00  0.00    -0.251 OA 
HETATM    6  H   UNL     1     -11.320   8.701  67.758  1.00  0.00     0.000 HD 
BRANCH   4   7
HETATM    7  C   UNL     1      -9.710  10.152  66.340  1.00  0.00    -0.205 C  
HETATM    8  H   UNL     1     -10.547  11.311  64.992  1.00  0.00     0.000 HD 
HETATM    9  O   UNL     1     -10.536  10.381  65.186  1.00  0.00    -0.255 OA 
BRANCH   7  10
HETATM   10  C   UNL     1      -8.284  10.698  66.118  1.00  0.00    -0.156 C  
HETATM   11  C   UNL     1      -8.083  11.996  66.878  1.00  0.00    -0.127 C  
HETATM   12  O   UNL     1      -7.981  10.944  64.747  1.00  0.00    -0.363 OA 
HETATM   13  O   UNL     1      -8.917  12.489  67.637  1.00  0.00    -0.168 OA 
HETATM   14  H   UNL     1      -7.103  11.280  64.611  1.00  0.00     0.000 HD 
ENDBRANCH   7  10
ENDBRANCH   4   7
ENDBRANCH   2   4
TORSDOF 3
ENDMDL
MODEL      259
REMARK 921   NORMALIZED FREE ENERGY PREDICTED BY IDOCK:   -1.28 KCAL/MOL
REMARK 922        TOTAL FREE ENERGY PREDICTED BY IDOCK:   -2.13 KCAL/MOL
REMARK 923 INTER-LIGAND FREE ENERGY PREDICTED BY IDOCK:   -1.80 KCAL/MOL
REMARK 924 INTRA-LIGAND FREE ENERGY PREDICTED BY IDOCK:   -0.33 KCAL/MOL
REMARK 927      BINDING AFFINITY PREDICTED BY RF-SCORE:    0.00 PKD
ROOT
HETATM    1  O   UNL     1     -11.366   4.315  64.540  1.00  0.00    -0.760 OA 
HETATM    2  C   UNL     1     -10.729   3.252  63.825  1.00  0.00    -0.225 C  
HETATM    3  H   UNL     1     -12.039   3.937  65.093  1.00  0.00     0.000 HD 
ENDROOT
BRANCH   2   4
HETATM    4  C   UNL     1      -9.644   3.862  62.932  1.00  0.00    -0.132 C  
HETATM    5  O   UNL     1     -10.143   5.078  62.344  1.00  0.00    -0.351 OA 
HETATM    6  H   UNL     1      -9.471   5.457  61.791  1.00  0.00     0.000 HD 
BRANCH   4   7
HETATM    7  C   UNL     1      -8.344   4.132  63.710  1.00  0.00    -0.097 C  
HETATM    8  H   UNL     1      -7.713   5.478  64.994  1.00  0.00     0.000 HD 
HETATM    9  O   UNL     1      -8.515   5.311  64.514  1.00  0.00    -0.139 OA 
BRANCH   7  10
HETATM   10  C   UNL     1      -7.138   4.281  62.758  1.00  0.00    -0.040 C  
HETATM   11  C   UNL     1      -5.952   3.483  63.268  1.00  0.00    -0.014 C  
HETATM   12  O   UNL     1      -6.716   5.632  62.590  1.00  0.00    -0.028 OA 
HETATM   13  O   UNL     1      -5.985   2.749  64.255  1.00  0.00    -0.013 OA 
HETATM   14  H   UNL     1      -5.974   5.723  62.004  1.00  0.00     0.000 HD 
ENDBRANCH   7  10
ENDBRANCH   4   7
ENDBRANCH   2   4
TORSDOF 3
ENDMDL
MODEL      260
REMARK 921   NORMALIZED FREE ENERGY PREDICTED BY IDOCK:   -1.28 KCAL/MOL
REMARK 922        TOTAL FREE ENERGY PREDICTED BY IDOCK:   -2.12 KCAL/MOL
REMARK 923 INTER-LIGAND FREE ENERGY PREDICTED BY IDOCK:   -1.60 KCAL/MOL
REMARK 924 INTRA-LIGAND FREE ENERGY PREDICTED BY IDOCK:   -0.52 KCAL/MOL
REMARK 927      BINDING AFFINITY PREDICTED BY RF-SCORE:    0.00 PKD
ROOT
HETATM    1  O   UNL     1      -9.024   2.455  62.493  1.00  0.00    -0.077 OA 
HETATM    2  C   UNL     1      -9.521   1.628  63.550  1.00  0.00    -0.106 C  
HETATM    3  H   UNL     1      -9.271   2.058  61.666  1.00  0.00     0.000 HD 
ENDROOT
BRANCH   2   4
HETATM    4  C   UNL     1      -9.123   2.268  64.884  1.00  0.00    -0.126 C  
HETATM    5  O   UNL     1      -7.688   2.352  64.959  1.00  0.00    -0.074 OA 
HETATM    6  H   UNL     1      -7.441   2.750  65.785  1.00  0.00     0.000 HD 
BRANCH   4   7
HETATM    7  C   UNL     1      -9.756   3.660  65.064  1.00  0.00    -0.162 C  
HETATM    8  H   UNL     1     -11.263   4.646  64.279  1.00  0.00     0.000 HD 
HETATM    9  O   UNL     1     -10.872   3.787  64.168  1.00  0.00    -0.285 OA 
BRANCH   7  10
HETATM   10  C   UNL     1      -8.723   4.783  64.825  1.00  0.00    -0.153 C  
HETATM   11  C   UNL     1      -8.875   5.880  65.863  1.00  0.00    -0.149 C  
HETATM   12  O   UNL     1      -8.831   5.384  63.537  1.00  0.00    -0.335 OA 
HETATM   13  O   UNL     1      -9.654   5.828  66.814  1.00  0.00    -0.135 OA 
HETATM   14  H   UNL     1      -8.196   6.074  63.391  1.00  0.00     0.000 HD 
ENDBRANCH   7  10
ENDBRANCH   4   7
ENDBRANCH   2   4
TORSDOF 3
ENDMDL
MODEL      261
REMARK 921   NORMALIZED FREE ENERGY PREDICTED BY IDOCK:   -1.26 KCAL/MOL
REMARK 922        TOTAL FREE ENERGY PREDICTED BY IDOCK:   -2.11 KCAL/MOL
REMARK 923 INTER-LIGAND FREE ENERGY PREDICTED BY IDOCK:   -2.60 KCAL/MOL
REMARK 924 INTRA-LIGAND FREE ENERGY PREDICTED BY IDOCK:    0.49 KCAL/MOL
REMARK 927      BINDING AFFINITY PREDICTED BY RF-SCORE:    0.00 PKD
ROOT
HETATM    1  O   UNL     1     -10.592   7.408  66.673  1.00  0.00    -0.492 OA 
HETATM    2  C   UNL     1     -10.231   8.579  67.411  1.00  0.00    -0.261 C  
HETATM    3  H   UNL     1     -10.432   6.651  67.224  1.00  0.00     0.000 HD 
ENDROOT
BRANCH   2   4
HETATM    4  C   UNL     1     -10.489   9.801  66.523  1.00  0.00    -0.142 C  
HETATM    5  O   UNL     1     -11.474  10.643  67.150  1.00  0.00    -0.359 OA 
HETATM    6  H   UNL     1     -11.634  11.400  66.599  1.00  0.00     0.000 HD 
BRANCH   4   7
HETATM    7  C   UNL     1      -9.198  10.593  66.246  1.00  0.00    -0.170 C  
HETATM    8  H   UNL     1      -8.695  12.488  66.126  1.00  0.00     0.000 HD 
HETATM    9  O   UNL     1      -9.491  11.999  66.296  1.00  0.00    -0.222 OA 
BRANCH   7  10
HETATM   10  C   UNL     1      -8.579  10.204  64.887  1.00  0.00    -0.178 C  
HETATM   11  C   UNL     1      -9.438  10.711  63.743  1.00  0.00    -0.290 C  
HETATM   12  O   UNL     1      -8.419   8.797  64.722  1.00  0.00    -0.166 OA 
HETATM   13  O   UNL     1     -10.437  11.414  63.887  1.00  0.00    -0.321 OA 
HETATM   14  H   UNL     1      -8.038   8.558  63.886  1.00  0.00     0.000 HD 
ENDBRANCH   7  10
ENDBRANCH   4   7
ENDBRANCH   2   4
TORSDOF 3
ENDMDL
MODEL      262
REMARK 921   NORMALIZED FREE ENERGY PREDICTED BY IDOCK:   -1.25 KCAL/MOL
REMARK 922        TOTAL FREE ENERGY PREDICTED BY IDOCK:   -2.09 KCAL/MOL
REMARK 923 INTER-LIGAND FREE ENERGY PREDICTED BY IDOCK:   -2.61 KCAL/MOL
REMARK 924 INTRA-LIGAND FREE ENERGY PREDICTED BY IDOCK:    0.52 KCAL/MOL
REMARK 927      BINDING AFFINITY PREDICTED BY RF-SCORE:    0.00 PKD
ROOT
HETATM    1  O   UNL     1     -12.123   6.867  69.667  1.00  0.00    -0.551 OA 
HETATM    2  C   UNL     1     -10.889   6.210  69.365  1.00  0.00    -0.353 C  
HETATM    3  H   UNL     1     -12.757   6.626  69.002  1.00  0.00     0.000 HD 
ENDROOT
BRANCH   2   4
HETATM    4  C   UNL     1      -9.867   6.599  70.438  1.00  0.00    -0.175 C  
HETATM    5  O   UNL     1      -8.586   6.037  70.096  1.00  0.00    -0.131 OA 
HETATM    6  H   UNL     1      -7.951   6.278  70.761  1.00  0.00     0.000 HD 
BRANCH   4   7
HETATM    7  C   UNL     1      -9.760   8.126  70.603  1.00  0.00    -0.170 C  
HETATM    8  H   UNL     1      -8.307   9.434  70.795  1.00  0.00     0.000 HD 
HETATM    9  O   UNL     1      -8.373   8.492  70.693  1.00  0.00    -0.113 OA 
BRANCH   7  10
HETATM   10  C   UNL     1     -10.544   8.614  71.840  1.00  0.00    -0.340 C  
HETATM   11  C   UNL     1     -10.400   7.631  72.987  1.00  0.00    -0.335 C  
HETATM   12  O   UNL     1     -11.935   8.794  71.591  1.00  0.00    -0.291 OA 
HETATM   13  O   UNL     1      -9.682   6.633  72.957  1.00  0.00    -0.155 OA 
HETATM   14  H   UNL     1     -12.417   9.095  72.352  1.00  0.00     0.000 HD 
ENDBRANCH   7  10
ENDBRANCH   4   7
ENDBRANCH   2   4
TORSDOF 3
ENDMDL
MODEL      263
REMARK 921   NORMALIZED FREE ENERGY PREDICTED BY IDOCK:   -1.24 KCAL/MOL
REMARK 922        TOTAL FREE ENERGY PREDICTED BY IDOCK:   -2.08 KCAL/MOL
REMARK 923 INTER-LIGAND FREE ENERGY PREDICTED BY IDOCK:   -1.60 KCAL/MOL
REMARK 924 INTRA-LIGAND FREE ENERGY PREDICTED BY IDOCK:   -0.48 KCAL/MOL
REMARK 927      BINDING AFFINITY PREDICTED BY RF-SCORE:    0.00 PKD
ROOT
HETATM    1  O   UNL     1     -11.024   5.368  70.414  1.00  0.00    -0.212 OA 
HETATM    2  C   UNL     1     -10.071   5.367  69.348  1.00  0.00    -0.234 C  
HETATM    3  H   UNL     1     -11.806   4.922  70.111  1.00  0.00     0.000 HD 
ENDROOT
BRANCH   2   4
HETATM    4  C   UNL     1      -8.809   6.087  69.835  1.00  0.00    -0.138 C  
HETATM    5  O   UNL     1      -8.224   6.812  68.738  1.00  0.00    -0.118 OA 
HETATM    6  H   UNL     1      -7.442   7.259  69.040  1.00  0.00     0.000 HD 
BRANCH   4   7
HETATM    7  C   UNL     1      -9.107   7.034  71.012  1.00  0.00    -0.151 C  
HETATM    8  H   UNL     1     -10.049   8.741  71.255  1.00  0.00     0.000 HD 
HETATM    9  O   UNL     1      -9.865   8.156  70.530  1.00  0.00    -0.184 OA 
BRANCH   7  10
HETATM   10  C   UNL     1      -7.807   7.500  71.702  1.00  0.00    -0.086 C  
HETATM   11  C   UNL     1      -8.086   7.932  73.131  1.00  0.00    -0.162 C  
HETATM   12  O   UNL     1      -7.172   8.587  71.034  1.00  0.00    -0.056 OA 
HETATM   13  O   UNL     1      -9.181   7.833  73.682  1.00  0.00    -0.258 OA 
HETATM   14  H   UNL     1      -6.372   8.873  71.459  1.00  0.00     0.000 HD 
ENDBRANCH   7  10
ENDBRANCH   4   7
ENDBRANCH   2   4
TORSDOF 3
ENDMDL
MODEL      264
REMARK 921   NORMALIZED FREE ENERGY PREDICTED BY IDOCK:   -1.24 KCAL/MOL
REMARK 922        TOTAL FREE ENERGY PREDICTED BY IDOCK:   -2.08 KCAL/MOL
REMARK 923 INTER-LIGAND FREE ENERGY PREDICTED BY IDOCK:   -1.49 KCAL/MOL
REMARK 924 INTRA-LIGAND FREE ENERGY PREDICTED BY IDOCK:   -0.59 KCAL/MOL
REMARK 927      BINDING AFFINITY PREDICTED BY RF-SCORE:    0.00 PKD
ROOT
HETATM    1  O   UNL     1      -6.467   5.244  68.660  1.00  0.00    -0.037 OA 
HETATM    2  C   UNL     1      -7.364   5.327  67.549  1.00  0.00    -0.079 C  
HETATM    3  H   UNL     1      -5.624   5.585  68.384  1.00  0.00     0.000 HD 
ENDROOT
BRANCH   2   4
HETATM    4  C   UNL     1      -8.724   4.777  67.992  1.00  0.00    -0.103 C  
HETATM    5  O   UNL     1      -8.525   3.542  68.705  1.00  0.00    -0.074 OA 
HETATM    6  H   UNL     1      -9.368   3.201  68.981  1.00  0.00     0.000 HD 
BRANCH   4   7
HETATM    7  C   UNL     1      -9.495   5.786  68.864  1.00  0.00    -0.124 C  
HETATM    8  H   UNL     1      -9.171   7.591  69.568  1.00  0.00     0.000 HD 
HETATM    9  O   UNL     1      -8.695   6.968  69.031  1.00  0.00    -0.128 OA 
BRANCH   7  10
HETATM   10  C   UNL     1      -9.872   5.175  70.230  1.00  0.00    -0.225 C  
HETATM   11  C   UNL     1     -11.126   5.830  70.781  1.00  0.00    -0.201 C  
HETATM   12  O   UNL     1      -8.845   5.306  71.210  1.00  0.00    -0.133 OA 
HETATM   13  O   UNL     1     -11.794   6.666  70.173  1.00  0.00    -0.389 OA 
HETATM   14  H   UNL     1      -9.078   4.930  72.050  1.00  0.00     0.000 HD 
ENDBRANCH   7  10
ENDBRANCH   4   7
ENDBRANCH   2   4
TORSDOF 3
ENDMDL
MODEL      265
REMARK 921   NORMALIZED FREE ENERGY PREDICTED BY IDOCK:   -1.23 KCAL/MOL
REMARK 922        TOTAL FREE ENERGY PREDICTED BY IDOCK:   -2.07 KCAL/MOL
REMARK 923 INTER-LIGAND FREE ENERGY PREDICTED BY IDOCK:   -1.90 KCAL/MOL
REMARK 924 INTRA-LIGAND FREE ENERGY PREDICTED BY IDOCK:   -0.18 KCAL/MOL
REMARK 927      BINDING AFFINITY PREDICTED BY RF-SCORE:    0.00 PKD
ROOT
HETATM    1  O   UNL     1      -7.326   8.096  67.785  1.00  0.00    -0.089 OA 
HETATM    2  C   UNL     1      -8.160   7.370  66.877  1.00  0.00    -0.120 C  
HETATM    3  H   UNL     1      -6.713   8.612  67.275  1.00  0.00     0.000 HD 
ENDROOT
BRANCH   2   4
HETATM    4  C   UNL     1      -9.148   6.537  67.699  1.00  0.00    -0.112 C  
HETATM    5  O   UNL     1      -8.678   5.178  67.768  1.00  0.00    -0.104 OA 
HETATM    6  H   UNL     1      -9.290   4.661  68.278  1.00  0.00     0.000 HD 
BRANCH   4   7
HETATM    7  C   UNL     1      -9.347   7.112  69.114  1.00  0.00    -0.141 C  
HETATM    8  H   UNL     1      -9.267   6.420  70.950  1.00  0.00     0.000 HD 
HETATM    9  O   UNL     1      -9.144   6.065  70.078  1.00  0.00    -0.143 OA 
BRANCH   7  10
HETATM   10  C   UNL     1     -10.745   7.748  69.272  1.00  0.00    -0.147 C  
HETATM   11  C   UNL     1     -10.665   9.017  70.101  1.00  0.00    -0.233 C  
HETATM   12  O   UNL     1     -11.692   6.881  69.891  1.00  0.00    -0.562 OA 
HETATM   13  O   UNL     1      -9.614   9.512  70.507  1.00  0.00    -0.249 OA 
HETATM   14  H   UNL     1     -12.551   7.273  69.988  1.00  0.00     0.000 HD 
ENDBRANCH   7  10
ENDBRANCH   4   7
ENDBRANCH   2   4
TORSDOF 3
ENDMDL
MODEL      266
REMARK 921   NORMALIZED FREE ENERGY PREDICTED BY IDOCK:   -1.23 KCAL/MOL
REMARK 922        TOTAL FREE ENERGY PREDICTED BY IDOCK:   -2.07 KCAL/MOL
REMARK 923 INTER-LIGAND FREE ENERGY PREDICTED BY IDOCK:   -1.80 KCAL/MOL
REMARK 924 INTRA-LIGAND FREE ENERGY PREDICTED BY IDOCK:   -0.27 KCAL/MOL
REMARK 927      BINDING AFFINITY PREDICTED BY RF-SCORE:    0.00 PKD
ROOT
HETATM    1  O   UNL     1     -10.849  12.834  66.798  1.00  0.00    -0.257 OA 
HETATM    2  C   UNL     1     -10.358  12.458  65.508  1.00  0.00    -0.271 C  
HETATM    3  H   UNL     1     -11.105  13.748  66.762  1.00  0.00     0.000 HD 
ENDROOT
BRANCH   2   4
HETATM    4  C   UNL     1      -9.944  10.984  65.567  1.00  0.00    -0.256 C  
HETATM    5  O   UNL     1      -9.230  10.645  64.363  1.00  0.00    -0.205 OA 
HETATM    6  H   UNL     1      -8.973   9.731  64.399  1.00  0.00     0.000 HD 
BRANCH   4   7
HETATM    7  C   UNL     1      -9.086  10.677  66.808  1.00  0.00    -0.152 C  
HETATM    8  H   UNL     1      -7.236  11.018  67.374  1.00  0.00     0.000 HD 
HETATM    9  O   UNL     1      -7.765  11.207  66.608  1.00  0.00    -0.146 OA 
BRANCH   7  10
HETATM   10  C   UNL     1      -9.037   9.161  67.098  1.00  0.00    -0.126 C  
HETATM   11  C   UNL     1      -8.856   8.906  68.583  1.00  0.00    -0.137 C  
HETATM   12  O   UNL     1      -7.986   8.489  66.408  1.00  0.00    -0.096 OA 
HETATM   13  O   UNL     1      -8.845   9.789  69.440  1.00  0.00    -0.155 OA 
HETATM   14  H   UNL     1      -7.956   7.557  66.587  1.00  0.00     0.000 HD 
ENDBRANCH   7  10
ENDBRANCH   4   7
ENDBRANCH   2   4
TORSDOF 3
ENDMDL
MODEL      267
REMARK 921   NORMALIZED FREE ENERGY PREDICTED BY IDOCK:   -1.23 KCAL/MOL
REMARK 922        TOTAL FREE ENERGY PREDICTED BY IDOCK:   -2.07 KCAL/MOL
REMARK 923 INTER-LIGAND FREE ENERGY PREDICTED BY IDOCK:   -1.94 KCAL/MOL
REMARK 924 INTRA-LIGAND FREE ENERGY PREDICTED BY IDOCK:   -0.13 KCAL/MOL
REMARK 927      BINDING AFFINITY PREDICTED BY RF-SCORE:    0.00 PKD
ROOT
HETATM    1  O   UNL     1     -11.366   4.315  64.540  1.00  0.00    -0.760 OA 
HETATM    2  C   UNL     1     -10.729   3.252  63.825  1.00  0.00    -0.225 C  
HETATM    3  H   UNL     1     -12.039   3.937  65.093  1.00  0.00     0.000 HD 
ENDROOT
BRANCH   2   4
HETATM    4  C   UNL     1      -9.644   3.862  62.932  1.00  0.00    -0.132 C  
HETATM    5  O   UNL     1     -10.143   5.078  62.344  1.00  0.00    -0.351 OA 
HETATM    6  H   UNL     1      -9.471   5.457  61.791  1.00  0.00     0.000 HD 
BRANCH   4   7
HETATM    7  C   UNL     1      -8.344   4.132  63.710  1.00  0.00    -0.097 C  
HETATM    8  H   UNL     1      -6.419   4.084  63.318  1.00  0.00     0.000 HD 
HETATM    9  O   UNL     1      -7.222   3.917  62.838  1.00  0.00    -0.046 OA 
BRANCH   7  10
HETATM   10  C   UNL     1      -8.246   3.244  64.969  1.00  0.00    -0.094 C  
HETATM   11  C   UNL     1      -7.809   4.063  66.170  1.00  0.00    -0.090 C  
HETATM   12  O   UNL     1      -7.332   2.160  64.824  1.00  0.00    -0.058 OA 
HETATM   13  O   UNL     1      -7.648   5.282  66.153  1.00  0.00    -0.085 OA 
HETATM   14  H   UNL     1      -7.272   1.613  65.598  1.00  0.00     0.000 HD 
ENDBRANCH   7  10
ENDBRANCH   4   7
ENDBRANCH   2   4
TORSDOF 3
ENDMDL
MODEL      268
REMARK 921   NORMALIZED FREE ENERGY PREDICTED BY IDOCK:   -1.21 KCAL/MOL
REMARK 922        TOTAL FREE ENERGY PREDICTED BY IDOCK:   -2.05 KCAL/MOL
REMARK 923 INTER-LIGAND FREE ENERGY PREDICTED BY IDOCK:   -1.62 KCAL/MOL
REMARK 924 INTRA-LIGAND FREE ENERGY PREDICTED BY IDOCK:   -0.43 KCAL/MOL
REMARK 927      BINDING AFFINITY PREDICTED BY RF-SCORE:    0.00 PKD
ROOT
HETATM    1  O   UNL     1      -8.099   3.165  63.945  1.00  0.00    -0.081 OA 
HETATM    2  C   UNL     1      -9.276   2.852  64.695  1.00  0.00    -0.144 C  
HETATM    3  H   UNL     1      -8.218   2.842  63.060  1.00  0.00     0.000 HD 
ENDROOT
BRANCH   2   4
HETATM    4  C   UNL     1      -9.083   3.372  66.123  1.00  0.00    -0.152 C  
HETATM    5  O   UNL     1      -7.705   3.203  66.507  1.00  0.00    -0.076 OA 
HETATM    6  H   UNL     1      -7.585   3.525  67.392  1.00  0.00     0.000 HD 
BRANCH   4   7
HETATM    7  C   UNL     1      -9.504   4.847  66.260  1.00  0.00    -0.158 C  
HETATM    8  H   UNL     1      -8.756   6.589  65.744  1.00  0.00     0.000 HD 
HETATM    9  O   UNL     1      -8.497   5.679  65.660  1.00  0.00    -0.135 OA 
BRANCH   7  10
HETATM   10  C   UNL     1      -9.734   5.232  67.736  1.00  0.00    -0.140 C  
HETATM   11  C   UNL     1     -10.776   6.331  67.847  1.00  0.00    -0.305 C  
HETATM   12  O   UNL     1      -8.552   5.685  68.392  1.00  0.00    -0.111 OA 
HETATM   13  O   UNL     1     -11.411   6.779  66.893  1.00  0.00    -0.318 OA 
HETATM   14  H   UNL     1      -8.694   5.922  69.300  1.00  0.00     0.000 HD 
ENDBRANCH   7  10
ENDBRANCH   4   7
ENDBRANCH   2   4
TORSDOF 3
ENDMDL
MODEL      269
REMARK 921   NORMALIZED FREE ENERGY PREDICTED BY IDOCK:   -1.21 KCAL/MOL
REMARK 922        TOTAL FREE ENERGY PREDICTED BY IDOCK:   -2.04 KCAL/MOL
REMARK 923 INTER-LIGAND FREE ENERGY PREDICTED BY IDOCK:   -1.90 KCAL/MOL
REMARK 924 INTRA-LIGAND FREE ENERGY PREDICTED BY IDOCK:   -0.14 KCAL/MOL
REMARK 927      BINDING AFFINITY PREDICTED BY RF-SCORE:    0.00 PKD
ROOT
HETATM    1  O   UNL     1     -11.518   6.404  68.086  1.00  0.00    -0.558 OA 
HETATM    2  C   UNL     1     -10.521   7.127  68.812  1.00  0.00    -0.202 C  
HETATM    3  H   UNL     1     -11.602   6.799  67.225  1.00  0.00     0.000 HD 
ENDROOT
BRANCH   2   4
HETATM    4  C   UNL     1     -10.386   6.491  70.199  1.00  0.00    -0.201 C  
HETATM    5  O   UNL     1     -10.736   5.096  70.116  1.00  0.00    -0.239 OA 
HETATM    6  H   UNL     1     -10.653   4.702  70.976  1.00  0.00     0.000 HD 
BRANCH   4   7
HETATM    7  C   UNL     1      -8.968   6.658  70.773  1.00  0.00    -0.151 C  
HETATM    8  H   UNL     1      -7.198   7.137  70.066  1.00  0.00     0.000 HD 
HETATM    9  O   UNL     1      -8.074   7.033  69.713  1.00  0.00    -0.121 OA 
BRANCH   7  10
HETATM   10  C   UNL     1      -8.488   5.369  71.473  1.00  0.00    -0.127 C  
HETATM   11  C   UNL     1      -8.707   5.460  72.972  1.00  0.00    -0.121 C  
HETATM   12  O   UNL     1      -7.109   5.086  71.250  1.00  0.00    -0.052 OA 
HETATM   13  O   UNL     1      -9.274   6.397  73.532  1.00  0.00    -0.130 OA 
HETATM   14  H   UNL     1      -6.814   4.293  71.680  1.00  0.00     0.000 HD 
ENDBRANCH   7  10
ENDBRANCH   4   7
ENDBRANCH   2   4
TORSDOF 3
ENDMDL
MODEL      270
REMARK 921   NORMALIZED FREE ENERGY PREDICTED BY IDOCK:   -1.20 KCAL/MOL
REMARK 922        TOTAL FREE ENERGY PREDICTED BY IDOCK:   -2.04 KCAL/MOL
REMARK 923 INTER-LIGAND FREE ENERGY PREDICTED BY IDOCK:   -1.99 KCAL/MOL
REMARK 924 INTRA-LIGAND FREE ENERGY PREDICTED BY IDOCK:   -0.05 KCAL/MOL
REMARK 927      BINDING AFFINITY PREDICTED BY RF-SCORE:    0.00 PKD
ROOT
HETATM    1  O   UNL     1     -10.038   6.494  66.707  1.00  0.00    -0.175 OA 
HETATM    2  C   UNL     1     -10.786   6.352  67.917  1.00  0.00    -0.322 C  
HETATM    3  H   UNL     1     -10.560   6.147  65.993  1.00  0.00     0.000 HD 
ENDROOT
BRANCH   2   4
HETATM    4  C   UNL     1      -9.943   6.912  69.067  1.00  0.00    -0.158 C  
HETATM    5  O   UNL     1      -8.549   6.840  68.711  1.00  0.00    -0.123 OA 
HETATM    6  H   UNL     1      -8.026   7.187  69.424  1.00  0.00     0.000 HD 
BRANCH   4   7
HETATM    7  C   UNL     1     -10.337   8.358  69.418  1.00  0.00    -0.215 C  
HETATM    8  H   UNL     1     -11.906   9.254  70.189  1.00  0.00     0.000 HD 
HETATM    9  O   UNL     1     -11.663   8.361  69.972  1.00  0.00     0.073 OA 
BRANCH   7  10
HETATM   10  C   UNL     1     -10.249   9.280  68.184  1.00  0.00    -0.205 C  
HETATM   11  C   UNL     1      -9.243  10.392  68.416  1.00  0.00    -0.147 C  
HETATM   12  O   UNL     1     -11.494   9.884  67.842  1.00  0.00    -0.569 OA 
HETATM   13  O   UNL     1      -8.532  10.483  69.417  1.00  0.00    -0.154 OA 
HETATM   14  H   UNL     1     -11.440  10.451  67.082  1.00  0.00     0.000 HD 
ENDBRANCH   7  10
ENDBRANCH   4   7
ENDBRANCH   2   4
TORSDOF 3
ENDMDL
MODEL      271
REMARK 921   NORMALIZED FREE ENERGY PREDICTED BY IDOCK:   -1.19 KCAL/MOL
REMARK 922        TOTAL FREE ENERGY PREDICTED BY IDOCK:   -2.02 KCAL/MOL
REMARK 923 INTER-LIGAND FREE ENERGY PREDICTED BY IDOCK:   -2.39 KCAL/MOL
REMARK 924 INTRA-LIGAND FREE ENERGY PREDICTED BY IDOCK:    0.37 KCAL/MOL
REMARK 927      BINDING AFFINITY PREDICTED BY RF-SCORE:    0.00 PKD
ROOT
HETATM    1  O   UNL     1     -11.366   4.421  65.100  1.00  0.00    -1.022 OA 
HETATM    2  C   UNL     1      -9.982   4.156  64.850  1.00  0.00    -0.199 C  
HETATM    3  H   UNL     1     -11.881   3.831  64.564  1.00  0.00     0.000 HD 
ENDROOT
BRANCH   2   4
HETATM    4  C   UNL     1      -9.150   5.110  65.714  1.00  0.00    -0.156 C  
HETATM    5  O   UNL     1      -9.776   6.407  65.724  1.00  0.00    -0.380 OA 
HETATM    6  H   UNL     1      -9.260   6.998  66.259  1.00  0.00     0.000 HD 
BRANCH   4   7
HETATM    7  C   UNL     1      -8.979   4.582  67.150  1.00  0.00    -0.116 C  
HETATM    8  H   UNL     1      -9.982   4.701  68.835  1.00  0.00     0.000 HD 
HETATM    9  O   UNL     1     -10.088   5.026  67.948  1.00  0.00    -0.156 OA 
BRANCH   7  10
HETATM   10  C   UNL     1      -7.637   5.040  67.761  1.00  0.00    -0.083 C  
HETATM   11  C   UNL     1      -7.750   6.455  68.300  1.00  0.00    -0.104 C  
HETATM   12  O   UNL     1      -6.556   5.011  66.833  1.00  0.00    -0.047 OA 
HETATM   13  O   UNL     1      -8.794   7.104  68.325  1.00  0.00    -0.128 OA 
HETATM   14  H   UNL     1      -5.731   5.293  67.210  1.00  0.00     0.000 HD 
ENDBRANCH   7  10
ENDBRANCH   4   7
ENDBRANCH   2   4
TORSDOF 3
ENDMDL
MODEL      272
REMARK 921   NORMALIZED FREE ENERGY PREDICTED BY IDOCK:   -1.18 KCAL/MOL
REMARK 922        TOTAL FREE ENERGY PREDICTED BY IDOCK:   -2.01 KCAL/MOL
REMARK 923 INTER-LIGAND FREE ENERGY PREDICTED BY IDOCK:   -1.58 KCAL/MOL
REMARK 924 INTRA-LIGAND FREE ENERGY PREDICTED BY IDOCK:   -0.43 KCAL/MOL
REMARK 927      BINDING AFFINITY PREDICTED BY RF-SCORE:    0.00 PKD
ROOT
HETATM    1  O   UNL     1     -11.089   5.879  71.074  1.00  0.00    -0.284 OA 
HETATM    2  C   UNL     1     -10.755   5.825  69.684  1.00  0.00    -0.346 C  
HETATM    3  H   UNL     1     -12.010   6.100  71.148  1.00  0.00     0.000 HD 
ENDROOT
BRANCH   2   4
HETATM    4  C   UNL     1      -9.270   5.470  69.564  1.00  0.00    -0.121 C  
HETATM    5  O   UNL     1      -8.982   5.093  68.204  1.00  0.00    -0.108 OA 
HETATM    6  H   UNL     1      -8.061   4.872  68.129  1.00  0.00     0.000 HD 
BRANCH   4   7
HETATM    7  C   UNL     1      -8.363   6.633  70.005  1.00  0.00    -0.135 C  
HETATM    8  H   UNL     1      -7.785   7.411  71.714  1.00  0.00     0.000 HD 
HETATM    9  O   UNL     1      -8.344   6.694  71.441  1.00  0.00    -0.119 OA 
BRANCH   7  10
HETATM   10  C   UNL     1      -8.832   7.973  69.400  1.00  0.00    -0.144 C  
HETATM   11  C   UNL     1      -7.716   8.618  68.598  1.00  0.00    -0.099 C  
HETATM   12  O   UNL     1      -9.265   8.913  70.379  1.00  0.00    -0.165 OA 
HETATM   13  O   UNL     1      -6.623   8.093  68.389  1.00  0.00    -0.056 OA 
HETATM   14  H   UNL     1      -9.554   9.738  70.006  1.00  0.00     0.000 HD 
ENDBRANCH   7  10
ENDBRANCH   4   7
ENDBRANCH   2   4
TORSDOF 3
ENDMDL
MODEL      273
REMARK 921   NORMALIZED FREE ENERGY PREDICTED BY IDOCK:   -1.15 KCAL/MOL
REMARK 922        TOTAL FREE ENERGY PREDICTED BY IDOCK:   -1.98 KCAL/MOL
REMARK 923 INTER-LIGAND FREE ENERGY PREDICTED BY IDOCK:   -1.58 KCAL/MOL
REMARK 924 INTRA-LIGAND FREE ENERGY PREDICTED BY IDOCK:   -0.40 KCAL/MOL
REMARK 927      BINDING AFFINITY PREDICTED BY RF-SCORE:    0.00 PKD
ROOT
HETATM    1  O   UNL     1      -7.094   7.789  64.166  1.00  0.00    -0.069 OA 
HETATM    2  C   UNL     1      -8.246   8.580  63.861  1.00  0.00    -0.127 C  
HETATM    3  H   UNL     1      -6.793   7.382  63.362  1.00  0.00     0.000 HD 
ENDROOT
BRANCH   2   4
HETATM    4  C   UNL     1      -8.731   9.237  65.157  1.00  0.00    -0.185 C  
HETATM    5  O   UNL     1     -10.025   9.828  64.933  1.00  0.00    -0.412 OA 
HETATM    6  H   UNL     1     -10.326  10.235  65.736  1.00  0.00     0.000 HD 
BRANCH   4   7
HETATM    7  C   UNL     1      -8.791   8.232  66.322  1.00  0.00    -0.161 C  
HETATM    8  H   UNL     1     -10.205   7.347  67.361  1.00  0.00     0.000 HD 
HETATM    9  O   UNL     1     -10.167   7.967  66.642  1.00  0.00    -0.285 OA 
BRANCH   7  10
HETATM   10  C   UNL     1      -8.027   8.755  67.557  1.00  0.00    -0.102 C  
HETATM   11  C   UNL     1      -6.652   8.118  67.644  1.00  0.00    -0.058 C  
HETATM   12  O   UNL     1      -8.702   8.505  68.786  1.00  0.00    -0.136 OA 
HETATM   13  O   UNL     1      -6.185   7.361  66.794  1.00  0.00    -0.041 OA 
HETATM   14  H   UNL     1      -8.232   8.827  69.546  1.00  0.00     0.000 HD 
ENDBRANCH   7  10
ENDBRANCH   4   7
ENDBRANCH   2   4
TORSDOF 3
ENDMDL
MODEL      274
REMARK 921   NORMALIZED FREE ENERGY PREDICTED BY IDOCK:   -1.15 KCAL/MOL
REMARK 922        TOTAL FREE ENERGY PREDICTED BY IDOCK:   -1.97 KCAL/MOL
REMARK 923 INTER-LIGAND FREE ENERGY PREDICTED BY IDOCK:   -1.79 KCAL/MOL
REMARK 924 INTRA-LIGAND FREE ENERGY PREDICTED BY IDOCK:   -0.18 KCAL/MOL
REMARK 927      BINDING AFFINITY PREDICTED BY RF-SCORE:    0.00 PKD
ROOT
HETATM    1  O   UNL     1     -10.736   4.870  71.960  1.00  0.00    -0.182 OA 
HETATM    2  C   UNL     1      -9.527   4.874  71.195  1.00  0.00    -0.157 C  
HETATM    3  H   UNL     1     -11.404   4.421  71.455  1.00  0.00     0.000 HD 
ENDROOT
BRANCH   2   4
HETATM    4  C   UNL     1      -8.450   5.598  72.009  1.00  0.00    -0.126 C  
HETATM    5  O   UNL     1      -7.183   4.945  71.804  1.00  0.00    -0.062 OA 
HETATM    6  H   UNL     1      -6.515   5.395  72.309  1.00  0.00     0.000 HD 
BRANCH   4   7
HETATM    7  C   UNL     1      -8.355   7.089  71.638  1.00  0.00    -0.108 C  
HETATM    8  H   UNL     1      -6.913   8.368  71.259  1.00  0.00     0.000 HD 
HETATM    9  O   UNL     1      -6.972   7.448  71.488  1.00  0.00    -0.054 OA 
BRANCH   7  10
HETATM   10  C   UNL     1      -9.046   7.977  72.696  1.00  0.00    -0.227 C  
HETATM   11  C   UNL     1     -10.153   8.800  72.063  1.00  0.00    -0.327 C  
HETATM   12  O   UNL     1      -8.152   8.876  73.347  1.00  0.00    -0.353 OA 
HETATM   13  O   UNL     1     -10.505   8.698  70.888  1.00  0.00    -0.198 OA 
HETATM   14  H   UNL     1      -8.577   9.423  73.998  1.00  0.00     0.000 HD 
ENDBRANCH   7  10
ENDBRANCH   4   7
ENDBRANCH   2   4
TORSDOF 3
ENDMDL
MODEL      275
REMARK 921   NORMALIZED FREE ENERGY PREDICTED BY IDOCK:   -1.15 KCAL/MOL
REMARK 922        TOTAL FREE ENERGY PREDICTED BY IDOCK:   -1.97 KCAL/MOL
REMARK 923 INTER-LIGAND FREE ENERGY PREDICTED BY IDOCK:   -2.18 KCAL/MOL
REMARK 924 INTRA-LIGAND FREE ENERGY PREDICTED BY IDOCK:    0.21 KCAL/MOL
REMARK 927      BINDING AFFINITY PREDICTED BY RF-SCORE:    0.00 PKD
ROOT
HETATM    1  O   UNL     1     -11.415   4.485  65.183  1.00  0.00    -1.105 OA 
HETATM    2  C   UNL     1     -10.234   4.080  64.484  1.00  0.00    -0.210 C  
HETATM    3  H   UNL     1     -12.130   4.522  64.559  1.00  0.00     0.000 HD 
ENDROOT
BRANCH   2   4
HETATM    4  C   UNL     1      -9.081   4.021  65.491  1.00  0.00    -0.142 C  
HETATM    5  O   UNL     1      -8.384   5.281  65.485  1.00  0.00    -0.119 OA 
HETATM    6  H   UNL     1      -7.669   5.245  66.109  1.00  0.00     0.000 HD 
BRANCH   4   7
HETATM    7  C   UNL     1      -9.573   3.683  66.910  1.00  0.00    -0.150 C  
HETATM    8  H   UNL     1      -9.876   4.672  68.580  1.00  0.00     0.000 HD 
HETATM    9  O   UNL     1      -9.572   4.880  67.704  1.00  0.00    -0.137 OA 
BRANCH   7  10
HETATM   10  C   UNL     1      -8.704   2.586  67.561  1.00  0.00    -0.116 C  
HETATM   11  C   UNL     1      -7.367   3.153  68.001  1.00  0.00    -0.053 C  
HETATM   12  O   UNL     1      -8.446   1.483  66.695  1.00  0.00    -0.084 OA 
HETATM   13  O   UNL     1      -7.064   4.343  67.930  1.00  0.00    -0.062 OA 
HETATM   14  H   UNL     1      -7.911   0.809  67.095  1.00  0.00     0.000 HD 
ENDBRANCH   7  10
ENDBRANCH   4   7
ENDBRANCH   2   4
TORSDOF 3
ENDMDL
MODEL      276
REMARK 921   NORMALIZED FREE ENERGY PREDICTED BY IDOCK:   -1.13 KCAL/MOL
REMARK 922        TOTAL FREE ENERGY PREDICTED BY IDOCK:   -1.96 KCAL/MOL
REMARK 923 INTER-LIGAND FREE ENERGY PREDICTED BY IDOCK:   -2.10 KCAL/MOL
REMARK 924 INTRA-LIGAND FREE ENERGY PREDICTED BY IDOCK:    0.15 KCAL/MOL
REMARK 927      BINDING AFFINITY PREDICTED BY RF-SCORE:    0.00 PKD
ROOT
HETATM    1  O   UNL     1     -10.870   4.804  72.000  1.00  0.00    -0.111 OA 
HETATM    2  C   UNL     1      -9.609   4.666  71.338  1.00  0.00    -0.166 C  
HETATM    3  H   UNL     1     -11.513   4.296  71.519  1.00  0.00     0.000 HD 
ENDROOT
BRANCH   2   4
HETATM    4  C   UNL     1      -8.571   5.484  72.113  1.00  0.00    -0.126 C  
HETATM    5  O   UNL     1      -7.607   6.021  71.189  1.00  0.00    -0.095 OA 
HETATM    6  H   UNL     1      -6.963   6.529  71.669  1.00  0.00     0.000 HD 
BRANCH   4   7
HETATM    7  C   UNL     1      -9.224   6.614  72.929  1.00  0.00    -0.135 C  
HETATM    8  H   UNL     1     -10.154   6.764  74.654  1.00  0.00     0.000 HD 
HETATM    9  O   UNL     1      -9.751   6.067  74.149  1.00  0.00    -0.162 OA 
BRANCH   7  10
HETATM   10  C   UNL     1     -10.328   7.328  72.120  1.00  0.00    -0.193 C  
HETATM   11  C   UNL     1      -9.811   8.636  71.548  1.00  0.00    -0.272 C  
HETATM   12  O   UNL     1     -11.492   7.619  72.889  1.00  0.00    -0.510 OA 
HETATM   13  O   UNL     1      -8.646   9.019  71.643  1.00  0.00    -0.333 OA 
HETATM   14  H   UNL     1     -12.171   8.058  72.391  1.00  0.00     0.000 HD 
ENDBRANCH   7  10
ENDBRANCH   4   7
ENDBRANCH   2   4
TORSDOF 3
ENDMDL
MODEL      277
REMARK 921   NORMALIZED FREE ENERGY PREDICTED BY IDOCK:   -1.11 KCAL/MOL
REMARK 922        TOTAL FREE ENERGY PREDICTED BY IDOCK:   -1.93 KCAL/MOL
REMARK 923 INTER-LIGAND FREE ENERGY PREDICTED BY IDOCK:   -1.80 KCAL/MOL
REMARK 924 INTRA-LIGAND FREE ENERGY PREDICTED BY IDOCK:   -0.13 KCAL/MOL
REMARK 927      BINDING AFFINITY PREDICTED BY RF-SCORE:    0.00 PKD
ROOT
HETATM    1  O   UNL     1      -7.569  12.096  69.128  1.00  0.00    -0.324 OA 
HETATM    2  C   UNL     1      -8.356  10.907  69.009  1.00  0.00    -0.114 C  
HETATM    3  H   UNL     1      -7.934  12.623  69.828  1.00  0.00     0.000 HD 
ENDROOT
BRANCH   2   4
HETATM    4  C   UNL     1      -7.768  10.056  67.879  1.00  0.00    -0.090 C  
HETATM    5  O   UNL     1      -6.331  10.072  67.975  1.00  0.00    -0.054 OA 
HETATM    6  H   UNL     1      -5.966   9.544  67.274  1.00  0.00     0.000 HD 
BRANCH   4   7
HETATM    7  C   UNL     1      -8.296   8.611  67.914  1.00  0.00    -0.123 C  
HETATM    8  H   UNL     1      -7.922   6.940  66.949  1.00  0.00     0.000 HD 
HETATM    9  O   UNL     1      -7.597   7.832  66.928  1.00  0.00    -0.095 OA 
BRANCH   7  10
HETATM   10  C   UNL     1      -9.821   8.562  67.679  1.00  0.00    -0.174 C  
HETATM   11  C   UNL     1     -10.506   7.770  68.777  1.00  0.00    -0.181 C  
HETATM   12  O   UNL     1     -10.180   7.978  66.430  1.00  0.00    -0.466 OA 
HETATM   13  O   UNL     1      -9.930   7.313  69.763  1.00  0.00    -0.179 OA 
HETATM   14  H   UNL     1     -11.118   7.948  66.286  1.00  0.00     0.000 HD 
ENDBRANCH   7  10
ENDBRANCH   4   7
ENDBRANCH   2   4
TORSDOF 3
ENDMDL
MODEL      278
REMARK 921   NORMALIZED FREE ENERGY PREDICTED BY IDOCK:   -1.10 KCAL/MOL
REMARK 922        TOTAL FREE ENERGY PREDICTED BY IDOCK:   -1.92 KCAL/MOL
REMARK 923 INTER-LIGAND FREE ENERGY PREDICTED BY IDOCK:   -2.47 KCAL/MOL
REMARK 924 INTRA-LIGAND FREE ENERGY PREDICTED BY IDOCK:    0.56 KCAL/MOL
REMARK 927      BINDING AFFINITY PREDICTED BY RF-SCORE:    0.00 PKD
ROOT
HETATM    1  O   UNL     1      -9.984   8.480  65.726  1.00  0.00    -0.441 OA 
HETATM    2  C   UNL     1     -10.548   7.902  66.906  1.00  0.00    -0.263 C  
HETATM    3  H   UNL     1     -10.087   7.859  65.014  1.00  0.00     0.000 HD 
ENDROOT
BRANCH   2   4
HETATM    4  C   UNL     1     -10.381   8.903  68.054  1.00  0.00    -0.219 C  
HETATM    5  O   UNL     1     -11.055   8.400  69.222  1.00  0.00    -0.432 OA 
HETATM    6  H   UNL     1     -10.952   9.020  69.934  1.00  0.00     0.000 HD 
BRANCH   4   7
HETATM    7  C   UNL     1      -8.899   9.180  68.363  1.00  0.00    -0.129 C  
HETATM    8  H   UNL     1      -7.245   8.123  68.449  1.00  0.00     0.000 HD 
HETATM    9  O   UNL     1      -8.160   7.952  68.258  1.00  0.00    -0.120 OA 
BRANCH   7  10
HETATM   10  C   UNL     1      -8.724   9.814  69.760  1.00  0.00    -0.212 C  
HETATM   11  C   UNL     1      -8.625   8.738  70.827  1.00  0.00    -0.187 C  
HETATM   12  O   UNL     1      -9.791  10.688  70.120  1.00  0.00    -0.333 OA 
HETATM   13  O   UNL     1      -8.595   7.531  70.591  1.00  0.00    -0.134 OA 
HETATM   14  H   UNL     1      -9.683  11.077  70.980  1.00  0.00     0.000 HD 
ENDBRANCH   7  10
ENDBRANCH   4   7
ENDBRANCH   2   4
TORSDOF 3
ENDMDL
MODEL      279
REMARK 921   NORMALIZED FREE ENERGY PREDICTED BY IDOCK:   -1.09 KCAL/MOL
REMARK 922        TOTAL FREE ENERGY PREDICTED BY IDOCK:   -1.90 KCAL/MOL
REMARK 923 INTER-LIGAND FREE ENERGY PREDICTED BY IDOCK:   -1.79 KCAL/MOL
REMARK 924 INTRA-LIGAND FREE ENERGY PREDICTED BY IDOCK:   -0.11 KCAL/MOL
REMARK 927      BINDING AFFINITY PREDICTED BY RF-SCORE:    0.00 PKD
ROOT
HETATM    1  O   UNL     1     -11.901   6.652  67.032  1.00  0.00    -0.391 OA 
HETATM    2  C   UNL     1     -10.688   6.596  67.788  1.00  0.00    -0.283 C  
HETATM    3  H   UNL     1     -11.971   5.852  66.525  1.00  0.00     0.000 HD 
ENDROOT
BRANCH   2   4
HETATM    4  C   UNL     1     -10.575   7.888  68.604  1.00  0.00    -0.111 C  
HETATM    5  O   UNL     1      -9.372   7.844  69.394  1.00  0.00    -0.152 OA 
HETATM    6  H   UNL     1      -9.301   8.645  69.901  1.00  0.00     0.000 HD 
BRANCH   4   7
HETATM    7  C   UNL     1     -10.587   9.138  67.707  1.00  0.00    -0.227 C  
HETATM    8  H   UNL     1     -10.790   9.505  65.787  1.00  0.00     0.000 HD 
HETATM    9  O   UNL     1     -10.783   8.734  66.342  1.00  0.00    -0.006 OA 
BRANCH   7  10
HETATM   10  C   UNL     1      -9.286   9.954  67.861  1.00  0.00    -0.130 C  
HETATM   11  C   UNL     1      -9.565  11.439  67.717  1.00  0.00    -0.172 C  
HETATM   12  O   UNL     1      -8.284   9.604  66.909  1.00  0.00    -0.112 OA 
HETATM   13  O   UNL     1     -10.690  11.922  67.588  1.00  0.00    -0.203 OA 
HETATM   14  H   UNL     1      -7.484  10.107  67.005  1.00  0.00     0.000 HD 
ENDBRANCH   7  10
ENDBRANCH   4   7
ENDBRANCH   2   4
TORSDOF 3
ENDMDL
MODEL      280
REMARK 921   NORMALIZED FREE ENERGY PREDICTED BY IDOCK:   -1.09 KCAL/MOL
REMARK 922        TOTAL FREE ENERGY PREDICTED BY IDOCK:   -1.90 KCAL/MOL
REMARK 923 INTER-LIGAND FREE ENERGY PREDICTED BY IDOCK:   -1.71 KCAL/MOL
REMARK 924 INTRA-LIGAND FREE ENERGY PREDICTED BY IDOCK:   -0.20 KCAL/MOL
REMARK 927      BINDING AFFINITY PREDICTED BY RF-SCORE:    0.00 PKD
ROOT
HETATM    1  O   UNL     1      -9.417   8.726  65.239  1.00  0.00    -0.444 OA 
HETATM    2  C   UNL     1      -9.924   9.899  64.597  1.00  0.00    -0.002 C  
HETATM    3  H   UNL     1      -9.981   7.996  65.011  1.00  0.00     0.000 HD 
ENDROOT
BRANCH   2   4
HETATM    4  C   UNL     1      -9.015  11.076  64.966  1.00  0.00    -0.123 C  
HETATM    5  O   UNL     1      -8.206  11.423  63.827  1.00  0.00    -0.070 OA 
HETATM    6  H   UNL     1      -7.642  12.152  64.055  1.00  0.00     0.000 HD 
BRANCH   4   7
HETATM    7  C   UNL     1      -9.821  12.295  65.448  1.00  0.00    -0.192 C  
HETATM    8  H   UNL     1     -11.507  12.591  66.413  1.00  0.00     0.000 HD 
HETATM    9  O   UNL     1     -11.009  11.839  66.115  1.00  0.00    -0.288 OA 
BRANCH   7  10
HETATM   10  C   UNL     1     -10.171  13.238  64.276  1.00  0.00    -0.196 C  
HETATM   11  C   UNL     1     -10.015  14.689  64.692  1.00  0.00     0.372 C  
HETATM   12  O   UNL     1     -11.499  13.063  63.789  1.00  0.00    -0.435 OA 
HETATM   13  O   UNL     1      -9.581  15.053  65.784  1.00  0.00    -0.328 OA 
HETATM   14  H   UNL     1     -11.714  13.643  63.069  1.00  0.00     0.000 HD 
ENDBRANCH   7  10
ENDBRANCH   4   7
ENDBRANCH   2   4
TORSDOF 3
ENDMDL
MODEL      281
REMARK 921   NORMALIZED FREE ENERGY PREDICTED BY IDOCK:   -1.08 KCAL/MOL
REMARK 922        TOTAL FREE ENERGY PREDICTED BY IDOCK:   -1.90 KCAL/MOL
REMARK 923 INTER-LIGAND FREE ENERGY PREDICTED BY IDOCK:   -1.46 KCAL/MOL
REMARK 924 INTRA-LIGAND FREE ENERGY PREDICTED BY IDOCK:   -0.44 KCAL/MOL
REMARK 927      BINDING AFFINITY PREDICTED BY RF-SCORE:    0.00 PKD
ROOT
HETATM    1  O   UNL     1      -7.255   9.875  70.922  1.00  0.00    -0.330 OA 
HETATM    2  C   UNL     1      -8.356   9.239  70.266  1.00  0.00    -0.186 C  
HETATM    3  H   UNL     1      -7.296  10.805  70.735  1.00  0.00     0.000 HD 
ENDROOT
BRANCH   2   4
HETATM    4  C   UNL     1      -8.289   7.739  70.568  1.00  0.00    -0.125 C  
HETATM    5  O   UNL     1      -7.085   7.194  69.994  1.00  0.00    -0.063 OA 
HETATM    6  H   UNL     1      -7.043   6.264  70.182  1.00  0.00     0.000 HD 
BRANCH   4   7
HETATM    7  C   UNL     1      -8.343   7.454  72.080  1.00  0.00    -0.106 C  
HETATM    8  H   UNL     1      -8.977   8.401  73.680  1.00  0.00     0.000 HD 
HETATM    9  O   UNL     1      -8.943   8.576  72.747  1.00  0.00    -0.292 OA 
BRANCH   7  10
HETATM   10  C   UNL     1      -6.939   7.157  72.648  1.00  0.00    -0.068 C  
HETATM   11  C   UNL     1      -6.944   5.861  73.438  1.00  0.00    -0.085 C  
HETATM   12  O   UNL     1      -6.447   8.187  73.501  1.00  0.00    -0.095 OA 
HETATM   13  O   UNL     1      -7.915   5.111  73.530  1.00  0.00    -0.108 OA 
HETATM   14  H   UNL     1      -5.583   8.004  73.851  1.00  0.00     0.000 HD 
ENDBRANCH   7  10
ENDBRANCH   4   7
ENDBRANCH   2   4
TORSDOF 3
ENDMDL
MODEL      282
REMARK 921   NORMALIZED FREE ENERGY PREDICTED BY IDOCK:   -1.08 KCAL/MOL
REMARK 922        TOTAL FREE ENERGY PREDICTED BY IDOCK:   -1.89 KCAL/MOL
REMARK 923 INTER-LIGAND FREE ENERGY PREDICTED BY IDOCK:   -1.54 KCAL/MOL
REMARK 924 INTRA-LIGAND FREE ENERGY PREDICTED BY IDOCK:   -0.35 KCAL/MOL
REMARK 927      BINDING AFFINITY PREDICTED BY RF-SCORE:    0.00 PKD
ROOT
HETATM    1  O   UNL     1     -10.953   7.167  68.667  1.00  0.00    -0.404 OA 
HETATM    2  C   UNL     1     -10.673   7.893  67.467  1.00  0.00    -0.181 C  
HETATM    3  H   UNL     1     -11.703   6.607  68.505  1.00  0.00     0.000 HD 
ENDROOT
BRANCH   2   4
HETATM    4  C   UNL     1      -9.463   8.797  67.727  1.00  0.00    -0.142 C  
HETATM    5  O   UNL     1      -8.907   8.481  69.017  1.00  0.00    -0.143 OA 
HETATM    6  H   UNL     1      -8.156   9.041  69.179  1.00  0.00     0.000 HD 
BRANCH   4   7
HETATM    7  C   UNL     1      -8.394   8.657  66.629  1.00  0.00    -0.108 C  
HETATM    8  H   UNL     1      -8.031   9.492  64.888  1.00  0.00     0.000 HD 
HETATM    9  O   UNL     1      -8.690   9.578  65.566  1.00  0.00    -0.137 OA 
BRANCH   7  10
HETATM   10  C   UNL     1      -8.316   7.209  66.100  1.00  0.00    -0.133 C  
HETATM   11  C   UNL     1      -7.171   6.460  66.757  1.00  0.00    -0.077 C  
HETATM   12  O   UNL     1      -8.135   7.133  64.689  1.00  0.00    -0.166 OA 
HETATM   13  O   UNL     1      -6.466   6.923  67.653  1.00  0.00    -0.046 OA 
HETATM   14  H   UNL     1      -8.087   6.241  64.364  1.00  0.00     0.000 HD 
ENDBRANCH   7  10
ENDBRANCH   4   7
ENDBRANCH   2   4
TORSDOF 3
ENDMDL
MODEL      283
REMARK 921   NORMALIZED FREE ENERGY PREDICTED BY IDOCK:   -1.07 KCAL/MOL
REMARK 922        TOTAL FREE ENERGY PREDICTED BY IDOCK:   -1.89 KCAL/MOL
REMARK 923 INTER-LIGAND FREE ENERGY PREDICTED BY IDOCK:   -1.51 KCAL/MOL
REMARK 924 INTRA-LIGAND FREE ENERGY PREDICTED BY IDOCK:   -0.38 KCAL/MOL
REMARK 927      BINDING AFFINITY PREDICTED BY RF-SCORE:    0.00 PKD
ROOT
HETATM    1  O   UNL     1     -10.946   7.029  66.722  1.00  0.00    -0.506 OA 
HETATM    2  C   UNL     1     -10.296   6.096  67.589  1.00  0.00    -0.201 C  
HETATM    3  H   UNL     1     -11.885   6.913  66.813  1.00  0.00     0.000 HD 
ENDROOT
BRANCH   2   4
HETATM    4  C   UNL     1      -8.783   6.282  67.442  1.00  0.00    -0.105 C  
HETATM    5  O   UNL     1      -8.436   6.250  66.045  1.00  0.00    -0.131 OA 
HETATM    6  H   UNL     1      -7.497   6.365  65.953  1.00  0.00     0.000 HD 
BRANCH   4   7
HETATM    7  C   UNL     1      -8.300   7.594  68.087  1.00  0.00    -0.124 C  
HETATM    8  H   UNL     1      -9.090   8.996  69.214  1.00  0.00     0.000 HD 
HETATM    9  O   UNL     1      -9.388   8.186  68.816  1.00  0.00    -0.144 OA 
BRANCH   7  10
HETATM   10  C   UNL     1      -7.744   8.571  67.029  1.00  0.00    -0.092 C  
HETATM   11  C   UNL     1      -6.232   8.656  67.121  1.00  0.00    -0.056 C  
HETATM   12  O   UNL     1      -8.264   9.892  67.155  1.00  0.00    -0.119 OA 
HETATM   13  O   UNL     1      -5.545   7.967  67.874  1.00  0.00    -0.031 OA 
HETATM   14  H   UNL     1      -7.922  10.493  66.504  1.00  0.00     0.000 HD 
ENDBRANCH   7  10
ENDBRANCH   4   7
ENDBRANCH   2   4
TORSDOF 3
ENDMDL
MODEL      284
REMARK 921   NORMALIZED FREE ENERGY PREDICTED BY IDOCK:   -1.07 KCAL/MOL
REMARK 922        TOTAL FREE ENERGY PREDICTED BY IDOCK:   -1.88 KCAL/MOL
REMARK 923 INTER-LIGAND FREE ENERGY PREDICTED BY IDOCK:   -1.88 KCAL/MOL
REMARK 924 INTRA-LIGAND FREE ENERGY PREDICTED BY IDOCK:   -0.00 KCAL/MOL
REMARK 927      BINDING AFFINITY PREDICTED BY RF-SCORE:    0.00 PKD
ROOT
HETATM    1  O   UNL     1      -8.180   3.045  67.370  1.00  0.00    -0.080 OA 
HETATM    2  C   UNL     1      -9.593   3.271  67.357  1.00  0.00    -0.063 C  
HETATM    3  H   UNL     1      -8.031   2.117  67.511  1.00  0.00     0.000 HD 
ENDROOT
BRANCH   2   4
HETATM    4  C   UNL     1      -9.834   4.767  67.131  1.00  0.00    -0.193 C  
HETATM    5  O   UNL     1     -10.769   4.938  66.049  1.00  0.00    -0.429 OA 
HETATM    6  H   UNL     1     -10.918   5.865  65.909  1.00  0.00     0.000 HD 
BRANCH   4   7
HETATM    7  C   UNL     1     -10.347   5.464  68.404  1.00  0.00    -0.146 C  
HETATM    8  H   UNL     1     -10.600   7.319  69.002  1.00  0.00     0.000 HD 
HETATM    9  O   UNL     1     -10.283   6.888  68.217  1.00  0.00    -0.163 OA 
BRANCH   7  10
HETATM   10  C   UNL     1      -9.541   5.032  69.647  1.00  0.00    -0.170 C  
HETATM   11  C   UNL     1     -10.251   5.456  70.920  1.00  0.00    -0.234 C  
HETATM   12  O   UNL     1      -8.223   5.576  69.681  1.00  0.00    -0.098 OA 
HETATM   13  O   UNL     1     -11.361   5.987  70.948  1.00  0.00    -0.300 OA 
HETATM   14  H   UNL     1      -7.728   5.310  70.446  1.00  0.00     0.000 HD 
ENDBRANCH   7  10
ENDBRANCH   4   7
ENDBRANCH   2   4
TORSDOF 3
ENDMDL
MODEL      285
REMARK 921   NORMALIZED FREE ENERGY PREDICTED BY IDOCK:   -1.05 KCAL/MOL
REMARK 922        TOTAL FREE ENERGY PREDICTED BY IDOCK:   -1.86 KCAL/MOL
REMARK 923 INTER-LIGAND FREE ENERGY PREDICTED BY IDOCK:   -2.24 KCAL/MOL
REMARK 924 INTRA-LIGAND FREE ENERGY PREDICTED BY IDOCK:    0.38 KCAL/MOL
REMARK 927      BINDING AFFINITY PREDICTED BY RF-SCORE:    0.00 PKD
ROOT
HETATM    1  O   UNL     1     -11.745   4.528  64.897  1.00  0.00    -1.012 OA 
HETATM    2  C   UNL     1     -10.720   3.867  64.150  1.00  0.00    -0.211 C  
HETATM    3  H   UNL     1     -12.481   4.683  64.317  1.00  0.00     0.000 HD 
ENDROOT
BRANCH   2   4
HETATM    4  C   UNL     1      -9.533   3.618  65.087  1.00  0.00    -0.162 C  
HETATM    5  O   UNL     1      -9.950   3.837  66.448  1.00  0.00    -0.401 OA 
HETATM    6  H   UNL     1      -9.215   3.683  67.029  1.00  0.00     0.000 HD 
BRANCH   4   7
HETATM    7  C   UNL     1      -8.957   2.200  64.921  1.00  0.00    -0.125 C  
HETATM    8  H   UNL     1      -8.590   0.670  66.098  1.00  0.00     0.000 HD 
HETATM    9  O   UNL     1      -8.945   1.546  66.200  1.00  0.00    -0.120 OA 
BRANCH   7  10
HETATM   10  C   UNL     1      -7.543   2.236  64.303  1.00  0.00    -0.064 C  
HETATM   11  C   UNL     1      -6.624   3.125  65.121  1.00  0.00    -0.039 C  
HETATM   12  O   UNL     1      -7.526   2.709  62.959  1.00  0.00    -0.047 OA 
HETATM   13  O   UNL     1      -6.946   3.664  66.179  1.00  0.00    -0.059 OA 
HETATM   14  H   UNL     1      -6.656   2.731  62.580  1.00  0.00     0.000 HD 
ENDBRANCH   7  10
ENDBRANCH   4   7
ENDBRANCH   2   4
TORSDOF 3
ENDMDL
MODEL      286
REMARK 921   NORMALIZED FREE ENERGY PREDICTED BY IDOCK:   -1.05 KCAL/MOL
REMARK 922        TOTAL FREE ENERGY PREDICTED BY IDOCK:   -1.86 KCAL/MOL
REMARK 923 INTER-LIGAND FREE ENERGY PREDICTED BY IDOCK:   -1.73 KCAL/MOL
REMARK 924 INTRA-LIGAND FREE ENERGY PREDICTED BY IDOCK:   -0.13 KCAL/MOL
REMARK 927      BINDING AFFINITY PREDICTED BY RF-SCORE:    0.00 PKD
ROOT
HETATM    1  O   UNL     1      -7.286   2.788  63.899  1.00  0.00    -0.061 OA 
HETATM    2  C   UNL     1      -7.519   4.026  64.576  1.00  0.00    -0.072 C  
HETATM    3  H   UNL     1      -6.355   2.714  63.729  1.00  0.00     0.000 HD 
ENDROOT
BRANCH   2   4
HETATM    4  C   UNL     1      -9.021   4.146  64.849  1.00  0.00    -0.138 C  
HETATM    5  O   UNL     1      -9.591   2.827  64.942  1.00  0.00    -0.250 OA 
HETATM    6  H   UNL     1     -10.523   2.900  65.112  1.00  0.00     0.000 HD 
BRANCH   4   7
HETATM    7  C   UNL     1      -9.311   4.950  66.129  1.00  0.00    -0.152 C  
HETATM    8  H   UNL     1     -10.909   5.627  67.049  1.00  0.00     0.000 HD 
HETATM    9  O   UNL     1     -10.730   5.131  66.259  1.00  0.00    -0.310 OA 
BRANCH   7  10
HETATM   10  C   UNL     1      -8.578   6.309  66.118  1.00  0.00    -0.143 C  
HETATM   11  C   UNL     1      -8.175   6.712  67.525  1.00  0.00    -0.122 C  
HETATM   12  O   UNL     1      -9.359   7.366  65.568  1.00  0.00    -0.371 OA 
HETATM   13  O   UNL     1      -8.333   6.004  68.519  1.00  0.00    -0.112 OA 
HETATM   14  H   UNL     1      -8.909   8.202  65.561  1.00  0.00     0.000 HD 
ENDBRANCH   7  10
ENDBRANCH   4   7
ENDBRANCH   2   4
TORSDOF 3
ENDMDL
MODEL      287
REMARK 921   NORMALIZED FREE ENERGY PREDICTED BY IDOCK:   -1.04 KCAL/MOL
REMARK 922        TOTAL FREE ENERGY PREDICTED BY IDOCK:   -1.85 KCAL/MOL
REMARK 923 INTER-LIGAND FREE ENERGY PREDICTED BY IDOCK:   -1.49 KCAL/MOL
REMARK 924 INTRA-LIGAND FREE ENERGY PREDICTED BY IDOCK:   -0.36 KCAL/MOL
REMARK 927      BINDING AFFINITY PREDICTED BY RF-SCORE:    0.00 PKD
ROOT
HETATM    1  O   UNL     1      -8.884   2.516  63.138  1.00  0.00    -0.085 OA 
HETATM    2  C   UNL     1      -8.148   3.734  62.991  1.00  0.00    -0.080 C  
HETATM    3  H   UNL     1      -8.425   1.834  62.662  1.00  0.00     0.000 HD 
ENDROOT
BRANCH   2   4
HETATM    4  C   UNL     1      -8.889   4.834  63.759  1.00  0.00    -0.106 C  
HETATM    5  O   UNL     1     -10.302   4.555  63.738  1.00  0.00    -0.394 OA 
HETATM    6  H   UNL     1     -10.761   5.237  64.214  1.00  0.00     0.000 HD 
BRANCH   4   7
HETATM    7  C   UNL     1      -8.385   4.963  65.208  1.00  0.00    -0.131 C  
HETATM    8  H   UNL     1      -7.440   3.811  66.489  1.00  0.00     0.000 HD 
HETATM    9  O   UNL     1      -7.752   3.732  65.595  1.00  0.00    -0.084 OA 
BRANCH   7  10
HETATM   10  C   UNL     1      -9.534   5.322  66.174  1.00  0.00    -0.158 C  
HETATM   11  C   UNL     1      -9.391   6.751  66.667  1.00  0.00    -0.165 C  
HETATM   12  O   UNL     1      -9.599   4.471  67.315  1.00  0.00    -0.160 OA 
HETATM   13  O   UNL     1      -8.529   7.535  66.274  1.00  0.00    -0.125 OA 
HETATM   14  H   UNL     1     -10.306   4.692  67.909  1.00  0.00     0.000 HD 
ENDBRANCH   7  10
ENDBRANCH   4   7
ENDBRANCH   2   4
TORSDOF 3
ENDMDL
MODEL      288
REMARK 921   NORMALIZED FREE ENERGY PREDICTED BY IDOCK:   -1.00 KCAL/MOL
REMARK 922        TOTAL FREE ENERGY PREDICTED BY IDOCK:   -1.80 KCAL/MOL
REMARK 923 INTER-LIGAND FREE ENERGY PREDICTED BY IDOCK:   -1.49 KCAL/MOL
REMARK 924 INTRA-LIGAND FREE ENERGY PREDICTED BY IDOCK:   -0.31 KCAL/MOL
REMARK 927      BINDING AFFINITY PREDICTED BY RF-SCORE:    0.00 PKD
ROOT
HETATM    1  O   UNL     1      -6.303   8.043  64.003  1.00  0.00    -0.061 OA 
HETATM    2  C   UNL     1      -7.676   8.318  63.711  1.00  0.00    -0.145 C  
HETATM    3  H   UNL     1      -5.947   7.528  63.288  1.00  0.00     0.000 HD 
ENDROOT
BRANCH   2   4
HETATM    4  C   UNL     1      -8.251   9.149  64.863  1.00  0.00    -0.153 C  
HETATM    5  O   UNL     1      -9.594   9.549  64.533  1.00  0.00    -0.433 OA 
HETATM    6  H   UNL     1      -9.951  10.063  65.247  1.00  0.00     0.000 HD 
BRANCH   4   7
HETATM    7  C   UNL     1      -8.229   8.376  66.194  1.00  0.00    -0.113 C  
HETATM    8  H   UNL     1      -7.006   8.220  67.724  1.00  0.00     0.000 HD 
HETATM    9  O   UNL     1      -7.020   8.697  66.902  1.00  0.00    -0.075 OA 
BRANCH   7  10
HETATM   10  C   UNL     1      -8.350   6.855  65.965  1.00  0.00    -0.134 C  
HETATM   11  C   UNL     1      -9.497   6.280  66.776  1.00  0.00    -0.144 C  
HETATM   12  O   UNL     1      -7.168   6.137  66.310  1.00  0.00    -0.069 OA 
HETATM   13  O   UNL     1     -10.275   6.956  67.448  1.00  0.00    -0.162 OA 
HETATM   14  H   UNL     1      -7.243   5.201  66.169  1.00  0.00     0.000 HD 
ENDBRANCH   7  10
ENDBRANCH   4   7
ENDBRANCH   2   4
TORSDOF 3
ENDMDL
MODEL      289
REMARK 921   NORMALIZED FREE ENERGY PREDICTED BY IDOCK:   -0.97 KCAL/MOL
REMARK 922        TOTAL FREE ENERGY PREDICTED BY IDOCK:   -1.77 KCAL/MOL
REMARK 923 INTER-LIGAND FREE ENERGY PREDICTED BY IDOCK:   -1.45 KCAL/MOL
REMARK 924 INTRA-LIGAND FREE ENERGY PREDICTED BY IDOCK:   -0.32 KCAL/MOL
REMARK 927      BINDING AFFINITY PREDICTED BY RF-SCORE:    0.00 PKD
ROOT
HETATM    1  O   UNL     1      -5.541   7.884  63.411  1.00  0.00    -0.052 OA 
HETATM    2  C   UNL     1      -6.882   8.113  63.855  1.00  0.00    -0.074 C  
HETATM    3  H   UNL     1      -5.513   7.036  62.983  1.00  0.00     0.000 HD 
ENDROOT
BRANCH   2   4
HETATM    4  C   UNL     1      -6.928   9.480  64.545  1.00  0.00    -0.103 C  
HETATM    5  O   UNL     1      -6.871  10.516  63.547  1.00  0.00    -0.317 OA 
HETATM    6  H   UNL     1      -6.900  11.364  63.975  1.00  0.00     0.000 HD 
BRANCH   4   7
HETATM    7  C   UNL     1      -8.185   9.640  65.419  1.00  0.00    -0.128 C  
HETATM    8  H   UNL     1      -9.930   8.750  65.571  1.00  0.00     0.000 HD 
HETATM    9  O   UNL     1      -9.154   8.652  65.032  1.00  0.00    -0.087 OA 
BRANCH   7  10
HETATM   10  C   UNL     1      -8.771  11.064  65.307  1.00  0.00    -0.093 C  
HETATM   11  C   UNL     1      -9.522  11.435  66.572  1.00  0.00    -0.200 C  
HETATM   12  O   UNL     1      -9.665  11.221  64.207  1.00  0.00    -0.237 OA 
HETATM   13  O   UNL     1      -9.572  10.729  67.579  1.00  0.00    -0.157 OA 
HETATM   14  H   UNL     1     -10.025  12.097  64.138  1.00  0.00     0.000 HD 
ENDBRANCH   7  10
ENDBRANCH   4   7
ENDBRANCH   2   4
TORSDOF 3
ENDMDL
MODEL      290
REMARK 921   NORMALIZED FREE ENERGY PREDICTED BY IDOCK:   -0.97 KCAL/MOL
REMARK 922        TOTAL FREE ENERGY PREDICTED BY IDOCK:   -1.77 KCAL/MOL
REMARK 923 INTER-LIGAND FREE ENERGY PREDICTED BY IDOCK:   -1.45 KCAL/MOL
REMARK 924 INTRA-LIGAND FREE ENERGY PREDICTED BY IDOCK:   -0.32 KCAL/MOL
REMARK 927      BINDING AFFINITY PREDICTED BY RF-SCORE:    0.00 PKD
ROOT
HETATM    1  O   UNL     1      -7.630   5.250  65.680  1.00  0.00    -0.080 OA 
HETATM    2  C   UNL     1      -8.549   5.435  66.761  1.00  0.00    -0.110 C  
HETATM    3  H   UNL     1      -7.900   4.482  65.191  1.00  0.00     0.000 HD 
ENDROOT
BRANCH   2   4
HETATM    4  C   UNL     1      -8.113   6.674  67.550  1.00  0.00    -0.118 C  
HETATM    5  O   UNL     1      -7.058   7.344  66.834  1.00  0.00    -0.078 OA 
HETATM    6  H   UNL     1      -6.788   8.112  67.323  1.00  0.00     0.000 HD 
BRANCH   4   7
HETATM    7  C   UNL     1      -9.288   7.635  67.804  1.00  0.00    -0.142 C  
HETATM    8  H   UNL     1     -10.785   8.355  66.755  1.00  0.00     0.000 HD 
HETATM    9  O   UNL     1     -10.060   7.762  66.598  1.00  0.00    -0.253 OA 
BRANCH   7  10
HETATM   10  C   UNL     1      -8.793   9.014  68.292  1.00  0.00    -0.134 C  
HETATM   11  C   UNL     1      -9.754   9.597  69.312  1.00  0.00    -0.185 C  
HETATM   12  O   UNL     1      -8.642   9.963  67.241  1.00  0.00    -0.125 OA 
HETATM   13  O   UNL     1     -10.739   9.006  69.751  1.00  0.00    -0.225 OA 
HETATM   14  H   UNL     1      -8.337  10.811  67.541  1.00  0.00     0.000 HD 
ENDBRANCH   7  10
ENDBRANCH   4   7
ENDBRANCH   2   4
TORSDOF 3
ENDMDL
MODEL      291
REMARK 921   NORMALIZED FREE ENERGY PREDICTED BY IDOCK:   -0.94 KCAL/MOL
REMARK 922        TOTAL FREE ENERGY PREDICTED BY IDOCK:   -1.73 KCAL/MOL
REMARK 923 INTER-LIGAND FREE ENERGY PREDICTED BY IDOCK:   -1.58 KCAL/MOL
REMARK 924 INTRA-LIGAND FREE ENERGY PREDICTED BY IDOCK:   -0.15 KCAL/MOL
REMARK 927      BINDING AFFINITY PREDICTED BY RF-SCORE:    0.00 PKD
ROOT
HETATM    1  O   UNL     1      -8.208   7.403  67.051  1.00  0.00    -0.117 OA 
HETATM    2  C   UNL     1      -8.886   6.405  67.817  1.00  0.00    -0.112 C  
HETATM    3  H   UNL     1      -8.092   7.071  66.168  1.00  0.00     0.000 HD 
ENDROOT
BRANCH   2   4
HETATM    4  C   UNL     1      -9.072   6.941  69.241  1.00  0.00    -0.140 C  
HETATM    5  O   UNL     1      -8.512   6.001  70.177  1.00  0.00    -0.124 OA 
HETATM    6  H   UNL     1      -8.627   6.333  71.059  1.00  0.00     0.000 HD 
BRANCH   4   7
HETATM    7  C   UNL     1      -8.431   8.329  69.420  1.00  0.00    -0.123 C  
HETATM    8  H   UNL     1      -6.605   9.042  69.548  1.00  0.00     0.000 HD 
HETATM    9  O   UNL     1      -7.001   8.186  69.437  1.00  0.00    -0.049 OA 
BRANCH   7  10
HETATM   10  C   UNL     1      -8.934   9.020  70.705  1.00  0.00    -0.236 C  
HETATM   11  C   UNL     1     -10.319   9.603  70.492  1.00  0.00    -0.295 C  
HETATM   12  O   UNL     1      -8.082  10.071  71.151  1.00  0.00    -0.155 OA 
HETATM   13  O   UNL     1     -10.979   9.459  69.464  1.00  0.00    -0.234 OA 
HETATM   14  H   UNL     1      -8.392  10.496  71.942  1.00  0.00     0.000 HD 
ENDBRANCH   7  10
ENDBRANCH   4   7
ENDBRANCH   2   4
TORSDOF 3
ENDMDL
MODEL      292
REMARK 921   NORMALIZED FREE ENERGY PREDICTED BY IDOCK:   -0.94 KCAL/MOL
REMARK 922        TOTAL FREE ENERGY PREDICTED BY IDOCK:   -1.73 KCAL/MOL
REMARK 923 INTER-LIGAND FREE ENERGY PREDICTED BY IDOCK:   -1.30 KCAL/MOL
REMARK 924 INTRA-LIGAND FREE ENERGY PREDICTED BY IDOCK:   -0.43 KCAL/MOL
REMARK 927      BINDING AFFINITY PREDICTED BY RF-SCORE:    0.00 PKD
ROOT
HETATM    1  O   UNL     1      -7.026   4.783  69.523  1.00  0.00    -0.051 OA 
HETATM    2  C   UNL     1      -7.154   5.507  68.296  1.00  0.00    -0.066 C  
HETATM    3  H   UNL     1      -7.016   5.410  70.236  1.00  0.00     0.000 HD 
ENDROOT
BRANCH   2   4
HETATM    4  C   UNL     1      -7.170   4.495  67.145  1.00  0.00    -0.073 C  
HETATM    5  O   UNL     1      -6.658   3.235  67.617  1.00  0.00    -0.036 OA 
HETATM    6  H   UNL     1      -6.668   2.607  66.903  1.00  0.00     0.000 HD 
BRANCH   4   7
HETATM    7  C   UNL     1      -8.580   4.319  66.555  1.00  0.00    -0.112 C  
HETATM    8  H   UNL     1     -10.424   4.453  67.221  1.00  0.00     0.000 HD 
HETATM    9  O   UNL     1      -9.553   4.562  67.584  1.00  0.00    -0.150 OA 
BRANCH   7  10
HETATM   10  C   UNL     1      -8.762   2.914  65.942  1.00  0.00    -0.129 C  
HETATM   11  C   UNL     1      -9.517   2.997  64.628  1.00  0.00    -0.150 C  
HETATM   12  O   UNL     1      -9.467   2.014  66.793  1.00  0.00    -0.365 OA 
HETATM   13  O   UNL     1      -9.852   4.051  64.088  1.00  0.00    -0.167 OA 
HETATM   14  H   UNL     1      -9.579   1.150  66.416  1.00  0.00     0.000 HD 
ENDBRANCH   7  10
ENDBRANCH   4   7
ENDBRANCH   2   4
TORSDOF 3
ENDMDL
MODEL      293
REMARK 921   NORMALIZED FREE ENERGY PREDICTED BY IDOCK:   -0.94 KCAL/MOL
REMARK 922        TOTAL FREE ENERGY PREDICTED BY IDOCK:   -1.73 KCAL/MOL
REMARK 923 INTER-LIGAND FREE ENERGY PREDICTED BY IDOCK:   -1.38 KCAL/MOL
REMARK 924 INTRA-LIGAND FREE ENERGY PREDICTED BY IDOCK:   -0.35 KCAL/MOL
REMARK 927      BINDING AFFINITY PREDICTED BY RF-SCORE:    0.00 PKD
ROOT
HETATM    1  O   UNL     1     -11.027   7.083  66.612  1.00  0.00    -0.513 OA 
HETATM    2  C   UNL     1      -9.860   6.902  67.419  1.00  0.00    -0.144 C  
HETATM    3  H   UNL     1     -11.728   6.562  66.985  1.00  0.00     0.000 HD 
ENDROOT
BRANCH   2   4
HETATM    4  C   UNL     1      -8.729   7.742  66.817  1.00  0.00    -0.135 C  
HETATM    5  O   UNL     1      -7.612   7.751  67.725  1.00  0.00    -0.107 OA 
HETATM    6  H   UNL     1      -6.910   8.271  67.352  1.00  0.00     0.000 HD 
BRANCH   4   7
HETATM    7  C   UNL     1      -8.298   7.219  65.435  1.00  0.00    -0.122 C  
HETATM    8  H   UNL     1      -8.569   5.576  64.392  1.00  0.00     0.000 HD 
HETATM    9  O   UNL     1      -8.835   5.899  65.245  1.00  0.00    -0.124 OA 
BRANCH   7  10
HETATM   10  C   UNL     1      -6.761   7.218  65.288  1.00  0.00    -0.048 C  
HETATM   11  C   UNL     1      -6.313   8.314  64.339  1.00  0.00    -0.066 C  
HETATM   12  O   UNL     1      -6.242   5.982  64.803  1.00  0.00    -0.028 OA 
HETATM   13  O   UNL     1      -7.069   9.143  63.835  1.00  0.00    -0.092 OA 
HETATM   14  H   UNL     1      -5.297   5.982  64.713  1.00  0.00     0.000 HD 
ENDBRANCH   7  10
ENDBRANCH   4   7
ENDBRANCH   2   4
TORSDOF 3
ENDMDL
MODEL      294
REMARK 921   NORMALIZED FREE ENERGY PREDICTED BY IDOCK:   -0.91 KCAL/MOL
REMARK 922        TOTAL FREE ENERGY PREDICTED BY IDOCK:   -1.69 KCAL/MOL
REMARK 923 INTER-LIGAND FREE ENERGY PREDICTED BY IDOCK:   -1.57 KCAL/MOL
REMARK 924 INTRA-LIGAND FREE ENERGY PREDICTED BY IDOCK:   -0.12 KCAL/MOL
REMARK 927      BINDING AFFINITY PREDICTED BY RF-SCORE:    0.00 PKD
ROOT
HETATM    1  O   UNL     1      -8.888   8.767  68.034  1.00  0.00    -0.139 OA 
HETATM    2  C   UNL     1      -9.791   7.659  68.078  1.00  0.00    -0.161 C  
HETATM    3  H   UNL     1      -9.401   9.565  67.982  1.00  0.00     0.000 HD 
ENDROOT
BRANCH   2   4
HETATM    4  C   UNL     1      -8.964   6.372  68.161  1.00  0.00    -0.116 C  
HETATM    5  O   UNL     1      -9.236   5.715  69.414  1.00  0.00    -0.119 OA 
HETATM    6  H   UNL     1      -8.723   4.917  69.466  1.00  0.00     0.000 HD 
BRANCH   4   7
HETATM    7  C   UNL     1      -9.252   5.426  66.982  1.00  0.00    -0.113 C  
HETATM    8  H   UNL     1     -10.795   5.016  65.836  1.00  0.00     0.000 HD 
HETATM    9  O   UNL     1     -10.617   5.599  66.564  1.00  0.00    -0.269 OA 
BRANCH   7  10
HETATM   10  C   UNL     1      -8.971   3.956  67.357  1.00  0.00    -0.134 C  
HETATM   11  C   UNL     1      -7.567   3.556  66.940  1.00  0.00    -0.079 C  
HETATM   12  O   UNL     1      -9.882   3.037  66.760  1.00  0.00    -0.390 OA 
HETATM   13  O   UNL     1      -6.743   4.331  66.454  1.00  0.00    -0.048 OA 
HETATM   14  H   UNL     1      -9.708   2.132  66.991  1.00  0.00     0.000 HD 
ENDBRANCH   7  10
ENDBRANCH   4   7
ENDBRANCH   2   4
TORSDOF 3
ENDMDL
MODEL      295
REMARK 921   NORMALIZED FREE ENERGY PREDICTED BY IDOCK:   -0.90 KCAL/MOL
REMARK 922        TOTAL FREE ENERGY PREDICTED BY IDOCK:   -1.69 KCAL/MOL
REMARK 923 INTER-LIGAND FREE ENERGY PREDICTED BY IDOCK:   -3.03 KCAL/MOL
REMARK 924 INTRA-LIGAND FREE ENERGY PREDICTED BY IDOCK:    1.34 KCAL/MOL
REMARK 927      BINDING AFFINITY PREDICTED BY RF-SCORE:    0.00 PKD
ROOT
HETATM    1  O   UNL     1     -10.966  16.452  69.479  1.00  0.00    -0.309 OA 
HETATM    2  C   UNL     1      -9.885  16.414  68.543  1.00  0.00    -0.231 C  
HETATM    3  H   UNL     1     -10.607  16.336  70.351  1.00  0.00     0.000 HD 
ENDROOT
BRANCH   2   4
HETATM    4  C   UNL     1     -10.465  16.601  67.138  1.00  0.00    -0.300 C  
HETATM    5  O   UNL     1      -9.487  17.251  66.305  1.00  0.00    -0.307 OA 
HETATM    6  H   UNL     1      -9.846  17.368  65.433  1.00  0.00     0.000 HD 
BRANCH   4   7
HETATM    7  C   UNL     1     -10.903  15.264  66.513  1.00  0.00    -0.311 C  
HETATM    8  H   UNL     1     -12.154  13.823  66.979  1.00  0.00     0.000 HD 
HETATM    9  O   UNL     1     -11.884  14.648  67.364  1.00  0.00    -0.385 OA 
BRANCH   7  10
HETATM   10  C   UNL     1      -9.697  14.326  66.289  1.00  0.00    -0.302 C  
HETATM   11  C   UNL     1      -9.722  13.177  67.280  1.00  0.00    -0.230 C  
HETATM   12  O   UNL     1      -8.440  14.985  66.415  1.00  0.00    -0.425 OA 
HETATM   13  O   UNL     1     -10.630  12.978  68.085  1.00  0.00    -0.231 OA 
HETATM   14  H   UNL     1      -7.698  14.408  66.277  1.00  0.00     0.000 HD 
ENDBRANCH   7  10
ENDBRANCH   4   7
ENDBRANCH   2   4
TORSDOF 3
ENDMDL
MODEL      296
REMARK 921   NORMALIZED FREE ENERGY PREDICTED BY IDOCK:   -0.90 KCAL/MOL
REMARK 922        TOTAL FREE ENERGY PREDICTED BY IDOCK:   -1.68 KCAL/MOL
REMARK 923 INTER-LIGAND FREE ENERGY PREDICTED BY IDOCK:   -1.39 KCAL/MOL
REMARK 924 INTRA-LIGAND FREE ENERGY PREDICTED BY IDOCK:   -0.29 KCAL/MOL
REMARK 927      BINDING AFFINITY PREDICTED BY RF-SCORE:    0.00 PKD
ROOT
HETATM    1  O   UNL     1      -8.186   8.252  69.566  1.00  0.00    -0.115 OA 
HETATM    2  C   UNL     1      -8.799   7.164  68.867  1.00  0.00    -0.130 C  
HETATM    3  H   UNL     1      -8.587   9.059  69.265  1.00  0.00     0.000 HD 
ENDROOT
BRANCH   2   4
HETATM    4  C   UNL     1      -8.154   5.862  69.351  1.00  0.00    -0.109 C  
HETATM    5  O   UNL     1      -7.253   6.156  70.436  1.00  0.00    -0.080 OA 
HETATM    6  H   UNL     1      -6.852   5.348  70.736  1.00  0.00     0.000 HD 
BRANCH   4   7
HETATM    7  C   UNL     1      -9.205   4.827  69.788  1.00  0.00    -0.121 C  
HETATM    8  H   UNL     1     -11.150   4.617  69.607  1.00  0.00     0.000 HD 
HETATM    9  O   UNL     1     -10.501   5.255  69.337  1.00  0.00    -0.260 OA 
BRANCH   7  10
HETATM   10  C   UNL     1      -9.192   4.621  71.318  1.00  0.00    -0.139 C  
HETATM   11  C   UNL     1      -9.650   3.219  71.674  1.00  0.00    -0.160 C  
HETATM   12  O   UNL     1     -10.024   5.543  72.018  1.00  0.00    -0.173 OA 
HETATM   13  O   UNL     1      -9.905   2.344  70.847  1.00  0.00    -0.104 OA 
HETATM   14  H   UNL     1     -10.015   5.416  72.959  1.00  0.00     0.000 HD 
ENDBRANCH   7  10
ENDBRANCH   4   7
ENDBRANCH   2   4
TORSDOF 3
ENDMDL
MODEL      297
REMARK 921   NORMALIZED FREE ENERGY PREDICTED BY IDOCK:   -0.89 KCAL/MOL
REMARK 922        TOTAL FREE ENERGY PREDICTED BY IDOCK:   -1.67 KCAL/MOL
REMARK 923 INTER-LIGAND FREE ENERGY PREDICTED BY IDOCK:   -1.43 KCAL/MOL
REMARK 924 INTRA-LIGAND FREE ENERGY PREDICTED BY IDOCK:   -0.24 KCAL/MOL
REMARK 927      BINDING AFFINITY PREDICTED BY RF-SCORE:    0.00 PKD
ROOT
HETATM    1  O   UNL     1      -9.127   9.079  68.513  1.00  0.00    -0.133 OA 
HETATM    2  C   UNL     1     -10.427   8.511  68.698  1.00  0.00    -0.169 C  
HETATM    3  H   UNL     1      -9.197  10.020  68.624  1.00  0.00     0.000 HD 
ENDROOT
BRANCH   2   4
HETATM    4  C   UNL     1     -10.314   6.994  68.518  1.00  0.00    -0.186 C  
HETATM    5  O   UNL     1     -10.229   6.690  67.113  1.00  0.00    -0.169 OA 
HETATM    6  H   UNL     1     -10.159   5.749  67.000  1.00  0.00     0.000 HD 
BRANCH   4   7
HETATM    7  C   UNL     1      -9.103   6.414  69.270  1.00  0.00    -0.136 C  
HETATM    8  H   UNL     1      -7.404   5.558  68.778  1.00  0.00     0.000 HD 
HETATM    9  O   UNL     1      -8.152   5.916  68.314  1.00  0.00    -0.107 OA 
BRANCH   7  10
HETATM   10  C   UNL     1      -9.530   5.306  70.256  1.00  0.00    -0.168 C  
HETATM   11  C   UNL     1      -9.581   5.842  71.675  1.00  0.00    -0.152 C  
HETATM   12  O   UNL     1      -8.659   4.178  70.247  1.00  0.00    -0.067 OA 
HETATM   13  O   UNL     1      -9.396   7.021  71.975  1.00  0.00    -0.141 OA 
HETATM   14  H   UNL     1      -8.922   3.496  70.854  1.00  0.00     0.000 HD 
ENDBRANCH   7  10
ENDBRANCH   4   7
ENDBRANCH   2   4
TORSDOF 3
ENDMDL
MODEL      298
REMARK 921   NORMALIZED FREE ENERGY PREDICTED BY IDOCK:   -0.88 KCAL/MOL
REMARK 922        TOTAL FREE ENERGY PREDICTED BY IDOCK:   -1.66 KCAL/MOL
REMARK 923 INTER-LIGAND FREE ENERGY PREDICTED BY IDOCK:   -1.74 KCAL/MOL
REMARK 924 INTRA-LIGAND FREE ENERGY PREDICTED BY IDOCK:    0.08 KCAL/MOL
REMARK 927      BINDING AFFINITY PREDICTED BY RF-SCORE:    0.00 PKD
ROOT
HETATM    1  O   UNL     1      -8.210   7.427  67.068  1.00  0.00    -0.117 OA 
HETATM    2  C   UNL     1      -8.890   6.453  67.865  1.00  0.00    -0.113 C  
HETATM    3  H   UNL     1      -8.076   7.059  66.202  1.00  0.00     0.000 HD 
ENDROOT
BRANCH   2   4
HETATM    4  C   UNL     1      -9.105   7.046  69.261  1.00  0.00    -0.137 C  
HETATM    5  O   UNL     1      -9.692   8.355  69.133  1.00  0.00    -0.166 OA 
HETATM    6  H   UNL     1      -9.826   8.723  69.999  1.00  0.00     0.000 HD 
BRANCH   4   7
HETATM    7  C   UNL     1      -9.988   6.142  70.140  1.00  0.00    -0.175 C  
HETATM    8  H   UNL     1     -11.893   5.668  70.224  1.00  0.00     0.000 HD 
HETATM    9  O   UNL     1     -11.347   6.226  69.682  1.00  0.00    -0.405 OA 
BRANCH   7  10
HETATM   10  C   UNL     1      -9.881   6.528  71.631  1.00  0.00    -0.167 C  
HETATM   11  C   UNL     1      -8.585   6.008  72.227  1.00  0.00    -0.124 C  
HETATM   12  O   UNL     1     -10.956   6.028  72.421  1.00  0.00    -0.232 OA 
HETATM   13  O   UNL     1      -7.706   5.439  71.580  1.00  0.00    -0.100 OA 
HETATM   14  H   UNL     1     -10.890   6.266  73.338  1.00  0.00     0.000 HD 
ENDBRANCH   7  10
ENDBRANCH   4   7
ENDBRANCH   2   4
TORSDOF 3
ENDMDL
MODEL      299
REMARK 921   NORMALIZED FREE ENERGY PREDICTED BY IDOCK:   -0.86 KCAL/MOL
REMARK 922        TOTAL FREE ENERGY PREDICTED BY IDOCK:   -1.64 KCAL/MOL
REMARK 923 INTER-LIGAND FREE ENERGY PREDICTED BY IDOCK:   -1.31 KCAL/MOL
REMARK 924 INTRA-LIGAND FREE ENERGY PREDICTED BY IDOCK:   -0.33 KCAL/MOL
REMARK 927      BINDING AFFINITY PREDICTED BY RF-SCORE:    0.00 PKD
ROOT
HETATM    1  O   UNL     1      -7.226   7.971  68.735  1.00  0.00    -0.079 OA 
HETATM    2  C   UNL     1      -8.046   8.112  67.572  1.00  0.00    -0.123 C  
HETATM    3  H   UNL     1      -7.699   8.331  69.476  1.00  0.00     0.000 HD 
ENDROOT
BRANCH   2   4
HETATM    4  C   UNL     1      -7.282   7.533  66.377  1.00  0.00    -0.075 C  
HETATM    5  O   UNL     1      -8.056   6.469  65.792  1.00  0.00    -0.114 OA 
HETATM    6  H   UNL     1      -7.583   6.110  65.050  1.00  0.00     0.000 HD 
BRANCH   4   7
HETATM    7  C   UNL     1      -6.961   8.609  65.324  1.00  0.00    -0.075 C  
HETATM    8  H   UNL     1      -7.150  10.560  65.186  1.00  0.00     0.000 HD 
HETATM    9  O   UNL     1      -7.348   9.895  65.835  1.00  0.00    -0.099 OA 
BRANCH   7  10
HETATM   10  C   UNL     1      -7.664   8.312  63.982  1.00  0.00    -0.140 C  
HETATM   11  C   UNL     1      -6.891   8.921  62.827  1.00  0.00    -0.093 C  
HETATM   12  O   UNL     1      -8.999   8.806  63.923  1.00  0.00    -0.419 OA 
HETATM   13  O   UNL     1      -5.807   9.491  62.944  1.00  0.00    -0.091 OA 
HETATM   14  H   UNL     1      -9.431   8.623  63.098  1.00  0.00     0.000 HD 
ENDBRANCH   7  10
ENDBRANCH   4   7
ENDBRANCH   2   4
TORSDOF 3
ENDMDL
MODEL      300
REMARK 921   NORMALIZED FREE ENERGY PREDICTED BY IDOCK:   -0.86 KCAL/MOL
REMARK 922        TOTAL FREE ENERGY PREDICTED BY IDOCK:   -1.64 KCAL/MOL
REMARK 923 INTER-LIGAND FREE ENERGY PREDICTED BY IDOCK:   -1.52 KCAL/MOL
REMARK 924 INTRA-LIGAND FREE ENERGY PREDICTED BY IDOCK:   -0.12 KCAL/MOL
REMARK 927      BINDING AFFINITY PREDICTED BY RF-SCORE:    0.00 PKD
ROOT
HETATM    1  O   UNL     1     -10.645   7.073  73.446  1.00  0.00    -0.306 OA 
HETATM    2  C   UNL     1      -9.559   6.556  72.670  1.00  0.00    -0.150 C  
HETATM    3  H   UNL     1     -10.820   6.463  74.152  1.00  0.00     0.000 HD 
ENDROOT
BRANCH   2   4
HETATM    4  C   UNL     1      -9.276   7.540  71.531  1.00  0.00    -0.135 C  
HETATM    5  O   UNL     1      -8.234   8.448  71.938  1.00  0.00    -0.136 OA 
HETATM    6  H   UNL     1      -8.058   9.058  71.232  1.00  0.00     0.000 HD 
BRANCH   4   7
HETATM    7  C   UNL     1      -8.883   6.816  70.230  1.00  0.00    -0.152 C  
HETATM    8  H   UNL     1      -7.606   5.415  69.717  1.00  0.00     0.000 HD 
HETATM    9  O   UNL     1      -7.849   5.862  70.519  1.00  0.00    -0.097 OA 
BRANCH   7  10
HETATM   10  C   UNL     1      -8.429   7.815  69.145  1.00  0.00    -0.138 C  
HETATM   11  C   UNL     1      -9.411   7.833  67.988  1.00  0.00    -0.144 C  
HETATM   12  O   UNL     1      -7.138   7.524  68.616  1.00  0.00    -0.076 OA 
HETATM   13  O   UNL     1     -10.469   7.204  67.970  1.00  0.00    -0.185 OA 
HETATM   14  H   UNL     1      -6.858   8.139  67.949  1.00  0.00     0.000 HD 
ENDBRANCH   7  10
ENDBRANCH   4   7
ENDBRANCH   2   4
TORSDOF 3
ENDMDL
MODEL      301
REMARK 921   NORMALIZED FREE ENERGY PREDICTED BY IDOCK:   -0.84 KCAL/MOL
REMARK 922        TOTAL FREE ENERGY PREDICTED BY IDOCK:   -1.61 KCAL/MOL
REMARK 923 INTER-LIGAND FREE ENERGY PREDICTED BY IDOCK:   -1.18 KCAL/MOL
REMARK 924 INTRA-LIGAND FREE ENERGY PREDICTED BY IDOCK:   -0.44 KCAL/MOL
REMARK 927      BINDING AFFINITY PREDICTED BY RF-SCORE:    0.00 PKD
ROOT
HETATM    1  O   UNL     1      -8.418   8.185  69.776  1.00  0.00    -0.122 OA 
HETATM    2  C   UNL     1      -9.463   7.255  69.476  1.00  0.00    -0.155 C  
HETATM    3  H   UNL     1      -8.445   8.879  69.128  1.00  0.00     0.000 HD 
ENDROOT
BRANCH   2   4
HETATM    4  C   UNL     1      -9.420   6.135  70.521  1.00  0.00    -0.164 C  
HETATM    5  O   UNL     1     -10.697   5.472  70.556  1.00  0.00    -0.275 OA 
HETATM    6  H   UNL     1     -10.670   4.777  71.204  1.00  0.00     0.000 HD 
BRANCH   4   7
HETATM    7  C   UNL     1      -8.294   5.125  70.234  1.00  0.00    -0.097 C  
HETATM    8  H   UNL     1      -6.645   5.104  69.166  1.00  0.00     0.000 HD 
HETATM    9  O   UNL     1      -7.340   5.727  69.343  1.00  0.00    -0.068 OA 
BRANCH   7  10
HETATM   10  C   UNL     1      -8.853   3.813  69.643  1.00  0.00    -0.091 C  
HETATM   11  C   UNL     1      -7.850   2.685  69.803  1.00  0.00    -0.042 C  
HETATM   12  O   UNL     1      -9.181   3.912  68.260  1.00  0.00    -0.131 OA 
HETATM   13  O   UNL     1      -6.782   2.789  70.405  1.00  0.00    -0.032 OA 
HETATM   14  H   UNL     1      -9.524   3.104  67.897  1.00  0.00     0.000 HD 
ENDBRANCH   7  10
ENDBRANCH   4   7
ENDBRANCH   2   4
TORSDOF 3
ENDMDL
MODEL      302
REMARK 921   NORMALIZED FREE ENERGY PREDICTED BY IDOCK:   -0.83 KCAL/MOL
REMARK 922        TOTAL FREE ENERGY PREDICTED BY IDOCK:   -1.61 KCAL/MOL
REMARK 923 INTER-LIGAND FREE ENERGY PREDICTED BY IDOCK:   -2.29 KCAL/MOL
REMARK 924 INTRA-LIGAND FREE ENERGY PREDICTED BY IDOCK:    0.69 KCAL/MOL
REMARK 927      BINDING AFFINITY PREDICTED BY RF-SCORE:    0.00 PKD
ROOT
HETATM    1  O   UNL     1      -8.230   9.180  67.166  1.00  0.00    -0.112 OA 
HETATM    2  C   UNL     1      -9.335   8.276  67.252  1.00  0.00    -0.147 C  
HETATM    3  H   UNL     1      -7.996   9.274  66.250  1.00  0.00     0.000 HD 
ENDROOT
BRANCH   2   4
HETATM    4  C   UNL     1      -9.712   8.123  68.729  1.00  0.00    -0.153 C  
HETATM    5  O   UNL     1     -10.942   8.830  68.979  1.00  0.00    -0.426 OA 
HETATM    6  H   UNL     1     -11.176   8.736  69.895  1.00  0.00     0.000 HD 
BRANCH   4   7
HETATM    7  C   UNL     1      -9.846   6.646  69.139  1.00  0.00    -0.148 C  
HETATM    8  H   UNL     1     -11.144   5.202  68.839  1.00  0.00     0.000 HD 
HETATM    9  O   UNL     1     -11.061   6.114  68.586  1.00  0.00    -0.339 OA 
BRANCH   7  10
HETATM   10  C   UNL     1      -9.817   6.482  70.674  1.00  0.00    -0.183 C  
HETATM   11  C   UNL     1     -11.197   6.712  71.262  1.00  0.00    -0.282 C  
HETATM   12  O   UNL     1      -8.913   7.375  71.319  1.00  0.00    -0.138 OA 
HETATM   13  O   UNL     1     -12.210   6.909  70.593  1.00  0.00    -0.365 OA 
HETATM   14  H   UNL     1      -8.896   7.275  72.263  1.00  0.00     0.000 HD 
ENDBRANCH   7  10
ENDBRANCH   4   7
ENDBRANCH   2   4
TORSDOF 3
ENDMDL
MODEL      303
REMARK 921   NORMALIZED FREE ENERGY PREDICTED BY IDOCK:   -0.83 KCAL/MOL
REMARK 922        TOTAL FREE ENERGY PREDICTED BY IDOCK:   -1.60 KCAL/MOL
REMARK 923 INTER-LIGAND FREE ENERGY PREDICTED BY IDOCK:   -1.26 KCAL/MOL
REMARK 924 INTRA-LIGAND FREE ENERGY PREDICTED BY IDOCK:   -0.34 KCAL/MOL
REMARK 927      BINDING AFFINITY PREDICTED BY RF-SCORE:    0.00 PKD
ROOT
HETATM    1  O   UNL     1     -10.185  10.407  65.780  1.00  0.00    -0.260 OA 
HETATM    2  C   UNL     1      -9.435  10.640  66.975  1.00  0.00    -0.164 C  
HETATM    3  H   UNL     1     -11.039  10.810  65.884  1.00  0.00     0.000 HD 
ENDROOT
BRANCH   2   4
HETATM    4  C   UNL     1      -8.058   9.989  66.808  1.00  0.00    -0.118 C  
HETATM    5  O   UNL     1      -7.845   9.051  67.880  1.00  0.00    -0.099 OA 
HETATM    6  H   UNL     1      -6.992   8.647  67.777  1.00  0.00     0.000 HD 
BRANCH   4   7
HETATM    7  C   UNL     1      -7.914   9.291  65.444  1.00  0.00    -0.108 C  
HETATM    8  H   UNL     1      -8.415   7.552  64.680  1.00  0.00     0.000 HD 
HETATM    9  O   UNL     1      -8.504   7.983  65.522  1.00  0.00    -0.140 OA 
BRANCH   7  10
HETATM   10  C   UNL     1      -6.436   9.207  65.008  1.00  0.00    -0.066 C  
HETATM   11  C   UNL     1      -6.242   9.849  63.646  1.00  0.00    -0.124 C  
HETATM   12  O   UNL     1      -5.944   7.871  64.934  1.00  0.00    -0.044 OA 
HETATM   13  O   UNL     1      -7.129  10.434  63.025  1.00  0.00    -0.135 OA 
HETATM   14  H   UNL     1      -5.035   7.820  64.666  1.00  0.00     0.000 HD 
ENDBRANCH   7  10
ENDBRANCH   4   7
ENDBRANCH   2   4
TORSDOF 3
ENDMDL
MODEL      304
REMARK 921   NORMALIZED FREE ENERGY PREDICTED BY IDOCK:   -0.82 KCAL/MOL
REMARK 922        TOTAL FREE ENERGY PREDICTED BY IDOCK:   -1.59 KCAL/MOL
REMARK 923 INTER-LIGAND FREE ENERGY PREDICTED BY IDOCK:   -1.74 KCAL/MOL
REMARK 924 INTRA-LIGAND FREE ENERGY PREDICTED BY IDOCK:    0.15 KCAL/MOL
REMARK 927      BINDING AFFINITY PREDICTED BY RF-SCORE:    0.00 PKD
ROOT
HETATM    1  O   UNL     1     -10.802   7.130  70.746  1.00  0.00    -0.234 OA 
HETATM    2  C   UNL     1     -10.394   8.497  70.644  1.00  0.00    -0.199 C  
HETATM    3  H   UNL     1     -11.726   7.081  70.534  1.00  0.00     0.000 HD 
ENDROOT
BRANCH   2   4
HETATM    4  C   UNL     1      -8.902   8.576  70.988  1.00  0.00    -0.175 C  
HETATM    5  O   UNL     1      -8.510   9.959  71.073  1.00  0.00    -0.300 OA 
HETATM    6  H   UNL     1      -7.585  10.008  71.286  1.00  0.00     0.000 HD 
BRANCH   4   7
HETATM    7  C   UNL     1      -8.575   7.839  72.299  1.00  0.00    -0.132 C  
HETATM    8  H   UNL     1      -7.762   8.309  74.025  1.00  0.00     0.000 HD 
HETATM    9  O   UNL     1      -7.964   8.763  73.215  1.00  0.00    -0.409 OA 
BRANCH   7  10
HETATM   10  C   UNL     1      -7.660   6.622  72.047  1.00  0.00    -0.096 C  
HETATM   11  C   UNL     1      -6.408   7.039  71.297  1.00  0.00    -0.041 C  
HETATM   12  O   UNL     1      -8.293   5.586  71.299  1.00  0.00    -0.122 OA 
HETATM   13  O   UNL     1      -6.127   8.203  71.014  1.00  0.00    -0.033 OA 
HETATM   14  H   UNL     1      -7.730   4.838  71.145  1.00  0.00     0.000 HD 
ENDBRANCH   7  10
ENDBRANCH   4   7
ENDBRANCH   2   4
TORSDOF 3
ENDMDL
MODEL      305
REMARK 921   NORMALIZED FREE ENERGY PREDICTED BY IDOCK:   -0.82 KCAL/MOL
REMARK 922        TOTAL FREE ENERGY PREDICTED BY IDOCK:   -1.59 KCAL/MOL
REMARK 923 INTER-LIGAND FREE ENERGY PREDICTED BY IDOCK:   -1.46 KCAL/MOL
REMARK 924 INTRA-LIGAND FREE ENERGY PREDICTED BY IDOCK:   -0.13 KCAL/MOL
REMARK 927      BINDING AFFINITY PREDICTED BY RF-SCORE:    0.00 PKD
ROOT
HETATM    1  O   UNL     1      -6.537   6.401  63.148  1.00  0.00    -0.032 OA 
HETATM    2  C   UNL     1      -7.905   6.638  63.492  1.00  0.00    -0.109 C  
HETATM    3  H   UNL     1      -6.442   5.482  62.929  1.00  0.00     0.000 HD 
ENDROOT
BRANCH   2   4
HETATM    4  C   UNL     1      -8.058   8.120  63.846  1.00  0.00    -0.114 C  
HETATM    5  O   UNL     1      -8.996   8.729  62.939  1.00  0.00    -0.430 OA 
HETATM    6  H   UNL     1      -9.091   9.649  63.158  1.00  0.00     0.000 HD 
BRANCH   4   7
HETATM    7  C   UNL     1      -8.512   8.319  65.304  1.00  0.00    -0.162 C  
HETATM    8  H   UNL     1      -9.515   9.680  66.305  1.00  0.00     0.000 HD 
HETATM    9  O   UNL     1      -9.235   9.557  65.405  1.00  0.00    -0.213 OA 
BRANCH   7  10
HETATM   10  C   UNL     1      -7.311   8.298  66.275  1.00  0.00    -0.078 C  
HETATM   11  C   UNL     1      -7.704   7.665  67.597  1.00  0.00    -0.122 C  
HETATM   12  O   UNL     1      -6.786   9.594  66.550  1.00  0.00    -0.076 OA 
HETATM   13  O   UNL     1      -8.802   7.158  67.822  1.00  0.00    -0.125 OA 
HETATM   14  H   UNL     1      -6.048   9.580  67.147  1.00  0.00     0.000 HD 
ENDBRANCH   7  10
ENDBRANCH   4   7
ENDBRANCH   2   4
TORSDOF 3
ENDMDL
MODEL      306
REMARK 921   NORMALIZED FREE ENERGY PREDICTED BY IDOCK:   -0.82 KCAL/MOL
REMARK 922        TOTAL FREE ENERGY PREDICTED BY IDOCK:   -1.58 KCAL/MOL
REMARK 923 INTER-LIGAND FREE ENERGY PREDICTED BY IDOCK:   -1.43 KCAL/MOL
REMARK 924 INTRA-LIGAND FREE ENERGY PREDICTED BY IDOCK:   -0.15 KCAL/MOL
REMARK 927      BINDING AFFINITY PREDICTED BY RF-SCORE:    0.00 PKD
ROOT
HETATM    1  O   UNL     1     -10.041   6.844  74.370  1.00  0.00    -0.435 OA 
HETATM    2  C   UNL     1      -8.953   6.466  73.521  1.00  0.00    -0.124 C  
HETATM    3  H   UNL     1     -10.139   6.177  75.039  1.00  0.00     0.000 HD 
ENDROOT
BRANCH   2   4
HETATM    4  C   UNL     1      -8.795   7.542  72.442  1.00  0.00    -0.127 C  
HETATM    5  O   UNL     1      -8.523   8.808  73.071  1.00  0.00    -0.402 OA 
HETATM    6  H   UNL     1      -8.425   9.475  72.402  1.00  0.00     0.000 HD 
BRANCH   4   7
HETATM    7  C   UNL     1      -7.683   7.189  71.437  1.00  0.00    -0.093 C  
HETATM    8  H   UNL     1      -7.057   5.564  70.527  1.00  0.00     0.000 HD 
HETATM    9  O   UNL     1      -7.743   5.782  71.147  1.00  0.00    -0.103 OA 
BRANCH   7  10
HETATM   10  C   UNL     1      -6.292   7.584  71.975  1.00  0.00    -0.042 C  
HETATM   11  C   UNL     1      -5.674   8.672  71.115  1.00  0.00    -0.036 C  
HETATM   12  O   UNL     1      -5.375   6.494  72.025  1.00  0.00    -0.030 OA 
HETATM   13  O   UNL     1      -6.250   9.220  70.176  1.00  0.00    -0.039 OA 
HETATM   14  H   UNL     1      -4.519   6.737  72.356  1.00  0.00     0.000 HD 
ENDBRANCH   7  10
ENDBRANCH   4   7
ENDBRANCH   2   4
TORSDOF 3
ENDMDL
MODEL      307
REMARK 921   NORMALIZED FREE ENERGY PREDICTED BY IDOCK:   -0.75 KCAL/MOL
REMARK 922        TOTAL FREE ENERGY PREDICTED BY IDOCK:   -1.50 KCAL/MOL
REMARK 923 INTER-LIGAND FREE ENERGY PREDICTED BY IDOCK:   -1.52 KCAL/MOL
REMARK 924 INTRA-LIGAND FREE ENERGY PREDICTED BY IDOCK:    0.01 KCAL/MOL
REMARK 927      BINDING AFFINITY PREDICTED BY RF-SCORE:    0.00 PKD
ROOT
HETATM    1  O   UNL     1      -6.803  10.052  70.738  1.00  0.00    -0.286 OA 
HETATM    2  C   UNL     1      -7.603   9.222  69.891  1.00  0.00    -0.093 C  
HETATM    3  H   UNL     1      -6.570  10.834  70.252  1.00  0.00     0.000 HD 
ENDROOT
BRANCH   2   4
HETATM    4  C   UNL     1      -7.978   7.961  70.676  1.00  0.00    -0.096 C  
HETATM    5  O   UNL     1      -7.228   6.844  70.163  1.00  0.00    -0.072 OA 
HETATM    6  H   UNL     1      -7.461   6.062  70.649  1.00  0.00     0.000 HD 
BRANCH   4   7
HETATM    7  C   UNL     1      -7.731   8.129  72.186  1.00  0.00    -0.118 C  
HETATM    8  H   UNL     1      -6.162   8.299  73.356  1.00  0.00     0.000 HD 
HETATM    9  O   UNL     1      -6.315   8.195  72.425  1.00  0.00    -0.057 OA 
BRANCH   7  10
HETATM   10  C   UNL     1      -8.376   6.982  72.993  1.00  0.00    -0.106 C  
HETATM   11  C   UNL     1      -9.847   7.263  73.241  1.00  0.00    -0.256 C  
HETATM   12  O   UNL     1      -7.755   6.764  74.257  1.00  0.00    -0.103 OA 
HETATM   13  O   UNL     1     -10.454   8.228  72.778  1.00  0.00    -0.333 OA 
HETATM   14  H   UNL     1      -8.152   6.058  74.754  1.00  0.00     0.000 HD 
ENDBRANCH   7  10
ENDBRANCH   4   7
ENDBRANCH   2   4
TORSDOF 3
ENDMDL
MODEL      308
REMARK 921   NORMALIZED FREE ENERGY PREDICTED BY IDOCK:   -0.74 KCAL/MOL
REMARK 922        TOTAL FREE ENERGY PREDICTED BY IDOCK:   -1.50 KCAL/MOL
REMARK 923 INTER-LIGAND FREE ENERGY PREDICTED BY IDOCK:   -2.14 KCAL/MOL
REMARK 924 INTRA-LIGAND FREE ENERGY PREDICTED BY IDOCK:    0.64 KCAL/MOL
REMARK 927      BINDING AFFINITY PREDICTED BY RF-SCORE:    0.00 PKD
ROOT
HETATM    1  O   UNL     1     -10.239   6.815  74.530  1.00  0.00    -0.443 OA 
HETATM    2  C   UNL     1      -9.512   6.354  73.387  1.00  0.00    -0.140 C  
HETATM    3  H   UNL     1     -10.051   6.231  75.255  1.00  0.00     0.000 HD 
ENDROOT
BRANCH   2   4
HETATM    4  C   UNL     1      -9.816   7.295  72.217  1.00  0.00    -0.154 C  
HETATM    5  O   UNL     1      -9.370   8.623  72.550  1.00  0.00    -0.271 OA 
HETATM    6  H   UNL     1      -9.558   9.207  71.824  1.00  0.00     0.000 HD 
BRANCH   4   7
HETATM    7  C   UNL     1      -9.160   6.817  70.909  1.00  0.00    -0.153 C  
HETATM    8  H   UNL     1      -7.400   7.002  70.054  1.00  0.00     0.000 HD 
HETATM    9  O   UNL     1      -7.806   7.297  70.861  1.00  0.00    -0.091 OA 
BRANCH   7  10
HETATM   10  C   UNL     1      -9.958   7.286  69.674  1.00  0.00    -0.176 C  
HETATM   11  C   UNL     1      -9.441   8.625  69.180  1.00  0.00    -0.157 C  
HETATM   12  O   UNL     1     -11.355   7.422  69.924  1.00  0.00    -0.434 OA 
HETATM   13  O   UNL     1      -8.462   9.203  69.648  1.00  0.00    -0.118 OA 
HETATM   14  H   UNL     1     -11.845   7.711  69.164  1.00  0.00     0.000 HD 
ENDBRANCH   7  10
ENDBRANCH   4   7
ENDBRANCH   2   4
TORSDOF 3
ENDMDL
MODEL      309
REMARK 921   NORMALIZED FREE ENERGY PREDICTED BY IDOCK:   -0.73 KCAL/MOL
REMARK 922        TOTAL FREE ENERGY PREDICTED BY IDOCK:   -1.49 KCAL/MOL
REMARK 923 INTER-LIGAND FREE ENERGY PREDICTED BY IDOCK:   -1.15 KCAL/MOL
REMARK 924 INTRA-LIGAND FREE ENERGY PREDICTED BY IDOCK:   -0.34 KCAL/MOL
REMARK 927      BINDING AFFINITY PREDICTED BY RF-SCORE:    0.00 PKD
ROOT
HETATM    1  O   UNL     1     -10.896   5.406  71.007  1.00  0.00    -0.215 OA 
HETATM    2  C   UNL     1      -9.920   4.745  70.196  1.00  0.00    -0.251 C  
HETATM    3  H   UNL     1     -11.688   5.505  70.493  1.00  0.00     0.000 HD 
ENDROOT
BRANCH   2   4
HETATM    4  C   UNL     1      -8.641   4.586  71.025  1.00  0.00    -0.105 C  
HETATM    5  O   UNL     1      -7.563   4.182  70.159  1.00  0.00    -0.045 OA 
HETATM    6  H   UNL     1      -6.770   4.084  70.673  1.00  0.00     0.000 HD 
BRANCH   4   7
HETATM    7  C   UNL     1      -8.276   5.880  71.774  1.00  0.00    -0.119 C  
HETATM    8  H   UNL     1      -8.274   7.802  71.365  1.00  0.00     0.000 HD 
HETATM    9  O   UNL     1      -8.498   7.003  70.904  1.00  0.00    -0.131 OA 
BRANCH   7  10
HETATM   10  C   UNL     1      -6.817   5.849  72.276  1.00  0.00    -0.073 C  
HETATM   11  C   UNL     1      -6.772   5.607  73.774  1.00  0.00    -0.080 C  
HETATM   12  O   UNL     1      -6.102   7.052  72.006  1.00  0.00    -0.038 OA 
HETATM   13  O   UNL     1      -7.762   5.377  74.467  1.00  0.00    -0.091 OA 
HETATM   14  H   UNL     1      -5.204   7.032  72.315  1.00  0.00     0.000 HD 
ENDBRANCH   7  10
ENDBRANCH   4   7
ENDBRANCH   2   4
TORSDOF 3
ENDMDL
MODEL      310
REMARK 921   NORMALIZED FREE ENERGY PREDICTED BY IDOCK:   -0.72 KCAL/MOL
REMARK 922        TOTAL FREE ENERGY PREDICTED BY IDOCK:   -1.47 KCAL/MOL
REMARK 923 INTER-LIGAND FREE ENERGY PREDICTED BY IDOCK:   -1.35 KCAL/MOL
REMARK 924 INTRA-LIGAND FREE ENERGY PREDICTED BY IDOCK:   -0.12 KCAL/MOL
REMARK 927      BINDING AFFINITY PREDICTED BY RF-SCORE:    0.00 PKD
ROOT
HETATM    1  O   UNL     1      -8.888   8.767  68.034  1.00  0.00    -0.139 OA 
HETATM    2  C   UNL     1      -9.791   7.659  68.078  1.00  0.00    -0.161 C  
HETATM    3  H   UNL     1      -9.401   9.565  67.982  1.00  0.00     0.000 HD 
ENDROOT
BRANCH   2   4
HETATM    4  C   UNL     1      -8.964   6.372  68.161  1.00  0.00    -0.116 C  
HETATM    5  O   UNL     1      -7.742   6.641  68.874  1.00  0.00    -0.105 OA 
HETATM    6  H   UNL     1      -7.229   5.843  68.926  1.00  0.00     0.000 HD 
BRANCH   4   7
HETATM    7  C   UNL     1      -9.744   5.230  68.838  1.00  0.00    -0.148 C  
HETATM    8  H   UNL     1     -11.130   5.085  70.223  1.00  0.00     0.000 HD 
HETATM    9  O   UNL     1     -10.648   5.789  69.805  1.00  0.00    -0.260 OA 
BRANCH   7  10
HETATM   10  C   UNL     1      -8.791   4.210  69.496  1.00  0.00    -0.089 C  
HETATM   11  C   UNL     1      -8.512   3.053  68.553  1.00  0.00    -0.076 C  
HETATM   12  O   UNL     1      -9.297   3.668  70.713  1.00  0.00    -0.125 OA 
HETATM   13  O   UNL     1      -8.920   2.992  67.394  1.00  0.00    -0.131 OA 
HETATM   14  H   UNL     1      -8.711   3.040  71.117  1.00  0.00     0.000 HD 
ENDBRANCH   7  10
ENDBRANCH   4   7
ENDBRANCH   2   4
TORSDOF 3
ENDMDL
MODEL      311
REMARK 921   NORMALIZED FREE ENERGY PREDICTED BY IDOCK:   -0.72 KCAL/MOL
REMARK 922        TOTAL FREE ENERGY PREDICTED BY IDOCK:   -1.47 KCAL/MOL
REMARK 923 INTER-LIGAND FREE ENERGY PREDICTED BY IDOCK:   -1.30 KCAL/MOL
REMARK 924 INTRA-LIGAND FREE ENERGY PREDICTED BY IDOCK:   -0.16 KCAL/MOL
REMARK 927      BINDING AFFINITY PREDICTED BY RF-SCORE:    0.00 PKD
ROOT
HETATM    1  O   UNL     1      -7.098   8.142  69.499  1.00  0.00    -0.049 OA 
HETATM    2  C   UNL     1      -7.994   7.122  69.048  1.00  0.00    -0.120 C  
HETATM    3  H   UNL     1      -7.613   8.829  69.906  1.00  0.00     0.000 HD 
ENDROOT
BRANCH   2   4
HETATM    4  C   UNL     1      -7.164   6.015  68.390  1.00  0.00    -0.084 C  
HETATM    5  O   UNL     1      -6.956   4.953  69.340  1.00  0.00    -0.051 OA 
HETATM    6  H   UNL     1      -6.442   4.266  68.933  1.00  0.00     0.000 HD 
BRANCH   4   7
HETATM    7  C   UNL     1      -7.834   5.475  67.114  1.00  0.00    -0.101 C  
HETATM    8  H   UNL     1      -7.365   5.348  65.210  1.00  0.00     0.000 HD 
HETATM    9  O   UNL     1      -6.952   5.681  65.998  1.00  0.00    -0.060 OA 
BRANCH   7  10
HETATM   10  C   UNL     1      -9.203   6.146  66.870  1.00  0.00    -0.128 C  
HETATM   11  C   UNL     1     -10.276   5.100  66.629  1.00  0.00    -0.261 C  
HETATM   12  O   UNL     1      -9.203   7.036  65.757  1.00  0.00    -0.372 OA 
HETATM   13  O   UNL     1     -10.090   3.887  66.712  1.00  0.00    -0.078 OA 
HETATM   14  H   UNL     1     -10.045   7.449  65.607  1.00  0.00     0.000 HD 
ENDBRANCH   7  10
ENDBRANCH   4   7
ENDBRANCH   2   4
TORSDOF 3
ENDMDL
MODEL      312
REMARK 921   NORMALIZED FREE ENERGY PREDICTED BY IDOCK:   -0.72 KCAL/MOL
REMARK 922        TOTAL FREE ENERGY PREDICTED BY IDOCK:   -1.47 KCAL/MOL
REMARK 923 INTER-LIGAND FREE ENERGY PREDICTED BY IDOCK:   -1.34 KCAL/MOL
REMARK 924 INTRA-LIGAND FREE ENERGY PREDICTED BY IDOCK:   -0.13 KCAL/MOL
REMARK 927      BINDING AFFINITY PREDICTED BY RF-SCORE:    0.00 PKD
ROOT
HETATM    1  O   UNL     1      -8.535   8.910  69.351  1.00  0.00    -0.119 OA 
HETATM    2  C   UNL     1      -9.460   7.891  69.742  1.00  0.00    -0.163 C  
HETATM    3  H   UNL     1      -9.015   9.725  69.258  1.00  0.00     0.000 HD 
ENDROOT
BRANCH   2   4
HETATM    4  C   UNL     1      -8.687   6.577  69.893  1.00  0.00    -0.140 C  
HETATM    5  O   UNL     1      -8.415   6.346  71.288  1.00  0.00    -0.122 OA 
HETATM    6  H   UNL     1      -7.935   5.531  71.381  1.00  0.00     0.000 HD 
BRANCH   4   7
HETATM    7  C   UNL     1      -9.454   5.387  69.288  1.00  0.00    -0.133 C  
HETATM    8  H   UNL     1     -10.386   3.802  69.978  1.00  0.00     0.000 HD 
HETATM    9  O   UNL     1      -9.913   4.536  70.351  1.00  0.00    -0.222 OA 
BRANCH   7  10
HETATM   10  C   UNL     1      -8.577   4.601  68.289  1.00  0.00    -0.098 C  
HETATM   11  C   UNL     1      -8.864   5.039  66.865  1.00  0.00    -0.106 C  
HETATM   12  O   UNL     1      -8.768   3.191  68.359  1.00  0.00    -0.088 OA 
HETATM   13  O   UNL     1      -9.625   5.959  66.564  1.00  0.00    -0.151 OA 
HETATM   14  H   UNL     1      -8.229   2.708  67.745  1.00  0.00     0.000 HD 
ENDBRANCH   7  10
ENDBRANCH   4   7
ENDBRANCH   2   4
TORSDOF 3
ENDMDL
MODEL      313
REMARK 921   NORMALIZED FREE ENERGY PREDICTED BY IDOCK:   -0.58 KCAL/MOL
REMARK 922        TOTAL FREE ENERGY PREDICTED BY IDOCK:   -1.31 KCAL/MOL
REMARK 923 INTER-LIGAND FREE ENERGY PREDICTED BY IDOCK:   -1.20 KCAL/MOL
REMARK 924 INTRA-LIGAND FREE ENERGY PREDICTED BY IDOCK:   -0.11 KCAL/MOL
REMARK 927      BINDING AFFINITY PREDICTED BY RF-SCORE:    0.00 PKD
ROOT
HETATM    1  O   UNL     1     -10.263  10.411  65.771  1.00  0.00    -0.260 OA 
HETATM    2  C   UNL     1      -9.668  10.816  67.008  1.00  0.00    -0.176 C  
HETATM    3  H   UNL     1     -11.132  10.790  65.723  1.00  0.00     0.000 HD 
ENDROOT
BRANCH   2   4
HETATM    4  C   UNL     1      -8.266  10.204  67.086  1.00  0.00    -0.121 C  
HETATM    5  O   UNL     1      -7.423  11.053  67.886  1.00  0.00    -0.090 OA 
HETATM    6  H   UNL     1      -6.553  10.674  67.935  1.00  0.00     0.000 HD 
BRANCH   4   7
HETATM    7  C   UNL     1      -8.294   8.776  67.661  1.00  0.00    -0.114 C  
HETATM    8  H   UNL     1      -8.369   7.967  69.450  1.00  0.00     0.000 HD 
HETATM    9  O   UNL     1      -8.351   8.848  69.095  1.00  0.00    -0.119 OA 
BRANCH   7  10
HETATM   10  C   UNL     1      -7.071   7.957  67.195  1.00  0.00    -0.079 C  
HETATM   11  C   UNL     1      -7.510   6.639  66.585  1.00  0.00    -0.079 C  
HETATM   12  O   UNL     1      -6.153   7.668  68.247  1.00  0.00    -0.034 OA 
HETATM   13  O   UNL     1      -8.684   6.316  66.406  1.00  0.00    -0.126 OA 
HETATM   14  H   UNL     1      -5.401   7.164  67.960  1.00  0.00     0.000 HD 
ENDBRANCH   7  10
ENDBRANCH   4   7
ENDBRANCH   2   4
TORSDOF 3
ENDMDL
MODEL      314
REMARK 921   NORMALIZED FREE ENERGY PREDICTED BY IDOCK:   -0.56 KCAL/MOL
REMARK 922        TOTAL FREE ENERGY PREDICTED BY IDOCK:   -1.28 KCAL/MOL
REMARK 923 INTER-LIGAND FREE ENERGY PREDICTED BY IDOCK:   -2.03 KCAL/MOL
REMARK 924 INTRA-LIGAND FREE ENERGY PREDICTED BY IDOCK:    0.75 KCAL/MOL
REMARK 927      BINDING AFFINITY PREDICTED BY RF-SCORE:    0.00 PKD
ROOT
HETATM    1  O   UNL     1     -11.438   6.620  68.507  1.00  0.00    -0.576 OA 
HETATM    2  C   UNL     1     -10.235   6.428  67.758  1.00  0.00    -0.162 C  
HETATM    3  H   UNL     1     -11.655   5.799  68.932  1.00  0.00     0.000 HD 
ENDROOT
BRANCH   2   4
HETATM    4  C   UNL     1      -9.885   7.752  67.071  1.00  0.00    -0.219 C  
HETATM    5  O   UNL     1     -10.623   8.819  67.696  1.00  0.00    -0.331 OA 
HETATM    6  H   UNL     1     -10.407   9.640  67.270  1.00  0.00     0.000 HD 
BRANCH   4   7
HETATM    7  C   UNL     1      -8.374   8.042  67.118  1.00  0.00    -0.121 C  
HETATM    8  H   UNL     1      -6.908   7.729  68.388  1.00  0.00     0.000 HD 
HETATM    9  O   UNL     1      -7.840   7.550  68.358  1.00  0.00    -0.117 OA 
BRANCH   7  10
HETATM   10  C   UNL     1      -8.084   9.549  66.950  1.00  0.00    -0.109 C  
HETATM   11  C   UNL     1      -8.218  10.272  68.278  1.00  0.00    -0.115 C  
HETATM   12  O   UNL     1      -8.950  10.188  66.016  1.00  0.00    -0.145 OA 
HETATM   13  O   UNL     1      -8.436   9.711  69.351  1.00  0.00    -0.131 OA 
HETATM   14  H   UNL     1      -8.772  11.115  65.912  1.00  0.00     0.000 HD 
ENDBRANCH   7  10
ENDBRANCH   4   7
ENDBRANCH   2   4
TORSDOF 3
ENDMDL
MODEL      315
REMARK 921   NORMALIZED FREE ENERGY PREDICTED BY IDOCK:   -0.45 KCAL/MOL
REMARK 922        TOTAL FREE ENERGY PREDICTED BY IDOCK:   -1.15 KCAL/MOL
REMARK 923 INTER-LIGAND FREE ENERGY PREDICTED BY IDOCK:   -0.97 KCAL/MOL
REMARK 924 INTRA-LIGAND FREE ENERGY PREDICTED BY IDOCK:   -0.18 KCAL/MOL
REMARK 927      BINDING AFFINITY PREDICTED BY RF-SCORE:    0.00 PKD
ROOT
HETATM    1  O   UNL     1      -7.319   5.022  65.569  1.00  0.00    -0.070 OA 
HETATM    2  C   UNL     1      -7.750   5.188  66.922  1.00  0.00    -0.092 C  
HETATM    3  H   UNL     1      -7.898   4.398  65.148  1.00  0.00     0.000 HD 
ENDROOT
BRANCH   2   4
HETATM    4  C   UNL     1      -6.815   6.194  67.601  1.00  0.00    -0.060 C  
HETATM    5  O   UNL     1      -6.629   7.327  66.732  1.00  0.00    -0.052 OA 
HETATM    6  H   UNL     1      -6.049   7.951  67.152  1.00  0.00     0.000 HD 
BRANCH   4   7
HETATM    7  C   UNL     1      -7.355   6.647  68.970  1.00  0.00    -0.094 C  
HETATM    8  H   UNL     1      -6.788   6.482  70.844  1.00  0.00     0.000 HD 
HETATM    9  O   UNL     1      -6.456   6.203  69.999  1.00  0.00    -0.036 OA 
BRANCH   7  10
HETATM   10  C   UNL     1      -8.784   6.116  69.215  1.00  0.00    -0.122 C  
HETATM   11  C   UNL     1      -9.800   7.237  69.090  1.00  0.00    -0.166 C  
HETATM   12  O   UNL     1      -8.950   5.518  70.498  1.00  0.00    -0.132 OA 
HETATM   13  O   UNL     1      -9.523   8.386  68.748  1.00  0.00    -0.147 OA 
HETATM   14  H   UNL     1      -9.829   5.192  70.649  1.00  0.00     0.000 HD 
ENDBRANCH   7  10
ENDBRANCH   4   7
ENDBRANCH   2   4
TORSDOF 3
ENDMDL
MODEL      316
REMARK 921   NORMALIZED FREE ENERGY PREDICTED BY IDOCK:   -0.40 KCAL/MOL
REMARK 922        TOTAL FREE ENERGY PREDICTED BY IDOCK:   -1.10 KCAL/MOL
REMARK 923 INTER-LIGAND FREE ENERGY PREDICTED BY IDOCK:   -0.94 KCAL/MOL
REMARK 924 INTRA-LIGAND FREE ENERGY PREDICTED BY IDOCK:   -0.16 KCAL/MOL
REMARK 927      BINDING AFFINITY PREDICTED BY RF-SCORE:    0.00 PKD
ROOT
HETATM    1  O   UNL     1      -7.391   5.120  65.628  1.00  0.00    -0.071 OA 
HETATM    2  C   UNL     1      -8.064   5.147  66.890  1.00  0.00    -0.108 C  
HETATM    3  H   UNL     1      -7.942   4.656  65.009  1.00  0.00     0.000 HD 
ENDROOT
BRANCH   2   4
HETATM    4  C   UNL     1      -7.174   5.894  67.889  1.00  0.00    -0.072 C  
HETATM    5  O   UNL     1      -5.797   5.551  67.644  1.00  0.00    -0.012 OA 
HETATM    6  H   UNL     1      -5.245   6.014  68.263  1.00  0.00     0.000 HD 
BRANCH   4   7
HETATM    7  C   UNL     1      -7.373   7.418  67.807  1.00  0.00    -0.092 C  
HETATM    8  H   UNL     1      -7.183   8.942  69.033  1.00  0.00     0.000 HD 
HETATM    9  O   UNL     1      -7.060   8.001  69.083  1.00  0.00    -0.065 OA 
BRANCH   7  10
HETATM   10  C   UNL     1      -8.810   7.776  67.372  1.00  0.00    -0.127 C  
HETATM   11  C   UNL     1      -8.812   9.020  66.502  1.00  0.00    -0.135 C  
HETATM   12  O   UNL     1      -9.689   8.010  68.469  1.00  0.00    -0.153 OA 
HETATM   13  O   UNL     1      -7.796   9.601  66.124  1.00  0.00    -0.100 OA 
HETATM   14  H   UNL     1     -10.574   8.230  68.201  1.00  0.00     0.000 HD 
ENDBRANCH   7  10
ENDBRANCH   4   7
ENDBRANCH   2   4
TORSDOF 3
ENDMDL
MODEL      317
REMARK 921   NORMALIZED FREE ENERGY PREDICTED BY IDOCK:   -0.31 KCAL/MOL
REMARK 922        TOTAL FREE ENERGY PREDICTED BY IDOCK:   -0.98 KCAL/MOL
REMARK 923 INTER-LIGAND FREE ENERGY PREDICTED BY IDOCK:   -1.84 KCAL/MOL
REMARK 924 INTRA-LIGAND FREE ENERGY PREDICTED BY IDOCK:    0.85 KCAL/MOL
REMARK 927      BINDING AFFINITY PREDICTED BY RF-SCORE:    0.00 PKD
ROOT
HETATM    1  O   UNL     1      -9.154   6.337  72.632  1.00  0.00    -0.137 OA 
HETATM    2  C   UNL     1     -10.469   6.719  72.220  1.00  0.00    -0.208 C  
HETATM    3  H   UNL     1      -9.192   6.086  73.547  1.00  0.00     0.000 HD 
ENDROOT
BRANCH   2   4
HETATM    4  C   UNL     1     -10.407   7.124  70.744  1.00  0.00    -0.206 C  
HETATM    5  O   UNL     1     -11.702   7.598  70.329  1.00  0.00    -0.475 OA 
HETATM    6  H   UNL     1     -11.664   7.850  69.414  1.00  0.00     0.000 HD 
BRANCH   4   7
HETATM    7  C   UNL     1      -9.332   8.196  70.487  1.00  0.00    -0.155 C  
HETATM    8  H   UNL     1      -9.314  10.099  70.000  1.00  0.00     0.000 HD 
HETATM    9  O   UNL     1      -9.977   9.437  70.158  1.00  0.00    -0.197 OA 
BRANCH   7  10
HETATM   10  C   UNL     1      -8.362   7.762  69.368  1.00  0.00    -0.133 C  
HETATM   11  C   UNL     1      -7.920   8.961  68.548  1.00  0.00    -0.104 C  
HETATM   12  O   UNL     1      -8.924   6.805  68.473  1.00  0.00    -0.123 OA 
HETATM   13  O   UNL     1      -8.226  10.125  68.805  1.00  0.00    -0.101 OA 
HETATM   14  H   UNL     1      -8.326   6.539  67.785  1.00  0.00     0.000 HD 
ENDBRANCH   7  10
ENDBRANCH   4   7
ENDBRANCH   2   4
TORSDOF 3
ENDMDL
MODEL      318
REMARK 921   NORMALIZED FREE ENERGY PREDICTED BY IDOCK:   -0.19 KCAL/MOL
REMARK 922        TOTAL FREE ENERGY PREDICTED BY IDOCK:   -0.85 KCAL/MOL
REMARK 923 INTER-LIGAND FREE ENERGY PREDICTED BY IDOCK:   -1.04 KCAL/MOL
REMARK 924 INTRA-LIGAND FREE ENERGY PREDICTED BY IDOCK:    0.19 KCAL/MOL
REMARK 927      BINDING AFFINITY PREDICTED BY RF-SCORE:    0.00 PKD
ROOT
HETATM    1  O   UNL     1     -10.625   6.092  70.065  1.00  0.00    -0.213 OA 
HETATM    2  C   UNL     1     -10.241   5.044  69.171  1.00  0.00    -0.157 C  
HETATM    3  H   UNL     1     -11.448   6.455  69.759  1.00  0.00     0.000 HD 
ENDROOT
BRANCH   2   4
HETATM    4  C   UNL     1      -8.913   4.460  69.663  1.00  0.00    -0.099 C  
HETATM    5  O   UNL     1      -8.051   4.226  68.533  1.00  0.00    -0.077 OA 
HETATM    6  H   UNL     1      -7.227   3.864  68.839  1.00  0.00     0.000 HD 
BRANCH   4   7
HETATM    7  C   UNL     1      -8.224   5.381  70.686  1.00  0.00    -0.114 C  
HETATM    8  H   UNL     1      -6.462   6.231  70.870  1.00  0.00     0.000 HD 
HETATM    9  O   UNL     1      -6.887   5.662  70.239  1.00  0.00    -0.049 OA 
BRANCH   7  10
HETATM   10  C   UNL     1      -8.216   4.751  72.095  1.00  0.00    -0.111 C  
HETATM   11  C   UNL     1      -7.561   3.382  72.066  1.00  0.00    -0.057 C  
HETATM   12  O   UNL     1      -9.519   4.600  72.653  1.00  0.00    -0.132 OA 
HETATM   13  O   UNL     1      -7.031   2.891  71.070  1.00  0.00    -0.032 OA 
HETATM   14  H   UNL     1      -9.513   4.212  73.520  1.00  0.00     0.000 HD 
ENDBRANCH   7  10
ENDBRANCH   4   7
ENDBRANCH   2   4
TORSDOF 3
ENDMDL
