MODEL        1
REMARK 921   NORMALIZED FREE ENERGY PREDICTED BY IDOCK:   -7.76 KCAL/MOL
REMARK 922        TOTAL FREE ENERGY PREDICTED BY IDOCK:  -13.60 KCAL/MOL
REMARK 923 INTER-LIGAND FREE ENERGY PREDICTED BY IDOCK:  -11.84 KCAL/MOL
REMARK 924 INTRA-LIGAND FREE ENERGY PREDICTED BY IDOCK:   -1.76 KCAL/MOL
REMARK 927      BINDING AFFINITY PREDICTED BY RF-SCORE:    0.00 PKD
ROOT
HETATM    1  C   UNL     1      -5.637   9.476  68.137  1.00  0.00    -0.037 C  
HETATM    2  O   UNL     1      -6.882   9.263  68.788  1.00  0.00    -0.059 OA 
ENDROOT
BRANCH   2   3
HETATM    3  C   UNL     1      -7.968   8.966  68.006  1.00  0.00    -0.102 A  
HETATM    4  C   UNL     1      -8.434   9.776  66.960  1.00  0.00    -0.117 A  
HETATM    5  C   UNL     1      -9.530   9.379  66.177  1.00  0.00    -0.287 A  
HETATM    6  C   UNL     1      -8.606   7.740  68.277  1.00  0.00    -0.124 A  
HETATM    7  C   UNL     1     -10.109   8.128  66.388  1.00  0.00    -0.196 A  
HETATM    8  C   UNL     1      -9.638   7.316  67.419  1.00  0.00    -0.176 A  
BRANCH   5   9
HETATM    9  C   UNL     1     -10.059  10.327  65.163  1.00  0.00    -0.285 C  
HETATM   10  N   UNL     1     -10.878  11.351  65.659  1.00  0.00    -0.251 N  
HETATM   11  H   UNL     1     -11.101  11.336  66.654  1.00  0.00     0.000 HD 
HETATM   12  O   UNL     1      -9.790  10.193  63.981  1.00  0.00    -0.290 OA 
BRANCH  10  13
HETATM   13  S   UNL     1     -11.511  12.589  64.747  1.00  0.00    -0.338 S  
HETATM   14  O   UNL     1     -12.938  12.640  64.999  1.00  0.00    -0.812 OA 
HETATM   15  O   UNL     1     -11.015  12.376  63.402  1.00  0.00    -0.456 OA 
BRANCH  13  16
HETATM   16  C   UNL     1     -10.747  14.073  65.372  1.00  0.00    -0.337 A  
HETATM   17  C   UNL     1      -9.785  13.928  66.384  1.00  0.00    -0.309 A  
HETATM   18  C   UNL     1     -12.139  15.584  63.836  1.00  0.00     0.210 C  
HETATM   19  C   UNL     1      -9.161  15.050  66.925  1.00  0.00    -0.265 A  
HETATM   20  C   UNL     1     -11.103  15.352  64.897  1.00  0.00    -0.435 A  
HETATM   21  C   UNL     1      -9.495  16.319  66.461  1.00  0.00    -0.289 A  
HETATM   22  C   UNL     1     -10.455  16.468  65.456  1.00  0.00    -0.320 A  
ENDBRANCH  13  16
ENDBRANCH  10  13
ENDBRANCH   5   9
BRANCH   6  23
HETATM   23  C   UNL     1      -8.188   6.847  69.426  1.00  0.00    -0.131 C  
BRANCH  23  24
HETATM   24  C   UNL     1      -9.229   6.883  70.517  1.00  0.00    -0.156 A  
HETATM   25  N   UNL     1     -10.736   6.151  72.004  1.00  0.00    -0.225 NA 
HETATM   26  C   UNL     1     -11.094   7.456  71.740  1.00  0.00    -0.238 A  
HETATM   27  C   UNL     1     -10.161   7.936  70.820  1.00  0.00    -0.202 A  
HETATM   28  C   UNL     1      -9.572   5.833  71.354  1.00  0.00    -0.158 A  
HETATM   29  C   UNL     1     -11.535   5.218  72.767  1.00  0.00    -0.247 C  
HETATM   30  C   UNL     1     -10.324   9.256  70.360  1.00  0.00    -0.291 A  
HETATM   31  C   UNL     1     -11.325  10.097  70.858  1.00  0.00    -0.340 A  
HETATM   32  C   UNL     1     -12.259   9.571  71.750  1.00  0.00    -0.465 A  
HETATM   33  C   UNL     1     -12.169   8.241  72.195  1.00  0.00    -0.418 A  
BRANCH  31  34
HETATM   34  N   UNL     1     -11.411  11.465  70.506  1.00  0.00    -0.436 N  
HETATM   35  H   UNL     1     -11.162  12.146  71.223  1.00  0.00     0.000 HD 
HETATM   36  C   UNL     1     -11.800  11.956  69.287  1.00  0.00    -0.318 C  
HETATM   37  O   UNL     1     -12.174  11.310  68.322  1.00  0.00    -0.611 OA 
BRANCH  36  38
HETATM   38  O   UNL     1     -11.707  13.318  69.261  1.00  0.00    -0.288 OA 
BRANCH  38  39
HETATM   39  C   UNL     1     -11.803  13.895  70.566  1.00  0.00    -0.247 C  
HETATM   40  C   UNL     1     -11.078  15.237  70.638  1.00  0.00    -0.341 C  
HETATM   41  C   UNL     1     -11.684  15.882  71.867  1.00  0.00    -0.590 C  
HETATM   42  C   UNL     1     -13.161  15.508  71.793  1.00  0.00    -0.548 C  
HETATM   43  C   UNL     1     -13.243  14.239  70.939  1.00  0.00    -0.320 C  
ENDBRANCH  38  39
ENDBRANCH  36  38
ENDBRANCH  31  34
ENDBRANCH  23  24
ENDBRANCH   6  23
ENDBRANCH   2   3
TORSDOF 9
ENDMDL
MODEL        2
REMARK 921   NORMALIZED FREE ENERGY PREDICTED BY IDOCK:   -7.74 KCAL/MOL
REMARK 922        TOTAL FREE ENERGY PREDICTED BY IDOCK:  -13.57 KCAL/MOL
REMARK 923 INTER-LIGAND FREE ENERGY PREDICTED BY IDOCK:  -11.94 KCAL/MOL
REMARK 924 INTRA-LIGAND FREE ENERGY PREDICTED BY IDOCK:   -1.63 KCAL/MOL
REMARK 927      BINDING AFFINITY PREDICTED BY RF-SCORE:    0.00 PKD
ROOT
HETATM    1  C   UNL     1      -7.143  11.341  68.011  1.00  0.00    -0.070 C  
HETATM    2  O   UNL     1      -7.646  10.960  66.737  1.00  0.00    -0.121 OA 
ENDROOT
BRANCH   2   3
HETATM    3  C   UNL     1      -8.837  11.504  66.333  1.00  0.00    -0.193 A  
HETATM    4  C   UNL     1      -9.089  12.881  66.251  1.00  0.00    -0.019 A  
HETATM    5  C   UNL     1     -10.325  13.359  65.787  1.00  0.00    -0.296 A  
HETATM    6  C   UNL     1      -9.834  10.588  65.946  1.00  0.00    -0.291 A  
HETATM    7  C   UNL     1     -11.282  12.457  65.323  1.00  0.00    -0.359 A  
HETATM    8  C   UNL     1     -11.027  11.088  65.391  1.00  0.00    -0.091 A  
BRANCH   5   9
HETATM    9  C   UNL     1     -10.585  14.821  65.834  1.00  0.00    -0.314 C  
HETATM   10  N   UNL     1      -9.880  15.531  66.817  1.00  0.00    -0.235 N  
HETATM   11  H   UNL     1      -9.298  14.994  67.460  1.00  0.00     0.000 HD 
HETATM   12  O   UNL     1     -11.372  15.342  65.063  1.00  0.00    -0.374 OA 
BRANCH  10  13
HETATM   13  S   UNL     1      -9.920  17.181  67.012  1.00  0.00    -0.297 S  
HETATM   14  O   UNL     1     -11.098  17.507  67.791  1.00  0.00    -0.235 OA 
HETATM   15  O   UNL     1      -9.749  17.736  65.683  1.00  0.00    -0.510 OA 
BRANCH  13  16
HETATM   16  C   UNL     1      -8.460  17.581  67.952  1.00  0.00    -0.230 A  
HETATM   17  C   UNL     1      -7.638  16.516  68.353  1.00  0.00    -0.189 A  
HETATM   18  C   UNL     1      -8.986  20.091  67.937  1.00  0.00    -0.356 C  
HETATM   19  C   UNL     1      -6.489  16.759  69.103  1.00  0.00    -0.208 A  
HETATM   20  C   UNL     1      -8.142  18.907  68.309  1.00  0.00    -0.353 A  
HETATM   21  C   UNL     1      -6.157  18.064  69.456  1.00  0.00    -0.247 A  
HETATM   22  C   UNL     1      -6.974  19.127  69.062  1.00  0.00    -0.371 A  
ENDBRANCH  13  16
ENDBRANCH  10  13
ENDBRANCH   5   9
BRANCH   6  23
HETATM   23  C   UNL     1      -9.646   9.090  66.064  1.00  0.00    -0.342 C  
BRANCH  23  24
HETATM   24  C   UNL     1      -9.687   8.673  67.513  1.00  0.00    -0.212 A  
HETATM   25  N   UNL     1      -9.617   7.349  69.318  1.00  0.00    -0.154 NA 
HETATM   26  C   UNL     1     -10.364   8.443  69.702  1.00  0.00    -0.218 A  
HETATM   27  C   UNL     1     -10.414   9.287  68.592  1.00  0.00    -0.236 A  
HETATM   28  C   UNL     1      -9.130   7.523  68.048  1.00  0.00    -0.131 A  
HETATM   29  C   UNL     1      -9.464   6.144  70.101  1.00  0.00    -0.159 C  
HETATM   30  C   UNL     1     -11.153  10.479  68.716  1.00  0.00    -0.315 A  
HETATM   31  C   UNL     1     -11.750  10.858  69.924  1.00  0.00    -0.339 A  
HETATM   32  C   UNL     1     -11.709   9.973  70.999  1.00  0.00    -0.479 A  
HETATM   33  C   UNL     1     -11.029   8.746  70.904  1.00  0.00    -0.315 A  
BRANCH  31  34
HETATM   34  N   UNL     1     -12.376  12.116  70.097  1.00  0.00    -0.197 N  
HETATM   35  H   UNL     1     -13.286  12.123  70.555  1.00  0.00     0.000 HD 
HETATM   36  C   UNL     1     -11.866  13.326  69.704  1.00  0.00    -0.327 C  
HETATM   37  O   UNL     1     -10.820  13.521  69.108  1.00  0.00    -0.222 OA 
BRANCH  36  38
HETATM   38  O   UNL     1     -12.692  14.345  70.082  1.00  0.00    -0.334 OA 
BRANCH  38  39
HETATM   39  C   UNL     1     -12.754  14.498  71.503  1.00  0.00    -0.339 C  
HETATM   40  C   UNL     1     -11.708  15.492  72.003  1.00  0.00    -0.541 C  
HETATM   41  C   UNL     1     -12.235  15.873  73.372  1.00  0.00    -0.625 C  
HETATM   42  C   UNL     1     -13.744  15.971  73.175  1.00  0.00    -0.441 C  
HETATM   43  C   UNL     1     -14.079  15.102  71.959  1.00  0.00    -0.659 C  
ENDBRANCH  38  39
ENDBRANCH  36  38
ENDBRANCH  31  34
ENDBRANCH  23  24
ENDBRANCH   6  23
ENDBRANCH   2   3
TORSDOF 9
ENDMDL
MODEL        3
REMARK 921   NORMALIZED FREE ENERGY PREDICTED BY IDOCK:   -7.67 KCAL/MOL
REMARK 922        TOTAL FREE ENERGY PREDICTED BY IDOCK:  -13.46 KCAL/MOL
REMARK 923 INTER-LIGAND FREE ENERGY PREDICTED BY IDOCK:  -10.84 KCAL/MOL
REMARK 924 INTRA-LIGAND FREE ENERGY PREDICTED BY IDOCK:   -2.62 KCAL/MOL
REMARK 927      BINDING AFFINITY PREDICTED BY RF-SCORE:    0.00 PKD
ROOT
HETATM    1  C   UNL     1     -10.512  10.742  66.101  1.00  0.00    -0.214 C  
HETATM    2  O   UNL     1     -11.414  11.816  66.331  1.00  0.00    -0.380 OA 
ENDROOT
BRANCH   2   3
HETATM    3  C   UNL     1     -11.742  12.106  67.629  1.00  0.00    -0.316 A  
HETATM    4  C   UNL     1     -11.877  11.148  68.644  1.00  0.00    -0.357 A  
HETATM    5  C   UNL     1     -12.176  11.532  69.961  1.00  0.00    -0.354 A  
HETATM    6  C   UNL     1     -11.908  13.472  67.932  1.00  0.00    -0.397 A  
HETATM    7  C   UNL     1     -12.256  12.888  70.281  1.00  0.00    -0.362 A  
HETATM    8  C   UNL     1     -12.108  13.842  69.275  1.00  0.00    -0.374 A  
BRANCH   5   9
HETATM    9  C   UNL     1     -12.428  10.472  70.971  1.00  0.00    -0.400 C  
HETATM   10  N   UNL     1     -12.082   9.171  70.583  1.00  0.00    -0.476 N  
HETATM   11  H   UNL     1     -11.747   9.036  69.629  1.00  0.00     0.000 HD 
HETATM   12  O   UNL     1     -12.915  10.745  72.055  1.00  0.00    -0.463 OA 
BRANCH  10  13
HETATM   13  S   UNL     1     -12.175   7.830  71.562  1.00  0.00    -0.328 S  
HETATM   14  O   UNL     1     -13.567   7.436  71.643  1.00  0.00    -0.370 OA 
HETATM   15  O   UNL     1     -11.442   8.173  72.765  1.00  0.00    -0.408 OA 
BRANCH  13  16
HETATM   16  C   UNL     1     -11.251   6.563  70.714  1.00  0.00    -0.321 A  
HETATM   17  C   UNL     1     -11.064   6.715  69.331  1.00  0.00    -0.365 A  
HETATM   18  C   UNL     1     -10.925   5.193  72.858  1.00  0.00    -0.345 C  
HETATM   19  C   UNL     1     -10.363   5.752  68.608  1.00  0.00    -0.283 A  
HETATM   20  C   UNL     1     -10.742   5.434  71.388  1.00  0.00    -0.258 A  
HETATM   21  C   UNL     1      -9.848   4.636  69.260  1.00  0.00    -0.260 A  
HETATM   22  C   UNL     1     -10.035   4.479  70.636  1.00  0.00    -0.273 A  
ENDBRANCH  13  16
ENDBRANCH  10  13
ENDBRANCH   5   9
BRANCH   6  23
HETATM   23  C   UNL     1     -11.831  14.551  66.873  1.00  0.00    -0.399 C  
BRANCH  23  24
HETATM   24  C   UNL     1     -10.608  15.407  67.090  1.00  0.00    -0.305 A  
HETATM   25  N   UNL     1      -9.211  17.149  66.927  1.00  0.00    -0.234 NA 
HETATM   26  C   UNL     1      -8.412  16.076  67.258  1.00  0.00    -0.184 A  
HETATM   27  C   UNL     1      -9.264  14.978  67.373  1.00  0.00    -0.200 A  
HETATM   28  C   UNL     1     -10.531  16.779  66.920  1.00  0.00    -0.269 A  
HETATM   29  C   UNL     1      -8.717  18.451  66.535  1.00  0.00    -0.278 C  
HETATM   30  C   UNL     1      -8.682  13.733  67.680  1.00  0.00    -0.185 A  
HETATM   31  C   UNL     1      -7.314  13.600  67.946  1.00  0.00    -0.148 A  
HETATM   32  C   UNL     1      -6.489  14.712  67.787  1.00  0.00    -0.182 A  
HETATM   33  C   UNL     1      -7.019  15.963  67.427  1.00  0.00    -0.233 A  
BRANCH  31  34
HETATM   34  N   UNL     1      -6.744  12.384  68.390  1.00  0.00    -0.063 N  
HETATM   35  H   UNL     1      -6.350  12.371  69.330  1.00  0.00     0.000 HD 
HETATM   36  C   UNL     1      -6.673  11.221  67.669  1.00  0.00    -0.073 C  
HETATM   37  O   UNL     1      -7.047  11.047  66.521  1.00  0.00    -0.131 OA 
BRANCH  36  38
HETATM   38  O   UNL     1      -6.122  10.219  68.416  1.00  0.00    -0.044 OA 
BRANCH  38  39
HETATM   39  C   UNL     1      -7.101   9.289  68.887  1.00  0.00    -0.068 C  
HETATM   40  C   UNL     1      -6.463   8.189  69.732  1.00  0.00    -0.036 C  
HETATM   41  C   UNL     1      -7.642   7.632  70.504  1.00  0.00    -0.081 C  
HETATM   42  C   UNL     1      -8.468   8.864  70.862  1.00  0.00    -0.226 C  
HETATM   43  C   UNL     1      -8.106   9.940  69.833  1.00  0.00    -0.200 C  
ENDBRANCH  38  39
ENDBRANCH  36  38
ENDBRANCH  31  34
ENDBRANCH  23  24
ENDBRANCH   6  23
ENDBRANCH   2   3
TORSDOF 9
ENDMDL
MODEL        4
REMARK 921   NORMALIZED FREE ENERGY PREDICTED BY IDOCK:   -7.57 KCAL/MOL
REMARK 922        TOTAL FREE ENERGY PREDICTED BY IDOCK:  -13.31 KCAL/MOL
REMARK 923 INTER-LIGAND FREE ENERGY PREDICTED BY IDOCK:  -11.86 KCAL/MOL
REMARK 924 INTRA-LIGAND FREE ENERGY PREDICTED BY IDOCK:   -1.45 KCAL/MOL
REMARK 927      BINDING AFFINITY PREDICTED BY RF-SCORE:    0.00 PKD
ROOT
HETATM    1  C   UNL     1     -10.035  10.772  64.574  1.00  0.00    -0.333 C  
HETATM    2  O   UNL     1     -10.190  10.711  65.986  1.00  0.00    -0.242 OA 
ENDROOT
BRANCH   2   3
HETATM    3  C   UNL     1      -9.090  10.975  66.760  1.00  0.00    -0.162 A  
HETATM    4  C   UNL     1      -8.432  12.212  66.803  1.00  0.00    -0.138 A  
HETATM    5  C   UNL     1      -7.334  12.414  67.655  1.00  0.00    -0.132 A  
HETATM    6  C   UNL     1      -8.646   9.919  67.580  1.00  0.00    -0.122 A  
HETATM    7  C   UNL     1      -6.947  11.398  68.530  1.00  0.00    -0.080 A  
HETATM    8  C   UNL     1      -7.610  10.172  68.498  1.00  0.00    -0.088 A  
BRANCH   5   9
HETATM    9  C   UNL     1      -6.598  13.701  67.573  1.00  0.00    -0.107 C  
HETATM   10  N   UNL     1      -7.379  14.856  67.721  1.00  0.00    -0.149 N  
HETATM   11  H   UNL     1      -8.388  14.736  67.808  1.00  0.00     0.000 HD 
HETATM   12  O   UNL     1      -5.394  13.722  67.380  1.00  0.00    -0.343 OA 
BRANCH  10  13
HETATM   13  S   UNL     1      -6.783  16.408  67.766  1.00  0.00    -0.149 S  
HETATM   14  O   UNL     1      -5.981  16.609  66.576  1.00  0.00    -0.313 OA 
HETATM   15  O   UNL     1      -6.189  16.560  69.080  1.00  0.00    -0.145 OA 
BRANCH  13  16
HETATM   16  C   UNL     1      -8.216  17.465  67.699  1.00  0.00    -0.206 A  
HETATM   17  C   UNL     1      -9.457  16.857  67.452  1.00  0.00    -0.238 A  
HETATM   18  C   UNL     1      -6.826  19.583  68.101  1.00  0.00    -0.306 C  
HETATM   19  C   UNL     1     -10.614  17.629  67.373  1.00  0.00    -0.320 A  
HETATM   20  C   UNL     1      -8.121  18.862  67.860  1.00  0.00    -0.300 A  
HETATM   21  C   UNL     1     -10.538  19.008  67.539  1.00  0.00    -0.546 A  
HETATM   22  C   UNL     1      -9.304  19.619  67.780  1.00  0.00    -0.427 A  
ENDBRANCH  13  16
ENDBRANCH  10  13
ENDBRANCH   5   9
BRANCH   6  23
HETATM   23  C   UNL     1      -9.277   8.544  67.540  1.00  0.00    -0.151 C  
BRANCH  23  24
HETATM   24  C   UNL     1      -9.849   8.194  68.892  1.00  0.00    -0.178 A  
HETATM   25  N   UNL     1     -10.641   6.950  70.577  1.00  0.00    -0.215 NA 
HETATM   26  C   UNL     1     -11.185   8.202  70.767  1.00  0.00    -0.261 A  
HETATM   27  C   UNL     1     -10.698   8.999  69.731  1.00  0.00    -0.233 A  
HETATM   28  C   UNL     1      -9.769   6.962  69.519  1.00  0.00    -0.158 A  
HETATM   29  C   UNL     1     -11.022   5.768  71.318  1.00  0.00    -0.230 C  
HETATM   30  C   UNL     1     -11.133  10.336  69.680  1.00  0.00    -0.323 A  
HETATM   31  C   UNL     1     -11.956  10.886  70.669  1.00  0.00    -0.368 A  
HETATM   32  C   UNL     1     -12.451  10.050  71.669  1.00  0.00    -0.513 A  
HETATM   33  C   UNL     1     -12.088   8.694  71.728  1.00  0.00    -0.403 A  
BRANCH  31  34
HETATM   34  N   UNL     1     -12.286  12.262  70.702  1.00  0.00    -0.419 N  
HETATM   35  H   UNL     1     -12.773  12.603  71.530  1.00  0.00     0.000 HD 
HETATM   36  C   UNL     1     -12.009  13.176  69.720  1.00  0.00    -0.314 C  
HETATM   37  O   UNL     1     -11.476  12.958  68.645  1.00  0.00    -0.263 OA 
BRANCH  36  38
HETATM   38  O   UNL     1     -12.404  14.428  70.098  1.00  0.00    -0.322 OA 
BRANCH  38  39
HETATM   39  C   UNL     1     -12.600  14.534  71.511  1.00  0.00    -0.348 C  
HETATM   40  C   UNL     1     -11.632  15.537  72.134  1.00  0.00    -0.552 C  
HETATM   41  C   UNL     1     -12.292  15.862  73.459  1.00  0.00    -0.660 C  
HETATM   42  C   UNL     1     -13.779  15.928  73.127  1.00  0.00    -0.499 C  
HETATM   43  C   UNL     1     -13.978  15.089  71.861  1.00  0.00    -0.604 C  
ENDBRANCH  38  39
ENDBRANCH  36  38
ENDBRANCH  31  34
ENDBRANCH  23  24
ENDBRANCH   6  23
ENDBRANCH   2   3
TORSDOF 9
ENDMDL
MODEL        5
REMARK 921   NORMALIZED FREE ENERGY PREDICTED BY IDOCK:   -7.53 KCAL/MOL
REMARK 922        TOTAL FREE ENERGY PREDICTED BY IDOCK:  -13.25 KCAL/MOL
REMARK 923 INTER-LIGAND FREE ENERGY PREDICTED BY IDOCK:  -11.45 KCAL/MOL
REMARK 924 INTRA-LIGAND FREE ENERGY PREDICTED BY IDOCK:   -1.81 KCAL/MOL
REMARK 927      BINDING AFFINITY PREDICTED BY RF-SCORE:    0.00 PKD
ROOT
HETATM    1  C   UNL     1     -11.775  13.215  66.107  1.00  0.00    -0.381 C  
HETATM    2  O   UNL     1     -11.074  11.984  65.994  1.00  0.00    -0.296 OA 
ENDROOT
BRANCH   2   3
HETATM    3  C   UNL     1      -9.737  11.982  66.295  1.00  0.00    -0.235 A  
HETATM    4  C   UNL     1      -9.030  13.099  66.762  1.00  0.00    -0.183 A  
HETATM    5  C   UNL     1      -7.667  13.003  67.088  1.00  0.00    -0.049 A  
HETATM    6  C   UNL     1      -9.074  10.747  66.149  1.00  0.00    -0.193 A  
HETATM    7  C   UNL     1      -7.031  11.764  67.027  1.00  0.00    -0.135 A  
HETATM    8  C   UNL     1      -7.736  10.649  66.575  1.00  0.00    -0.137 A  
BRANCH   5   9
HETATM    9  C   UNL     1      -6.937  14.242  67.462  1.00  0.00    -0.155 C  
HETATM   10  N   UNL     1      -7.670  15.433  67.357  1.00  0.00    -0.178 N  
HETATM   11  H   UNL     1      -8.614  15.373  66.977  1.00  0.00     0.000 HD 
HETATM   12  O   UNL     1      -5.774  14.197  67.824  1.00  0.00    -0.232 OA 
BRANCH  10  13
HETATM   13  S   UNL     1      -7.114  16.934  67.806  1.00  0.00    -0.146 S  
HETATM   14  O   UNL     1      -5.945  17.232  67.004  1.00  0.00    -0.132 OA 
HETATM   15  O   UNL     1      -7.017  16.898  69.252  1.00  0.00    -0.234 OA 
BRANCH  13  16
HETATM   16  C   UNL     1      -8.424  18.066  67.384  1.00  0.00    -0.240 A  
HETATM   17  C   UNL     1      -9.430  17.600  66.523  1.00  0.00    -0.294 A  
HETATM   18  C   UNL     1      -7.399  19.964  68.772  1.00  0.00    -0.286 C  
HETATM   19  C   UNL     1     -10.474  18.440  66.143  1.00  0.00    -0.422 A  
HETATM   20  C   UNL     1      -8.451  19.390  67.869  1.00  0.00    -0.348 A  
HETATM   21  C   UNL     1     -10.519  19.746  66.619  1.00  0.00    -0.615 A  
HETATM   22  C   UNL     1      -9.519  20.217  67.474  1.00  0.00    -0.523 A  
ENDBRANCH  13  16
ENDBRANCH  10  13
ENDBRANCH   5   9
BRANCH   6  23
HETATM   23  C   UNL     1      -9.764   9.519  65.597  1.00  0.00    -0.361 C  
BRANCH  23  24
HETATM   24  C   UNL     1      -9.778   8.420  66.631  1.00  0.00    -0.320 A  
HETATM   25  N   UNL     1      -9.830   6.357  67.499  1.00  0.00    -0.119 NA 
HETATM   26  C   UNL     1     -10.321   7.178  68.491  1.00  0.00    -0.183 A  
HETATM   27  C   UNL     1     -10.290   8.473  67.974  1.00  0.00    -0.272 A  
HETATM   28  C   UNL     1      -9.414   7.100  66.425  1.00  0.00    -0.123 A  
HETATM   29  C   UNL     1      -9.854   4.911  67.542  1.00  0.00    -0.167 C  
HETATM   30  C   UNL     1     -10.774   9.511  68.793  1.00  0.00    -0.218 A  
HETATM   31  C   UNL     1     -11.196   9.282  70.108  1.00  0.00    -0.208 A  
HETATM   32  C   UNL     1     -11.245   7.970  70.577  1.00  0.00    -0.252 A  
HETATM   33  C   UNL     1     -10.824   6.896  69.775  1.00  0.00    -0.295 A  
BRANCH  31  34
HETATM   34  N   UNL     1     -11.552  10.335  70.983  1.00  0.00    -0.359 N  
HETATM   35  H   UNL     1     -10.796  10.916  71.343  1.00  0.00     0.000 HD 
HETATM   36  C   UNL     1     -12.824  10.643  71.390  1.00  0.00    -0.451 C  
HETATM   37  O   UNL     1     -13.849  10.046  71.107  1.00  0.00    -0.153 OA 
BRANCH  36  38
HETATM   38  O   UNL     1     -12.823  11.757  72.181  1.00  0.00    -0.267 OA 
BRANCH  38  39
HETATM   39  C   UNL     1     -13.329  12.909  71.499  1.00  0.00    -0.173 C  
HETATM   40  C   UNL     1     -14.137  13.801  72.438  1.00  0.00    -0.593 C  
HETATM   41  C   UNL     1     -14.156  15.128  71.706  1.00  0.00    -0.645 C  
HETATM   42  C   UNL     1     -12.754  15.248  71.118  1.00  0.00    -0.476 C  
HETATM   43  C   UNL     1     -12.210  13.820  71.002  1.00  0.00    -0.401 C  
ENDBRANCH  38  39
ENDBRANCH  36  38
ENDBRANCH  31  34
ENDBRANCH  23  24
ENDBRANCH   6  23
ENDBRANCH   2   3
TORSDOF 9
ENDMDL
MODEL        6
REMARK 921   NORMALIZED FREE ENERGY PREDICTED BY IDOCK:   -7.40 KCAL/MOL
REMARK 922        TOTAL FREE ENERGY PREDICTED BY IDOCK:  -13.06 KCAL/MOL
REMARK 923 INTER-LIGAND FREE ENERGY PREDICTED BY IDOCK:  -10.77 KCAL/MOL
REMARK 924 INTRA-LIGAND FREE ENERGY PREDICTED BY IDOCK:   -2.29 KCAL/MOL
REMARK 927      BINDING AFFINITY PREDICTED BY RF-SCORE:    0.00 PKD
ROOT
HETATM    1  C   UNL     1     -12.553  14.221  65.043  1.00  0.00    -0.347 C  
HETATM    2  O   UNL     1     -12.478  13.828  66.407  1.00  0.00    -0.423 OA 
ENDROOT
BRANCH   2   3
HETATM    3  C   UNL     1     -11.401  13.074  66.795  1.00  0.00    -0.324 A  
HETATM    4  C   UNL     1     -11.042  11.850  66.213  1.00  0.00    -0.364 A  
HETATM    5  C   UNL     1      -9.898  11.158  66.642  1.00  0.00    -0.231 A  
HETATM    6  C   UNL     1     -10.605  13.619  67.822  1.00  0.00    -0.247 A  
HETATM    7  C   UNL     1      -9.062  11.735  67.597  1.00  0.00    -0.177 A  
HETATM    8  C   UNL     1      -9.411  12.960  68.167  1.00  0.00    -0.214 A  
BRANCH   5   9
HETATM    9  C   UNL     1      -9.631   9.809  66.079  1.00  0.00    -0.235 C  
HETATM   10  N   UNL     1      -9.270   8.824  67.009  1.00  0.00    -0.138 N  
HETATM   11  H   UNL     1      -9.155   9.113  67.981  1.00  0.00     0.000 HD 
HETATM   12  O   UNL     1      -9.718   9.603  64.880  1.00  0.00    -0.267 OA 
BRANCH  10  13
HETATM   13  S   UNL     1      -9.015   7.222  66.647  1.00  0.00    -0.155 S  
HETATM   14  O   UNL     1      -8.169   7.161  65.472  1.00  0.00    -0.129 OA 
HETATM   15  O   UNL     1     -10.330   6.611  66.632  1.00  0.00    -0.201 OA 
BRANCH  13  16
HETATM   16  C   UNL     1      -8.132   6.558  68.046  1.00  0.00    -0.113 A  
HETATM   17  C   UNL     1      -7.686   7.466  69.019  1.00  0.00    -0.118 A  
HETATM   18  C   UNL     1      -8.286   4.156  67.160  1.00  0.00    -0.100 C  
HETATM   19  C   UNL     1      -6.976   7.013  70.130  1.00  0.00    -0.065 A  
HETATM   20  C   UNL     1      -7.862   5.180  68.172  1.00  0.00    -0.087 A  
HETATM   21  C   UNL     1      -6.710   5.655  70.273  1.00  0.00    -0.048 A  
HETATM   22  C   UNL     1      -7.148   4.747  69.305  1.00  0.00    -0.052 A  
ENDBRANCH  13  16
ENDBRANCH  10  13
ENDBRANCH   5   9
BRANCH   6  23
HETATM   23  C   UNL     1     -10.968  14.907  68.529  1.00  0.00    -0.260 C  
BRANCH  23  24
HETATM   24  C   UNL     1     -11.961  14.633  69.632  1.00  0.00    -0.368 A  
HETATM   25  N   UNL     1     -13.230  14.976  71.445  1.00  0.00    -0.386 NA 
HETATM   26  C   UNL     1     -13.061  13.610  71.376  1.00  0.00    -0.319 A  
HETATM   27  C   UNL     1     -12.278  13.371  70.247  1.00  0.00    -0.405 A  
HETATM   28  C   UNL     1     -12.659  15.584  70.357  1.00  0.00    -0.378 A  
HETATM   29  C   UNL     1     -13.826  15.675  72.562  1.00  0.00    -0.555 C  
HETATM   30  C   UNL     1     -11.933  12.036  69.966  1.00  0.00    -0.400 A  
HETATM   31  C   UNL     1     -12.418  10.968  70.730  1.00  0.00    -0.396 A  
HETATM   32  C   UNL     1     -13.168  11.248  71.871  1.00  0.00    -0.491 A  
HETATM   33  C   UNL     1     -13.490  12.570  72.222  1.00  0.00    -0.490 A  
BRANCH  31  34
HETATM   34  N   UNL     1     -12.191   9.618  70.375  1.00  0.00    -0.475 N  
HETATM   35  H   UNL     1     -13.005   9.006  70.331  1.00  0.00     0.000 HD 
HETATM   36  C   UNL     1     -10.974   9.058  70.084  1.00  0.00    -0.233 C  
HETATM   37  O   UNL     1      -9.886   9.610  70.122  1.00  0.00    -0.233 OA 
BRANCH  36  38
HETATM   38  O   UNL     1     -11.117   7.751  69.717  1.00  0.00    -0.204 OA 
BRANCH  38  39
HETATM   39  C   UNL     1     -11.143   6.868  70.842  1.00  0.00    -0.272 C  
HETATM   40  C   UNL     1     -10.693   5.461  70.457  1.00  0.00    -0.266 C  
HETATM   41  C   UNL     1     -10.328   4.848  71.793  1.00  0.00    -0.249 C  
HETATM   42  C   UNL     1      -9.643   5.983  72.548  1.00  0.00    -0.162 C  
HETATM   43  C   UNL     1     -10.152   7.286  71.924  1.00  0.00    -0.196 C  
ENDBRANCH  38  39
ENDBRANCH  36  38
ENDBRANCH  31  34
ENDBRANCH  23  24
ENDBRANCH   6  23
ENDBRANCH   2   3
TORSDOF 9
ENDMDL
MODEL        7
REMARK 921   NORMALIZED FREE ENERGY PREDICTED BY IDOCK:   -7.33 KCAL/MOL
REMARK 922        TOTAL FREE ENERGY PREDICTED BY IDOCK:  -12.95 KCAL/MOL
REMARK 923 INTER-LIGAND FREE ENERGY PREDICTED BY IDOCK:  -10.56 KCAL/MOL
REMARK 924 INTRA-LIGAND FREE ENERGY PREDICTED BY IDOCK:   -2.38 KCAL/MOL
REMARK 927      BINDING AFFINITY PREDICTED BY RF-SCORE:    0.00 PKD
ROOT
HETATM    1  C   UNL     1     -13.185  15.451  72.243  1.00  0.00    -0.421 C  
HETATM    2  O   UNL     1     -12.359  15.335  71.091  1.00  0.00    -0.302 OA 
ENDROOT
BRANCH   2   3
HETATM    3  C   UNL     1     -12.239  14.097  70.516  1.00  0.00    -0.361 A  
HETATM    4  C   UNL     1     -12.478  12.888  71.184  1.00  0.00    -0.344 A  
HETATM    5  C   UNL     1     -12.372  11.660  70.510  1.00  0.00    -0.410 A  
HETATM    6  C   UNL     1     -11.887  14.083  69.152  1.00  0.00    -0.391 A  
HETATM    7  C   UNL     1     -12.108  11.648  69.141  1.00  0.00    -0.315 A  
HETATM    8  C   UNL     1     -11.883  12.850  68.472  1.00  0.00    -0.350 A  
BRANCH   5   9
HETATM    9  C   UNL     1     -12.515  10.405  71.293  1.00  0.00    -0.415 C  
HETATM   10  N   UNL     1     -11.882   9.278  70.752  1.00  0.00    -0.371 N  
HETATM   11  H   UNL     1     -11.430   9.381  69.844  1.00  0.00     0.000 HD 
HETATM   12  O   UNL     1     -13.157  10.385  72.330  1.00  0.00    -0.397 OA 
BRANCH  10  13
HETATM   13  S   UNL     1     -11.812   7.785  71.480  1.00  0.00    -0.304 S  
HETATM   14  O   UNL     1     -13.028   7.071  71.146  1.00  0.00    -0.360 OA 
HETATM   15  O   UNL     1     -11.476   8.043  72.867  1.00  0.00    -0.411 OA 
BRANCH  13  16
HETATM   16  C   UNL     1     -10.419   6.961  70.735  1.00  0.00    -0.216 A  
HETATM   17  C   UNL     1     -10.597   5.629  70.329  1.00  0.00    -0.370 A  
HETATM   18  C   UNL     1      -8.903   9.012  71.006  1.00  0.00    -0.291 C  
HETATM   19  C   UNL     1      -9.542   4.924  69.752  1.00  0.00    -0.243 A  
HETATM   20  C   UNL     1      -9.172   7.600  70.574  1.00  0.00    -0.159 A  
HETATM   21  C   UNL     1      -8.308   5.544  69.579  1.00  0.00    -0.102 A  
HETATM   22  C   UNL     1      -8.125   6.869  69.985  1.00  0.00    -0.125 A  
ENDBRANCH  13  16
ENDBRANCH  10  13
ENDBRANCH   5   9
BRANCH   6  23
HETATM   23  C   UNL     1     -11.561  15.348  68.388  1.00  0.00    -0.368 C  
BRANCH  23  24
HETATM   24  C   UNL     1     -10.093  15.671  68.518  1.00  0.00    -0.211 A  
HETATM   25  N   UNL     1      -8.205  16.875  68.564  1.00  0.00    -0.239 NA 
HETATM   26  C   UNL     1      -7.807  15.593  68.255  1.00  0.00    -0.128 A  
HETATM   27  C   UNL     1      -8.968  14.821  68.229  1.00  0.00    -0.181 A  
HETATM   28  C   UNL     1      -9.552  16.911  68.817  1.00  0.00    -0.268 A  
HETATM   29  C   UNL     1      -7.345  18.037  68.518  1.00  0.00    -0.273 C  
HETATM   30  C   UNL     1      -8.835  13.458  67.902  1.00  0.00    -0.194 A  
HETATM   31  C   UNL     1      -7.585  12.865  67.692  1.00  0.00    -0.156 A  
HETATM   32  C   UNL     1      -6.451  13.675  67.692  1.00  0.00    -0.164 A  
HETATM   33  C   UNL     1      -6.542  15.052  67.958  1.00  0.00    -0.156 A  
BRANCH  31  34
HETATM   34  N   UNL     1      -7.430  11.471  67.501  1.00  0.00    -0.109 N  
HETATM   35  H   UNL     1      -6.939  10.955  68.230  1.00  0.00     0.000 HD 
HETATM   36  C   UNL     1      -7.880  10.755  66.424  1.00  0.00    -0.148 C  
HETATM   37  O   UNL     1      -8.447  11.194  65.437  1.00  0.00    -0.096 OA 
BRANCH  36  38
HETATM   38  O   UNL     1      -7.623   9.423  66.586  1.00  0.00    -0.093 OA 
BRANCH  38  39
HETATM   39  C   UNL     1      -8.730   8.604  66.199  1.00  0.00    -0.156 C  
HETATM   40  C   UNL     1      -8.410   7.121  66.364  1.00  0.00    -0.125 C  
HETATM   41  C   UNL     1      -9.784   6.481  66.387  1.00  0.00    -0.133 C  
HETATM   42  C   UNL     1     -10.633   7.453  67.200  1.00  0.00    -0.413 C  
HETATM   43  C   UNL     1      -9.945   8.818  67.098  1.00  0.00    -0.295 C  
ENDBRANCH  38  39
ENDBRANCH  36  38
ENDBRANCH  31  34
ENDBRANCH  23  24
ENDBRANCH   6  23
ENDBRANCH   2   3
TORSDOF 9
ENDMDL
MODEL        8
REMARK 921   NORMALIZED FREE ENERGY PREDICTED BY IDOCK:   -7.16 KCAL/MOL
REMARK 922        TOTAL FREE ENERGY PREDICTED BY IDOCK:  -12.68 KCAL/MOL
REMARK 923 INTER-LIGAND FREE ENERGY PREDICTED BY IDOCK:  -10.94 KCAL/MOL
REMARK 924 INTRA-LIGAND FREE ENERGY PREDICTED BY IDOCK:   -1.75 KCAL/MOL
REMARK 927      BINDING AFFINITY PREDICTED BY RF-SCORE:    0.00 PKD
ROOT
HETATM    1  C   UNL     1      -6.354  10.922  66.788  1.00  0.00    -0.097 C  
HETATM    2  O   UNL     1      -7.051   9.785  66.296  1.00  0.00    -0.090 OA 
ENDROOT
BRANCH   2   3
HETATM    3  C   UNL     1      -7.963   9.981  65.293  1.00  0.00    -0.143 A  
HETATM    4  C   UNL     1      -8.832  11.079  65.218  1.00  0.00    -0.139 A  
HETATM    5  C   UNL     1      -9.711  11.228  64.132  1.00  0.00    -0.298 A  
HETATM    6  C   UNL     1      -7.971   9.014  64.268  1.00  0.00    -0.142 A  
HETATM    7  C   UNL     1      -9.660  10.319  63.076  1.00  0.00    -0.297 A  
HETATM    8  C   UNL     1      -8.787   9.234  63.143  1.00  0.00    -0.163 A  
BRANCH   5   9
HETATM    9  C   UNL     1     -10.693  12.342  64.161  1.00  0.00    -0.379 C  
HETATM   10  N   UNL     1     -10.722  13.095  65.343  1.00  0.00    -0.288 N  
HETATM   11  H   UNL     1     -10.124  12.790  66.111  1.00  0.00     0.000 HD 
HETATM   12  O   UNL     1     -11.422  12.558  63.207  1.00  0.00    -0.466 OA 
BRANCH  10  13
HETATM   13  S   UNL     1     -11.659  14.446  65.588  1.00  0.00    -0.350 S  
HETATM   14  O   UNL     1     -13.036  14.086  65.316  1.00  0.00    -0.782 OA 
HETATM   15  O   UNL     1     -11.020  15.506  64.833  1.00  0.00    -0.419 OA 
BRANCH  13  16
HETATM   16  C   UNL     1     -11.481  14.836  67.318  1.00  0.00    -0.366 A  
HETATM   17  C   UNL     1     -11.134  16.155  67.651  1.00  0.00    -0.212 A  
HETATM   18  C   UNL     1     -11.998  12.431  68.042  1.00  0.00    -0.264 C  
HETATM   19  C   UNL     1     -10.965  16.522  68.984  1.00  0.00    -0.306 A  
HETATM   20  C   UNL     1     -11.652  13.864  68.324  1.00  0.00    -0.372 A  
HETATM   21  C   UNL     1     -11.139  15.575  69.989  1.00  0.00    -0.326 A  
HETATM   22  C   UNL     1     -11.480  14.260  69.663  1.00  0.00    -0.334 A  
ENDBRANCH  13  16
ENDBRANCH  10  13
ENDBRANCH   5   9
BRANCH   6  23
HETATM   23  C   UNL     1      -7.100   7.777  64.318  1.00  0.00    -0.074 C  
BRANCH  23  24
HETATM   24  C   UNL     1      -7.915   6.583  64.749  1.00  0.00    -0.120 A  
HETATM   25  N   UNL     1      -9.090   4.681  64.604  1.00  0.00    -0.155 NA 
HETATM   26  C   UNL     1      -9.529   5.290  65.760  1.00  0.00    -0.117 A  
HETATM   27  C   UNL     1      -8.803   6.475  65.876  1.00  0.00    -0.131 A  
HETATM   28  C   UNL     1      -8.061   5.397  64.048  1.00  0.00    -0.123 A  
HETATM   29  C   UNL     1      -9.701   3.516  64.005  1.00  0.00    -0.165 C  
HETATM   30  C   UNL     1      -9.089   7.308  66.974  1.00  0.00    -0.152 A  
HETATM   31  C   UNL     1     -10.002   6.936  67.968  1.00  0.00    -0.154 A  
HETATM   32  C   UNL     1     -10.733   5.761  67.800  1.00  0.00    -0.306 A  
HETATM   33  C   UNL     1     -10.521   4.926  66.690  1.00  0.00    -0.270 A  
BRANCH  31  34
HETATM   34  N   UNL     1     -10.194   7.698  69.145  1.00  0.00    -0.199 N  
HETATM   35  H   UNL     1     -10.840   8.484  69.089  1.00  0.00     0.000 HD 
HETATM   36  C   UNL     1      -9.587   7.474  70.353  1.00  0.00    -0.168 C  
HETATM   37  O   UNL     1      -8.757   6.617  70.609  1.00  0.00    -0.141 OA 
BRANCH  36  38
HETATM   38  O   UNL     1     -10.044   8.351  71.295  1.00  0.00    -0.183 OA 
BRANCH  38  39
HETATM   39  C   UNL     1     -11.398   8.747  71.059  1.00  0.00    -0.278 C  
HETATM   40  C   UNL     1     -12.274   8.490  72.282  1.00  0.00    -0.454 C  
HETATM   41  C   UNL     1     -13.473   9.382  72.030  1.00  0.00    -0.522 C  
HETATM   42  C   UNL     1     -12.872  10.653  71.437  1.00  0.00    -0.556 C  
HETATM   43  C   UNL     1     -11.525  10.250  70.828  1.00  0.00    -0.438 C  
ENDBRANCH  38  39
ENDBRANCH  36  38
ENDBRANCH  31  34
ENDBRANCH  23  24
ENDBRANCH   6  23
ENDBRANCH   2   3
TORSDOF 9
ENDMDL
MODEL        9
REMARK 921   NORMALIZED FREE ENERGY PREDICTED BY IDOCK:   -7.07 KCAL/MOL
REMARK 922        TOTAL FREE ENERGY PREDICTED BY IDOCK:  -12.56 KCAL/MOL
REMARK 923 INTER-LIGAND FREE ENERGY PREDICTED BY IDOCK:  -10.12 KCAL/MOL
REMARK 924 INTRA-LIGAND FREE ENERGY PREDICTED BY IDOCK:   -2.44 KCAL/MOL
REMARK 927      BINDING AFFINITY PREDICTED BY RF-SCORE:    0.00 PKD
ROOT
HETATM    1  C   UNL     1     -11.592  13.216  64.773  1.00  0.00    -0.333 C  
HETATM    2  O   UNL     1     -11.703  13.147  66.189  1.00  0.00    -0.345 OA 
ENDROOT
BRANCH   2   3
HETATM    3  C   UNL     1     -10.546  13.042  66.915  1.00  0.00    -0.254 A  
HETATM    4  C   UNL     1      -9.585  12.038  66.729  1.00  0.00    -0.215 A  
HETATM    5  C   UNL     1      -8.403  12.025  67.488  1.00  0.00    -0.166 A  
HETATM    6  C   UNL     1     -10.326  14.050  67.875  1.00  0.00    -0.239 A  
HETATM    7  C   UNL     1      -8.145  13.068  68.377  1.00  0.00    -0.131 A  
HETATM    8  C   UNL     1      -9.094  14.074  68.553  1.00  0.00    -0.163 A  
BRANCH   5   9
HETATM    9  C   UNL     1      -7.476  10.874  67.339  1.00  0.00    -0.100 C  
HETATM   10  N   UNL     1      -8.084   9.629  67.123  1.00  0.00    -0.109 N  
HETATM   11  H   UNL     1      -9.102   9.591  67.147  1.00  0.00     0.000 HD 
HETATM   12  O   UNL     1      -6.268  11.030  67.413  1.00  0.00    -0.056 OA 
BRANCH  10  13
HETATM   13  S   UNL     1      -7.268   8.210  66.829  1.00  0.00    -0.083 S  
HETATM   14  O   UNL     1      -6.427   7.936  67.977  1.00  0.00    -0.049 OA 
HETATM   15  O   UNL     1      -6.679   8.364  65.513  1.00  0.00    -0.058 OA 
BRANCH  13  16
HETATM   16  C   UNL     1      -8.530   6.958  66.708  1.00  0.00    -0.118 A  
HETATM   17  C   UNL     1      -9.866   7.372  66.836  1.00  0.00    -0.284 A  
HETATM   18  C   UNL     1      -6.811   5.080  66.396  1.00  0.00    -0.062 C  
HETATM   19  C   UNL     1     -10.899   6.440  66.765  1.00  0.00    -0.361 A  
HETATM   20  C   UNL     1      -8.216   5.597  66.517  1.00  0.00    -0.106 A  
HETATM   21  C   UNL     1     -10.605   5.094  66.569  1.00  0.00    -0.320 A  
HETATM   22  C   UNL     1      -9.277   4.677  66.445  1.00  0.00    -0.133 A  
ENDBRANCH  13  16
ENDBRANCH  10  13
ENDBRANCH   5   9
BRANCH   6  23
HETATM   23  C   UNL     1     -11.349  15.128  68.163  1.00  0.00    -0.345 C  
BRANCH  23  24
HETATM   24  C   UNL     1     -12.156  14.766  69.386  1.00  0.00    -0.305 A  
HETATM   25  N   UNL     1     -13.180  14.988  71.365  1.00  0.00    -0.386 NA 
HETATM   26  C   UNL     1     -12.928  13.639  71.239  1.00  0.00    -0.322 A  
HETATM   27  C   UNL     1     -12.296  13.475  70.006  1.00  0.00    -0.315 A  
HETATM   28  C   UNL     1     -12.811  15.653  70.224  1.00  0.00    -0.114 A  
HETATM   29  C   UNL     1     -13.662  15.625  72.571  1.00  0.00    -0.563 C  
HETATM   30  C   UNL     1     -11.901  12.173  69.646  1.00  0.00    -0.391 A  
HETATM   31  C   UNL     1     -12.199  11.062  70.443  1.00  0.00    -0.373 A  
HETATM   32  C   UNL     1     -12.800  11.268  71.683  1.00  0.00    -0.510 A  
HETATM   33  C   UNL     1     -13.161  12.558  72.109  1.00  0.00    -0.508 A  
BRANCH  31  34
HETATM   34  N   UNL     1     -11.931   9.736  70.025  1.00  0.00    -0.462 N  
HETATM   35  H   UNL     1     -12.118   9.510  69.049  1.00  0.00     0.000 HD 
HETATM   36  C   UNL     1     -11.442   8.730  70.817  1.00  0.00    -0.270 C  
HETATM   37  O   UNL     1     -11.198   8.789  72.010  1.00  0.00    -0.341 OA 
BRANCH  36  38
HETATM   38  O   UNL     1     -11.236   7.595  70.085  1.00  0.00    -0.254 OA 
BRANCH  38  39
HETATM   39  C   UNL     1     -10.292   6.715  70.701  1.00  0.00    -0.202 C  
HETATM   40  C   UNL     1     -10.453   5.283  70.195  1.00  0.00    -0.338 C  
HETATM   41  C   UNL     1      -9.126   4.648  70.557  1.00  0.00    -0.174 C  
HETATM   42  C   UNL     1      -8.100   5.738  70.266  1.00  0.00    -0.105 C  
HETATM   43  C   UNL     1      -8.853   7.070  70.338  1.00  0.00    -0.155 C  
ENDBRANCH  38  39
ENDBRANCH  36  38
ENDBRANCH  31  34
ENDBRANCH  23  24
ENDBRANCH   6  23
ENDBRANCH   2   3
TORSDOF 9
ENDMDL
MODEL       10
REMARK 921   NORMALIZED FREE ENERGY PREDICTED BY IDOCK:   -7.06 KCAL/MOL
REMARK 922        TOTAL FREE ENERGY PREDICTED BY IDOCK:  -12.54 KCAL/MOL
REMARK 923 INTER-LIGAND FREE ENERGY PREDICTED BY IDOCK:  -11.65 KCAL/MOL
REMARK 924 INTRA-LIGAND FREE ENERGY PREDICTED BY IDOCK:   -0.89 KCAL/MOL
REMARK 927      BINDING AFFINITY PREDICTED BY RF-SCORE:    0.00 PKD
ROOT
HETATM    1  C   UNL     1     -12.177  12.372  64.725  1.00  0.00    -0.423 C  
HETATM    2  O   UNL     1     -12.149  12.583  66.130  1.00  0.00    -0.571 OA 
ENDROOT
BRANCH   2   3
HETATM    3  C   UNL     1     -11.163  13.391  66.633  1.00  0.00    -0.309 A  
HETATM    4  C   UNL     1     -10.946  14.717  66.233  1.00  0.00    -0.330 A  
HETATM    5  C   UNL     1      -9.938  15.493  66.828  1.00  0.00    -0.257 A  
HETATM    6  C   UNL     1     -10.360  12.827  67.645  1.00  0.00    -0.221 A  
HETATM    7  C   UNL     1      -9.200  14.966  67.887  1.00  0.00    -0.183 A  
HETATM    8  C   UNL     1      -9.424  13.651  68.296  1.00  0.00    -0.213 A  
BRANCH   5   9
HETATM    9  C   UNL     1      -9.671  16.849  66.284  1.00  0.00    -0.280 C  
HETATM   10  N   UNL     1      -8.664  17.576  66.935  1.00  0.00    -0.243 N  
HETATM   11  H   UNL     1      -8.238  17.156  67.761  1.00  0.00     0.000 HD 
HETATM   12  O   UNL     1     -10.308  17.280  65.338  1.00  0.00    -0.626 OA 
BRANCH  10  13
HETATM   13  S   UNL     1      -8.111  19.070  66.460  1.00  0.00    -0.297 S  
HETATM   14  O   UNL     1      -9.241  19.977  66.449  1.00  0.00    -0.365 OA 
HETATM   15  O   UNL     1      -7.350  18.838  65.248  1.00  0.00    -0.443 OA 
BRANCH  13  16
HETATM   16  C   UNL     1      -6.963  19.572  67.727  1.00  0.00    -0.242 A  
HETATM   17  C   UNL     1      -7.034  18.910  68.963  1.00  0.00    -0.342 A  
HETATM   18  C   UNL     1      -5.913  21.376  66.236  1.00  0.00    -0.296 C  
HETATM   19  C   UNL     1      -6.174  19.265  70.001  1.00  0.00    -0.238 A  
HETATM   20  C   UNL     1      -6.030  20.609  67.521  1.00  0.00    -0.284 A  
HETATM   21  C   UNL     1      -5.242  20.280  69.809  1.00  0.00    -0.281 A  
HETATM   22  C   UNL     1      -5.170  20.945  68.582  1.00  0.00    -0.354 A  
ENDBRANCH  13  16
ENDBRANCH  10  13
ENDBRANCH   5   9
BRANCH   6  23
HETATM   23  C   UNL     1     -10.505  11.386  68.082  1.00  0.00    -0.212 C  
BRANCH  23  24
HETATM   24  C   UNL     1     -11.462  11.289  69.245  1.00  0.00    -0.369 A  
HETATM   25  N   UNL     1     -12.685  11.915  71.013  1.00  0.00    -0.316 NA 
HETATM   26  C   UNL     1     -12.498  10.558  71.166  1.00  0.00    -0.412 A  
HETATM   27  C   UNL     1     -11.744  10.144  70.069  1.00  0.00    -0.294 A  
HETATM   28  C   UNL     1     -12.153  12.341  69.823  1.00  0.00    -0.229 A  
HETATM   29  C   UNL     1     -13.259  12.784  72.017  1.00  0.00    -0.436 C  
HETATM   30  C   UNL     1     -11.387   8.784  70.002  1.00  0.00    -0.040 A  
HETATM   31  C   UNL     1     -11.835   7.853  70.947  1.00  0.00    -0.229 A  
HETATM   32  C   UNL     1     -12.557   8.310  72.048  1.00  0.00    -0.387 A  
HETATM   33  C   UNL     1     -12.889   9.669  72.185  1.00  0.00    -0.460 A  
BRANCH  31  34
HETATM   34  N   UNL     1     -11.599   6.464  70.813  1.00  0.00    -0.356 N  
HETATM   35  H   UNL     1     -12.407   5.872  70.623  1.00  0.00     0.000 HD 
HETATM   36  C   UNL     1     -10.382   5.844  70.917  1.00  0.00    -0.229 C  
HETATM   37  O   UNL     1      -9.312   6.369  71.180  1.00  0.00    -0.159 OA 
BRANCH  36  38
HETATM   38  O   UNL     1     -10.496   4.506  70.668  1.00  0.00    -0.069 OA 
BRANCH  38  39
HETATM   39  C   UNL     1      -9.476   3.742  71.317  1.00  0.00    -0.159 C  
HETATM   40  C   UNL     1     -10.070   2.752  72.315  1.00  0.00    -0.225 C  
HETATM   41  C   UNL     1      -8.945   1.755  72.510  1.00  0.00    -0.085 C  
HETATM   42  C   UNL     1      -8.352   1.587  71.115  1.00  0.00    -0.060 C  
HETATM   43  C   UNL     1      -8.709   2.858  70.337  1.00  0.00    -0.128 C  
ENDBRANCH  38  39
ENDBRANCH  36  38
ENDBRANCH  31  34
ENDBRANCH  23  24
ENDBRANCH   6  23
ENDBRANCH   2   3
TORSDOF 9
ENDMDL
MODEL       11
REMARK 921   NORMALIZED FREE ENERGY PREDICTED BY IDOCK:   -7.04 KCAL/MOL
REMARK 922        TOTAL FREE ENERGY PREDICTED BY IDOCK:  -12.50 KCAL/MOL
REMARK 923 INTER-LIGAND FREE ENERGY PREDICTED BY IDOCK:  -11.35 KCAL/MOL
REMARK 924 INTRA-LIGAND FREE ENERGY PREDICTED BY IDOCK:   -1.15 KCAL/MOL
REMARK 927      BINDING AFFINITY PREDICTED BY RF-SCORE:    0.00 PKD
ROOT
HETATM    1  C   UNL     1     -12.188  12.017  63.441  1.00  0.00    -0.519 C  
HETATM    2  O   UNL     1     -12.191  12.262  64.841  1.00  0.00    -0.410 OA 
ENDROOT
BRANCH   2   3
HETATM    3  C   UNL     1     -11.000  12.150  65.510  1.00  0.00    -0.301 A  
HETATM    4  C   UNL     1     -10.408  10.931  65.871  1.00  0.00    -0.310 A  
HETATM    5  C   UNL     1      -9.163  10.901  66.520  1.00  0.00    -0.189 A  
HETATM    6  C   UNL     1     -10.340  13.360  65.802  1.00  0.00    -0.296 A  
HETATM    7  C   UNL     1      -8.469  12.092  66.733  1.00  0.00    -0.155 A  
HETATM    8  C   UNL     1      -9.050  13.303  66.362  1.00  0.00    -0.062 A  
BRANCH   5   9
HETATM    9  C   UNL     1      -8.638   9.592  66.989  1.00  0.00    -0.128 C  
HETATM   10  N   UNL     1      -8.711   8.542  66.063  1.00  0.00    -0.152 N  
HETATM   11  H   UNL     1      -9.170   8.731  65.172  1.00  0.00     0.000 HD 
HETATM   12  O   UNL     1      -8.186   9.467  68.115  1.00  0.00    -0.112 OA 
BRANCH  10  13
HETATM   13  S   UNL     1      -8.105   7.014  66.308  1.00  0.00    -0.121 S  
HETATM   14  O   UNL     1      -6.721   7.146  66.717  1.00  0.00    -0.056 OA 
HETATM   15  O   UNL     1      -8.445   6.263  65.115  1.00  0.00    -0.145 OA 
BRANCH  13  16
HETATM   16  C   UNL     1      -9.058   6.340  67.655  1.00  0.00    -0.117 A  
HETATM   17  C   UNL     1     -10.376   6.799  67.808  1.00  0.00    -0.245 A  
HETATM   18  C   UNL     1      -7.109   4.884  68.468  1.00  0.00    -0.057 C  
HETATM   19  C   UNL     1     -11.169   6.322  68.849  1.00  0.00    -0.387 A  
HETATM   20  C   UNL     1      -8.516   5.400  68.556  1.00  0.00    -0.096 A  
HETATM   21  C   UNL     1     -10.651   5.389  69.741  1.00  0.00    -0.347 A  
HETATM   22  C   UNL     1      -9.339   4.931  69.596  1.00  0.00    -0.190 A  
ENDBRANCH  13  16
ENDBRANCH  10  13
ENDBRANCH   5   9
BRANCH   6  23
HETATM   23  C   UNL     1     -10.950  14.709  65.490  1.00  0.00    -0.344 C  
BRANCH  23  24
HETATM   24  C   UNL     1     -11.049  15.539  66.746  1.00  0.00    -0.206 A  
HETATM   25  N   UNL     1     -10.697  17.220  68.183  1.00  0.00    -0.383 NA 
HETATM   26  C   UNL     1     -11.065  16.147  68.967  1.00  0.00    -0.336 A  
HETATM   27  C   UNL     1     -11.297  15.088  68.090  1.00  0.00    -0.343 A  
HETATM   28  C   UNL     1     -10.779  16.893  66.855  1.00  0.00    -0.130 A  
HETATM   29  C   UNL     1     -10.191  18.475  68.694  1.00  0.00    -0.325 C  
HETATM   30  C   UNL     1     -11.663  13.849  68.650  1.00  0.00    -0.396 A  
HETATM   31  C   UNL     1     -11.873  13.691  70.025  1.00  0.00    -0.308 A  
HETATM   32  C   UNL     1     -11.597  14.762  70.872  1.00  0.00    -0.316 A  
HETATM   33  C   UNL     1     -11.175  16.002  70.362  1.00  0.00    -0.401 A  
BRANCH  31  34
HETATM   34  N   UNL     1     -12.375  12.490  70.581  1.00  0.00    -0.337 N  
HETATM   35  H   UNL     1     -12.665  12.517  71.558  1.00  0.00     0.000 HD 
HETATM   36  C   UNL     1     -12.505  11.295  69.924  1.00  0.00    -0.153 C  
HETATM   37  O   UNL     1     -12.176  11.051  68.775  1.00  0.00    -0.546 OA 
BRANCH  36  38
HETATM   38  O   UNL     1     -13.083  10.358  70.732  1.00  0.00    -0.385 OA 
BRANCH  38  39
HETATM   39  C   UNL     1     -12.170   9.834  71.699  1.00  0.00    -0.404 C  
HETATM   40  C   UNL     1     -12.642   8.486  72.239  1.00  0.00    -0.438 C  
HETATM   41  C   UNL     1     -11.376   7.898  72.829  1.00  0.00    -0.453 C  
HETATM   42  C   UNL     1     -10.287   8.290  71.836  1.00  0.00    -0.324 C  
HETATM   43  C   UNL     1     -10.804   9.526  71.092  1.00  0.00    -0.425 C  
ENDBRANCH  38  39
ENDBRANCH  36  38
ENDBRANCH  31  34
ENDBRANCH  23  24
ENDBRANCH   6  23
ENDBRANCH   2   3
TORSDOF 9
ENDMDL
MODEL       12
REMARK 921   NORMALIZED FREE ENERGY PREDICTED BY IDOCK:   -6.98 KCAL/MOL
REMARK 922        TOTAL FREE ENERGY PREDICTED BY IDOCK:  -12.42 KCAL/MOL
REMARK 923 INTER-LIGAND FREE ENERGY PREDICTED BY IDOCK:  -12.86 KCAL/MOL
REMARK 924 INTRA-LIGAND FREE ENERGY PREDICTED BY IDOCK:    0.44 KCAL/MOL
REMARK 927      BINDING AFFINITY PREDICTED BY RF-SCORE:    0.00 PKD
ROOT
HETATM    1  C   UNL     1     -12.355  12.982  65.759  1.00  0.00    -0.416 C  
HETATM    2  O   UNL     1     -11.962  12.189  66.871  1.00  0.00    -0.603 OA 
ENDROOT
BRANCH   2   3
HETATM    3  C   UNL     1     -10.693  12.360  67.359  1.00  0.00    -0.229 A  
HETATM    4  C   UNL     1     -10.117  13.606  67.643  1.00  0.00    -0.242 A  
HETATM    5  C   UNL     1      -8.822  13.694  68.181  1.00  0.00    -0.189 A  
HETATM    6  C   UNL     1      -9.967  11.180  67.615  1.00  0.00    -0.195 A  
HETATM    7  C   UNL     1      -8.136  12.527  68.515  1.00  0.00    -0.089 A  
HETATM    8  C   UNL     1      -8.713  11.287  68.246  1.00  0.00    -0.158 A  
BRANCH   5   9
HETATM    9  C   UNL     1      -8.213  15.038  68.349  1.00  0.00    -0.151 C  
HETATM   10  N   UNL     1      -7.814  15.676  67.166  1.00  0.00    -0.198 N  
HETATM   11  H   UNL     1      -7.910  15.155  66.294  1.00  0.00     0.000 HD 
HETATM   12  O   UNL     1      -8.071  15.526  69.458  1.00  0.00    -0.240 OA 
BRANCH  10  13
HETATM   13  S   UNL     1      -7.198  17.218  67.077  1.00  0.00    -0.203 S  
HETATM   14  O   UNL     1      -6.924  17.505  65.684  1.00  0.00    -0.317 OA 
HETATM   15  O   UNL     1      -6.130  17.268  68.056  1.00  0.00    -0.131 OA 
BRANCH  13  16
HETATM   16  C   UNL     1      -8.506  18.282  67.654  1.00  0.00    -0.255 A  
HETATM   17  C   UNL     1      -8.215  19.142  68.725  1.00  0.00    -0.382 A  
HETATM   18  C   UNL     1     -10.185  17.346  65.956  1.00  0.00    -0.308 C  
HETATM   19  C   UNL     1      -9.198  19.989  69.233  1.00  0.00     0.215 A  
HETATM   20  C   UNL     1      -9.796  18.255  67.085  1.00  0.00    -0.329 A  
HETATM   21  C   UNL     1     -10.473  19.980  68.676  1.00  0.00    -0.251 A  
HETATM   22  C   UNL     1     -10.769  19.123  67.613  1.00  0.00    -0.514 A  
ENDBRANCH  13  16
ENDBRANCH  10  13
ENDBRANCH   5   9
BRANCH   6  23
HETATM   23  C   UNL     1     -10.509   9.808  67.279  1.00  0.00    -0.324 C  
BRANCH  23  24
HETATM   24  C   UNL     1     -10.478   8.923  68.501  1.00  0.00    -0.218 A  
HETATM   25  N   UNL     1     -10.267   7.075  69.748  1.00  0.00    -0.197 NA 
HETATM   26  C   UNL     1     -11.069   7.918  70.486  1.00  0.00    -0.256 A  
HETATM   27  C   UNL     1     -11.208   9.083  69.730  1.00  0.00    -0.041 A  
HETATM   28  C   UNL     1      -9.833   7.702  68.609  1.00  0.00    -0.171 A  
HETATM   29  C   UNL     1     -10.013   5.689  70.074  1.00  0.00    -0.204 C  
HETATM   30  C   UNL     1     -12.017  10.107  70.257  1.00  0.00    -0.315 A  
HETATM   31  C   UNL     1     -12.599  10.012  71.527  1.00  0.00    -0.425 A  
HETATM   32  C   UNL     1     -12.467   8.820  72.237  1.00  0.00    -0.455 A  
HETATM   33  C   UNL     1     -11.715   7.749  71.725  1.00  0.00    -0.323 A  
BRANCH  31  34
HETATM   34  N   UNL     1     -13.297  11.089  72.123  1.00  0.00    -0.585 N  
HETATM   35  H   UNL     1     -13.963  10.860  72.860  1.00  0.00     0.000 HD 
HETATM   36  C   UNL     1     -13.158  12.413  71.796  1.00  0.00    -0.342 C  
HETATM   37  O   UNL     1     -12.451  12.881  70.920  1.00  0.00    -0.367 OA 
BRANCH  36  38
HETATM   38  O   UNL     1     -13.929  13.196  72.608  1.00  0.00    -0.708 OA 
BRANCH  38  39
HETATM   39  C   UNL     1     -13.621  14.586  72.475  1.00  0.00    -0.487 C  
HETATM   40  C   UNL     1     -12.645  15.046  73.555  1.00  0.00    -0.664 C  
HETATM   41  C   UNL     1     -12.088  16.332  72.978  1.00  0.00    -0.629 C  
HETATM   42  C   UNL     1     -11.920  16.031  71.492  1.00  0.00    -0.539 C  
HETATM   43  C   UNL     1     -12.893  14.892  71.169  1.00  0.00    -0.426 C  
ENDBRANCH  38  39
ENDBRANCH  36  38
ENDBRANCH  31  34
ENDBRANCH  23  24
ENDBRANCH   6  23
ENDBRANCH   2   3
TORSDOF 9
ENDMDL
MODEL       13
REMARK 921   NORMALIZED FREE ENERGY PREDICTED BY IDOCK:   -6.97 KCAL/MOL
REMARK 922        TOTAL FREE ENERGY PREDICTED BY IDOCK:  -12.40 KCAL/MOL
REMARK 923 INTER-LIGAND FREE ENERGY PREDICTED BY IDOCK:  -11.07 KCAL/MOL
REMARK 924 INTRA-LIGAND FREE ENERGY PREDICTED BY IDOCK:   -1.34 KCAL/MOL
REMARK 927      BINDING AFFINITY PREDICTED BY RF-SCORE:    0.00 PKD
ROOT
HETATM    1  C   UNL     1      -8.031   7.740  66.865  1.00  0.00    -0.112 C  
HETATM    2  O   UNL     1      -7.990   9.126  67.178  1.00  0.00    -0.104 OA 
ENDROOT
BRANCH   2   3
HETATM    3  C   UNL     1      -8.946   9.617  68.028  1.00  0.00    -0.122 A  
HETATM    4  C   UNL     1      -9.480   8.906  69.112  1.00  0.00    -0.157 A  
HETATM    5  C   UNL     1     -10.430   9.496  69.962  1.00  0.00    -0.283 A  
HETATM    6  C   UNL     1      -9.367  10.939  67.785  1.00  0.00    -0.162 A  
HETATM    7  C   UNL     1     -10.783  10.832  69.775  1.00  0.00    -0.241 A  
HETATM    8  C   UNL     1     -10.242  11.545  68.706  1.00  0.00    -0.204 A  
BRANCH   5   9
HETATM    9  C   UNL     1     -11.053   8.660  71.020  1.00  0.00    -0.264 C  
HETATM   10  N   UNL     1     -10.617   7.330  71.078  1.00  0.00    -0.220 N  
HETATM   11  H   UNL     1      -9.962   7.016  70.361  1.00  0.00     0.000 HD 
HETATM   12  O   UNL     1     -11.894   9.127  71.770  1.00  0.00    -0.340 OA 
BRANCH  10  13
HETATM   13  S   UNL     1     -11.086   6.223  72.227  1.00  0.00    -0.286 S  
HETATM   14  O   UNL     1     -12.532   6.134  72.191  1.00  0.00    -0.262 OA 
HETATM   15  O   UNL     1     -10.409   6.617  73.447  1.00  0.00    -0.224 OA 
BRANCH  13  16
HETATM   16  C   UNL     1     -10.384   4.671  71.701  1.00  0.00    -0.119 A  
HETATM   17  C   UNL     1      -9.862   4.606  70.399  1.00  0.00    -0.306 A  
HETATM   18  C   UNL     1     -10.931   3.527  73.930  1.00  0.00    -0.276 C  
HETATM   19  C   UNL     1      -9.312   3.418  69.922  1.00  0.00    -0.238 A  
HETATM   20  C   UNL     1     -10.369   3.538  72.538  1.00  0.00    -0.196 A  
HETATM   21  C   UNL     1      -9.283   2.293  70.740  1.00  0.00    -0.197 A  
HETATM   22  C   UNL     1      -9.805   2.352  72.035  1.00  0.00    -0.223 A  
ENDBRANCH  13  16
ENDBRANCH  10  13
ENDBRANCH   5   9
BRANCH   6  23
HETATM   23  C   UNL     1      -8.872  11.741  66.600  1.00  0.00    -0.189 C  
BRANCH  23  24
HETATM   24  C   UNL     1     -10.040  12.314  65.836  1.00  0.00    -0.272 A  
HETATM   25  N   UNL     1     -11.668  12.481  64.308  1.00  0.00    -0.356 NA 
HETATM   26  C   UNL     1     -11.382  13.779  64.674  1.00  0.00    -0.372 A  
HETATM   27  C   UNL     1     -10.373  13.699  65.634  1.00  0.00    -0.309 A  
HETATM   28  C   UNL     1     -10.941  11.599  65.065  1.00  0.00    -0.273 A  
HETATM   29  C   UNL     1     -12.528  12.108  63.207  1.00  0.00    -0.411 C  
HETATM   30  C   UNL     1      -9.875  14.908  66.155  1.00  0.00    -0.332 A  
HETATM   31  C   UNL     1     -10.417  16.148  65.798  1.00  0.00    -0.367 A  
HETATM   32  C   UNL     1     -11.400  16.190  64.810  1.00  0.00    -0.253 A  
HETATM   33  C   UNL     1     -11.888  15.012  64.221  1.00  0.00    -0.289 A  
BRANCH  31  34
HETATM   34  N   UNL     1     -10.019  17.356  66.419  1.00  0.00    -0.305 N  
HETATM   35  H   UNL     1     -10.728  17.861  66.949  1.00  0.00     0.000 HD 
HETATM   36  C   UNL     1      -8.765  17.906  66.370  1.00  0.00    -0.224 C  
HETATM   37  O   UNL     1      -7.800  17.479  65.758  1.00  0.00    -0.544 OA 
BRANCH  36  38
HETATM   38  O   UNL     1      -8.703  19.039  67.131  1.00  0.00    -0.279 OA 
BRANCH  38  39
HETATM   39  C   UNL     1      -7.376  19.321  67.581  1.00  0.00    -0.236 C  
HETATM   40  C   UNL     1      -7.047  20.807  67.451  1.00  0.00    -0.412 C  
HETATM   41  C   UNL     1      -5.867  20.973  68.386  1.00  0.00    -0.374 C  
HETATM   42  C   UNL     1      -6.212  20.091  69.581  1.00  0.00    -0.383 C  
HETATM   43  C   UNL     1      -7.200  19.037  69.070  1.00  0.00    -0.351 C  
ENDBRANCH  38  39
ENDBRANCH  36  38
ENDBRANCH  31  34
ENDBRANCH  23  24
ENDBRANCH   6  23
ENDBRANCH   2   3
TORSDOF 9
ENDMDL
MODEL       14
REMARK 921   NORMALIZED FREE ENERGY PREDICTED BY IDOCK:   -6.96 KCAL/MOL
REMARK 922        TOTAL FREE ENERGY PREDICTED BY IDOCK:  -12.38 KCAL/MOL
REMARK 923 INTER-LIGAND FREE ENERGY PREDICTED BY IDOCK:  -10.91 KCAL/MOL
REMARK 924 INTRA-LIGAND FREE ENERGY PREDICTED BY IDOCK:   -1.47 KCAL/MOL
REMARK 927      BINDING AFFINITY PREDICTED BY RF-SCORE:    0.00 PKD
ROOT
HETATM    1  C   UNL     1     -12.418  14.873  70.467  1.00  0.00    -0.363 C  
HETATM    2  O   UNL     1     -12.177  14.092  69.304  1.00  0.00    -0.344 OA 
ENDROOT
BRANCH   2   3
HETATM    3  C   UNL     1     -11.555  12.882  69.466  1.00  0.00    -0.282 A  
HETATM    4  C   UNL     1     -12.088  11.811  70.198  1.00  0.00    -0.398 A  
HETATM    5  C   UNL     1     -11.404  10.587  70.282  1.00  0.00    -0.407 A  
HETATM    6  C   UNL     1     -10.319  12.730  68.807  1.00  0.00    -0.136 A  
HETATM    7  C   UNL     1     -10.224  10.407  69.561  1.00  0.00    -0.258 A  
HETATM    8  C   UNL     1      -9.701  11.466  68.822  1.00  0.00    -0.155 A  
BRANCH   5   9
HETATM    9  C   UNL     1     -11.951   9.527  71.168  1.00  0.00    -0.348 C  
HETATM   10  N   UNL     1     -11.332   8.273  71.068  1.00  0.00    -0.265 N  
HETATM   11  H   UNL     1     -10.606   8.161  70.361  1.00  0.00     0.000 HD 
HETATM   12  O   UNL     1     -12.885   9.759  71.918  1.00  0.00    -0.384 OA 
BRANCH  10  13
HETATM   13  S   UNL     1     -11.693   6.956  72.016  1.00  0.00    -0.304 S  
HETATM   14  O   UNL     1     -13.108   6.681  71.874  1.00  0.00    -0.280 OA 
HETATM   15  O   UNL     1     -11.134   7.250  73.321  1.00  0.00    -0.331 OA 
BRANCH  13  16
HETATM   16  C   UNL     1     -10.756   5.607  71.323  1.00  0.00    -0.244 A  
HETATM   17  C   UNL     1     -10.182   4.691  72.219  1.00  0.00    -0.256 A  
HETATM   18  C   UNL     1     -11.132   6.418  68.919  1.00  0.00    -0.420 C  
HETATM   19  C   UNL     1      -9.426   3.622  71.742  1.00  0.00    -0.210 A  
HETATM   20  C   UNL     1     -10.569   5.465  69.933  1.00  0.00    -0.351 A  
HETATM   21  C   UNL     1      -9.239   3.464  70.373  1.00  0.00    -0.221 A  
HETATM   22  C   UNL     1      -9.805   4.375  69.477  1.00  0.00    -0.258 A  
ENDBRANCH  13  16
ENDBRANCH  10  13
ENDBRANCH   5   9
BRANCH   6  23
HETATM   23  C   UNL     1      -9.664  13.864  68.048  1.00  0.00    -0.226 C  
BRANCH  23  24
HETATM   24  C   UNL     1     -10.167  13.897  66.626  1.00  0.00    -0.276 A  
HETATM   25  N   UNL     1     -11.389  14.493  64.846  1.00  0.00    -0.375 NA 
HETATM   26  C   UNL     1     -10.938  13.221  64.565  1.00  0.00    -0.382 A  
HETATM   27  C   UNL     1     -10.166  12.832  65.659  1.00  0.00    -0.292 A  
HETATM   28  C   UNL     1     -10.855  14.940  66.027  1.00  0.00    -0.328 A  
HETATM   29  C   UNL     1     -12.372  15.208  64.063  1.00  0.00     0.027 C  
HETATM   30  C   UNL     1      -9.606  11.541  65.633  1.00  0.00    -0.256 A  
HETATM   31  C   UNL     1      -9.738  10.698  64.523  1.00  0.00    -0.309 A  
HETATM   32  C   UNL     1     -10.546  11.108  63.463  1.00  0.00    -0.393 A  
HETATM   33  C   UNL     1     -11.171  12.367  63.472  1.00  0.00    -0.540 A  
BRANCH  31  34
HETATM   34  N   UNL     1      -9.065   9.457  64.429  1.00  0.00    -0.403 N  
HETATM   35  H   UNL     1      -8.482   9.306  63.607  1.00  0.00     0.000 HD 
HETATM   36  C   UNL     1      -9.127   8.440  65.345  1.00  0.00     0.010 C  
HETATM   37  O   UNL     1      -9.797   8.412  66.364  1.00  0.00    -0.253 OA 
BRANCH  36  38
HETATM   38  O   UNL     1      -8.307   7.410  64.983  1.00  0.00    -0.125 OA 
BRANCH  38  39
HETATM   39  C   UNL     1      -8.638   6.189  65.649  1.00  0.00    -0.145 C  
HETATM   40  C   UNL     1      -8.683   5.016  64.673  1.00  0.00    -0.141 C  
HETATM   41  C   UNL     1      -8.557   3.814  65.587  1.00  0.00    -0.112 C  
HETATM   42  C   UNL     1      -7.538   4.248  66.635  1.00  0.00    -0.085 C  
HETATM   43  C   UNL     1      -7.574   5.780  66.664  1.00  0.00    -0.092 C  
ENDBRANCH  38  39
ENDBRANCH  36  38
ENDBRANCH  31  34
ENDBRANCH  23  24
ENDBRANCH   6  23
ENDBRANCH   2   3
TORSDOF 9
ENDMDL
MODEL       15
REMARK 921   NORMALIZED FREE ENERGY PREDICTED BY IDOCK:   -6.95 KCAL/MOL
REMARK 922        TOTAL FREE ENERGY PREDICTED BY IDOCK:  -12.37 KCAL/MOL
REMARK 923 INTER-LIGAND FREE ENERGY PREDICTED BY IDOCK:  -11.56 KCAL/MOL
REMARK 924 INTRA-LIGAND FREE ENERGY PREDICTED BY IDOCK:   -0.81 KCAL/MOL
REMARK 927      BINDING AFFINITY PREDICTED BY RF-SCORE:    0.00 PKD
ROOT
HETATM    1  C   UNL     1     -12.454  12.318  63.800  1.00  0.00    -0.515 C  
HETATM    2  O   UNL     1     -12.912  12.819  65.048  1.00  0.00    -0.811 OA 
ENDROOT
BRANCH   2   3
HETATM    3  C   UNL     1     -12.017  13.506  65.826  1.00  0.00    -0.403 A  
HETATM    4  C   UNL     1     -11.607  14.824  65.583  1.00  0.00    -0.290 A  
HETATM    5  C   UNL     1     -10.715  15.472  66.454  1.00  0.00    -0.303 A  
HETATM    6  C   UNL     1     -11.530  12.820  66.957  1.00  0.00    -0.397 A  
HETATM    7  C   UNL     1     -10.299  14.826  67.618  1.00  0.00    -0.237 A  
HETATM    8  C   UNL     1     -10.718  13.520  67.868  1.00  0.00    -0.258 A  
BRANCH   5   9
HETATM    9  C   UNL     1     -10.218  16.823  66.086  1.00  0.00    -0.351 C  
HETATM   10  N   UNL     1      -9.188  17.330  66.890  1.00  0.00    -0.246 N  
HETATM   11  H   UNL     1      -8.902  16.774  67.696  1.00  0.00     0.000 HD 
HETATM   12  O   UNL     1     -10.700  17.432  65.145  1.00  0.00    -0.684 OA 
BRANCH  10  13
HETATM   13  S   UNL     1      -8.398  18.770  66.629  1.00  0.00    -0.295 S  
HETATM   14  O   UNL     1      -9.372  19.837  66.744  1.00  0.00    -0.333 OA 
HETATM   15  O   UNL     1      -7.656  18.589  65.396  1.00  0.00    -0.444 OA 
BRANCH  13  16
HETATM   16  C   UNL     1      -7.214  18.904  67.954  1.00  0.00    -0.239 A  
HETATM   17  C   UNL     1      -7.121  17.827  68.850  1.00  0.00    -0.262 A  
HETATM   18  C   UNL     1      -6.474  21.248  67.221  1.00  0.00    -0.414 C  
HETATM   19  C   UNL     1      -6.225  17.876  69.916  1.00  0.00    -0.105 A  
HETATM   20  C   UNL     1      -6.411  20.050  68.124  1.00  0.00    -0.301 A  
HETATM   21  C   UNL     1      -5.420  18.997  70.092  1.00  0.00    -0.239 A  
HETATM   22  C   UNL     1      -5.512  20.073  69.205  1.00  0.00    -0.250 A  
ENDBRANCH  13  16
ENDBRANCH  10  13
ENDBRANCH   5   9
BRANCH   6  23
HETATM   23  C   UNL     1     -11.889  11.378  67.245  1.00  0.00     0.032 C  
BRANCH  23  24
HETATM   24  C   UNL     1     -10.706  10.483  66.972  1.00  0.00    -0.310 A  
HETATM   25  N   UNL     1      -9.191   9.299  65.823  1.00  0.00    -0.207 NA 
HETATM   26  C   UNL     1      -9.238   8.712  67.068  1.00  0.00    -0.151 A  
HETATM   27  C   UNL     1     -10.172   9.440  67.806  1.00  0.00    -0.273 A  
HETATM   28  C   UNL     1      -9.990  10.413  65.788  1.00  0.00    -0.270 A  
HETATM   29  C   UNL     1      -8.487   8.754  64.683  1.00  0.00    -0.151 C  
HETATM   30  C   UNL     1     -10.430   9.017  69.124  1.00  0.00    -0.239 A  
HETATM   31  C   UNL     1      -9.726   7.962  69.716  1.00  0.00    -0.176 A  
HETATM   32  C   UNL     1      -8.826   7.237  68.936  1.00  0.00    -0.127 A  
HETATM   33  C   UNL     1      -8.578   7.588  67.598  1.00  0.00    -0.119 A  
BRANCH  31  34
HETATM   34  N   UNL     1      -9.879   7.620  71.080  1.00  0.00    -0.173 N  
HETATM   35  H   UNL     1      -9.092   7.815  71.699  1.00  0.00     0.000 HD 
HETATM   36  C   UNL     1     -10.990   7.051  71.645  1.00  0.00    -0.230 C  
HETATM   37  O   UNL     1     -12.009   6.706  71.069  1.00  0.00    -0.362 OA 
BRANCH  36  38
HETATM   38  O   UNL     1     -10.832   6.913  72.994  1.00  0.00    -0.265 OA 
BRANCH  38  39
HETATM   39  C   UNL     1     -10.319   5.628  73.354  1.00  0.00    -0.222 C  
HETATM   40  C   UNL     1     -11.424   4.575  73.382  1.00  0.00    -0.322 C  
HETATM   41  C   UNL     1     -10.652   3.275  73.292  1.00  0.00    -0.275 C  
HETATM   42  C   UNL     1      -9.534   3.575  72.299  1.00  0.00    -0.183 C  
HETATM   43  C   UNL     1      -9.331   5.093  72.322  1.00  0.00    -0.158 C  
ENDBRANCH  38  39
ENDBRANCH  36  38
ENDBRANCH  31  34
ENDBRANCH  23  24
ENDBRANCH   6  23
ENDBRANCH   2   3
TORSDOF 9
ENDMDL
MODEL       16
REMARK 921   NORMALIZED FREE ENERGY PREDICTED BY IDOCK:   -6.88 KCAL/MOL
REMARK 922        TOTAL FREE ENERGY PREDICTED BY IDOCK:  -12.26 KCAL/MOL
REMARK 923 INTER-LIGAND FREE ENERGY PREDICTED BY IDOCK:  -10.34 KCAL/MOL
REMARK 924 INTRA-LIGAND FREE ENERGY PREDICTED BY IDOCK:   -1.92 KCAL/MOL
REMARK 927      BINDING AFFINITY PREDICTED BY RF-SCORE:    0.00 PKD
ROOT
HETATM    1  C   UNL     1      -7.233  10.095  67.991  1.00  0.00    -0.085 C  
HETATM    2  O   UNL     1      -6.765   9.737  66.697  1.00  0.00    -0.076 OA 
ENDROOT
BRANCH   2   3
HETATM    3  C   UNL     1      -7.643   9.844  65.650  1.00  0.00    -0.119 A  
HETATM    4  C   UNL     1      -8.653  10.812  65.561  1.00  0.00    -0.181 A  
HETATM    5  C   UNL     1      -9.487  10.880  64.433  1.00  0.00    -0.287 A  
HETATM    6  C   UNL     1      -7.461   8.926  64.597  1.00  0.00    -0.104 A  
HETATM    7  C   UNL     1      -9.253  10.029  63.353  1.00  0.00    -0.317 A  
HETATM    8  C   UNL     1      -8.240   9.075  63.435  1.00  0.00    -0.182 A  
BRANCH   5   9
HETATM    9  C   UNL     1     -10.617  11.844  64.442  1.00  0.00    -0.319 C  
HETATM   10  N   UNL     1     -10.682  12.693  65.555  1.00  0.00    -0.269 N  
HETATM   11  H   UNL     1      -9.999  12.548  66.299  1.00  0.00     0.000 HD 
HETATM   12  O   UNL     1     -11.427  11.866  63.530  1.00  0.00    -0.424 OA 
BRANCH  10  13
HETATM   13  S   UNL     1     -11.789  13.917  65.755  1.00  0.00    -0.399 S  
HETATM   14  O   UNL     1     -13.084  13.415  65.343  1.00  0.00    -0.618 OA 
HETATM   15  O   UNL     1     -11.213  15.075  65.099  1.00  0.00    -0.356 OA 
BRANCH  13  16
HETATM   16  C   UNL     1     -11.813  14.250  67.506  1.00  0.00    -0.395 A  
HETATM   17  C   UNL     1     -11.729  15.591  67.910  1.00  0.00    -0.149 A  
HETATM   18  C   UNL     1     -11.953  11.759  68.103  1.00  0.00    -0.214 C  
HETATM   19  C   UNL     1     -11.728  15.918  69.265  1.00  0.00    -0.360 A  
HETATM   20  C   UNL     1     -11.887  13.215  68.461  1.00  0.00    -0.377 A  
HETATM   21  C   UNL     1     -11.809  14.908  70.219  1.00  0.00    -0.358 A  
HETATM   22  C   UNL     1     -11.888  13.571  69.822  1.00  0.00    -0.395 A  
ENDBRANCH  13  16
ENDBRANCH  10  13
ENDBRANCH   5   9
BRANCH   6  23
HETATM   23  C   UNL     1      -6.427   7.822  64.656  1.00  0.00    -0.044 C  
BRANCH  23  24
HETATM   24  C   UNL     1      -7.092   6.478  64.494  1.00  0.00    -0.060 A  
HETATM   25  N   UNL     1      -7.713   4.544  63.551  1.00  0.00    -0.072 NA 
HETATM   26  C   UNL     1      -8.682   4.813  64.493  1.00  0.00    -0.153 A  
HETATM   27  C   UNL     1      -8.311   6.012  65.101  1.00  0.00    -0.140 A  
HETATM   28  C   UNL     1      -6.713   5.479  63.612  1.00  0.00    -0.033 A  
HETATM   29  C   UNL     1      -7.796   3.490  62.565  1.00  0.00    -0.062 C  
HETATM   30  C   UNL     1      -9.164   6.528  66.095  1.00  0.00    -0.126 A  
HETATM   31  C   UNL     1     -10.300   5.836  66.528  1.00  0.00    -0.209 A  
HETATM   32  C   UNL     1     -10.658   4.659  65.873  1.00  0.00    -0.265 A  
HETATM   33  C   UNL     1      -9.866   4.135  64.837  1.00  0.00    -0.202 A  
BRANCH  31  34
HETATM   34  N   UNL     1     -11.086   6.277  67.620  1.00  0.00    -0.499 N  
HETATM   35  H   UNL     1     -11.872   6.890  67.408  1.00  0.00     0.000 HD 
HETATM   36  C   UNL     1     -10.882   5.954  68.936  1.00  0.00    -0.303 C  
HETATM   37  O   UNL     1      -9.978   5.275  69.393  1.00  0.00    -0.178 OA 
BRANCH  36  38
HETATM   38  O   UNL     1     -11.860   6.492  69.724  1.00  0.00    -0.345 OA 
BRANCH  38  39
HETATM   39  C   UNL     1     -11.352   7.487  70.617  1.00  0.00    -0.281 C  
HETATM   40  C   UNL     1     -10.728   8.654  69.856  1.00  0.00    -0.227 C  
HETATM   41  C   UNL     1     -10.709   9.759  70.893  1.00  0.00    -0.375 C  
HETATM   42  C   UNL     1     -12.032   9.597  71.633  1.00  0.00    -0.470 C  
HETATM   43  C   UNL     1     -12.460   8.139  71.441  1.00  0.00    -0.313 C  
ENDBRANCH  38  39
ENDBRANCH  36  38
ENDBRANCH  31  34
ENDBRANCH  23  24
ENDBRANCH   6  23
ENDBRANCH   2   3
TORSDOF 9
ENDMDL
MODEL       17
REMARK 921   NORMALIZED FREE ENERGY PREDICTED BY IDOCK:   -6.86 KCAL/MOL
REMARK 922        TOTAL FREE ENERGY PREDICTED BY IDOCK:  -12.23 KCAL/MOL
REMARK 923 INTER-LIGAND FREE ENERGY PREDICTED BY IDOCK:  -10.66 KCAL/MOL
REMARK 924 INTRA-LIGAND FREE ENERGY PREDICTED BY IDOCK:   -1.57 KCAL/MOL
REMARK 927      BINDING AFFINITY PREDICTED BY RF-SCORE:    0.00 PKD
ROOT
HETATM    1  C   UNL     1     -10.823  11.292  64.036  1.00  0.00    -0.344 C  
HETATM    2  O   UNL     1     -11.163  11.632  65.374  1.00  0.00    -0.279 OA 
ENDROOT
BRANCH   2   3
HETATM    3  C   UNL     1     -10.139  11.789  66.271  1.00  0.00    -0.217 A  
HETATM    4  C   UNL     1      -9.416  10.731  66.839  1.00  0.00    -0.192 A  
HETATM    5  C   UNL     1      -8.351  10.978  67.721  1.00  0.00    -0.118 A  
HETATM    6  C   UNL     1      -9.795  13.119  66.588  1.00  0.00    -0.261 A  
HETATM    7  C   UNL     1      -7.955  12.292  67.969  1.00  0.00    -0.150 A  
HETATM    8  C   UNL     1      -8.665  13.346  67.394  1.00  0.00    -0.209 A  
BRANCH   5   9
HETATM    9  C   UNL     1      -7.698   9.823  68.388  1.00  0.00    -0.081 C  
HETATM   10  N   UNL     1      -7.957   9.689  69.760  1.00  0.00    -0.132 N  
HETATM   11  H   UNL     1      -8.513  10.417  70.208  1.00  0.00     0.000 HD 
HETATM   12  O   UNL     1      -6.981   9.062  67.761  1.00  0.00    -0.076 OA 
BRANCH  10  13
HETATM   13  S   UNL     1      -7.427   8.432  70.710  1.00  0.00    -0.073 S  
HETATM   14  O   UNL     1      -7.527   8.849  72.094  1.00  0.00    -0.328 OA 
HETATM   15  O   UNL     1      -6.145   8.040  70.157  1.00  0.00    -0.032 OA 
BRANCH  13  16
HETATM   16  C   UNL     1      -8.571   7.099  70.409  1.00  0.00    -0.142 A  
HETATM   17  C   UNL     1      -9.437   7.225  69.311  1.00  0.00    -0.153 A  
HETATM   18  C   UNL     1      -7.758   5.776  72.451  1.00  0.00    -0.102 C  
HETATM   19  C   UNL     1     -10.365   6.225  69.030  1.00  0.00    -0.251 A  
HETATM   20  C   UNL     1      -8.634   5.967  71.247  1.00  0.00    -0.129 A  
HETATM   21  C   UNL     1     -10.433   5.097  69.843  1.00  0.00    -0.296 A  
HETATM   22  C   UNL     1      -9.576   4.969  70.939  1.00  0.00    -0.242 A  
ENDBRANCH  13  16
ENDBRANCH  10  13
ENDBRANCH   5   9
BRANCH   6  23
HETATM   23  C   UNL     1     -10.571  14.303  66.053  1.00  0.00    -0.302 C  
BRANCH  23  24
HETATM   24  C   UNL     1     -10.847  15.288  67.163  1.00  0.00    -0.322 A  
HETATM   25  N   UNL     1     -10.686  17.139  68.413  1.00  0.00    -0.365 NA 
HETATM   26  C   UNL     1     -11.199  16.178  69.257  1.00  0.00    -0.337 A  
HETATM   27  C   UNL     1     -11.316  15.015  68.495  1.00  0.00    -0.317 A  
HETATM   28  C   UNL     1     -10.564  16.644  67.141  1.00  0.00    -0.264 A  
HETATM   29  C   UNL     1     -10.235  18.447  68.836  1.00  0.00    -0.252 C  
HETATM   30  C   UNL     1     -11.797  13.860  69.141  1.00  0.00    -0.401 A  
HETATM   31  C   UNL     1     -12.226  13.881  70.473  1.00  0.00    -0.373 A  
HETATM   32  C   UNL     1     -12.061  15.052  71.212  1.00  0.00    -0.384 A  
HETATM   33  C   UNL     1     -11.533  16.213  70.623  1.00  0.00    -0.386 A  
BRANCH  31  34
HETATM   34  N   UNL     1     -12.839  12.765  71.090  1.00  0.00    -0.288 N  
HETATM   35  H   UNL     1     -13.670  12.943  71.652  1.00  0.00     0.000 HD 
HETATM   36  C   UNL     1     -12.415  11.465  70.997  1.00  0.00    -0.383 C  
HETATM   37  O   UNL     1     -11.426  11.056  70.412  1.00  0.00    -0.298 OA 
BRANCH  36  38
HETATM   38  O   UNL     1     -13.270  10.628  71.656  1.00  0.00    -0.412 OA 
BRANCH  38  39
HETATM   39  C   UNL     1     -13.077   9.258  71.295  1.00  0.00    -0.265 C  
HETATM   40  C   UNL     1     -12.159   8.545  72.285  1.00  0.00    -0.455 C  
HETATM   41  C   UNL     1     -12.466   7.082  72.035  1.00  0.00    -0.279 C  
HETATM   42  C   UNL     1     -13.975   7.051  71.817  1.00  0.00    -0.342 C  
HETATM   43  C   UNL     1     -14.375   8.458  71.360  1.00  0.00    -0.425 C  
ENDBRANCH  38  39
ENDBRANCH  36  38
ENDBRANCH  31  34
ENDBRANCH  23  24
ENDBRANCH   6  23
ENDBRANCH   2   3
TORSDOF 9
ENDMDL
MODEL       18
REMARK 921   NORMALIZED FREE ENERGY PREDICTED BY IDOCK:   -6.85 KCAL/MOL
REMARK 922        TOTAL FREE ENERGY PREDICTED BY IDOCK:  -12.21 KCAL/MOL
REMARK 923 INTER-LIGAND FREE ENERGY PREDICTED BY IDOCK:  -10.44 KCAL/MOL
REMARK 924 INTRA-LIGAND FREE ENERGY PREDICTED BY IDOCK:   -1.77 KCAL/MOL
REMARK 927      BINDING AFFINITY PREDICTED BY RF-SCORE:    0.00 PKD
ROOT
HETATM    1  C   UNL     1     -10.571  11.412  66.075  1.00  0.00    -0.266 C  
HETATM    2  O   UNL     1     -11.569  12.286  66.585  1.00  0.00    -0.362 OA 
ENDROOT
BRANCH   2   3
HETATM    3  C   UNL     1     -11.785  12.285  67.938  1.00  0.00    -0.347 A  
HETATM    4  C   UNL     1     -11.884  11.126  68.722  1.00  0.00    -0.388 A  
HETATM    5  C   UNL     1     -12.066  11.212  70.112  1.00  0.00    -0.443 A  
HETATM    6  C   UNL     1     -11.872  13.551  68.550  1.00  0.00    -0.398 A  
HETATM    7  C   UNL     1     -12.065  12.462  70.730  1.00  0.00    -0.245 A  
HETATM    8  C   UNL     1     -11.954  13.614  69.953  1.00  0.00    -0.415 A  
BRANCH   5   9
HETATM    9  C   UNL     1     -12.285   9.958  70.879  1.00  0.00    -0.328 C  
HETATM   10  N   UNL     1     -11.839   8.783  70.259  1.00  0.00    -0.466 N  
HETATM   11  H   UNL     1     -11.460   8.861  69.315  1.00  0.00     0.000 HD 
HETATM   12  O   UNL     1     -12.830   9.980  71.970  1.00  0.00    -0.408 OA 
BRANCH  10  13
HETATM   13  S   UNL     1     -11.880   7.270  70.948  1.00  0.00    -0.298 S  
HETATM   14  O   UNL     1     -11.559   6.304  69.916  1.00  0.00    -0.435 OA 
HETATM   15  O   UNL     1     -13.147   7.194  71.649  1.00  0.00    -0.372 OA 
BRANCH  13  16
HETATM   16  C   UNL     1     -10.587   7.276  72.174  1.00  0.00    -0.211 A  
HETATM   17  C   UNL     1      -9.714   8.375  72.188  1.00  0.00    -0.370 A  
HETATM   18  C   UNL     1     -11.297   4.997  73.113  1.00  0.00    -0.397 C  
HETATM   19  C   UNL     1      -8.673   8.433  73.113  1.00  0.00    -0.214 A  
HETATM   20  C   UNL     1     -10.418   6.214  73.086  1.00  0.00    -0.254 A  
HETATM   21  C   UNL     1      -8.499   7.397  74.024  1.00  0.00    -0.237 A  
HETATM   22  C   UNL     1      -9.363   6.298  74.012  1.00  0.00    -0.158 A  
ENDBRANCH  13  16
ENDBRANCH  10  13
ENDBRANCH   5   9
BRANCH   6  23
HETATM   23  C   UNL     1     -11.830  14.838  67.754  1.00  0.00    -0.322 C  
BRANCH  23  24
HETATM   24  C   UNL     1     -10.573  15.608  68.076  1.00  0.00    -0.271 A  
HETATM   25  N   UNL     1      -9.209  17.352  68.408  1.00  0.00    -0.270 NA 
HETATM   26  C   UNL     1      -8.378  16.301  68.086  1.00  0.00    -0.172 A  
HETATM   27  C   UNL     1      -9.208  15.198  67.882  1.00  0.00    -0.184 A  
HETATM   28  C   UNL     1     -10.508  16.926  68.499  1.00  0.00    -0.361 A  
HETATM   29  C   UNL     1      -8.784  18.730  68.523  1.00  0.00    -0.346 C  
HETATM   30  C   UNL     1      -8.597  13.986  67.508  1.00  0.00    -0.196 A  
HETATM   31  C   UNL     1      -7.207  13.853  67.421  1.00  0.00    -0.093 A  
HETATM   32  C   UNL     1      -6.413  14.985  67.597  1.00  0.00    -0.175 A  
HETATM   33  C   UNL     1      -6.983  16.229  67.917  1.00  0.00    -0.153 A  
BRANCH  31  34
HETATM   34  N   UNL     1      -6.579  12.607  67.182  1.00  0.00    -0.333 N  
HETATM   35  H   UNL     1      -6.450  12.331  66.209  1.00  0.00     0.000 HD 
HETATM   36  C   UNL     1      -6.129  11.739  68.142  1.00  0.00    -0.050 C  
HETATM   37  O   UNL     1      -6.227  11.868  69.351  1.00  0.00    -0.087 OA 
BRANCH  36  38
HETATM   38  O   UNL     1      -5.513  10.662  67.571  1.00  0.00    -0.043 OA 
BRANCH  38  39
HETATM   39  C   UNL     1      -6.122   9.424  67.948  1.00  0.00    -0.053 C  
HETATM   40  C   UNL     1      -7.600   9.391  67.567  1.00  0.00    -0.091 C  
HETATM   41  C   UNL     1      -7.919   7.910  67.587  1.00  0.00    -0.124 C  
HETATM   42  C   UNL     1      -6.681   7.255  66.984  1.00  0.00    -0.068 C  
HETATM   43  C   UNL     1      -5.525   8.237  67.197  1.00  0.00    -0.037 C  
ENDBRANCH  38  39
ENDBRANCH  36  38
ENDBRANCH  31  34
ENDBRANCH  23  24
ENDBRANCH   6  23
ENDBRANCH   2   3
TORSDOF 9
ENDMDL
MODEL       19
REMARK 921   NORMALIZED FREE ENERGY PREDICTED BY IDOCK:   -6.81 KCAL/MOL
REMARK 922        TOTAL FREE ENERGY PREDICTED BY IDOCK:  -12.15 KCAL/MOL
REMARK 923 INTER-LIGAND FREE ENERGY PREDICTED BY IDOCK:   -9.83 KCAL/MOL
REMARK 924 INTRA-LIGAND FREE ENERGY PREDICTED BY IDOCK:   -2.31 KCAL/MOL
REMARK 927      BINDING AFFINITY PREDICTED BY RF-SCORE:    0.00 PKD
ROOT
HETATM    1  C   UNL     1     -11.910  12.423  64.688  1.00  0.00    -0.380 C  
HETATM    2  O   UNL     1     -12.046  12.234  66.090  1.00  0.00    -0.625 OA 
ENDROOT
BRANCH   2   3
HETATM    3  C   UNL     1     -10.902  12.060  66.824  1.00  0.00    -0.266 A  
HETATM    4  C   UNL     1     -10.081  10.926  66.750  1.00  0.00    -0.259 A  
HETATM    5  C   UNL     1      -8.901  10.842  67.507  1.00  0.00    -0.128 A  
HETATM    6  C   UNL     1     -10.542  13.129  67.668  1.00  0.00    -0.235 A  
HETATM    7  C   UNL     1      -8.499  11.933  68.277  1.00  0.00    -0.161 A  
HETATM    8  C   UNL     1      -9.308  13.067  68.341  1.00  0.00    -0.149 A  
BRANCH   5   9
HETATM    9  C   UNL     1      -8.131   9.571  67.486  1.00  0.00    -0.110 C  
HETATM   10  N   UNL     1      -7.783   9.051  68.740  1.00  0.00    -0.094 N  
HETATM   11  H   UNL     1      -8.022   9.605  69.563  1.00  0.00     0.000 HD 
HETATM   12  O   UNL     1      -7.828   9.042  66.429  1.00  0.00    -0.098 OA 
BRANCH  10  13
HETATM   13  S   UNL     1      -7.011   7.600  68.987  1.00  0.00    -0.071 S  
HETATM   14  O   UNL     1      -5.621   7.769  68.615  1.00  0.00    -0.026 OA 
HETATM   15  O   UNL     1      -7.828   6.604  68.322  1.00  0.00    -0.106 OA 
BRANCH  13  16
HETATM   16  C   UNL     1      -7.122   7.300  70.741  1.00  0.00    -0.065 A  
HETATM   17  C   UNL     1      -7.650   8.326  71.540  1.00  0.00    -0.104 A  
HETATM   18  C   UNL     1      -6.080   4.965  70.533  1.00  0.00    -0.018 C  
HETATM   19  C   UNL     1      -7.751   8.160  72.920  1.00  0.00    -0.190 A  
HETATM   20  C   UNL     1      -6.678   6.094  71.321  1.00  0.00    -0.055 A  
HETATM   21  C   UNL     1      -7.324   6.973  73.506  1.00  0.00    -0.081 A  
HETATM   22  C   UNL     1      -6.794   5.950  72.715  1.00  0.00    -0.075 A  
ENDBRANCH  13  16
ENDBRANCH  10  13
ENDBRANCH   5   9
BRANCH   6  23
HETATM   23  C   UNL     1     -11.413  14.355  67.836  1.00  0.00    -0.346 C  
BRANCH  23  24
HETATM   24  C   UNL     1     -12.160  14.287  69.146  1.00  0.00    -0.337 A  
HETATM   25  N   UNL     1     -13.009  14.939  71.113  1.00  0.00    -0.341 NA 
HETATM   26  C   UNL     1     -12.902  13.568  71.203  1.00  0.00    -0.309 A  
HETATM   27  C   UNL     1     -12.382  13.138  69.982  1.00  0.00    -0.241 A  
HETATM   28  C   UNL     1     -12.660  15.366  69.858  1.00  0.00    -0.168 A  
HETATM   29  C   UNL     1     -13.334  15.812  72.219  1.00  0.00    -0.430 C  
HETATM   30  C   UNL     1     -12.146  11.759  69.826  1.00  0.00    -0.338 A  
HETATM   31  C   UNL     1     -12.494  10.831  70.814  1.00  0.00    -0.387 A  
HETATM   32  C   UNL     1     -12.978  11.302  72.034  1.00  0.00    -0.379 A  
HETATM   33  C   UNL     1     -13.177  12.675  72.255  1.00  0.00    -0.465 A  
BRANCH  31  34
HETATM   34  N   UNL     1     -12.391   9.434  70.613  1.00  0.00    -0.487 N  
HETATM   35  H   UNL     1     -12.936   9.033  69.851  1.00  0.00     0.000 HD 
HETATM   36  C   UNL     1     -11.622   8.572  71.351  1.00  0.00    -0.289 C  
HETATM   37  O   UNL     1     -10.937   8.849  72.322  1.00  0.00    -0.337 OA 
BRANCH  36  38
HETATM   38  O   UNL     1     -11.699   7.304  70.850  1.00  0.00    -0.298 OA 
BRANCH  38  39
HETATM   39  C   UNL     1     -10.649   6.463  71.333  1.00  0.00    -0.230 C  
HETATM   40  C   UNL     1     -11.078   5.698  72.583  1.00  0.00    -0.331 C  
HETATM   41  C   UNL     1     -10.078   4.561  72.641  1.00  0.00    -0.229 C  
HETATM   42  C   UNL     1      -9.902   4.146  71.184  1.00  0.00    -0.244 C  
HETATM   43  C   UNL     1     -10.288   5.363  70.338  1.00  0.00    -0.353 C  
ENDBRANCH  38  39
ENDBRANCH  36  38
ENDBRANCH  31  34
ENDBRANCH  23  24
ENDBRANCH   6  23
ENDBRANCH   2   3
TORSDOF 9
ENDMDL
MODEL       20
REMARK 921   NORMALIZED FREE ENERGY PREDICTED BY IDOCK:   -6.78 KCAL/MOL
REMARK 922        TOTAL FREE ENERGY PREDICTED BY IDOCK:  -12.10 KCAL/MOL
REMARK 923 INTER-LIGAND FREE ENERGY PREDICTED BY IDOCK:  -10.76 KCAL/MOL
REMARK 924 INTRA-LIGAND FREE ENERGY PREDICTED BY IDOCK:   -1.35 KCAL/MOL
REMARK 927      BINDING AFFINITY PREDICTED BY RF-SCORE:    0.00 PKD
ROOT
HETATM    1  C   UNL     1     -10.642  15.391  69.499  1.00  0.00    -0.268 C  
HETATM    2  O   UNL     1      -9.239  15.426  69.721  1.00  0.00    -0.247 OA 
ENDROOT
BRANCH   2   3
HETATM    3  C   UNL     1      -8.469  14.491  69.080  1.00  0.00    -0.048 A  
HETATM    4  C   UNL     1      -8.744  13.116  69.064  1.00  0.00     0.458 A  
HETATM    5  C   UNL     1      -7.927  12.226  68.348  1.00  0.00    -0.152 A  
HETATM    6  C   UNL     1      -7.358  14.988  68.370  1.00  0.00    -0.112 A  
HETATM    7  C   UNL     1      -6.878  12.726  67.576  1.00  0.00    -0.153 A  
HETATM    8  C   UNL     1      -6.612  14.094  67.580  1.00  0.00    -0.098 A  
BRANCH   5   9
HETATM    9  C   UNL     1      -8.191  10.769  68.463  1.00  0.00    -0.136 C  
HETATM   10  N   UNL     1      -9.323  10.415  69.210  1.00  0.00    -0.252 N  
HETATM   11  H   UNL     1      -9.840  11.166  69.668  1.00  0.00     0.000 HD 
HETATM   12  O   UNL     1      -7.448   9.956  67.939  1.00  0.00    -0.088 OA 
BRANCH  10  13
HETATM   13  S   UNL     1      -9.887   8.863  69.406  1.00  0.00    -0.188 S  
HETATM   14  O   UNL     1      -8.861   8.102  70.090  1.00  0.00    -0.142 OA 
HETATM   15  O   UNL     1     -10.350   8.448  68.096  1.00  0.00    -0.205 OA 
BRANCH  13  16
HETATM   16  C   UNL     1     -11.317   9.010  70.459  1.00  0.00    -0.243 A  
HETATM   17  C   UNL     1     -11.714  10.304  70.833  1.00  0.00    -0.472 A  
HETATM   18  C   UNL     1     -11.636   6.469  70.591  1.00  0.00    -0.442 C  
HETATM   19  C   UNL     1     -12.815  10.487  71.667  1.00  0.00    -0.581 A  
HETATM   20  C   UNL     1     -12.018   7.881  70.928  1.00  0.00    -0.211 A  
HETATM   21  C   UNL     1     -13.522   9.382  72.131  1.00  0.00    -0.543 A  
HETATM   22  C   UNL     1     -13.128   8.092  71.765  1.00  0.00    -0.367 A  
ENDBRANCH  13  16
ENDBRANCH  10  13
ENDBRANCH   5   9
BRANCH   6  23
HETATM   23  C   UNL     1      -6.973  16.452  68.393  1.00  0.00    -0.144 C  
BRANCH  23  24
HETATM   24  C   UNL     1      -7.966  17.263  67.598  1.00  0.00    -0.195 A  
HETATM   25  N   UNL     1      -9.364  18.928  67.061  1.00  0.00    -0.295 NA 
HETATM   26  C   UNL     1      -9.805  17.841  66.338  1.00  0.00    -0.324 A  
HETATM   27  C   UNL     1      -8.941  16.791  66.650  1.00  0.00    -0.278 A  
HETATM   28  C   UNL     1      -8.213  18.619  67.739  1.00  0.00    -0.255 A  
HETATM   29  C   UNL     1     -10.077  20.181  67.176  1.00  0.00    -0.450 C  
HETATM   30  C   UNL     1      -9.196  15.541  66.055  1.00  0.00    -0.361 A  
HETATM   31  C   UNL     1     -10.221  15.361  65.118  1.00  0.00    -0.325 A  
HETATM   32  C   UNL     1     -11.084  16.424  64.858  1.00  0.00    -0.249 A  
HETATM   33  C   UNL     1     -10.901  17.675  65.472  1.00  0.00     0.056 A  
BRANCH  31  34
HETATM   34  N   UNL     1     -10.397  14.148  64.412  1.00  0.00    -0.565 N  
HETATM   35  H   UNL     1      -9.623  13.832  63.830  1.00  0.00     0.000 HD 
HETATM   36  C   UNL     1     -11.518  13.360  64.441  1.00  0.00    -0.384 C  
HETATM   37  O   UNL     1     -12.558  13.585  65.038  1.00  0.00    -0.542 OA 
BRANCH  36  38
HETATM   38  O   UNL     1     -11.333  12.228  63.700  1.00  0.00    -0.399 OA 
BRANCH  38  39
HETATM   39  C   UNL     1     -10.046  11.642  63.912  1.00  0.00    -0.357 C  
HETATM   40  C   UNL     1     -10.114  10.500  64.924  1.00  0.00    -0.403 C  
HETATM   41  C   UNL     1      -8.837   9.732  64.649  1.00  0.00    -0.244 C  
HETATM   42  C   UNL     1      -8.705   9.761  63.130  1.00  0.00    -0.229 C  
HETATM   43  C   UNL     1      -9.500  10.979  62.650  1.00  0.00    -0.322 C  
ENDBRANCH  38  39
ENDBRANCH  36  38
ENDBRANCH  31  34
ENDBRANCH  23  24
ENDBRANCH   6  23
ENDBRANCH   2   3
TORSDOF 9
ENDMDL
MODEL       21
REMARK 921   NORMALIZED FREE ENERGY PREDICTED BY IDOCK:   -6.75 KCAL/MOL
REMARK 922        TOTAL FREE ENERGY PREDICTED BY IDOCK:  -12.06 KCAL/MOL
REMARK 923 INTER-LIGAND FREE ENERGY PREDICTED BY IDOCK:   -9.85 KCAL/MOL
REMARK 924 INTRA-LIGAND FREE ENERGY PREDICTED BY IDOCK:   -2.21 KCAL/MOL
REMARK 927      BINDING AFFINITY PREDICTED BY RF-SCORE:    0.00 PKD
ROOT
HETATM    1  C   UNL     1      -6.678   9.024  69.878  1.00  0.00    -0.046 C  
HETATM    2  O   UNL     1      -7.484   8.567  70.956  1.00  0.00    -0.063 OA 
ENDROOT
BRANCH   2   3
HETATM    3  C   UNL     1      -8.797   8.959  70.981  1.00  0.00    -0.230 A  
HETATM    4  C   UNL     1      -9.378   9.835  70.053  1.00  0.00    -0.274 A  
HETATM    5  C   UNL     1     -10.743  10.156  70.125  1.00  0.00    -0.355 A  
HETATM    6  C   UNL     1      -9.590   8.395  72.000  1.00  0.00    -0.344 A  
HETATM    7  C   UNL     1     -11.548   9.532  71.078  1.00  0.00    -0.419 A  
HETATM    8  C   UNL     1     -10.973   8.651  71.993  1.00  0.00    -0.432 A  
BRANCH   5   9
HETATM    9  C   UNL     1     -11.282  11.181  69.194  1.00  0.00    -0.264 C  
HETATM   10  N   UNL     1     -10.518  12.349  69.069  1.00  0.00    -0.422 N  
HETATM   11  H   UNL     1      -9.694  12.440  69.665  1.00  0.00     0.000 HD 
HETATM   12  O   UNL     1     -12.329  10.994  68.597  1.00  0.00    -0.539 OA 
BRANCH  10  13
HETATM   13  S   UNL     1     -10.852  13.598  68.024  1.00  0.00    -0.253 S  
HETATM   14  O   UNL     1      -9.698  14.475  67.997  1.00  0.00    -0.209 OA 
HETATM   15  O   UNL     1     -12.147  14.110  68.429  1.00  0.00    -0.344 OA 
BRANCH  13  16
HETATM   16  C   UNL     1     -11.052  12.835  66.426  1.00  0.00    -0.285 A  
HETATM   17  C   UNL     1     -12.272  13.037  65.762  1.00  0.00    -0.511 A  
HETATM   18  C   UNL     1      -8.726  11.757  66.512  1.00  0.00    -0.173 C  
HETATM   19  C   UNL     1     -12.497  12.455  64.516  1.00  0.00    -0.519 A  
HETATM   20  C   UNL     1     -10.044  12.036  65.849  1.00  0.00    -0.264 A  
HETATM   21  C   UNL     1     -11.509  11.671  63.930  1.00  0.00    -0.433 A  
HETATM   22  C   UNL     1     -10.294  11.464  64.589  1.00  0.00    -0.362 A  
ENDBRANCH  13  16
ENDBRANCH  10  13
ENDBRANCH   5   9
BRANCH   6  23
HETATM   23  C   UNL     1      -9.012   7.488  73.065  1.00  0.00    -0.207 C  
BRANCH  23  24
HETATM   24  C   UNL     1      -9.505   6.076  72.870  1.00  0.00    -0.151 A  
HETATM   25  N   UNL     1     -10.061   3.961  73.356  1.00  0.00    -0.131 NA 
HETATM   26  C   UNL     1      -9.792   3.962  72.004  1.00  0.00    -0.174 A  
HETATM   27  C   UNL     1      -9.451   5.274  71.676  1.00  0.00    -0.187 A  
HETATM   28  C   UNL     1      -9.986   5.234  73.860  1.00  0.00    -0.187 A  
HETATM   29  C   UNL     1     -10.279   2.772  74.150  1.00  0.00    -0.131 C  
HETATM   30  C   UNL     1      -9.099   5.539  70.340  1.00  0.00    -0.164 A  
HETATM   31  C   UNL     1      -9.165   4.555  69.347  1.00  0.00    -0.129 A  
HETATM   32  C   UNL     1      -9.476   3.248  69.719  1.00  0.00    -0.212 A  
HETATM   33  C   UNL     1      -9.780   2.926  71.052  1.00  0.00    -0.166 A  
BRANCH  31  34
HETATM   34  N   UNL     1      -8.948   4.843  67.978  1.00  0.00    -0.107 N  
HETATM   35  H   UNL     1      -8.051   4.566  67.582  1.00  0.00     0.000 HD 
HETATM   36  C   UNL     1      -9.837   5.462  67.139  1.00  0.00    -0.158 C  
HETATM   37  O   UNL     1     -10.937   5.903  67.431  1.00  0.00    -0.284 OA 
BRANCH  36  38
HETATM   38  O   UNL     1      -9.340   5.526  65.868  1.00  0.00    -0.161 OA 
BRANCH  38  39
HETATM   39  C   UNL     1      -8.317   6.516  65.733  1.00  0.00    -0.143 C  
HETATM   40  C   UNL     1      -7.565   6.362  64.413  1.00  0.00    -0.098 C  
HETATM   41  C   UNL     1      -6.910   7.717  64.240  1.00  0.00    -0.056 C  
HETATM   42  C   UNL     1      -7.969   8.705  64.717  1.00  0.00    -0.141 C  
HETATM   43  C   UNL     1      -8.889   7.929  65.664  1.00  0.00    -0.121 C  
ENDBRANCH  38  39
ENDBRANCH  36  38
ENDBRANCH  31  34
ENDBRANCH  23  24
ENDBRANCH   6  23
ENDBRANCH   2   3
TORSDOF 9
ENDMDL
MODEL       22
REMARK 921   NORMALIZED FREE ENERGY PREDICTED BY IDOCK:   -6.74 KCAL/MOL
REMARK 922        TOTAL FREE ENERGY PREDICTED BY IDOCK:  -12.05 KCAL/MOL
REMARK 923 INTER-LIGAND FREE ENERGY PREDICTED BY IDOCK:  -10.63 KCAL/MOL
REMARK 924 INTRA-LIGAND FREE ENERGY PREDICTED BY IDOCK:   -1.41 KCAL/MOL
REMARK 927      BINDING AFFINITY PREDICTED BY RF-SCORE:    0.00 PKD
ROOT
HETATM    1  C   UNL     1     -13.431   9.588  71.858  1.00  0.00    -0.424 C  
HETATM    2  O   UNL     1     -12.033   9.362  71.986  1.00  0.00    -0.355 OA 
ENDROOT
BRANCH   2   3
HETATM    3  C   UNL     1     -11.224   9.769  70.958  1.00  0.00    -0.381 A  
HETATM    4  C   UNL     1     -11.641  10.595  69.904  1.00  0.00    -0.396 A  
HETATM    5  C   UNL     1     -10.738  11.002  68.908  1.00  0.00    -0.249 A  
HETATM    6  C   UNL     1      -9.884   9.341  71.020  1.00  0.00    -0.355 A  
HETATM    7  C   UNL     1      -9.393  10.650  69.015  1.00  0.00    -0.191 A  
HETATM    8  C   UNL     1      -8.974   9.841  70.070  1.00  0.00    -0.255 A  
BRANCH   5   9
HETATM    9  C   UNL     1     -11.257  11.774  67.750  1.00  0.00    -0.266 C  
HETATM   10  N   UNL     1     -10.829  13.107  67.669  1.00  0.00    -0.250 N  
HETATM   11  H   UNL     1     -10.254  13.465  68.431  1.00  0.00     0.000 HD 
HETATM   12  O   UNL     1     -12.013  11.259  66.944  1.00  0.00    -0.327 OA 
BRANCH  10  13
HETATM   13  S   UNL     1     -11.189  14.147  66.423  1.00  0.00    -0.337 S  
HETATM   14  O   UNL     1     -12.631  14.197  66.289  1.00  0.00    -0.449 OA 
HETATM   15  O   UNL     1     -10.367  13.719  65.308  1.00  0.00    -0.329 OA 
BRANCH  13  16
HETATM   16  C   UNL     1     -10.589  15.740  66.952  1.00  0.00    -0.317 A  
HETATM   17  C   UNL     1      -9.715  16.420  66.089  1.00  0.00    -0.355 A  
HETATM   18  C   UNL     1     -11.858  15.618  69.177  1.00  0.00    -0.378 C  
HETATM   19  C   UNL     1      -9.198  17.663  66.450  1.00  0.00    -0.263 A  
HETATM   20  C   UNL     1     -10.949  16.298  68.195  1.00  0.00    -0.343 A  
HETATM   21  C   UNL     1      -9.551  18.231  67.670  1.00  0.00    -0.287 A  
HETATM   22  C   UNL     1     -10.418  17.556  68.534  1.00  0.00    -0.361 A  
ENDBRANCH  13  16
ENDBRANCH  10  13
ENDBRANCH   5   9
BRANCH   6  23
HETATM   23  C   UNL     1      -9.384   8.404  72.099  1.00  0.00    -0.339 C  
BRANCH  23  24
HETATM   24  C   UNL     1      -9.782   6.984  71.780  1.00  0.00    -0.165 A  
HETATM   25  N   UNL     1     -10.191   4.803  72.078  1.00  0.00    -0.194 NA 
HETATM   26  C   UNL     1      -9.928   4.940  70.732  1.00  0.00    -0.222 A  
HETATM   27  C   UNL     1      -9.678   6.296  70.521  1.00  0.00    -0.196 A  
HETATM   28  C   UNL     1     -10.200   6.029  72.692  1.00  0.00    -0.183 A  
HETATM   29  C   UNL     1     -10.325   3.537  72.764  1.00  0.00    -0.160 C  
HETATM   30  C   UNL     1      -9.350   6.700  69.213  1.00  0.00    -0.142 A  
HETATM   31  C   UNL     1      -9.353   5.804  68.138  1.00  0.00    -0.109 A  
HETATM   32  C   UNL     1      -9.574   4.451  68.394  1.00  0.00    -0.203 A  
HETATM   33  C   UNL     1      -9.850   3.994  69.693  1.00  0.00    -0.159 A  
BRANCH  31  34
HETATM   34  N   UNL     1      -9.162   6.225  66.801  1.00  0.00    -0.133 N  
HETATM   35  H   UNL     1      -9.917   6.037  66.142  1.00  0.00     0.000 HD 
HETATM   36  C   UNL     1      -8.051   6.861  66.312  1.00  0.00    -0.112 C  
HETATM   37  O   UNL     1      -7.033   7.134  66.925  1.00  0.00    -0.072 OA 
BRANCH  36  38
HETATM   38  O   UNL     1      -8.219   7.187  64.996  1.00  0.00    -0.134 OA 
BRANCH  38  39
HETATM   39  C   UNL     1      -8.233   8.601  64.782  1.00  0.00    -0.160 C  
HETATM   40  C   UNL     1      -8.408   8.939  63.303  1.00  0.00    -0.180 C  
HETATM   41  C   UNL     1      -8.876  10.379  63.341  1.00  0.00    -0.218 C  
HETATM   42  C   UNL     1      -9.827  10.429  64.533  1.00  0.00    -0.405 C  
HETATM   43  C   UNL     1      -9.428   9.272  65.454  1.00  0.00    -0.281 C  
ENDBRANCH  38  39
ENDBRANCH  36  38
ENDBRANCH  31  34
ENDBRANCH  23  24
ENDBRANCH   6  23
ENDBRANCH   2   3
TORSDOF 9
ENDMDL
MODEL       23
REMARK 921   NORMALIZED FREE ENERGY PREDICTED BY IDOCK:   -6.71 KCAL/MOL
REMARK 922        TOTAL FREE ENERGY PREDICTED BY IDOCK:  -11.99 KCAL/MOL
REMARK 923 INTER-LIGAND FREE ENERGY PREDICTED BY IDOCK:  -10.17 KCAL/MOL
REMARK 924 INTRA-LIGAND FREE ENERGY PREDICTED BY IDOCK:   -1.82 KCAL/MOL
REMARK 927      BINDING AFFINITY PREDICTED BY RF-SCORE:    0.00 PKD
ROOT
HETATM    1  C   UNL     1     -10.255   9.291  66.759  1.00  0.00    -0.255 C  
HETATM    2  O   UNL     1      -9.149   8.577  67.296  1.00  0.00    -0.131 OA 
ENDROOT
BRANCH   2   3
HETATM    3  C   UNL     1      -8.298   9.253  68.131  1.00  0.00    -0.120 A  
HETATM    4  C   UNL     1      -7.830  10.554  67.897  1.00  0.00    -0.105 A  
HETATM    5  C   UNL     1      -6.991  11.193  68.824  1.00  0.00    -0.088 A  
HETATM    6  C   UNL     1      -7.922   8.576  69.308  1.00  0.00    -0.111 A  
HETATM    7  C   UNL     1      -6.687  10.559  70.029  1.00  0.00    -0.151 A  
HETATM    8  C   UNL     1      -7.163   9.271  70.268  1.00  0.00    -0.087 A  
BRANCH   5   9
HETATM    9  C   UNL     1      -6.426  12.522  68.473  1.00  0.00    -0.073 C  
HETATM   10  N   UNL     1      -7.346  13.577  68.419  1.00  0.00    -0.106 N  
HETATM   11  H   UNL     1      -8.331  13.352  68.558  1.00  0.00     0.000 HD 
HETATM   12  O   UNL     1      -5.235  12.653  68.243  1.00  0.00    -0.056 OA 
BRANCH  10  13
HETATM   13  S   UNL     1      -6.953  15.169  68.145  1.00  0.00    -0.139 S  
HETATM   14  O   UNL     1      -6.273  15.244  66.868  1.00  0.00    -0.118 OA 
HETATM   15  O   UNL     1      -6.290  15.621  69.352  1.00  0.00    -0.131 OA 
BRANCH  13  16
HETATM   16  C   UNL     1      -8.512  16.027  68.035  1.00  0.00    -0.164 A  
HETATM   17  C   UNL     1      -8.635  17.236  68.739  1.00  0.00    -0.230 A  
HETATM   18  C   UNL     1      -9.545  14.217  66.540  1.00  0.00    -0.310 C  
HETATM   19  C   UNL     1      -9.832  17.948  68.707  1.00  0.00    -0.354 A  
HETATM   20  C   UNL     1      -9.596  15.513  67.296  1.00  0.00    -0.216 A  
HETATM   21  C   UNL     1     -10.909  17.458  67.974  1.00  0.00    -0.281 A  
HETATM   22  C   UNL     1     -10.792  16.253  67.275  1.00  0.00    -0.216 A  
ENDBRANCH  13  16
ENDBRANCH  10  13
ENDBRANCH   5   9
BRANCH   6  23
HETATM   23  C   UNL     1      -8.346   7.152  69.592  1.00  0.00    -0.133 C  
BRANCH  23  24
HETATM   24  C   UNL     1      -9.414   7.130  70.659  1.00  0.00    -0.161 A  
HETATM   25  N   UNL     1     -10.922   6.317  72.101  1.00  0.00    -0.244 NA 
HETATM   26  C   UNL     1     -11.329   7.609  71.843  1.00  0.00    -0.266 A  
HETATM   27  C   UNL     1     -10.397   8.139  70.951  1.00  0.00    -0.218 A  
HETATM   28  C   UNL     1      -9.730   6.057  71.476  1.00  0.00    -0.163 A  
HETATM   29  C   UNL     1     -11.699   5.343  72.834  1.00  0.00    -0.162 C  
HETATM   30  C   UNL     1     -10.605   9.456  70.500  1.00  0.00    -0.331 A  
HETATM   31  C   UNL     1     -11.653  10.248  70.984  1.00  0.00    -0.343 A  
HETATM   32  C   UNL     1     -12.584   9.672  71.847  1.00  0.00    -0.481 A  
HETATM   33  C   UNL     1     -12.448   8.342  72.280  1.00  0.00    -0.417 A  
BRANCH  31  34
HETATM   34  N   UNL     1     -11.789  11.615  70.644  1.00  0.00    -0.471 N  
HETATM   35  H   UNL     1     -11.677  12.294  71.397  1.00  0.00     0.000 HD 
HETATM   36  C   UNL     1     -12.058  12.107  69.394  1.00  0.00    -0.190 C  
HETATM   37  O   UNL     1     -12.265  11.461  68.380  1.00  0.00    -0.571 OA 
BRANCH  36  38
HETATM   38  O   UNL     1     -12.057  13.473  69.401  1.00  0.00    -0.316 OA 
BRANCH  38  39
HETATM   39  C   UNL     1     -12.118  14.011  70.724  1.00  0.00    -0.345 C  
HETATM   40  C   UNL     1     -11.266  15.272  70.853  1.00  0.00    -0.367 C  
HETATM   41  C   UNL     1     -11.827  15.930  72.097  1.00  0.00    -0.615 C  
HETATM   42  C   UNL     1     -13.332  15.706  71.991  1.00  0.00    -0.543 C  
HETATM   43  C   UNL     1     -13.523  14.481  71.090  1.00  0.00    -0.396 C  
ENDBRANCH  38  39
ENDBRANCH  36  38
ENDBRANCH  31  34
ENDBRANCH  23  24
ENDBRANCH   6  23
ENDBRANCH   2   3
TORSDOF 9
ENDMDL
MODEL       24
REMARK 921   NORMALIZED FREE ENERGY PREDICTED BY IDOCK:   -6.69 KCAL/MOL
REMARK 922        TOTAL FREE ENERGY PREDICTED BY IDOCK:  -11.97 KCAL/MOL
REMARK 923 INTER-LIGAND FREE ENERGY PREDICTED BY IDOCK:  -10.28 KCAL/MOL
REMARK 924 INTRA-LIGAND FREE ENERGY PREDICTED BY IDOCK:   -1.68 KCAL/MOL
REMARK 927      BINDING AFFINITY PREDICTED BY RF-SCORE:    0.00 PKD
ROOT
HETATM    1  C   UNL     1     -13.747   8.627  71.969  1.00  0.00    -0.426 C  
HETATM    2  O   UNL     1     -12.477   9.090  72.409  1.00  0.00    -0.361 OA 
ENDROOT
BRANCH   2   3
HETATM    3  C   UNL     1     -11.547   9.406  71.453  1.00  0.00    -0.381 A  
HETATM    4  C   UNL     1     -11.819  10.165  70.306  1.00  0.00    -0.342 A  
HETATM    5  C   UNL     1     -10.799  10.480  69.393  1.00  0.00    -0.291 A  
HETATM    6  C   UNL     1     -10.236   8.951  71.694  1.00  0.00    -0.415 A  
HETATM    7  C   UNL     1      -9.486  10.105  69.673  1.00  0.00    -0.226 A  
HETATM    8  C   UNL     1      -9.212   9.361  70.820  1.00  0.00    -0.278 A  
BRANCH   5   9
HETATM    9  C   UNL     1     -11.163  11.182  68.135  1.00  0.00    -0.292 C  
HETATM   10  N   UNL     1     -10.803  12.536  68.070  1.00  0.00    -0.217 N  
HETATM   11  H   UNL     1     -10.383  12.952  68.901  1.00  0.00     0.000 HD 
HETATM   12  O   UNL     1     -11.746  10.596  67.238  1.00  0.00    -0.317 OA 
BRANCH  10  13
HETATM   13  S   UNL     1     -11.010  13.512  66.741  1.00  0.00    -0.295 S  
HETATM   14  O   UNL     1     -12.430  13.582  66.459  1.00  0.00    -0.359 OA 
HETATM   15  O   UNL     1     -10.092  13.007  65.739  1.00  0.00    -0.286 OA 
BRANCH  13  16
HETATM   16  C   UNL     1     -10.427  15.120  67.242  1.00  0.00    -0.271 A  
HETATM   17  C   UNL     1      -9.992  15.265  68.569  1.00  0.00    -0.222 A  
HETATM   18  C   UNL     1     -10.892  16.144  64.936  1.00  0.00    -0.353 C  
HETATM   19  C   UNL     1      -9.537  16.500  69.027  1.00  0.00    -0.255 A  
HETATM   20  C   UNL     1     -10.419  16.219  66.359  1.00  0.00    -0.297 A  
HETATM   21  C   UNL     1      -9.516  17.592  68.166  1.00  0.00    -0.286 A  
HETATM   22  C   UNL     1      -9.952  17.454  66.845  1.00  0.00    -0.300 A  
ENDBRANCH  13  16
ENDBRANCH  10  13
ENDBRANCH   5   9
BRANCH   6  23
HETATM   23  C   UNL     1      -9.888   8.080  72.882  1.00  0.00    -0.357 C  
BRANCH  23  24
HETATM   24  C   UNL     1     -10.161   6.631  72.562  1.00  0.00    -0.203 A  
HETATM   25  N   UNL     1     -10.509   4.441  72.881  1.00  0.00    -0.180 NA 
HETATM   26  C   UNL     1     -10.042   4.548  71.589  1.00  0.00    -0.179 A  
HETATM   27  C   UNL     1      -9.826   5.908  71.364  1.00  0.00    -0.205 A  
HETATM   28  C   UNL     1     -10.674   5.685  73.435  1.00  0.00    -0.278 A  
HETATM   29  C   UNL     1     -10.691   3.193  73.589  1.00  0.00    -0.207 C  
HETATM   30  C   UNL     1      -9.313   6.286  70.109  1.00  0.00    -0.165 A  
HETATM   31  C   UNL     1      -9.102   5.356  69.084  1.00  0.00    -0.107 A  
HETATM   32  C   UNL     1      -9.296   4.003  69.357  1.00  0.00    -0.243 A  
HETATM   33  C   UNL     1      -9.754   3.574  70.615  1.00  0.00    -0.196 A  
BRANCH  31  34
HETATM   34  N   UNL     1      -8.720   5.742  67.778  1.00  0.00    -0.108 N  
HETATM   35  H   UNL     1      -7.723   5.854  67.599  1.00  0.00     0.000 HD 
HETATM   36  C   UNL     1      -9.572   5.980  66.731  1.00  0.00    -0.149 C  
HETATM   37  O   UNL     1     -10.791   5.941  66.754  1.00  0.00    -0.308 OA 
BRANCH  36  38
HETATM   38  O   UNL     1      -8.873   6.268  65.593  1.00  0.00    -0.147 OA 
BRANCH  38  39
HETATM   39  C   UNL     1      -8.171   7.511  65.686  1.00  0.00    -0.133 C  
HETATM   40  C   UNL     1      -7.566   7.910  64.342  1.00  0.00    -0.116 C  
HETATM   41  C   UNL     1      -7.318   9.395  64.513  1.00  0.00    -0.105 C  
HETATM   42  C   UNL     1      -8.537   9.889  65.286  1.00  0.00    -0.168 C  
HETATM   43  C   UNL     1      -9.101   8.672  66.027  1.00  0.00    -0.255 C  
ENDBRANCH  38  39
ENDBRANCH  36  38
ENDBRANCH  31  34
ENDBRANCH  23  24
ENDBRANCH   6  23
ENDBRANCH   2   3
TORSDOF 9
ENDMDL
MODEL       25
REMARK 921   NORMALIZED FREE ENERGY PREDICTED BY IDOCK:   -6.67 KCAL/MOL
REMARK 922        TOTAL FREE ENERGY PREDICTED BY IDOCK:  -11.94 KCAL/MOL
REMARK 923 INTER-LIGAND FREE ENERGY PREDICTED BY IDOCK:  -10.92 KCAL/MOL
REMARK 924 INTRA-LIGAND FREE ENERGY PREDICTED BY IDOCK:   -1.02 KCAL/MOL
REMARK 927      BINDING AFFINITY PREDICTED BY RF-SCORE:    0.00 PKD
ROOT
HETATM    1  C   UNL     1     -13.062   9.480  72.044  1.00  0.00    -0.438 C  
HETATM    2  O   UNL     1     -12.678  10.431  71.060  1.00  0.00    -0.337 OA 
ENDROOT
BRANCH   2   3
HETATM    3  C   UNL     1     -11.422  10.319  70.522  1.00  0.00    -0.343 A  
HETATM    4  C   UNL     1     -10.533   9.272  70.803  1.00  0.00    -0.343 A  
HETATM    5  C   UNL     1      -9.277   9.208  70.177  1.00  0.00    -0.231 A  
HETATM    6  C   UNL     1     -11.054  11.320  69.602  1.00  0.00    -0.273 A  
HETATM    7  C   UNL     1      -8.945  10.150  69.203  1.00  0.00    -0.181 A  
HETATM    8  C   UNL     1      -9.835  11.183  68.913  1.00  0.00    -0.176 A  
BRANCH   5   9
HETATM    9  C   UNL     1      -8.325   8.149  70.600  1.00  0.00    -0.123 C  
HETATM   10  N   UNL     1      -8.898   7.038  71.236  1.00  0.00    -0.134 N  
HETATM   11  H   UNL     1      -9.901   7.065  71.419  1.00  0.00     0.000 HD 
HETATM   12  O   UNL     1      -7.128   8.268  70.401  1.00  0.00    -0.037 OA 
BRANCH  10  13
HETATM   13  S   UNL     1      -8.064   5.682  71.715  1.00  0.00    -0.119 S  
HETATM   14  O   UNL     1      -7.089   6.088  72.707  1.00  0.00    -0.078 OA 
HETATM   15  O   UNL     1      -7.633   5.036  70.490  1.00  0.00    -0.066 OA 
BRANCH  13  16
HETATM   16  C   UNL     1      -9.280   4.626  72.478  1.00  0.00    -0.128 A  
HETATM   17  C   UNL     1      -9.286   3.273  72.107  1.00  0.00    -0.167 A  
HETATM   18  C   UNL     1     -10.293   6.560  73.826  1.00  0.00    -0.346 C  
HETATM   19  C   UNL     1     -10.221   2.398  72.657  1.00  0.00    -0.233 A  
HETATM   20  C   UNL     1     -10.223   5.121  73.402  1.00  0.00    -0.220 A  
HETATM   21  C   UNL     1     -11.153   2.869  73.576  1.00  0.00    -0.316 A  
HETATM   22  C   UNL     1     -11.154   4.217  73.946  1.00  0.00    -0.258 A  
ENDBRANCH  13  16
ENDBRANCH  10  13
ENDBRANCH   5   9
BRANCH   6  23
HETATM   23  C   UNL     1     -11.945  12.506  69.298  1.00  0.00    -0.304 C  
BRANCH  23  24
HETATM   24  C   UNL     1     -11.705  12.988  67.888  1.00  0.00    -0.402 A  
HETATM   25  N   UNL     1     -11.429  12.923  65.667  1.00  0.00    -0.318 NA 
HETATM   26  C   UNL     1     -10.787  14.072  66.076  1.00  0.00    -0.295 A  
HETATM   27  C   UNL     1     -10.954  14.138  67.460  1.00  0.00    -0.292 A  
HETATM   28  C   UNL     1     -12.060  12.323  66.726  1.00  0.00     0.031 A  
HETATM   29  C   UNL     1     -11.352  12.370  64.333  1.00  0.00    -0.340 C  
HETATM   30  C   UNL     1     -10.358  15.220  68.135  1.00  0.00    -0.242 A  
HETATM   31  C   UNL     1      -9.693  16.244  67.451  1.00  0.00    -0.234 A  
HETATM   32  C   UNL     1      -9.517  16.126  66.074  1.00  0.00    -0.374 A  
HETATM   33  C   UNL     1     -10.046  15.034  65.365  1.00  0.00    -0.396 A  
BRANCH  31  34
HETATM   34  N   UNL     1      -9.213  17.404  68.105  1.00  0.00    -0.263 N  
HETATM   35  H   UNL     1      -8.345  17.314  68.632  1.00  0.00     0.000 HD 
HETATM   36  C   UNL     1      -9.811  18.637  68.092  1.00  0.00    -0.354 C  
HETATM   37  O   UNL     1     -10.867  18.934  67.558  1.00  0.00    -0.450 OA 
BRANCH  36  38
HETATM   38  O   UNL     1      -9.052  19.551  68.767  1.00  0.00    -0.368 OA 
BRANCH  38  39
HETATM   39  C   UNL     1      -7.705  19.598  68.290  1.00  0.00    -0.321 C  
HETATM   40  C   UNL     1      -7.485  20.789  67.360  1.00  0.00    -0.374 C  
HETATM   41  C   UNL     1      -5.977  20.945  67.366  1.00  0.00    -0.331 C  
HETATM   42  C   UNL     1      -5.582  20.677  68.814  1.00  0.00    -0.369 C  
HETATM   43  C   UNL     1      -6.703  19.826  69.418  1.00  0.00    -0.382 C  
ENDBRANCH  38  39
ENDBRANCH  36  38
ENDBRANCH  31  34
ENDBRANCH  23  24
ENDBRANCH   6  23
ENDBRANCH   2   3
TORSDOF 9
ENDMDL
MODEL       26
REMARK 921   NORMALIZED FREE ENERGY PREDICTED BY IDOCK:   -6.65 KCAL/MOL
REMARK 922        TOTAL FREE ENERGY PREDICTED BY IDOCK:  -11.91 KCAL/MOL
REMARK 923 INTER-LIGAND FREE ENERGY PREDICTED BY IDOCK:  -10.34 KCAL/MOL
REMARK 924 INTRA-LIGAND FREE ENERGY PREDICTED BY IDOCK:   -1.57 KCAL/MOL
REMARK 927      BINDING AFFINITY PREDICTED BY RF-SCORE:    0.00 PKD
ROOT
HETATM    1  C   UNL     1     -11.625  12.394  65.029  1.00  0.00    -0.345 C  
HETATM    2  O   UNL     1     -11.914  11.990  66.361  1.00  0.00    -0.611 OA 
ENDROOT
BRANCH   2   3
HETATM    3  C   UNL     1     -11.093  11.055  66.936  1.00  0.00    -0.213 A  
HETATM    4  C   UNL     1     -11.122   9.686  66.635  1.00  0.00     0.379 A  
HETATM    5  C   UNL     1     -10.217   8.798  67.239  1.00  0.00    -0.332 A  
HETATM    6  C   UNL     1     -10.146  11.548  67.855  1.00  0.00    -0.202 A  
HETATM    7  C   UNL     1      -9.224   9.295  68.083  1.00  0.00    -0.136 A  
HETATM    8  C   UNL     1      -9.186  10.659  68.372  1.00  0.00    -0.159 A  
BRANCH   5   9
HETATM    9  C   UNL     1     -10.369   7.343  66.980  1.00  0.00    -0.314 C  
HETATM   10  N   UNL     1      -9.439   6.784  66.093  1.00  0.00    -0.375 N  
HETATM   11  H   UNL     1      -8.775   7.417  65.645  1.00  0.00     0.000 HD 
HETATM   12  O   UNL     1     -11.261   6.703  67.512  1.00  0.00    -0.319 OA 
BRANCH  10  13
HETATM   13  S   UNL     1      -9.335   5.169  65.715  1.00  0.00    -0.131 S  
HETATM   14  O   UNL     1      -8.565   5.047  64.493  1.00  0.00    -0.142 OA 
HETATM   15  O   UNL     1     -10.694   4.667  65.773  1.00  0.00    -0.310 OA 
BRANCH  13  16
HETATM   16  C   UNL     1      -8.432   4.427  67.060  1.00  0.00    -0.104 A  
HETATM   17  C   UNL     1      -7.837   5.291  67.993  1.00  0.00    -0.091 A  
HETATM   18  C   UNL     1      -8.877   2.048  66.211  1.00  0.00    -0.123 C  
HETATM   19  C   UNL     1      -7.104   4.775  69.060  1.00  0.00    -0.052 A  
HETATM   20  C   UNL     1      -8.290   3.030  67.183  1.00  0.00    -0.093 A  
HETATM   21  C   UNL     1      -6.962   3.398  69.199  1.00  0.00    -0.045 A  
HETATM   22  C   UNL     1      -7.549   2.534  68.271  1.00  0.00    -0.055 A  
ENDBRANCH  13  16
ENDBRANCH  10  13
ENDBRANCH   5   9
BRANCH   6  23
HETATM   23  C   UNL     1     -10.099  13.004  68.264  1.00  0.00    -0.239 C  
BRANCH  23  24
HETATM   24  C   UNL     1     -11.253  13.324  69.182  1.00  0.00    -0.305 A  
HETATM   25  N   UNL     1     -12.620  14.514  70.498  1.00  0.00    -0.341 NA 
HETATM   26  C   UNL     1     -12.761  13.209  70.918  1.00  0.00    -0.233 A  
HETATM   27  C   UNL     1     -11.923  12.446  70.104  1.00  0.00    -0.376 A  
HETATM   28  C   UNL     1     -11.798  14.579  69.403  1.00  0.00    -0.325 A  
HETATM   29  C   UNL     1     -13.170  15.661  71.185  1.00  0.00    -0.419 C  
HETATM   30  C   UNL     1     -11.861  11.062  70.351  1.00  0.00    -0.460 A  
HETATM   31  C   UNL     1     -12.666  10.444  71.316  1.00  0.00    -0.432 A  
HETATM   32  C   UNL     1     -13.465  11.243  72.132  1.00  0.00    -0.197 A  
HETATM   33  C   UNL     1     -13.516  12.637  71.959  1.00  0.00    -0.516 A  
BRANCH  31  34
HETATM   34  N   UNL     1     -12.714   9.039  71.476  1.00  0.00    -0.328 N  
HETATM   35  H   UNL     1     -13.566   8.566  71.178  1.00  0.00     0.000 HD 
HETATM   36  C   UNL     1     -11.716   8.258  71.997  1.00  0.00    -0.346 C  
HETATM   37  O   UNL     1     -10.646   8.637  72.444  1.00  0.00    -0.331 OA 
BRANCH  36  38
HETATM   38  O   UNL     1     -12.059   6.937  71.948  1.00  0.00    -0.311 OA 
BRANCH  38  39
HETATM   39  C   UNL     1     -10.943   6.075  72.186  1.00  0.00    -0.267 C  
HETATM   40  C   UNL     1     -11.321   4.915  73.104  1.00  0.00    -0.395 C  
HETATM   41  C   UNL     1     -10.220   3.907  72.843  1.00  0.00    -0.229 C  
HETATM   42  C   UNL     1      -9.980   4.000  71.340  1.00  0.00    -0.210 C  
HETATM   43  C   UNL     1     -10.463   5.389  70.910  1.00  0.00    -0.307 C  
ENDBRANCH  38  39
ENDBRANCH  36  38
ENDBRANCH  31  34
ENDBRANCH  23  24
ENDBRANCH   6  23
ENDBRANCH   2   3
TORSDOF 9
ENDMDL
MODEL       27
REMARK 921   NORMALIZED FREE ENERGY PREDICTED BY IDOCK:   -6.64 KCAL/MOL
REMARK 922        TOTAL FREE ENERGY PREDICTED BY IDOCK:  -11.89 KCAL/MOL
REMARK 923 INTER-LIGAND FREE ENERGY PREDICTED BY IDOCK:   -9.93 KCAL/MOL
REMARK 924 INTRA-LIGAND FREE ENERGY PREDICTED BY IDOCK:   -1.97 KCAL/MOL
REMARK 927      BINDING AFFINITY PREDICTED BY RF-SCORE:    0.00 PKD
ROOT
HETATM    1  C   UNL     1     -11.302  11.866  64.654  1.00  0.00    -0.293 C  
HETATM    2  O   UNL     1     -11.461  11.782  66.064  1.00  0.00    -0.322 OA 
ENDROOT
BRANCH   2   3
HETATM    3  C   UNL     1     -10.333  11.859  66.839  1.00  0.00    -0.210 A  
HETATM    4  C   UNL     1      -9.362  10.851  66.924  1.00  0.00    -0.186 A  
HETATM    5  C   UNL     1      -8.212  11.024  67.710  1.00  0.00    -0.117 A  
HETATM    6  C   UNL     1     -10.155  13.061  67.552  1.00  0.00    -0.218 A  
HETATM    7  C   UNL     1      -7.992  12.245  68.348  1.00  0.00    -0.152 A  
HETATM    8  C   UNL     1      -8.951  13.253  68.253  1.00  0.00    -0.176 A  
BRANCH   5   9
HETATM    9  C   UNL     1      -7.276   9.881  67.862  1.00  0.00    -0.087 C  
HETATM   10  N   UNL     1      -7.826   8.612  67.631  1.00  0.00    -0.102 N  
HETATM   11  H   UNL     1      -8.826   8.559  67.442  1.00  0.00     0.000 HD 
HETATM   12  O   UNL     1      -6.112  10.063  68.178  1.00  0.00    -0.049 OA 
BRANCH  10  13
HETATM   13  S   UNL     1      -6.968   7.188  67.642  1.00  0.00    -0.082 S  
HETATM   14  O   UNL     1      -6.581   6.914  69.012  1.00  0.00    -0.044 OA 
HETATM   15  O   UNL     1      -5.958   7.332  66.613  1.00  0.00    -0.033 OA 
BRANCH  13  16
HETATM   16  C   UNL     1      -8.119   5.942  67.093  1.00  0.00    -0.102 A  
HETATM   17  C   UNL     1      -9.353   6.379  66.588  1.00  0.00    -0.175 A  
HETATM   18  C   UNL     1      -6.537   4.025  67.730  1.00  0.00    -0.042 C  
HETATM   19  C   UNL     1     -10.302   5.455  66.156  1.00  0.00    -0.191 A  
HETATM   20  C   UNL     1      -7.825   4.565  67.179  1.00  0.00    -0.097 A  
HETATM   21  C   UNL     1     -10.024   4.094  66.227  1.00  0.00    -0.185 A  
HETATM   22  C   UNL     1      -8.798   3.653  66.732  1.00  0.00    -0.137 A  
ENDBRANCH  13  16
ENDBRANCH  10  13
ENDBRANCH   5   9
BRANCH   6  23
HETATM   23  C   UNL     1     -11.192  14.164  67.548  1.00  0.00    -0.323 C  
BRANCH  23  24
HETATM   24  C   UNL     1     -11.868  14.247  68.894  1.00  0.00    -0.372 A  
HETATM   25  N   UNL     1     -12.515  15.080  70.870  1.00  0.00    -0.317 NA 
HETATM   26  C   UNL     1     -12.586  13.712  71.015  1.00  0.00    -0.363 A  
HETATM   27  C   UNL     1     -12.195  13.170  69.790  1.00  0.00    -0.266 A  
HETATM   28  C   UNL     1     -12.181  15.409  69.581  1.00  0.00    -0.282 A  
HETATM   29  C   UNL     1     -12.661  16.030  71.951  1.00  0.00    -0.377 C  
HETATM   30  C   UNL     1     -12.154  11.767  69.684  1.00  0.00    -0.323 A  
HETATM   31  C   UNL     1     -12.567  10.932  70.729  1.00  0.00    -0.377 A  
HETATM   32  C   UNL     1     -12.918  11.509  71.948  1.00  0.00    -0.453 A  
HETATM   33  C   UNL     1     -12.920  12.904  72.118  1.00  0.00    -0.350 A  
BRANCH  31  34
HETATM   34  N   UNL     1     -12.661   9.528  70.584  1.00  0.00    -0.514 N  
HETATM   35  H   UNL     1     -12.623   9.155  69.636  1.00  0.00     0.000 HD 
HETATM   36  C   UNL     1     -12.800   8.624  71.605  1.00  0.00    -0.345 C  
HETATM   37  O   UNL     1     -12.907   8.873  72.795  1.00  0.00    -0.347 OA 
BRANCH  36  38
HETATM   38  O   UNL     1     -12.793   7.345  71.125  1.00  0.00    -0.326 OA 
BRANCH  38  39
HETATM   39  C   UNL     1     -11.475   6.796  71.059  1.00  0.00    -0.324 C  
HETATM   40  C   UNL     1     -11.327   5.588  71.982  1.00  0.00    -0.181 C  
HETATM   41  C   UNL     1     -10.104   4.888  71.427  1.00  0.00    -0.268 C  
HETATM   42  C   UNL     1     -10.253   5.022  69.915  1.00  0.00    -0.340 C  
HETATM   43  C   UNL     1     -11.152   6.239  69.675  1.00  0.00    -0.479 C  
ENDBRANCH  38  39
ENDBRANCH  36  38
ENDBRANCH  31  34
ENDBRANCH  23  24
ENDBRANCH   6  23
ENDBRANCH   2   3
TORSDOF 9
ENDMDL
MODEL       28
REMARK 921   NORMALIZED FREE ENERGY PREDICTED BY IDOCK:   -6.63 KCAL/MOL
REMARK 922        TOTAL FREE ENERGY PREDICTED BY IDOCK:  -11.88 KCAL/MOL
REMARK 923 INTER-LIGAND FREE ENERGY PREDICTED BY IDOCK:  -11.94 KCAL/MOL
REMARK 924 INTRA-LIGAND FREE ENERGY PREDICTED BY IDOCK:    0.07 KCAL/MOL
REMARK 927      BINDING AFFINITY PREDICTED BY RF-SCORE:    0.00 PKD
ROOT
HETATM    1  C   UNL     1     -13.416  13.809  72.510  1.00  0.00    -0.578 C  
HETATM    2  O   UNL     1     -13.318  13.456  71.137  1.00  0.00    -0.176 OA 
ENDROOT
BRANCH   2   3
HETATM    3  C   UNL     1     -12.579  12.348  70.815  1.00  0.00    -0.211 A  
HETATM    4  C   UNL     1     -12.819  11.063  71.322  1.00  0.00    -0.528 A  
HETATM    5  C   UNL     1     -12.040   9.970  70.910  1.00  0.00    -0.448 A  
HETATM    6  C   UNL     1     -11.543  12.548  69.882  1.00  0.00    -0.242 A  
HETATM    7  C   UNL     1     -11.071  10.149  69.923  1.00  0.00    -0.346 A  
HETATM    8  C   UNL     1     -10.840  11.424  69.408  1.00  0.00    -0.214 A  
BRANCH   5   9
HETATM    9  C   UNL     1     -12.256   8.655  71.568  1.00  0.00    -0.318 C  
HETATM   10  N   UNL     1     -11.145   7.801  71.594  1.00  0.00    -0.234 N  
HETATM   11  H   UNL     1     -10.300   8.110  71.112  1.00  0.00     0.000 HD 
HETATM   12  O   UNL     1     -13.342   8.362  72.037  1.00  0.00    -0.335 OA 
BRANCH  10  13
HETATM   13  S   UNL     1     -11.100   6.322  72.352  1.00  0.00    -0.284 S  
HETATM   14  O   UNL     1     -12.467   5.896  72.574  1.00  0.00    -0.112 OA 
HETATM   15  O   UNL     1     -10.196   6.486  73.474  1.00  0.00    -0.213 OA 
BRANCH  13  16
HETATM   16  C   UNL     1     -10.318   5.220  71.190  1.00  0.00    -0.221 A  
HETATM   17  C   UNL     1     -10.068   5.713  69.899  1.00  0.00    -0.289 A  
HETATM   18  C   UNL     1     -10.241   3.292  72.880  1.00  0.00    -0.235 C  
HETATM   19  C   UNL     1      -9.473   4.897  68.939  1.00  0.00    -0.202 A  
HETATM   20  C   UNL     1      -9.981   3.894  71.530  1.00  0.00    -0.209 A  
HETATM   21  C   UNL     1      -9.127   3.589  69.262  1.00  0.00    -0.200 A  
HETATM   22  C   UNL     1      -9.377   3.092  70.544  1.00  0.00    -0.227 A  
ENDBRANCH  13  16
ENDBRANCH  10  13
ENDBRANCH   5   9
BRANCH   6  23
HETATM   23  C   UNL     1     -11.195  13.918  69.340  1.00  0.00    -0.273 C  
BRANCH  23  24
HETATM   24  C   UNL     1     -11.605  14.023  67.891  1.00  0.00    -0.377 A  
HETATM   25  N   UNL     1     -12.180  13.388  65.822  1.00  0.00    -0.437 NA 
HETATM   26  C   UNL     1     -11.669  14.660  65.680  1.00  0.00    -0.304 A  
HETATM   27  C   UNL     1     -11.311  15.081  66.961  1.00  0.00    -0.319 A  
HETATM   28  C   UNL     1     -12.234  13.039  67.146  1.00  0.00    -0.138 A  
HETATM   29  C   UNL     1     -12.505  12.506  64.723  1.00  0.00    -0.457 C  
HETATM   30  C   UNL     1     -10.729  16.356  67.088  1.00  0.00    -0.233 A  
HETATM   31  C   UNL     1     -10.585  17.217  65.993  1.00  0.00    -0.204 A  
HETATM   32  C   UNL     1     -10.922  16.749  64.724  1.00  0.00    -0.038 A  
HETATM   33  C   UNL     1     -11.455  15.461  64.543  1.00  0.00    -0.314 A  
BRANCH  31  34
HETATM   34  N   UNL     1     -10.131  18.550  66.132  1.00  0.00    -0.385 N  
HETATM   35  H   UNL     1     -10.838  19.268  66.282  1.00  0.00     0.000 HD 
HETATM   36  C   UNL     1      -8.825  18.961  66.083  1.00  0.00    -0.154 C  
HETATM   37  O   UNL     1      -7.845  18.265  65.872  1.00  0.00    -0.491 OA 
BRANCH  36  38
HETATM   38  O   UNL     1      -8.729  20.302  66.320  1.00  0.00    -0.245 OA 
BRANCH  38  39
HETATM   39  C   UNL     1      -8.116  20.591  67.580  1.00  0.00    -0.256 C  
HETATM   40  C   UNL     1      -8.047  19.347  68.463  1.00  0.00    -0.396 C  
HETATM   41  C   UNL     1      -6.982  19.715  69.477  1.00  0.00    -0.314 C  
HETATM   42  C   UNL     1      -5.933  20.463  68.660  1.00  0.00    -0.348 C  
HETATM   43  C   UNL     1      -6.657  21.012  67.426  1.00  0.00    -0.439 C  
ENDBRANCH  38  39
ENDBRANCH  36  38
ENDBRANCH  31  34
ENDBRANCH  23  24
ENDBRANCH   6  23
ENDBRANCH   2   3
TORSDOF 9
ENDMDL
MODEL       29
REMARK 921   NORMALIZED FREE ENERGY PREDICTED BY IDOCK:   -6.58 KCAL/MOL
REMARK 922        TOTAL FREE ENERGY PREDICTED BY IDOCK:  -11.80 KCAL/MOL
REMARK 923 INTER-LIGAND FREE ENERGY PREDICTED BY IDOCK:   -9.59 KCAL/MOL
REMARK 924 INTRA-LIGAND FREE ENERGY PREDICTED BY IDOCK:   -2.20 KCAL/MOL
REMARK 927      BINDING AFFINITY PREDICTED BY RF-SCORE:    0.00 PKD
ROOT
HETATM    1  C   UNL     1      -7.483   8.578  71.342  1.00  0.00    -0.102 C  
HETATM    2  O   UNL     1      -8.397   8.361  72.409  1.00  0.00    -0.169 OA 
ENDROOT
BRANCH   2   3
HETATM    3  C   UNL     1      -9.727   8.579  72.162  1.00  0.00    -0.317 A  
HETATM    4  C   UNL     1     -10.217   9.506  71.231  1.00  0.00    -0.245 A  
HETATM    5  C   UNL     1     -11.597   9.640  71.007  1.00  0.00    -0.436 A  
HETATM    6  C   UNL     1     -10.629   7.772  72.884  1.00  0.00    -0.428 A  
HETATM    7  C   UNL     1     -12.486   8.783  71.657  1.00  0.00    -0.392 A  
HETATM    8  C   UNL     1     -11.999   7.852  72.573  1.00  0.00    -0.349 A  
BRANCH   5   9
HETATM    9  C   UNL     1     -12.069  10.719  70.101  1.00  0.00    -0.346 C  
HETATM   10  N   UNL     1     -11.073  11.569  69.601  1.00  0.00    -0.443 N  
HETATM   11  H   UNL     1     -10.121  11.430  69.939  1.00  0.00     0.000 HD 
HETATM   12  O   UNL     1     -13.253  10.838  69.835  1.00  0.00    -0.017 OA 
BRANCH  10  13
HETATM   13  S   UNL     1     -11.328  12.787  68.499  1.00  0.00    -0.315 S  
HETATM   14  O   UNL     1     -12.028  13.859  69.176  1.00  0.00    -0.329 OA 
HETATM   15  O   UNL     1     -11.920  12.147  67.340  1.00  0.00    -0.563 OA 
BRANCH  13  16
HETATM   16  C   UNL     1      -9.701  13.346  68.030  1.00  0.00    -0.222 A  
HETATM   17  C   UNL     1      -8.610  12.547  68.407  1.00  0.00    -0.123 A  
HETATM   18  C   UNL     1     -10.616  15.468  66.916  1.00  0.00    -0.307 C  
HETATM   19  C   UNL     1      -7.311  12.935  68.084  1.00  0.00    -0.119 A  
HETATM   20  C   UNL     1      -9.500  14.553  67.330  1.00  0.00    -0.218 A  
HETATM   21  C   UNL     1      -7.097  14.120  67.386  1.00  0.00    -0.101 A  
HETATM   22  C   UNL     1      -8.180  14.920  67.011  1.00  0.00    -0.228 A  
ENDBRANCH  13  16
ENDBRANCH  10  13
ENDBRANCH   5   9
BRANCH   6  23
HETATM   23  C   UNL     1     -10.168   6.793  73.943  1.00  0.00    -0.396 C  
BRANCH  23  24
HETATM   24  C   UNL     1     -10.248   5.381  73.417  1.00  0.00    -0.219 A  
HETATM   25  N   UNL     1     -10.200   3.142  73.400  1.00  0.00    -0.121 NA 
HETATM   26  C   UNL     1      -9.928   3.518  72.103  1.00  0.00    -0.164 A  
HETATM   27  C   UNL     1      -9.961   4.913  72.087  1.00  0.00    -0.235 A  
HETATM   28  C   UNL     1     -10.487   4.242  74.168  1.00  0.00    -0.250 A  
HETATM   29  C   UNL     1     -10.089   1.792  73.905  1.00  0.00    -0.091 C  
HETATM   30  C   UNL     1      -9.683   5.556  70.866  1.00  0.00    -0.231 A  
HETATM   31  C   UNL     1      -9.463   4.838  69.684  1.00  0.00    -0.153 A  
HETATM   32  C   UNL     1      -9.403   3.447  69.746  1.00  0.00    -0.238 A  
HETATM   33  C   UNL     1      -9.619   2.764  70.955  1.00  0.00    -0.215 A  
BRANCH  31  34
HETATM   34  N   UNL     1      -9.320   5.474  68.428  1.00  0.00    -0.109 N  
HETATM   35  H   UNL     1     -10.131   5.468  67.810  1.00  0.00     0.000 HD 
HETATM   36  C   UNL     1      -8.189   6.095  67.967  1.00  0.00    -0.114 C  
HETATM   37  O   UNL     1      -7.112   6.171  68.535  1.00  0.00    -0.077 OA 
BRANCH  36  38
HETATM   38  O   UNL     1      -8.411   6.662  66.745  1.00  0.00    -0.113 OA 
BRANCH  38  39
HETATM   39  C   UNL     1      -8.574   8.081  66.824  1.00  0.00    -0.130 C  
HETATM   40  C   UNL     1      -7.873   8.787  65.666  1.00  0.00    -0.097 C  
HETATM   41  C   UNL     1      -8.543  10.146  65.647  1.00  0.00    -0.166 C  
HETATM   42  C   UNL     1     -10.009   9.842  65.937  1.00  0.00    -0.345 C  
HETATM   43  C   UNL     1     -10.034   8.501  66.678  1.00  0.00    -0.363 C  
ENDBRANCH  38  39
ENDBRANCH  36  38
ENDBRANCH  31  34
ENDBRANCH  23  24
ENDBRANCH   6  23
ENDBRANCH   2   3
TORSDOF 9
ENDMDL
MODEL       30
REMARK 921   NORMALIZED FREE ENERGY PREDICTED BY IDOCK:   -6.57 KCAL/MOL
REMARK 922        TOTAL FREE ENERGY PREDICTED BY IDOCK:  -11.79 KCAL/MOL
REMARK 923 INTER-LIGAND FREE ENERGY PREDICTED BY IDOCK:   -9.80 KCAL/MOL
REMARK 924 INTRA-LIGAND FREE ENERGY PREDICTED BY IDOCK:   -1.98 KCAL/MOL
REMARK 927      BINDING AFFINITY PREDICTED BY RF-SCORE:    0.00 PKD
ROOT
HETATM    1  C   UNL     1      -7.099  11.462  69.268  1.00  0.00    -0.100 C  
HETATM    2  O   UNL     1      -8.169  11.571  68.339  1.00  0.00    -0.140 OA 
ENDROOT
BRANCH   2   3
HETATM    3  C   UNL     1      -9.437  11.708  68.841  1.00  0.00     0.028 A  
HETATM    4  C   UNL     1     -10.111  10.715  69.566  1.00  0.00    -0.164 A  
HETATM    5  C   UNL     1     -11.396  10.949  70.082  1.00  0.00    -0.367 A  
HETATM    6  C   UNL     1     -10.054  12.956  68.625  1.00  0.00    -0.136 A  
HETATM    7  C   UNL     1     -11.974  12.211  69.944  1.00  0.00    -0.380 A  
HETATM    8  C   UNL     1     -11.298  13.204  69.235  1.00  0.00    -0.312 A  
BRANCH   5   9
HETATM    9  C   UNL     1     -12.115   9.826  70.737  1.00  0.00    -0.279 C  
HETATM   10  N   UNL     1     -11.389   8.633  70.863  1.00  0.00    -0.268 N  
HETATM   11  H   UNL     1     -10.458   8.601  70.447  1.00  0.00     0.000 HD 
HETATM   12  O   UNL     1     -13.265   9.958  71.120  1.00  0.00    -0.377 OA 
BRANCH  10  13
HETATM   13  S   UNL     1     -11.931   7.267  71.641  1.00  0.00    -0.326 S  
HETATM   14  O   UNL     1     -13.263   6.978  71.152  1.00  0.00    -0.324 OA 
HETATM   15  O   UNL     1     -11.709   7.509  73.054  1.00  0.00    -0.194 OA 
BRANCH  13  16
HETATM   16  C   UNL     1     -10.820   5.967  71.139  1.00  0.00    -0.277 A  
HETATM   17  C   UNL     1     -10.169   5.246  72.152  1.00  0.00    -0.252 A  
HETATM   18  C   UNL     1     -11.216   6.423  68.646  1.00  0.00    -0.338 C  
HETATM   19  C   UNL     1      -9.277   4.226  71.825  1.00  0.00    -0.178 A  
HETATM   20  C   UNL     1     -10.575   5.678  69.781  1.00  0.00    -0.400 A  
HETATM   21  C   UNL     1      -9.031   3.924  70.490  1.00  0.00    -0.160 A  
HETATM   22  C   UNL     1      -9.674   4.641  69.478  1.00  0.00    -0.278 A  
ENDBRANCH  13  16
ENDBRANCH  10  13
ENDBRANCH   5   9
BRANCH   6  23
HETATM   23  C   UNL     1      -9.404  14.048  67.804  1.00  0.00    -0.205 C  
BRANCH  23  24
HETATM   24  C   UNL     1     -10.034  14.114  66.434  1.00  0.00    -0.302 A  
HETATM   25  N   UNL     1     -11.378  14.784  64.773  1.00  0.00    -0.398 NA 
HETATM   26  C   UNL     1     -11.034  13.488  64.457  1.00  0.00    -0.394 A  
HETATM   27  C   UNL     1     -10.188  13.051  65.477  1.00  0.00    -0.296 A  
HETATM   28  C   UNL     1     -10.711  15.197  65.897  1.00  0.00    -0.334 A  
HETATM   29  C   UNL     1     -12.385  15.559  64.081  1.00  0.00     0.066 C  
HETATM   30  C   UNL     1      -9.712  11.728  65.404  1.00  0.00    -0.242 A  
HETATM   31  C   UNL     1      -9.998  10.897  64.315  1.00  0.00    -0.333 A  
HETATM   32  C   UNL     1     -10.874  11.356  63.333  1.00  0.00    -0.375 A  
HETATM   33  C   UNL     1     -11.418  12.650  63.394  1.00  0.00    -0.499 A  
BRANCH  31  34
HETATM   34  N   UNL     1      -9.412   9.617  64.165  1.00  0.00    -0.403 N  
HETATM   35  H   UNL     1     -10.035   8.812  64.224  1.00  0.00     0.000 HD 
HETATM   36  C   UNL     1      -8.083   9.364  63.947  1.00  0.00    -0.154 C  
HETATM   37  O   UNL     1      -7.181  10.183  63.887  1.00  0.00    -0.131 OA 
BRANCH  36  38
HETATM   38  O   UNL     1      -7.866   8.026  63.782  1.00  0.00    -0.132 OA 
BRANCH  38  39
HETATM   39  C   UNL     1      -8.099   7.284  64.982  1.00  0.00    -0.120 C  
HETATM   40  C   UNL     1      -8.390   5.816  64.682  1.00  0.00    -0.102 C  
HETATM   41  C   UNL     1      -8.125   5.142  66.013  1.00  0.00    -0.109 C  
HETATM   42  C   UNL     1      -6.895   5.863  66.556  1.00  0.00    -0.059 C  
HETATM   43  C   UNL     1      -6.865   7.237  65.879  1.00  0.00    -0.057 C  
ENDBRANCH  38  39
ENDBRANCH  36  38
ENDBRANCH  31  34
ENDBRANCH  23  24
ENDBRANCH   6  23
ENDBRANCH   2   3
TORSDOF 9
ENDMDL
MODEL       31
REMARK 921   NORMALIZED FREE ENERGY PREDICTED BY IDOCK:   -6.55 KCAL/MOL
REMARK 922        TOTAL FREE ENERGY PREDICTED BY IDOCK:  -11.76 KCAL/MOL
REMARK 923 INTER-LIGAND FREE ENERGY PREDICTED BY IDOCK:   -9.75 KCAL/MOL
REMARK 924 INTRA-LIGAND FREE ENERGY PREDICTED BY IDOCK:   -2.01 KCAL/MOL
REMARK 927      BINDING AFFINITY PREDICTED BY RF-SCORE:    0.00 PKD
ROOT
HETATM    1  C   UNL     1     -12.663  11.952  71.140  1.00  0.00    -0.284 C  
HETATM    2  O   UNL     1     -12.140  12.893  70.213  1.00  0.00    -0.347 OA 
ENDROOT
BRANCH   2   3
HETATM    3  C   UNL     1     -11.765  12.432  68.978  1.00  0.00    -0.323 A  
HETATM    4  C   UNL     1     -11.437  11.098  68.699  1.00  0.00    -0.363 A  
HETATM    5  C   UNL     1     -11.102  10.697  67.395  1.00  0.00    -0.341 A  
HETATM    6  C   UNL     1     -11.759  13.384  67.940  1.00  0.00    -0.396 A  
HETATM    7  C   UNL     1     -11.179  11.619  66.351  1.00  0.00    -0.349 A  
HETATM    8  C   UNL     1     -11.519  12.943  66.626  1.00  0.00    -0.393 A  
BRANCH   5   9
HETATM    9  C   UNL     1     -10.645   9.301  67.177  1.00  0.00    -0.216 C  
HETATM   10  N   UNL     1     -10.737   8.451  68.288  1.00  0.00    -0.433 N  
HETATM   11  H   UNL     1     -11.045   8.860  69.170  1.00  0.00     0.000 HD 
HETATM   12  O   UNL     1     -10.213   8.947  66.092  1.00  0.00    -0.259 OA 
BRANCH  10  13
HETATM   13  S   UNL     1     -10.382   6.827  68.276  1.00  0.00    -0.203 S  
HETATM   14  O   UNL     1      -8.962   6.685  68.021  1.00  0.00    -0.119 OA 
HETATM   15  O   UNL     1     -11.348   6.223  67.379  1.00  0.00    -0.247 OA 
BRANCH  13  16
HETATM   16  C   UNL     1     -10.747   6.253  69.923  1.00  0.00    -0.294 A  
HETATM   17  C   UNL     1     -11.756   6.923  70.632  1.00  0.00    -0.417 A  
HETATM   18  C   UNL     1      -8.936   4.439  69.826  1.00  0.00    -0.151 C  
HETATM   19  C   UNL     1     -12.080   6.532  71.930  1.00  0.00    -0.388 A  
HETATM   20  C   UNL     1     -10.042   5.184  70.514  1.00  0.00    -0.326 A  
HETATM   21  C   UNL     1     -11.399   5.474  72.524  1.00  0.00    -0.323 A  
HETATM   22  C   UNL     1     -10.391   4.807  71.824  1.00  0.00    -0.230 A  
ENDBRANCH  13  16
ENDBRANCH  10  13
ENDBRANCH   5   9
BRANCH   6  23
HETATM   23  C   UNL     1     -12.049  14.849  68.185  1.00  0.00    -0.120 C  
BRANCH  23  24
HETATM   24  C   UNL     1     -10.776  15.654  68.088  1.00  0.00    -0.287 A  
HETATM   25  N   UNL     1      -9.363  17.280  67.475  1.00  0.00    -0.234 NA 
HETATM   26  C   UNL     1      -8.560  16.212  67.812  1.00  0.00    -0.167 A  
HETATM   27  C   UNL     1      -9.421  15.188  68.207  1.00  0.00    -0.201 A  
HETATM   28  C   UNL     1     -10.679  16.989  67.729  1.00  0.00    -0.318 A  
HETATM   29  C   UNL     1      -8.896  18.492  66.840  1.00  0.00    -0.283 C  
HETATM   30  C   UNL     1      -8.841  13.960  68.578  1.00  0.00    -0.137 A  
HETATM   31  C   UNL     1      -7.454  13.782  68.636  1.00  0.00    -0.116 A  
HETATM   32  C   UNL     1      -6.627  14.817  68.202  1.00  0.00    -0.138 A  
HETATM   33  C   UNL     1      -7.164  16.042  67.769  1.00  0.00    -0.161 A  
BRANCH  31  34
HETATM   34  N   UNL     1      -6.862  12.600  69.140  1.00  0.00    -0.210 N  
HETATM   35  H   UNL     1      -6.473  12.640  70.081  1.00  0.00     0.000 HD 
HETATM   36  C   UNL     1      -6.765  11.406  68.474  1.00  0.00    -0.069 C  
HETATM   37  O   UNL     1      -7.128  11.170  67.334  1.00  0.00    -0.091 OA 
BRANCH  36  38
HETATM   38  O   UNL     1      -6.198  10.452  69.271  1.00  0.00    -0.043 OA 
BRANCH  38  39
HETATM   39  C   UNL     1      -6.982  10.179  70.435  1.00  0.00    -0.111 C  
HETATM   40  C   UNL     1      -8.317   9.534  70.070  1.00  0.00    -0.192 C  
HETATM   41  C   UNL     1      -8.753   8.901  71.375  1.00  0.00    -0.262 C  
HETATM   42  C   UNL     1      -7.463   8.342  71.966  1.00  0.00    -0.135 C  
HETATM   43  C   UNL     1      -6.318   9.151  71.347  1.00  0.00    -0.077 C  
ENDBRANCH  38  39
ENDBRANCH  36  38
ENDBRANCH  31  34
ENDBRANCH  23  24
ENDBRANCH   6  23
ENDBRANCH   2   3
TORSDOF 9
ENDMDL
MODEL       32
REMARK 921   NORMALIZED FREE ENERGY PREDICTED BY IDOCK:   -6.49 KCAL/MOL
REMARK 922        TOTAL FREE ENERGY PREDICTED BY IDOCK:  -11.67 KCAL/MOL
REMARK 923 INTER-LIGAND FREE ENERGY PREDICTED BY IDOCK:   -9.35 KCAL/MOL
REMARK 924 INTRA-LIGAND FREE ENERGY PREDICTED BY IDOCK:   -2.32 KCAL/MOL
REMARK 927      BINDING AFFINITY PREDICTED BY RF-SCORE:    0.00 PKD
ROOT
HETATM    1  C   UNL     1     -11.818  14.958  69.996  1.00  0.00    -0.307 C  
HETATM    2  O   UNL     1     -11.773  16.005  69.036  1.00  0.00    -0.370 OA 
ENDROOT
BRANCH   2   3
HETATM    3  C   UNL     1     -11.108  15.764  67.862  1.00  0.00    -0.326 A  
HETATM    4  C   UNL     1     -11.000  14.503  67.258  1.00  0.00    -0.307 A  
HETATM    5  C   UNL     1     -10.335  14.347  66.031  1.00  0.00    -0.319 A  
HETATM    6  C   UNL     1     -10.541  16.890  67.232  1.00  0.00    -0.270 A  
HETATM    7  C   UNL     1      -9.849  15.472  65.365  1.00  0.00    -0.291 A  
HETATM    8  C   UNL     1      -9.967  16.728  65.958  1.00  0.00    -0.334 A  
BRANCH   5   9
HETATM    9  C   UNL     1     -10.143  12.975  65.496  1.00  0.00    -0.259 C  
HETATM   10  N   UNL     1      -9.741  12.010  66.430  1.00  0.00    -0.219 N  
HETATM   11  H   UNL     1      -9.549  12.325  67.381  1.00  0.00     0.000 HD 
HETATM   12  O   UNL     1     -10.323  12.734  64.314  1.00  0.00    -0.372 OA 
BRANCH  10  13
HETATM   13  S   UNL     1      -9.554  10.390  66.105  1.00  0.00    -0.208 S  
HETATM   14  O   UNL     1      -8.147  10.147  65.861  1.00  0.00    -0.125 OA 
HETATM   15  O   UNL     1     -10.536  10.082  65.083  1.00  0.00    -0.113 OA 
BRANCH  13  16
HETATM   16  C   UNL     1     -10.050   9.550  67.596  1.00  0.00    -0.205 A  
HETATM   17  C   UNL     1     -10.552  10.336  68.645  1.00  0.00    -0.232 A  
HETATM   18  C   UNL     1      -9.375   7.253  66.674  1.00  0.00    -0.215 C  
HETATM   19  C   UNL     1     -10.943   9.742  69.843  1.00  0.00    -0.299 A  
HETATM   20  C   UNL     1      -9.925   8.153  67.742  1.00  0.00    -0.230 A  
HETATM   21  C   UNL     1     -10.834   8.364  69.999  1.00  0.00    -0.225 A  
HETATM   22  C   UNL     1     -10.332   7.577  68.960  1.00  0.00    -0.217 A  
ENDBRANCH  13  16
ENDBRANCH  10  13
ENDBRANCH   5   9
BRANCH   6  23
HETATM   23  C   UNL     1     -10.573  18.268  67.858  1.00  0.00    -0.392 C  
BRANCH  23  24
HETATM   24  C   UNL     1      -9.170  18.798  68.020  1.00  0.00    -0.334 A  
HETATM   25  N   UNL     1      -7.346  20.049  67.667  1.00  0.00    -0.278 NA 
HETATM   26  C   UNL     1      -6.881  18.887  68.245  1.00  0.00    -0.249 A  
HETATM   27  C   UNL     1      -8.004  18.094  68.482  1.00  0.00    -0.312 A  
HETATM   28  C   UNL     1      -8.716  20.044  67.617  1.00  0.00    -0.326 A  
HETATM   29  C   UNL     1      -6.504  21.075  67.093  1.00  0.00    -0.342 C  
HETATM   30  C   UNL     1      -7.793  16.824  69.050  1.00  0.00    -0.201 A  
HETATM   31  C   UNL     1      -6.523  16.390  69.446  1.00  0.00    -0.206 A  
HETATM   32  C   UNL     1      -5.421  17.195  69.161  1.00  0.00    -0.153 A  
HETATM   33  C   UNL     1      -5.578  18.448  68.544  1.00  0.00    -0.180 A  
BRANCH  31  34
HETATM   34  N   UNL     1      -6.320  15.175  70.142  1.00  0.00    -0.152 N  
HETATM   35  H   UNL     1      -6.441  15.194  71.154  1.00  0.00     0.000 HD 
HETATM   36  C   UNL     1      -5.974  13.975  69.577  1.00  0.00    -0.102 C  
HETATM   37  O   UNL     1      -5.744  13.759  68.399  1.00  0.00    -0.085 OA 
BRANCH  36  38
HETATM   38  O   UNL     1      -5.924  12.991  70.523  1.00  0.00    -0.162 OA 
BRANCH  38  39
HETATM   39  C   UNL     1      -5.777  11.690  69.947  1.00  0.00    -0.115 C  
HETATM   40  C   UNL     1      -5.349  10.663  70.993  1.00  0.00    -0.096 C  
HETATM   41  C   UNL     1      -5.715   9.346  70.341  1.00  0.00    -0.038 C  
HETATM   42  C   UNL     1      -7.048   9.629  69.655  1.00  0.00    -0.075 C  
HETATM   43  C   UNL     1      -7.100  11.142  69.418  1.00  0.00    -0.110 C  
ENDBRANCH  38  39
ENDBRANCH  36  38
ENDBRANCH  31  34
ENDBRANCH  23  24
ENDBRANCH   6  23
ENDBRANCH   2   3
TORSDOF 9
ENDMDL
MODEL       33
REMARK 921   NORMALIZED FREE ENERGY PREDICTED BY IDOCK:   -6.48 KCAL/MOL
REMARK 922        TOTAL FREE ENERGY PREDICTED BY IDOCK:  -11.64 KCAL/MOL
REMARK 923 INTER-LIGAND FREE ENERGY PREDICTED BY IDOCK:  -10.78 KCAL/MOL
REMARK 924 INTRA-LIGAND FREE ENERGY PREDICTED BY IDOCK:   -0.86 KCAL/MOL
REMARK 927      BINDING AFFINITY PREDICTED BY RF-SCORE:    0.00 PKD
ROOT
HETATM    1  C   UNL     1     -12.307  14.561  64.348  1.00  0.00    -0.413 C  
HETATM    2  O   UNL     1     -12.672  14.108  65.645  1.00  0.00    -0.514 OA 
ENDROOT
BRANCH   2   3
HETATM    3  C   UNL     1     -11.799  14.351  66.674  1.00  0.00    -0.398 A  
HETATM    4  C   UNL     1     -11.354  15.627  67.047  1.00  0.00    -0.051 A  
HETATM    5  C   UNL     1     -10.490  15.795  68.141  1.00  0.00    -0.263 A  
HETATM    6  C   UNL     1     -11.376  13.222  67.403  1.00  0.00    -0.337 A  
HETATM    7  C   UNL     1     -10.138  14.690  68.916  1.00  0.00    -0.234 A  
HETATM    8  C   UNL     1     -10.592  13.423  68.554  1.00  0.00    -0.264 A  
BRANCH   5   9
HETATM    9  C   UNL     1      -9.952  17.152  68.420  1.00  0.00    -0.310 C  
HETATM   10  N   UNL     1      -8.908  17.573  67.584  1.00  0.00    -0.226 N  
HETATM   11  H   UNL     1      -8.554  16.907  66.899  1.00  0.00     0.000 HD 
HETATM   12  O   UNL     1     -10.402  17.829  69.329  1.00  0.00    -0.318 OA 
BRANCH  10  13
HETATM   13  S   UNL     1      -8.204  19.079  67.628  1.00  0.00    -0.279 S  
HETATM   14  O   UNL     1      -7.517  19.211  68.897  1.00  0.00    -0.335 OA 
HETATM   15  O   UNL     1      -9.254  20.011  67.266  1.00  0.00    -0.332 OA 
BRANCH  13  16
HETATM   16  C   UNL     1      -7.008  19.078  66.306  1.00  0.00    -0.230 A  
HETATM   17  C   UNL     1      -7.051  20.145  65.395  1.00  0.00    -0.290 A  
HETATM   18  C   UNL     1      -5.979  16.857  67.072  1.00  0.00    -0.210 C  
HETATM   19  C   UNL     1      -6.153  20.196  64.330  1.00  0.00    -0.319 A  
HETATM   20  C   UNL     1      -6.067  18.040  66.152  1.00  0.00    -0.250 A  
HETATM   21  C   UNL     1      -5.212  19.184  64.171  1.00  0.00    -0.261 A  
HETATM   22  C   UNL     1      -5.169  18.117  65.072  1.00  0.00    -0.107 A  
ENDBRANCH  13  16
ENDBRANCH  10  13
ENDBRANCH   5   9
BRANCH   6  23
HETATM   23  C   UNL     1     -11.774  11.814  67.017  1.00  0.00    -0.247 C  
BRANCH  23  24
HETATM   24  C   UNL     1     -10.682  11.170  66.199  1.00  0.00    -0.285 A  
HETATM   25  N   UNL     1      -9.428  10.639  64.421  1.00  0.00    -0.244 NA 
HETATM   26  C   UNL     1      -9.267   9.591  65.302  1.00  0.00    -0.247 A  
HETATM   27  C   UNL     1     -10.035   9.905  66.424  1.00  0.00    -0.309 A  
HETATM   28  C   UNL     1     -10.192  11.627  64.987  1.00  0.00    -0.275 A  
HETATM   29  C   UNL     1      -8.953  10.645  63.056  1.00  0.00    -0.251 C  
HETATM   30  C   UNL     1     -10.065   8.967  67.473  1.00  0.00    -0.285 A  
HETATM   31  C   UNL     1      -9.294   7.800  67.446  1.00  0.00    -0.141 A  
HETATM   32  C   UNL     1      -8.567   7.504  66.294  1.00  0.00    -0.153 A  
HETATM   33  C   UNL     1      -8.552   8.384  65.199  1.00  0.00    -0.159 A  
BRANCH  31  34
HETATM   34  N   UNL     1      -9.209   6.921  68.553  1.00  0.00    -0.130 N  
HETATM   35  H   UNL     1      -8.299   6.826  69.001  1.00  0.00     0.000 HD 
HETATM   36  C   UNL     1     -10.242   6.187  69.074  1.00  0.00    -0.191 C  
HETATM   37  O   UNL     1     -11.387   6.132  68.656  1.00  0.00    -0.319 OA 
BRANCH  36  38
HETATM   38  O   UNL     1      -9.835   5.496  70.180  1.00  0.00    -0.172 OA 
BRANCH  38  39
HETATM   39  C   UNL     1     -10.628   5.796  71.332  1.00  0.00    -0.253 C  
HETATM   40  C   UNL     1      -9.876   5.482  72.623  1.00  0.00    -0.185 C  
HETATM   41  C   UNL     1     -10.634   6.287  73.658  1.00  0.00    -0.280 C  
HETATM   42  C   UNL     1     -10.962   7.595  72.944  1.00  0.00    -0.456 C  
HETATM   43  C   UNL     1     -10.939   7.286  71.444  1.00  0.00    -0.256 C  
ENDBRANCH  38  39
ENDBRANCH  36  38
ENDBRANCH  31  34
ENDBRANCH  23  24
ENDBRANCH   6  23
ENDBRANCH   2   3
TORSDOF 9
ENDMDL
MODEL       34
REMARK 921   NORMALIZED FREE ENERGY PREDICTED BY IDOCK:   -6.42 KCAL/MOL
REMARK 922        TOTAL FREE ENERGY PREDICTED BY IDOCK:  -11.56 KCAL/MOL
REMARK 923 INTER-LIGAND FREE ENERGY PREDICTED BY IDOCK:  -11.22 KCAL/MOL
REMARK 924 INTRA-LIGAND FREE ENERGY PREDICTED BY IDOCK:   -0.35 KCAL/MOL
REMARK 927      BINDING AFFINITY PREDICTED BY RF-SCORE:    0.00 PKD
ROOT
HETATM    1  C   UNL     1      -7.897  12.632  68.179  1.00  0.00    -0.145 C  
HETATM    2  O   UNL     1      -8.452  12.309  66.911  1.00  0.00    -0.187 OA 
ENDROOT
BRANCH   2   3
HETATM    3  C   UNL     1      -9.579  12.982  66.518  1.00  0.00    -0.260 A  
HETATM    4  C   UNL     1      -9.611  14.343  66.184  1.00  0.00    -0.309 A  
HETATM    5  C   UNL     1     -10.801  14.950  65.750  1.00  0.00    -0.343 A  
HETATM    6  C   UNL     1     -10.755  12.211  66.419  1.00  0.00    -0.292 A  
HETATM    7  C   UNL     1     -11.944  14.171  65.569  1.00  0.00    -0.394 A  
HETATM    8  C   UNL     1     -11.910  12.814  65.888  1.00  0.00    -0.490 A  
BRANCH   5   9
HETATM    9  C   UNL     1     -10.809  16.419  65.526  1.00  0.00    -0.215 C  
HETATM   10  N   UNL     1     -10.467  17.203  66.636  1.00  0.00    -0.294 N  
HETATM   11  H   UNL     1     -10.303  16.723  67.521  1.00  0.00     0.000 HD 
HETATM   12  O   UNL     1     -11.108  16.883  64.439  1.00  0.00    -1.128 OA 
BRANCH  10  13
HETATM   13  S   UNL     1     -10.309  18.858  66.619  1.00  0.00    -0.442 S  
HETATM   14  O   UNL     1     -11.143  19.394  67.676  1.00  0.00    -0.370 OA 
HETATM   15  O   UNL     1     -10.531  19.257  65.243  1.00  0.00    -0.342 OA 
BRANCH  13  16
HETATM   16  C   UNL     1      -8.597  19.172  67.000  1.00  0.00    -0.290 A  
HETATM   17  C   UNL     1      -7.967  20.227  66.321  1.00  0.00    -0.211 A  
HETATM   18  C   UNL     1      -8.482  17.227  68.667  1.00  0.00    -0.260 C  
HETATM   19  C   UNL     1      -6.625  20.515  66.563  1.00  0.00    -0.295 A  
HETATM   20  C   UNL     1      -7.881  18.384  67.925  1.00  0.00    -0.267 A  
HETATM   21  C   UNL     1      -5.908  19.752  67.479  1.00  0.00    -0.196 A  
HETATM   22  C   UNL     1      -6.530  18.698  68.154  1.00  0.00    -0.220 A  
ENDBRANCH  13  16
ENDBRANCH  10  13
ENDBRANCH   5   9
BRANCH   6  23
HETATM   23  C   UNL     1     -10.801  10.752  66.817  1.00  0.00    -0.256 C  
BRANCH  23  24
HETATM   24  C   UNL     1     -11.283  10.616  68.241  1.00  0.00    -0.362 A  
HETATM   25  N   UNL     1     -12.053  11.204  70.260  1.00  0.00    -0.347 NA 
HETATM   26  C   UNL     1     -11.409  10.002  70.456  1.00  0.00    -0.335 A  
HETATM   27  C   UNL     1     -10.927   9.611  69.206  1.00  0.00    -0.194 A  
HETATM   28  C   UNL     1     -12.066  11.530  68.928  1.00  0.00    -0.206 A  
HETATM   29  C   UNL     1     -12.545  12.055  71.321  1.00  0.00    -0.252 C  
HETATM   30  C   UNL     1     -10.195   8.411  69.138  1.00  0.00    -0.217 A  
HETATM   31  C   UNL     1     -10.020   7.585  70.255  1.00  0.00    -0.192 A  
HETATM   32  C   UNL     1     -10.485   8.026  71.493  1.00  0.00    -0.265 A  
HETATM   33  C   UNL     1     -11.173   9.245  71.618  1.00  0.00    -0.449 A  
BRANCH  31  34
HETATM   34  N   UNL     1      -9.407   6.313  70.168  1.00  0.00    -0.156 N  
HETATM   35  H   UNL     1     -10.016   5.498  70.240  1.00  0.00     0.000 HD 
HETATM   36  C   UNL     1      -8.068   6.078  69.996  1.00  0.00    -0.114 C  
HETATM   37  O   UNL     1      -7.180   6.912  69.931  1.00  0.00    -0.072 OA 
BRANCH  36  38
HETATM   38  O   UNL     1      -7.821   4.739  69.887  1.00  0.00    -0.061 OA 
BRANCH  38  39
HETATM   39  C   UNL     1      -8.750   4.083  69.020  1.00  0.00    -0.092 C  
HETATM   40  C   UNL     1      -8.070   3.587  67.747  1.00  0.00    -0.081 C  
HETATM   41  C   UNL     1      -9.043   2.547  67.229  1.00  0.00    -0.187 C  
HETATM   42  C   UNL     1      -9.529   1.834  68.487  1.00  0.00    -0.231 C  
HETATM   43  C   UNL     1      -9.323   2.814  69.646  1.00  0.00    -0.198 C  
ENDBRANCH  38  39
ENDBRANCH  36  38
ENDBRANCH  31  34
ENDBRANCH  23  24
ENDBRANCH   6  23
ENDBRANCH   2   3
TORSDOF 9
ENDMDL
MODEL       35
REMARK 921   NORMALIZED FREE ENERGY PREDICTED BY IDOCK:   -6.41 KCAL/MOL
REMARK 922        TOTAL FREE ENERGY PREDICTED BY IDOCK:  -11.54 KCAL/MOL
REMARK 923 INTER-LIGAND FREE ENERGY PREDICTED BY IDOCK:  -10.44 KCAL/MOL
REMARK 924 INTRA-LIGAND FREE ENERGY PREDICTED BY IDOCK:   -1.09 KCAL/MOL
REMARK 927      BINDING AFFINITY PREDICTED BY RF-SCORE:    0.00 PKD
ROOT
HETATM    1  C   UNL     1     -14.021   8.645  71.969  1.00  0.00    -0.446 C  
HETATM    2  O   UNL     1     -12.705   8.527  72.493  1.00  0.00    -0.362 OA 
ENDROOT
BRANCH   2   3
HETATM    3  C   UNL     1     -11.660   8.864  71.673  1.00  0.00    -0.338 A  
HETATM    4  C   UNL     1     -11.793   9.588  70.480  1.00  0.00    -0.246 A  
HETATM    5  C   UNL     1     -10.665   9.929  69.716  1.00  0.00    -0.298 A  
HETATM    6  C   UNL     1     -10.380   8.472  72.113  1.00  0.00    -0.409 A  
HETATM    7  C   UNL     1      -9.392   9.617  70.193  1.00  0.00    -0.294 A  
HETATM    8  C   UNL     1      -9.258   8.909  71.386  1.00  0.00    -0.328 A  
BRANCH   5   9
HETATM    9  C   UNL     1     -10.870  10.590  68.402  1.00  0.00    -0.240 C  
HETATM   10  N   UNL     1     -10.769  11.988  68.403  1.00  0.00    -0.220 N  
HETATM   11  H   UNL     1     -10.628  12.450  69.301  1.00  0.00     0.000 HD 
HETATM   12  O   UNL     1     -11.119   9.933  67.404  1.00  0.00    -0.234 OA 
BRANCH  10  13
HETATM   13  S   UNL     1     -10.860  12.950  67.050  1.00  0.00    -0.265 S  
HETATM   14  O   UNL     1     -12.171  12.763  66.461  1.00  0.00    -0.494 OA 
HETATM   15  O   UNL     1      -9.667  12.656  66.281  1.00  0.00    -0.253 OA 
BRANCH  13  16
HETATM   16  C   UNL     1     -10.715  14.622  67.649  1.00  0.00    -0.271 A  
HETATM   17  C   UNL     1     -10.774  14.818  69.038  1.00  0.00    -0.251 A  
HETATM   18  C   UNL     1     -10.525  15.587  65.280  1.00  0.00    -0.437 C  
HETATM   19  C   UNL     1     -10.681  16.102  69.571  1.00  0.00    -0.313 A  
HETATM   20  C   UNL     1     -10.571  15.718  66.775  1.00  0.00    -0.309 A  
HETATM   21  C   UNL     1     -10.530  17.194  68.721  1.00  0.00    -0.351 A  
HETATM   22  C   UNL     1     -10.475  17.004  67.338  1.00  0.00    -0.322 A  
ENDBRANCH  13  16
ENDBRANCH  10  13
ENDBRANCH   5   9
BRANCH   6  23
HETATM   23  C   UNL     1     -10.174   7.641  73.361  1.00  0.00    -0.375 C  
BRANCH  23  24
HETATM   24  C   UNL     1     -10.342   6.175  73.044  1.00  0.00    -0.223 A  
HETATM   25  N   UNL     1     -10.485   3.963  73.360  1.00  0.00    -0.161 NA 
HETATM   26  C   UNL     1     -10.104   4.115  72.045  1.00  0.00    -0.164 A  
HETATM   27  C   UNL     1     -10.017   5.489  71.822  1.00  0.00    -0.228 A  
HETATM   28  C   UNL     1     -10.722   5.185  73.935  1.00  0.00    -0.290 A  
HETATM   29  C   UNL     1     -10.520   2.700  74.065  1.00  0.00    -0.156 C  
HETATM   30  C   UNL     1      -9.611   5.915  70.543  1.00  0.00    -0.208 A  
HETATM   31  C   UNL     1      -9.382   5.011  69.499  1.00  0.00    -0.128 A  
HETATM   32  C   UNL     1      -9.445   3.645  69.769  1.00  0.00    -0.254 A  
HETATM   33  C   UNL     1      -9.792   3.173  71.046  1.00  0.00    -0.097 A  
BRANCH  31  34
HETATM   34  N   UNL     1      -9.110   5.435  68.176  1.00  0.00    -0.108 N  
HETATM   35  H   UNL     1      -8.197   5.195  67.790  1.00  0.00     0.000 HD 
HETATM   36  C   UNL     1      -9.964   6.139  67.368  1.00  0.00    -0.141 C  
HETATM   37  O   UNL     1     -11.073   6.554  67.659  1.00  0.00    -0.325 OA 
BRANCH  36  38
HETATM   38  O   UNL     1      -9.416   6.328  66.132  1.00  0.00    -0.144 OA 
BRANCH  38  39
HETATM   39  C   UNL     1      -8.990   5.102  65.532  1.00  0.00    -0.155 C  
HETATM   40  C   UNL     1     -10.182   4.244  65.113  1.00  0.00    -0.228 C  
HETATM   41  C   UNL     1      -9.570   3.287  64.109  1.00  0.00    -0.144 C  
HETATM   42  C   UNL     1      -8.591   4.151  63.321  1.00  0.00    -0.104 C  
HETATM   43  C   UNL     1      -8.230   5.332  64.228  1.00  0.00    -0.132 C  
ENDBRANCH  38  39
ENDBRANCH  36  38
ENDBRANCH  31  34
ENDBRANCH  23  24
ENDBRANCH   6  23
ENDBRANCH   2   3
TORSDOF 9
ENDMDL
MODEL       36
REMARK 921   NORMALIZED FREE ENERGY PREDICTED BY IDOCK:   -6.36 KCAL/MOL
REMARK 922        TOTAL FREE ENERGY PREDICTED BY IDOCK:  -11.46 KCAL/MOL
REMARK 923 INTER-LIGAND FREE ENERGY PREDICTED BY IDOCK:  -10.78 KCAL/MOL
REMARK 924 INTRA-LIGAND FREE ENERGY PREDICTED BY IDOCK:   -0.68 KCAL/MOL
REMARK 927      BINDING AFFINITY PREDICTED BY RF-SCORE:    0.00 PKD
ROOT
HETATM    1  C   UNL     1     -12.680  10.931  71.353  1.00  0.00    -0.434 C  
HETATM    2  O   UNL     1     -11.796  11.512  70.403  1.00  0.00    -0.346 OA 
ENDROOT
BRANCH   2   3
HETATM    3  C   UNL     1     -11.085  10.666  69.593  1.00  0.00    -0.284 A  
HETATM    4  C   UNL     1     -11.115   9.267  69.690  1.00  0.00    -0.134 A  
HETATM    5  C   UNL     1     -10.387   8.468  68.794  1.00  0.00    -0.233 A  
HETATM    6  C   UNL     1     -10.314  11.279  68.586  1.00  0.00    -0.217 A  
HETATM    7  C   UNL     1      -9.692   9.070  67.744  1.00  0.00    -0.190 A  
HETATM    8  C   UNL     1      -9.672  10.460  67.639  1.00  0.00    -0.191 A  
BRANCH   5   9
HETATM    9  C   UNL     1     -10.356   7.000  69.015  1.00  0.00    -0.200 C  
HETATM   10  N   UNL     1      -9.109   6.466  69.370  1.00  0.00    -0.140 N  
HETATM   11  H   UNL     1      -8.312   7.101  69.388  1.00  0.00     0.000 HD 
HETATM   12  O   UNL     1     -11.363   6.326  68.879  1.00  0.00    -0.373 OA 
BRANCH  10  13
HETATM   13  S   UNL     1      -8.833   4.874  69.764  1.00  0.00    -0.100 S  
HETATM   14  O   UNL     1      -7.410   4.713  69.984  1.00  0.00    -0.052 OA 
HETATM   15  O   UNL     1      -9.506   4.097  68.741  1.00  0.00    -0.151 OA 
BRANCH  13  16
HETATM   16  C   UNL     1      -9.703   4.611  71.297  1.00  0.00    -0.182 A  
HETATM   17  C   UNL     1     -10.119   5.748  72.008  1.00  0.00    -0.225 A  
HETATM   18  C   UNL     1      -9.514   2.060  71.110  1.00  0.00    -0.209 C  
HETATM   19  C   UNL     1     -10.791   5.611  73.221  1.00  0.00    -0.321 A  
HETATM   20  C   UNL     1      -9.950   3.318  71.802  1.00  0.00    -0.192 A  
HETATM   21  C   UNL     1     -11.049   4.341  73.729  1.00  0.00    -0.314 A  
HETATM   22  C   UNL     1     -10.634   3.206  73.026  1.00  0.00    -0.242 A  
ENDBRANCH  13  16
ENDBRANCH  10  13
ENDBRANCH   5   9
BRANCH   6  23
HETATM   23  C   UNL     1     -10.193  12.783  68.463  1.00  0.00    -0.206 C  
BRANCH  23  24
HETATM   24  C   UNL     1     -11.003  13.275  67.289  1.00  0.00    -0.284 A  
HETATM   25  N   UNL     1     -12.248  13.220  65.428  1.00  0.00    -0.428 NA 
HETATM   26  C   UNL     1     -11.650  14.461  65.424  1.00  0.00    -0.347 A  
HETATM   27  C   UNL     1     -10.874  14.522  66.582  1.00  0.00    -0.311 A  
HETATM   28  C   UNL     1     -11.945  12.545  66.582  1.00  0.00    -0.281 A  
HETATM   29  C   UNL     1     -12.997  12.665  64.322  1.00  0.00    -0.110 C  
HETATM   30  C   UNL     1     -10.126  15.694  66.802  1.00  0.00    -0.277 A  
HETATM   31  C   UNL     1     -10.212  16.799  65.948  1.00  0.00    -0.328 A  
HETATM   32  C   UNL     1     -10.970  16.688  64.783  1.00  0.00    -0.123 A  
HETATM   33  C   UNL     1     -11.689  15.516  64.494  1.00  0.00    -0.253 A  
BRANCH  31  34
HETATM   34  N   UNL     1      -9.574  18.030  66.234  1.00  0.00    -0.272 N  
HETATM   35  H   UNL     1      -8.650  18.179  65.831  1.00  0.00     0.000 HD 
HETATM   36  C   UNL     1     -10.089  19.039  67.005  1.00  0.00    -0.364 C  
HETATM   37  O   UNL     1     -11.152  19.034  67.604  1.00  0.00    -0.340 OA 
BRANCH  36  38
HETATM   38  O   UNL     1      -9.246  20.113  67.024  1.00  0.00    -0.345 OA 
BRANCH  38  39
HETATM   39  C   UNL     1      -7.921  19.758  67.427  1.00  0.00    -0.283 C  
HETATM   40  C   UNL     1      -6.948  20.919  67.229  1.00  0.00    -0.436 C  
HETATM   41  C   UNL     1      -5.787  20.541  68.125  1.00  0.00    -0.309 C  
HETATM   42  C   UNL     1      -6.451  19.948  69.364  1.00  0.00    -0.382 C  
HETATM   43  C   UNL     1      -7.834  19.461  68.921  1.00  0.00    -0.370 C  
ENDBRANCH  38  39
ENDBRANCH  36  38
ENDBRANCH  31  34
ENDBRANCH  23  24
ENDBRANCH   6  23
ENDBRANCH   2   3
TORSDOF 9
ENDMDL
MODEL       37
REMARK 921   NORMALIZED FREE ENERGY PREDICTED BY IDOCK:   -6.33 KCAL/MOL
REMARK 922        TOTAL FREE ENERGY PREDICTED BY IDOCK:  -11.43 KCAL/MOL
REMARK 923 INTER-LIGAND FREE ENERGY PREDICTED BY IDOCK:   -9.94 KCAL/MOL
REMARK 924 INTRA-LIGAND FREE ENERGY PREDICTED BY IDOCK:   -1.49 KCAL/MOL
REMARK 927      BINDING AFFINITY PREDICTED BY RF-SCORE:    0.00 PKD
ROOT
HETATM    1  C   UNL     1      -7.294  10.432  66.329  1.00  0.00    -0.128 C  
HETATM    2  O   UNL     1      -6.025  10.679  66.920  1.00  0.00    -0.055 OA 
ENDROOT
BRANCH   2   3
HETATM    3  C   UNL     1      -5.922  11.733  67.790  1.00  0.00    -0.057 A  
HETATM    4  C   UNL     1      -5.997  13.081  67.410  1.00  0.00    -0.047 A  
HETATM    5  C   UNL     1      -5.922  14.104  68.370  1.00  0.00    -0.103 A  
HETATM    6  C   UNL     1      -5.768  11.398  69.149  1.00  0.00    -0.045 A  
HETATM    7  C   UNL     1      -5.857  13.773  69.724  1.00  0.00    -0.115 A  
HETATM    8  C   UNL     1      -5.796  12.433  70.103  1.00  0.00    -0.163 A  
BRANCH   5   9
HETATM    9  C   UNL     1      -5.885  15.514  67.904  1.00  0.00    -0.146 C  
HETATM   10  N   UNL     1      -6.556  16.439  68.716  1.00  0.00    -0.145 N  
HETATM   11  H   UNL     1      -7.069  16.076  69.520  1.00  0.00     0.000 HD 
HETATM   12  O   UNL     1      -5.307  15.817  66.874  1.00  0.00    -0.254 OA 
BRANCH  10  13
HETATM   13  S   UNL     1      -6.580  18.082  68.467  1.00  0.00    -0.225 S  
HETATM   14  O   UNL     1      -5.482  18.412  67.580  1.00  0.00    -0.153 OA 
HETATM   15  O   UNL     1      -6.654  18.676  69.788  1.00  0.00    -0.182 OA 
BRANCH  13  16
HETATM   16  C   UNL     1      -8.125  18.412  67.643  1.00  0.00    -0.249 A  
HETATM   17  C   UNL     1      -9.006  17.334  67.466  1.00  0.00    -0.222 A  
HETATM   18  C   UNL     1      -7.552  20.887  67.291  1.00  0.00    -0.312 C  
HETATM   19  C   UNL     1     -10.225  17.522  66.816  1.00  0.00    -0.327 A  
HETATM   20  C   UNL     1      -8.454  19.695  67.159  1.00  0.00    -0.345 A  
HETATM   21  C   UNL     1     -10.567  18.784  66.341  1.00  0.00    -0.429 A  
HETATM   22  C   UNL     1      -9.692  19.860  66.511  1.00  0.00    -0.547 A  
ENDBRANCH  13  16
ENDBRANCH  10  13
ENDBRANCH   5   9
BRANCH   6  23
HETATM   23  C   UNL     1      -5.624   9.966  69.618  1.00  0.00    -0.037 C  
BRANCH  23  24
HETATM   24  C   UNL     1      -6.734   9.620  70.580  1.00  0.00    -0.116 A  
HETATM   25  N   UNL     1      -7.789   8.664  72.309  1.00  0.00    -0.338 NA 
HETATM   26  C   UNL     1      -8.785   8.991  71.414  1.00  0.00    -0.128 A  
HETATM   27  C   UNL     1      -8.150   9.597  70.330  1.00  0.00    -0.206 A  
HETATM   28  C   UNL     1      -6.576   9.121  71.863  1.00  0.00     0.090 A  
HETATM   29  C   UNL     1      -7.981   7.856  73.493  1.00  0.00    -0.175 C  
HETATM   30  C   UNL     1      -8.955  10.004  69.249  1.00  0.00    -0.186 A  
HETATM   31  C   UNL     1     -10.350   9.890  69.281  1.00  0.00    -0.219 A  
HETATM   32  C   UNL     1     -10.946   9.248  70.365  1.00  0.00    -0.302 A  
HETATM   33  C   UNL     1     -10.176   8.776  71.441  1.00  0.00    -0.350 A  
BRANCH  31  34
HETATM   34  N   UNL     1     -11.177  10.422  68.263  1.00  0.00    -0.408 N  
HETATM   35  H   UNL     1     -11.690   9.756  67.686  1.00  0.00     0.000 HD 
HETATM   36  C   UNL     1     -11.349  11.752  67.982  1.00  0.00    -0.288 C  
HETATM   37  O   UNL     1     -10.795  12.693  68.526  1.00  0.00    -0.235 OA 
BRANCH  36  38
HETATM   38  O   UNL     1     -12.265  11.923  66.983  1.00  0.00    -0.492 OA 
BRANCH  38  39
HETATM   39  C   UNL     1     -11.715  12.601  65.851  1.00  0.00    -0.420 C  
HETATM   40  C   UNL     1     -10.579  11.801  65.219  1.00  0.00    -0.327 C  
HETATM   41  C   UNL     1     -10.476  12.402  63.832  1.00  0.00    -0.469 C  
HETATM   42  C   UNL     1     -11.926  12.640  63.422  1.00  0.00    -0.613 C  
HETATM   43  C   UNL     1     -12.730  12.749  64.721  1.00  0.00    -0.469 C  
ENDBRANCH  38  39
ENDBRANCH  36  38
ENDBRANCH  31  34
ENDBRANCH  23  24
ENDBRANCH   6  23
ENDBRANCH   2   3
TORSDOF 9
ENDMDL
MODEL       38
REMARK 921   NORMALIZED FREE ENERGY PREDICTED BY IDOCK:   -6.32 KCAL/MOL
REMARK 922        TOTAL FREE ENERGY PREDICTED BY IDOCK:  -11.40 KCAL/MOL
REMARK 923 INTER-LIGAND FREE ENERGY PREDICTED BY IDOCK:  -10.33 KCAL/MOL
REMARK 924 INTRA-LIGAND FREE ENERGY PREDICTED BY IDOCK:   -1.08 KCAL/MOL
REMARK 927      BINDING AFFINITY PREDICTED BY RF-SCORE:    0.00 PKD
ROOT
HETATM    1  C   UNL     1      -6.615   8.845  69.897  1.00  0.00    -0.042 C  
HETATM    2  O   UNL     1      -7.307   8.826  68.655  1.00  0.00    -0.078 OA 
ENDROOT
BRANCH   2   3
HETATM    3  C   UNL     1      -7.801  10.013  68.182  1.00  0.00    -0.089 A  
HETATM    4  C   UNL     1      -7.057  11.199  68.092  1.00  0.00    -0.071 A  
HETATM    5  C   UNL     1      -7.626  12.366  67.557  1.00  0.00    -0.155 A  
HETATM    6  C   UNL     1      -9.135   9.991  67.732  1.00  0.00    -0.137 A  
HETATM    7  C   UNL     1      -8.917  12.323  67.031  1.00  0.00    -0.204 A  
HETATM    8  C   UNL     1      -9.653  11.141  67.108  1.00  0.00    -0.192 A  
BRANCH   5   9
HETATM    9  C   UNL     1      -6.836  13.624  67.596  1.00  0.00    -0.174 C  
HETATM   10  N   UNL     1      -7.584  14.807  67.659  1.00  0.00    -0.158 N  
HETATM   11  H   UNL     1      -8.600  14.727  67.609  1.00  0.00     0.000 HD 
HETATM   12  O   UNL     1      -5.617  13.598  67.564  1.00  0.00    -0.330 OA 
BRANCH  10  13
HETATM   13  S   UNL     1      -6.941  16.333  67.809  1.00  0.00    -0.149 S  
HETATM   14  O   UNL     1      -6.106  16.578  66.650  1.00  0.00    -0.307 OA 
HETATM   15  O   UNL     1      -6.372  16.387  69.142  1.00  0.00    -0.153 OA 
BRANCH  13  16
HETATM   16  C   UNL     1      -8.338  17.439  67.776  1.00  0.00    -0.218 A  
HETATM   17  C   UNL     1      -9.505  16.987  67.141  1.00  0.00    -0.245 A  
HETATM   18  C   UNL     1      -7.059  19.289  69.011  1.00  0.00    -0.391 C  
HETATM   19  C   UNL     1     -10.628  17.809  67.068  1.00  0.00    -0.266 A  
HETATM   20  C   UNL     1      -8.280  18.730  68.339  1.00  0.00    -0.372 A  
HETATM   21  C   UNL     1     -10.590  19.083  67.626  1.00  0.00    -0.526 A  
HETATM   22  C   UNL     1      -9.428  19.539  68.256  1.00  0.00    -0.442 A  
ENDBRANCH  13  16
ENDBRANCH  10  13
ENDBRANCH   5   9
BRANCH   6  23
HETATM   23  C   UNL     1     -10.009   8.761  67.853  1.00  0.00    -0.231 C  
BRANCH  23  24
HETATM   24  C   UNL     1     -10.397   8.539  69.294  1.00  0.00    -0.227 A  
HETATM   25  N   UNL     1     -10.840   7.459  71.206  1.00  0.00    -0.237 NA 
HETATM   26  C   UNL     1     -11.542   8.642  71.289  1.00  0.00    -0.284 A  
HETATM   27  C   UNL     1     -11.275   9.337  70.109  1.00  0.00    -0.237 A  
HETATM   28  C   UNL     1     -10.080   7.433  70.065  1.00  0.00    -0.191 A  
HETATM   29  C   UNL     1     -10.973   6.357  72.133  1.00  0.00    -0.251 C  
HETATM   30  C   UNL     1     -11.906  10.582  69.932  1.00  0.00    -0.358 A  
HETATM   31  C   UNL     1     -12.707  11.156  70.926  1.00  0.00    -0.344 A  
HETATM   32  C   UNL     1     -12.979  10.416  72.076  1.00  0.00    -0.499 A  
HETATM   33  C   UNL     1     -12.416   9.144  72.271  1.00  0.00    -0.403 A  
BRANCH  31  34
HETATM   34  N   UNL     1     -13.231  12.465  70.815  1.00  0.00     0.276 N  
HETATM   35  H   UNL     1     -13.472  12.791  69.879  1.00  0.00     0.000 HD 
HETATM   36  C   UNL     1     -13.443  13.335  71.853  1.00  0.00    -0.438 C  
HETATM   37  O   UNL     1     -13.181  13.149  73.030  1.00  0.00    -0.322 OA 
BRANCH  36  38
HETATM   38  O   UNL     1     -14.021  14.489  71.407  1.00  0.00    -0.388 OA 
BRANCH  38  39
HETATM   39  C   UNL     1     -13.071  15.384  70.822  1.00  0.00    -0.424 C  
HETATM   40  C   UNL     1     -12.099  15.926  71.868  1.00  0.00    -0.578 C  
HETATM   41  C   UNL     1     -10.940  16.420  71.025  1.00  0.00     0.157 C  
HETATM   42  C   UNL     1     -10.800  15.366  69.932  1.00  0.00    -0.305 C  
HETATM   43  C   UNL     1     -12.167  14.683  69.812  1.00  0.00    -0.347 C  
ENDBRANCH  38  39
ENDBRANCH  36  38
ENDBRANCH  31  34
ENDBRANCH  23  24
ENDBRANCH   6  23
ENDBRANCH   2   3
TORSDOF 9
ENDMDL
MODEL       39
REMARK 921   NORMALIZED FREE ENERGY PREDICTED BY IDOCK:   -6.30 KCAL/MOL
REMARK 922        TOTAL FREE ENERGY PREDICTED BY IDOCK:  -11.38 KCAL/MOL
REMARK 923 INTER-LIGAND FREE ENERGY PREDICTED BY IDOCK:   -9.77 KCAL/MOL
REMARK 924 INTRA-LIGAND FREE ENERGY PREDICTED BY IDOCK:   -1.61 KCAL/MOL
REMARK 927      BINDING AFFINITY PREDICTED BY RF-SCORE:    0.00 PKD
ROOT
HETATM    1  C   UNL     1     -10.907   9.913  67.504  1.00  0.00    -0.243 C  
HETATM    2  O   UNL     1     -10.742   9.169  68.704  1.00  0.00    -0.197 OA 
ENDROOT
BRANCH   2   3
HETATM    3  C   UNL     1     -11.459   9.565  69.803  1.00  0.00    -0.010 A  
HETATM    4  C   UNL     1     -11.798  10.895  70.088  1.00  0.00    -0.438 A  
HETATM    5  C   UNL     1     -12.572  11.214  71.216  1.00  0.00    -0.503 A  
HETATM    6  C   UNL     1     -11.897   8.534  70.658  1.00  0.00    -0.111 A  
HETATM    7  C   UNL     1     -13.078  10.189  72.015  1.00  0.00    -0.538 A  
HETATM    8  C   UNL     1     -12.752   8.865  71.725  1.00  0.00    -0.421 A  
BRANCH   5   9
HETATM    9  C   UNL     1     -12.800  12.646  71.538  1.00  0.00    -0.268 C  
HETATM   10  N   UNL     1     -12.062  13.565  70.779  1.00  0.00    -0.482 N  
HETATM   11  H   UNL     1     -11.384  13.190  70.115  1.00  0.00     0.000 HD 
HETATM   12  O   UNL     1     -13.579  12.972  72.419  1.00  0.00    -0.578 OA 
BRANCH  10  13
HETATM   13  S   UNL     1     -12.208  15.218  70.880  1.00  0.00    -0.395 S  
HETATM   14  O   UNL     1     -11.538  15.649  72.090  1.00  0.00    -0.410 OA 
HETATM   15  O   UNL     1     -13.618  15.497  70.687  1.00  0.00    -0.424 OA 
BRANCH  13  16
HETATM   16  C   UNL     1     -11.336  15.855  69.462  1.00  0.00    -0.335 A  
HETATM   17  C   UNL     1     -10.644  17.066  69.619  1.00  0.00    -0.087 A  
HETATM   18  C   UNL     1     -12.089  13.910  67.969  1.00  0.00    -0.318 C  
HETATM   19  C   UNL     1      -9.954  17.625  68.545  1.00  0.00    -0.368 A  
HETATM   20  C   UNL     1     -11.352  15.193  68.217  1.00  0.00    -0.338 A  
HETATM   21  C   UNL     1      -9.953  16.980  67.313  1.00  0.00    -0.275 A  
HETATM   22  C   UNL     1     -10.644  15.776  67.150  1.00  0.00    -0.313 A  
ENDBRANCH  13  16
ENDBRANCH  10  13
ENDBRANCH   5   9
BRANCH   6  23
HETATM   23  C   UNL     1     -11.517   7.086  70.438  1.00  0.00    -0.355 C  
BRANCH  23  24
HETATM   24  C   UNL     1     -10.371   6.705  71.342  1.00  0.00    -0.225 A  
HETATM   25  N   UNL     1      -9.276   5.809  73.078  1.00  0.00    -0.140 NA 
HETATM   26  C   UNL     1      -8.474   6.841  72.640  1.00  0.00    -0.121 A  
HETATM   27  C   UNL     1      -9.134   7.410  71.551  1.00  0.00    -0.148 A  
HETATM   28  C   UNL     1     -10.360   5.660  72.252  1.00  0.00    -0.206 A  
HETATM   29  C   UNL     1      -9.062   5.064  74.299  1.00  0.00    -0.114 C  
HETATM   30  C   UNL     1      -8.528   8.520  70.932  1.00  0.00    -0.176 A  
HETATM   31  C   UNL     1      -7.272   8.994  71.326  1.00  0.00    -0.074 A  
HETATM   32  C   UNL     1      -6.659   8.422  72.440  1.00  0.00    -0.095 A  
HETATM   33  C   UNL     1      -7.254   7.348  73.124  1.00  0.00    -0.083 A  
BRANCH  31  34
HETATM   34  N   UNL     1      -6.593  10.017  70.623  1.00  0.00    -0.112 N  
HETATM   35  H   UNL     1      -6.373  10.868  71.138  1.00  0.00     0.000 HD 
HETATM   36  C   UNL     1      -6.205   9.965  69.309  1.00  0.00    -0.040 C  
HETATM   37  O   UNL     1      -6.412   9.059  68.519  1.00  0.00    -0.053 OA 
BRANCH  36  38
HETATM   38  O   UNL     1      -5.514  11.092  68.963  1.00  0.00    -0.041 OA 
BRANCH  38  39
HETATM   39  C   UNL     1      -6.353  12.249  68.907  1.00  0.00    -0.084 C  
HETATM   40  C   UNL     1      -5.810  13.284  67.925  1.00  0.00    -0.135 C  
HETATM   41  C   UNL     1      -7.020  14.152  67.648  1.00  0.00    -0.200 C  
HETATM   42  C   UNL     1      -8.178  13.162  67.572  1.00  0.00    -0.183 C  
HETATM   43  C   UNL     1      -7.743  11.926  68.366  1.00  0.00    -0.131 C  
ENDBRANCH  38  39
ENDBRANCH  36  38
ENDBRANCH  31  34
ENDBRANCH  23  24
ENDBRANCH   6  23
ENDBRANCH   2   3
TORSDOF 9
ENDMDL
MODEL       40
REMARK 921   NORMALIZED FREE ENERGY PREDICTED BY IDOCK:   -6.27 KCAL/MOL
REMARK 922        TOTAL FREE ENERGY PREDICTED BY IDOCK:  -11.33 KCAL/MOL
REMARK 923 INTER-LIGAND FREE ENERGY PREDICTED BY IDOCK:  -10.57 KCAL/MOL
REMARK 924 INTRA-LIGAND FREE ENERGY PREDICTED BY IDOCK:   -0.77 KCAL/MOL
REMARK 927      BINDING AFFINITY PREDICTED BY RF-SCORE:    0.00 PKD
ROOT
HETATM    1  C   UNL     1      -9.265   9.999  62.385  1.00  0.00    -0.296 C  
HETATM    2  O   UNL     1      -8.669   9.450  63.552  1.00  0.00    -0.214 OA 
ENDROOT
BRANCH   2   3
HETATM    3  C   UNL     1      -8.645  10.226  64.681  1.00  0.00    -0.185 A  
HETATM    4  C   UNL     1      -9.488  11.325  64.903  1.00  0.00    -0.223 A  
HETATM    5  C   UNL     1      -9.429  12.046  66.107  1.00  0.00    -0.241 A  
HETATM    6  C   UNL     1      -7.726   9.840  65.677  1.00  0.00    -0.115 A  
HETATM    7  C   UNL     1      -8.581  11.613  67.126  1.00  0.00    -0.164 A  
HETATM    8  C   UNL     1      -7.753  10.512  66.912  1.00  0.00    -0.114 A  
BRANCH   5   9
HETATM    9  C   UNL     1     -10.256  13.272  66.242  1.00  0.00    -0.296 C  
HETATM   10  N   UNL     1      -9.579  14.485  66.047  1.00  0.00    -0.429 N  
HETATM   11  H   UNL     1      -8.572  14.443  65.892  1.00  0.00     0.000 HD 
HETATM   12  O   UNL     1     -11.442  13.199  66.515  1.00  0.00    -0.310 OA 
BRANCH  10  13
HETATM   13  S   UNL     1     -10.295  15.985  66.048  1.00  0.00    -0.366 S  
HETATM   14  O   UNL     1     -11.251  16.019  67.137  1.00  0.00    -0.171 OA 
HETATM   15  O   UNL     1     -10.735  16.208  64.684  1.00  0.00    -0.637 OA 
BRANCH  13  16
HETATM   16  C   UNL     1      -8.977  17.136  66.381  1.00  0.00    -0.260 A  
HETATM   17  C   UNL     1      -7.663  16.644  66.340  1.00  0.00    -0.328 A  
HETATM   18  C   UNL     1     -10.606  19.076  66.786  1.00  0.00    -0.508 C  
HETATM   19  C   UNL     1      -6.587  17.489  66.606  1.00  0.00    -0.252 A  
HETATM   20  C   UNL     1      -9.228  18.487  66.700  1.00  0.00    -0.306 A  
HETATM   21  C   UNL     1      -6.819  18.826  66.914  1.00  0.00    -0.211 A  
HETATM   22  C   UNL     1      -8.125  19.320  66.960  1.00  0.00    -0.284 A  
ENDBRANCH  13  16
ENDBRANCH  10  13
ENDBRANCH   5   9
BRANCH   6  23
HETATM   23  C   UNL     1      -6.751   8.699  65.478  1.00  0.00    -0.063 C  
BRANCH  23  24
HETATM   24  C   UNL     1      -7.485   7.381  65.478  1.00  0.00    -0.088 A  
HETATM   25  N   UNL     1      -8.253   5.407  64.750  1.00  0.00    -0.127 NA 
HETATM   26  C   UNL     1      -9.145   5.805  65.722  1.00  0.00    -0.109 A  
HETATM   27  C   UNL     1      -8.681   7.032  66.197  1.00  0.00    -0.155 A  
HETATM   28  C   UNL     1      -7.210   6.293  64.665  1.00  0.00    -0.064 A  
HETATM   29  C   UNL     1      -8.449   4.278  63.868  1.00  0.00    -0.108 C  
HETATM   30  C   UNL     1      -9.442   7.673  67.192  1.00  0.00    -0.196 A  
HETATM   31  C   UNL     1     -10.578   7.079  67.755  1.00  0.00    -0.233 A  
HETATM   32  C   UNL     1     -11.031   5.870  67.230  1.00  0.00    -0.276 A  
HETATM   33  C   UNL     1     -10.333   5.220  66.198  1.00  0.00    -0.238 A  
BRANCH  31  34
HETATM   34  N   UNL     1     -11.269   7.651  68.850  1.00  0.00    -0.352 N  
HETATM   35  H   UNL     1     -12.267   7.819  68.732  1.00  0.00     0.000 HD 
HETATM   36  C   UNL     1     -10.715   7.999  70.054  1.00  0.00    -0.244 C  
HETATM   37  O   UNL     1      -9.540   7.916  70.371  1.00  0.00    -0.170 OA 
BRANCH  36  38
HETATM   38  O   UNL     1     -11.671   8.462  70.912  1.00  0.00    -0.284 OA 
BRANCH  38  39
HETATM   39  C   UNL     1     -11.590   9.876  71.106  1.00  0.00    -0.389 C  
HETATM   40  C   UNL     1     -11.665  10.627  69.779  1.00  0.00    -0.385 C  
HETATM   41  C   UNL     1     -12.049  12.029  70.207  1.00  0.00    -0.395 C  
HETATM   42  C   UNL     1     -13.057  11.812  71.330  1.00  0.00    -0.322 C  
HETATM   43  C   UNL     1     -12.777  10.417  71.899  1.00  0.00    -0.459 C  
ENDBRANCH  38  39
ENDBRANCH  36  38
ENDBRANCH  31  34
ENDBRANCH  23  24
ENDBRANCH   6  23
ENDBRANCH   2   3
TORSDOF 9
ENDMDL
MODEL       41
REMARK 921   NORMALIZED FREE ENERGY PREDICTED BY IDOCK:   -6.27 KCAL/MOL
REMARK 922        TOTAL FREE ENERGY PREDICTED BY IDOCK:  -11.32 KCAL/MOL
REMARK 923 INTER-LIGAND FREE ENERGY PREDICTED BY IDOCK:  -10.44 KCAL/MOL
REMARK 924 INTRA-LIGAND FREE ENERGY PREDICTED BY IDOCK:   -0.89 KCAL/MOL
REMARK 927      BINDING AFFINITY PREDICTED BY RF-SCORE:    0.00 PKD
ROOT
HETATM    1  C   UNL     1     -13.421   9.086  72.410  1.00  0.00    -0.470 C  
HETATM    2  O   UNL     1     -12.935   9.848  71.313  1.00  0.00    -0.351 OA 
ENDROOT
BRANCH   2   3
HETATM    3  C   UNL     1     -11.600   9.755  71.015  1.00  0.00    -0.376 A  
HETATM    4  C   UNL     1     -10.703   8.894  71.663  1.00  0.00    -0.418 A  
HETATM    5  C   UNL     1      -9.357   8.828  71.269  1.00  0.00    -0.319 A  
HETATM    6  C   UNL     1     -11.147  10.566  69.956  1.00  0.00    -0.376 A  
HETATM    7  C   UNL     1      -8.926   9.566  70.167  1.00  0.00    -0.269 A  
HETATM    8  C   UNL     1      -9.820  10.412  69.513  1.00  0.00    -0.211 A  
BRANCH   5   9
HETATM    9  C   UNL     1      -8.423   7.992  72.067  1.00  0.00    -0.144 C  
HETATM   10  N   UNL     1      -8.619   6.607  71.973  1.00  0.00    -0.124 N  
HETATM   11  H   UNL     1      -9.414   6.279  71.425  1.00  0.00     0.000 HD 
HETATM   12  O   UNL     1      -7.558   8.505  72.757  1.00  0.00    -0.283 OA 
BRANCH  10  13
HETATM   13  S   UNL     1      -7.651   5.459  72.687  1.00  0.00    -0.099 S  
HETATM   14  O   UNL     1      -7.440   5.852  74.065  1.00  0.00    -0.092 OA 
HETATM   15  O   UNL     1      -6.520   5.292  71.795  1.00  0.00    -0.036 OA 
BRANCH  13  16
HETATM   16  C   UNL     1      -8.598   3.949  72.640  1.00  0.00    -0.099 A  
HETATM   17  C   UNL     1      -8.011   2.837  72.017  1.00  0.00    -0.054 A  
HETATM   18  C   UNL     1     -10.597   5.021  73.839  1.00  0.00    -0.340 C  
HETATM   19  C   UNL     1      -8.704   1.631  71.934  1.00  0.00    -0.084 A  
HETATM   20  C   UNL     1      -9.897   3.867  73.181  1.00  0.00    -0.176 A  
HETATM   21  C   UNL     1      -9.984   1.532  72.471  1.00  0.00    -0.181 A  
HETATM   22  C   UNL     1     -10.574   2.637  73.089  1.00  0.00    -0.260 A  
ENDBRANCH  13  16
ENDBRANCH  10  13
ENDBRANCH   5   9
BRANCH   6  23
HETATM   23  C   UNL     1     -12.050  11.557  69.253  1.00  0.00    -0.344 C  
BRANCH  23  24
HETATM   24  C   UNL     1     -12.084  12.860  70.013  1.00  0.00    -0.357 A  
HETATM   25  N   UNL     1     -12.843  14.493  71.344  1.00  0.00    -0.316 NA 
HETATM   26  C   UNL     1     -11.925  15.101  70.515  1.00  0.00    -0.325 A  
HETATM   27  C   UNL     1     -11.431  14.098  69.680  1.00  0.00    -0.329 A  
HETATM   28  C   UNL     1     -12.873  13.141  71.116  1.00  0.00    -0.264 A  
HETATM   29  C   UNL     1     -13.728  15.197  72.245  1.00  0.00    -0.491 C  
HETATM   30  C   UNL     1     -10.485  14.470  68.707  1.00  0.00    -0.246 A  
HETATM   31  C   UNL     1      -9.984  15.774  68.621  1.00  0.00    -0.208 A  
HETATM   32  C   UNL     1     -10.527  16.756  69.448  1.00  0.00    -0.312 A  
HETATM   33  C   UNL     1     -11.514  16.441  70.397  1.00  0.00    -0.150 A  
BRANCH  31  34
HETATM   34  N   UNL     1      -8.934  16.126  67.740  1.00  0.00    -0.191 N  
HETATM   35  H   UNL     1      -7.994  16.169  68.132  1.00  0.00     0.000 HD 
HETATM   36  C   UNL     1      -9.068  16.414  66.407  1.00  0.00    -0.306 C  
HETATM   37  O   UNL     1     -10.106  16.457  65.767  1.00  0.00    -0.373 OA 
BRANCH  36  38
HETATM   38  O   UNL     1      -7.850  16.648  65.836  1.00  0.00    -0.237 OA 
BRANCH  38  39
HETATM   39  C   UNL     1      -7.268  17.877  66.279  1.00  0.00    -0.289 C  
HETATM   40  C   UNL     1      -6.075  18.273  65.412  1.00  0.00    -0.248 C  
HETATM   41  C   UNL     1      -5.924  19.752  65.704  1.00  0.00    -0.208 C  
HETATM   42  C   UNL     1      -7.359  20.263  65.784  1.00  0.00    -0.236 C  
HETATM   43  C   UNL     1      -8.230  19.053  66.135  1.00  0.00    -0.246 C  
ENDBRANCH  38  39
ENDBRANCH  36  38
ENDBRANCH  31  34
ENDBRANCH  23  24
ENDBRANCH   6  23
ENDBRANCH   2   3
TORSDOF 9
ENDMDL
MODEL       42
REMARK 921   NORMALIZED FREE ENERGY PREDICTED BY IDOCK:   -6.24 KCAL/MOL
REMARK 922        TOTAL FREE ENERGY PREDICTED BY IDOCK:  -11.28 KCAL/MOL
REMARK 923 INTER-LIGAND FREE ENERGY PREDICTED BY IDOCK:  -10.78 KCAL/MOL
REMARK 924 INTRA-LIGAND FREE ENERGY PREDICTED BY IDOCK:   -0.50 KCAL/MOL
REMARK 927      BINDING AFFINITY PREDICTED BY RF-SCORE:    0.00 PKD
ROOT
HETATM    1  C   UNL     1      -5.946  12.974  69.638  1.00  0.00    -0.118 C  
HETATM    2  O   UNL     1      -6.117  11.799  68.856  1.00  0.00    -0.049 OA 
ENDROOT
BRANCH   2   3
HETATM    3  C   UNL     1      -7.235  11.716  68.068  1.00  0.00    -0.083 A  
HETATM    4  C   UNL     1      -8.051  12.807  67.735  1.00  0.00    -0.168 A  
HETATM    5  C   UNL     1      -9.158  12.645  66.886  1.00  0.00    -0.218 A  
HETATM    6  C   UNL     1      -7.529  10.440  67.547  1.00  0.00    -0.093 A  
HETATM    7  C   UNL     1      -9.400  11.402  66.301  1.00  0.00    -0.228 A  
HETATM    8  C   UNL     1      -8.582  10.319  66.621  1.00  0.00    -0.130 A  
BRANCH   5   9
HETATM    9  C   UNL     1     -10.058  13.805  66.663  1.00  0.00    -0.277 C  
HETATM   10  N   UNL     1      -9.555  15.050  67.067  1.00  0.00    -0.219 N  
HETATM   11  H   UNL     1      -8.649  15.062  67.536  1.00  0.00     0.000 HD 
HETATM   12  O   UNL     1     -11.162  13.654  66.167  1.00  0.00    -0.298 OA 
BRANCH  10  13
HETATM   13  S   UNL     1     -10.323  16.506  66.838  1.00  0.00    -0.285 S  
HETATM   14  O   UNL     1     -11.464  16.551  67.730  1.00  0.00    -0.090 OA 
HETATM   15  O   UNL     1     -10.512  16.627  65.405  1.00  0.00    -0.571 OA 
BRANCH  13  16
HETATM   16  C   UNL     1      -9.139  17.745  67.329  1.00  0.00    -0.246 A  
HETATM   17  C   UNL     1      -7.973  17.305  67.975  1.00  0.00    -0.215 A  
HETATM   18  C   UNL     1     -10.594  19.664  66.444  1.00  0.00    -0.592 C  
HETATM   19  C   UNL     1      -7.015  18.225  68.398  1.00  0.00    -0.251 A  
HETATM   20  C   UNL     1      -9.362  19.120  67.106  1.00  0.00    -0.358 A  
HETATM   21  C   UNL     1      -7.217  19.584  68.178  1.00  0.00    -0.330 A  
HETATM   22  C   UNL     1      -8.377  20.027  67.538  1.00  0.00    -0.381 A  
ENDBRANCH  13  16
ENDBRANCH  10  13
ENDBRANCH   5   9
BRANCH   6  23
HETATM   23  C   UNL     1      -6.723   9.212  67.913  1.00  0.00    -0.068 C  
BRANCH  23  24
HETATM   24  C   UNL     1      -7.296   8.563  69.148  1.00  0.00    -0.079 A  
HETATM   25  N   UNL     1      -7.733   6.989  70.681  1.00  0.00    -0.094 NA 
HETATM   26  C   UNL     1      -8.784   7.877  70.766  1.00  0.00    -0.134 A  
HETATM   27  C   UNL     1      -8.528   8.874  69.824  1.00  0.00    -0.131 A  
HETATM   28  C   UNL     1      -6.796   7.441  69.788  1.00  0.00    -0.052 A  
HETATM   29  C   UNL     1      -7.682   5.710  71.353  1.00  0.00    -0.109 C  
HETATM   30  C   UNL     1      -9.481   9.901  69.689  1.00  0.00    -0.252 A  
HETATM   31  C   UNL     1     -10.605   9.982  70.519  1.00  0.00    -0.246 A  
HETATM   32  C   UNL     1     -10.845   8.950  71.425  1.00  0.00    -0.378 A  
HETATM   33  C   UNL     1      -9.950   7.875  71.554  1.00  0.00    -0.214 A  
BRANCH  31  34
HETATM   34  N   UNL     1     -11.494  11.083  70.486  1.00  0.00    -0.446 N  
HETATM   35  H   UNL     1     -11.304  11.813  69.800  1.00  0.00     0.000 HD 
HETATM   36  C   UNL     1     -12.587  11.256  71.294  1.00  0.00    -0.382 C  
HETATM   37  O   UNL     1     -12.954  10.522  72.197  1.00  0.00    -0.435 OA 
BRANCH  36  38
HETATM   38  O   UNL     1     -13.265  12.392  70.955  1.00  0.00    -0.039 OA 
BRANCH  38  39
HETATM   39  C   UNL     1     -13.086  13.439  71.912  1.00  0.00    -0.383 C  
HETATM   40  C   UNL     1     -12.139  14.516  71.388  1.00  0.00    -0.420 C  
HETATM   41  C   UNL     1     -12.456  15.703  72.275  1.00  0.00    -0.512 C  
HETATM   42  C   UNL     1     -13.971  15.649  72.440  1.00  0.00    -0.602 C  
HETATM   43  C   UNL     1     -14.382  14.195  72.187  1.00  0.00    -0.606 C  
ENDBRANCH  38  39
ENDBRANCH  36  38
ENDBRANCH  31  34
ENDBRANCH  23  24
ENDBRANCH   6  23
ENDBRANCH   2   3
TORSDOF 9
ENDMDL
MODEL       43
REMARK 921   NORMALIZED FREE ENERGY PREDICTED BY IDOCK:   -6.23 KCAL/MOL
REMARK 922        TOTAL FREE ENERGY PREDICTED BY IDOCK:  -11.27 KCAL/MOL
REMARK 923 INTER-LIGAND FREE ENERGY PREDICTED BY IDOCK:  -12.47 KCAL/MOL
REMARK 924 INTRA-LIGAND FREE ENERGY PREDICTED BY IDOCK:    1.20 KCAL/MOL
REMARK 927      BINDING AFFINITY PREDICTED BY RF-SCORE:    0.00 PKD
ROOT
HETATM    1  C   UNL     1      -7.374  10.929  66.376  1.00  0.00    -0.141 C  
HETATM    2  O   UNL     1      -8.049  10.970  67.626  1.00  0.00    -0.113 OA 
ENDROOT
BRANCH   2   3
HETATM    3  C   UNL     1      -9.072  11.870  67.769  1.00  0.00    -0.180 A  
HETATM    4  C   UNL     1      -8.894  13.224  68.087  1.00  0.00    -0.187 A  
HETATM    5  C   UNL     1      -9.994  14.093  68.175  1.00  0.00    -0.232 A  
HETATM    6  C   UNL     1     -10.369  11.373  67.536  1.00  0.00    -0.224 A  
HETATM    7  C   UNL     1     -11.268  13.623  67.861  1.00  0.00    -0.300 A  
HETATM    8  C   UNL     1     -11.445  12.280  67.532  1.00  0.00    -0.414 A  
BRANCH   5   9
HETATM    9  C   UNL     1      -9.763  15.487  68.634  1.00  0.00    -0.208 C  
HETATM   10  N   UNL     1     -10.093  16.491  67.713  1.00  0.00    -0.257 N  
HETATM   11  H   UNL     1     -10.402  16.198  66.786  1.00  0.00     0.000 HD 
HETATM   12  O   UNL     1      -9.306  15.713  69.742  1.00  0.00    -0.270 OA 
BRANCH  10  13
HETATM   13  S   UNL     1     -10.020  18.124  68.018  1.00  0.00    -0.365 S  
HETATM   14  O   UNL     1     -10.358  18.330  69.412  1.00  0.00    -0.130 OA 
HETATM   15  O   UNL     1     -10.809  18.751  66.976  1.00  0.00    -0.405 OA 
BRANCH  13  16
HETATM   16  C   UNL     1      -8.317  18.577  67.749  1.00  0.00    -0.259 A  
HETATM   17  C   UNL     1      -7.352  17.984  68.577  1.00  0.00    -0.276 A  
HETATM   18  C   UNL     1      -8.920  20.204  65.859  1.00  0.00    -0.110 C  
HETATM   19  C   UNL     1      -6.004  18.307  68.428  1.00  0.00    -0.184 A  
HETATM   20  C   UNL     1      -7.941  19.512  66.763  1.00  0.00    -0.307 A  
HETATM   21  C   UNL     1      -5.617  19.222  67.454  1.00  0.00    -0.168 A  
HETATM   22  C   UNL     1      -6.575  19.818  66.629  1.00  0.00    -0.202 A  
ENDBRANCH  13  16
ENDBRANCH  10  13
ENDBRANCH   5   9
BRANCH   6  23
HETATM   23  C   UNL     1     -10.634   9.912  67.244  1.00  0.00    -0.316 C  
BRANCH  23  24
HETATM   24  C   UNL     1     -10.468   9.092  68.500  1.00  0.00    -0.238 A  
HETATM   25  N   UNL     1     -10.034   7.332  69.815  1.00  0.00    -0.181 NA 
HETATM   26  C   UNL     1     -10.875   8.135  70.554  1.00  0.00    -0.240 A  
HETATM   27  C   UNL     1     -11.153   9.246  69.757  1.00  0.00    -0.168 A  
HETATM   28  C   UNL     1      -9.710   7.940  68.630  1.00  0.00    -0.158 A  
HETATM   29  C   UNL     1      -9.641   5.991  70.188  1.00  0.00    -0.162 C  
HETATM   30  C   UNL     1     -12.026  10.218  70.278  1.00  0.00    -0.348 A  
HETATM   31  C   UNL     1     -12.539  10.133  71.578  1.00  0.00    -0.434 A  
HETATM   32  C   UNL     1     -12.267   8.993  72.332  1.00  0.00    -0.322 A  
HETATM   33  C   UNL     1     -11.445   7.970  71.830  1.00  0.00    -0.341 A  
BRANCH  31  34
HETATM   34  N   UNL     1     -13.304  11.172  72.160  1.00  0.00    -0.577 N  
HETATM   35  H   UNL     1     -13.968  10.908  72.887  1.00  0.00     0.000 HD 
HETATM   36  C   UNL     1     -13.232  12.501  71.833  1.00  0.00    -0.392 C  
HETATM   37  O   UNL     1     -12.537  13.006  70.967  1.00  0.00    -0.364 OA 
BRANCH  36  38
HETATM   38  O   UNL     1     -14.057  13.241  72.630  1.00  0.00    -0.744 OA 
BRANCH  38  39
HETATM   39  C   UNL     1     -13.679  14.620  72.673  1.00  0.00    -0.442 C  
HETATM   40  C   UNL     1     -12.457  14.836  73.562  1.00  0.00    -0.514 C  
HETATM   41  C   UNL     1     -11.942  16.185  73.104  1.00  0.00    -0.576 C  
HETATM   42  C   UNL     1     -12.128  16.159  71.590  1.00  0.00    -0.479 C  
HETATM   43  C   UNL     1     -13.233  15.137  71.308  1.00  0.00    -0.536 C  
ENDBRANCH  38  39
ENDBRANCH  36  38
ENDBRANCH  31  34
ENDBRANCH  23  24
ENDBRANCH   6  23
ENDBRANCH   2   3
TORSDOF 9
ENDMDL
MODEL       44
REMARK 921   NORMALIZED FREE ENERGY PREDICTED BY IDOCK:   -6.21 KCAL/MOL
REMARK 922        TOTAL FREE ENERGY PREDICTED BY IDOCK:  -11.24 KCAL/MOL
REMARK 923 INTER-LIGAND FREE ENERGY PREDICTED BY IDOCK:  -10.12 KCAL/MOL
REMARK 924 INTRA-LIGAND FREE ENERGY PREDICTED BY IDOCK:   -1.12 KCAL/MOL
REMARK 927      BINDING AFFINITY PREDICTED BY RF-SCORE:    0.00 PKD
ROOT
HETATM    1  C   UNL     1     -10.270   9.358  68.427  1.00  0.00    -0.197 C  
HETATM    2  O   UNL     1     -11.049   8.772  69.462  1.00  0.00    -0.132 OA 
ENDROOT
BRANCH   2   3
HETATM    3  C   UNL     1     -11.748   9.613  70.288  1.00  0.00    -0.155 A  
HETATM    4  C   UNL     1     -11.705  11.012  70.211  1.00  0.00    -0.445 A  
HETATM    5  C   UNL     1     -12.484  11.804  71.069  1.00  0.00    -0.411 A  
HETATM    6  C   UNL     1     -12.582   8.991  71.238  1.00  0.00    -0.336 A  
HETATM    7  C   UNL     1     -13.374  11.192  71.951  1.00  0.00    -0.409 A  
HETATM    8  C   UNL     1     -13.428   9.800  72.019  1.00  0.00    -0.498 A  
BRANCH   5   9
HETATM    9  C   UNL     1     -12.311  13.279  71.029  1.00  0.00    -0.291 C  
HETATM   10  N   UNL     1     -11.678  13.784  69.884  1.00  0.00    -0.369 N  
HETATM   11  H   UNL     1     -11.329  13.111  69.202  1.00  0.00     0.000 HD 
HETATM   12  O   UNL     1     -12.695  13.979  71.950  1.00  0.00    -0.326 OA 
BRANCH  10  13
HETATM   13  S   UNL     1     -11.453  15.398  69.556  1.00  0.00    -0.347 S  
HETATM   14  O   UNL     1     -10.279  15.839  70.283  1.00  0.00    -0.256 OA 
HETATM   15  O   UNL     1     -12.737  16.027  69.793  1.00  0.00    -0.101 OA 
BRANCH  13  16
HETATM   16  C   UNL     1     -11.130  15.482  67.805  1.00  0.00    -0.315 A  
HETATM   17  C   UNL     1     -11.395  14.333  67.043  1.00  0.00    -0.354 A  
HETATM   18  C   UNL     1     -10.273  17.895  67.952  1.00  0.00    -0.375 C  
HETATM   19  C   UNL     1     -11.151  14.328  65.671  1.00  0.00    -0.316 A  
HETATM   20  C   UNL     1     -10.604  16.640  67.198  1.00  0.00    -0.264 A  
HETATM   21  C   UNL     1     -10.640  15.467  65.056  1.00  0.00    -0.445 A  
HETATM   22  C   UNL     1     -10.370  16.612  65.811  1.00  0.00    -0.338 A  
ENDBRANCH  13  16
ENDBRANCH  10  13
ENDBRANCH   5   9
BRANCH   6  23
HETATM   23  C   UNL     1     -12.631   7.489  71.410  1.00  0.00    -0.382 C  
BRANCH  23  24
HETATM   24  C   UNL     1     -11.327   6.987  71.978  1.00  0.00    -0.300 A  
HETATM   25  N   UNL     1      -9.456   6.935  73.208  1.00  0.00    -0.147 NA 
HETATM   26  C   UNL     1      -9.201   6.116  72.129  1.00  0.00    -0.141 A  
HETATM   27  C   UNL     1     -10.359   6.126  71.351  1.00  0.00    -0.260 A  
HETATM   28  C   UNL     1     -10.752   7.380  73.176  1.00  0.00    -0.387 A  
HETATM   29  C   UNL     1      -8.464   7.353  74.174  1.00  0.00    -0.202 C  
HETATM   30  C   UNL     1     -10.347   5.379  70.158  1.00  0.00    -0.361 A  
HETATM   31  C   UNL     1      -9.255   4.583  69.794  1.00  0.00    -0.125 A  
HETATM   32  C   UNL     1      -8.104   4.625  70.577  1.00  0.00    -0.068 A  
HETATM   33  C   UNL     1      -8.050   5.401  71.748  1.00  0.00    -0.118 A  
BRANCH  31  34
HETATM   34  N   UNL     1      -9.287   3.722  68.671  1.00  0.00    -0.157 N  
HETATM   35  H   UNL     1      -9.223   4.156  67.751  1.00  0.00     0.000 HD 
HETATM   36  C   UNL     1      -9.397   2.356  68.711  1.00  0.00    -0.163 C  
HETATM   37  O   UNL     1      -9.526   1.660  69.704  1.00  0.00    -0.102 OA 
BRANCH  36  38
HETATM   38  O   UNL     1      -9.330   1.828  67.453  1.00  0.00    -0.121 OA 
BRANCH  38  39
HETATM   39  C   UNL     1      -8.499   2.600  66.582  1.00  0.00    -0.104 C  
HETATM   40  C   UNL     1      -7.138   1.937  66.378  1.00  0.00    -0.047 C  
HETATM   41  C   UNL     1      -6.629   2.598  65.113  1.00  0.00    -0.035 C  
HETATM   42  C   UNL     1      -7.867   2.712  64.229  1.00  0.00    -0.077 C  
HETATM   43  C   UNL     1      -9.075   2.693  65.172  1.00  0.00    -0.140 C  
ENDBRANCH  38  39
ENDBRANCH  36  38
ENDBRANCH  31  34
ENDBRANCH  23  24
ENDBRANCH   6  23
ENDBRANCH   2   3
TORSDOF 9
ENDMDL
MODEL       45
REMARK 921   NORMALIZED FREE ENERGY PREDICTED BY IDOCK:   -6.20 KCAL/MOL
REMARK 922        TOTAL FREE ENERGY PREDICTED BY IDOCK:  -11.22 KCAL/MOL
REMARK 923 INTER-LIGAND FREE ENERGY PREDICTED BY IDOCK:  -10.24 KCAL/MOL
REMARK 924 INTRA-LIGAND FREE ENERGY PREDICTED BY IDOCK:   -0.98 KCAL/MOL
REMARK 927      BINDING AFFINITY PREDICTED BY RF-SCORE:    0.00 PKD
ROOT
HETATM    1  C   UNL     1      -8.858   9.604  66.319  1.00  0.00    -0.151 C  
HETATM    2  O   UNL     1      -8.062   9.195  67.423  1.00  0.00    -0.106 OA 
ENDROOT
BRANCH   2   3
HETATM    3  C   UNL     1      -7.452  10.172  68.166  1.00  0.00    -0.083 A  
HETATM    4  C   UNL     1      -7.143  11.453  67.687  1.00  0.00    -0.092 A  
HETATM    5  C   UNL     1      -6.554  12.412  68.526  1.00  0.00    -0.073 A  
HETATM    6  C   UNL     1      -7.168   9.841  69.506  1.00  0.00    -0.087 A  
HETATM    7  C   UNL     1      -6.351  12.115  69.874  1.00  0.00    -0.074 A  
HETATM    8  C   UNL     1      -6.671  10.846  70.355  1.00  0.00     0.139 A  
BRANCH   5   9
HETATM    9  C   UNL     1      -6.136  13.711  67.937  1.00  0.00    -0.151 C  
HETATM   10  N   UNL     1      -6.809  14.841  68.422  1.00  0.00    -0.097 N  
HETATM   11  H   UNL     1      -7.569  14.689  69.085  1.00  0.00     0.000 HD 
HETATM   12  O   UNL     1      -5.268  13.758  67.083  1.00  0.00    -0.193 OA 
BRANCH  10  13
HETATM   13  S   UNL     1      -6.461  16.410  67.997  1.00  0.00    -0.145 S  
HETATM   14  O   UNL     1      -5.825  16.386  66.695  1.00  0.00    -0.317 OA 
HETATM   15  O   UNL     1      -5.767  16.978  69.137  1.00  0.00    -0.151 OA 
BRANCH  13  16
HETATM   16  C   UNL     1      -8.041  17.225  67.870  1.00  0.00    -0.210 A  
HETATM   17  C   UNL     1      -8.220  18.406  68.608  1.00  0.00    -0.316 A  
HETATM   18  C   UNL     1      -8.975  15.436  66.287  1.00  0.00    -0.341 C  
HETATM   19  C   UNL     1      -9.437  19.083  68.563  1.00  0.00    -0.436 A  
HETATM   20  C   UNL     1      -9.087  16.705  67.082  1.00  0.00    -0.227 A  
HETATM   21  C   UNL     1     -10.477  18.586  67.784  1.00  0.00    -0.443 A  
HETATM   22  C   UNL     1     -10.304  17.410  67.050  1.00  0.00    -0.318 A  
ENDBRANCH  13  16
ENDBRANCH  10  13
ENDBRANCH   5   9
BRANCH   6  23
HETATM   23  C   UNL     1      -7.425   8.459  70.069  1.00  0.00    -0.063 C  
BRANCH  23  24
HETATM   24  C   UNL     1      -8.597   8.494  71.018  1.00  0.00    -0.190 A  
HETATM   25  N   UNL     1     -10.018   7.844  72.623  1.00  0.00    -0.239 NA 
HETATM   26  C   UNL     1     -10.734   8.727  71.844  1.00  0.00    -0.359 A  
HETATM   27  C   UNL     1      -9.864   9.153  70.840  1.00  0.00    -0.359 A  
HETATM   28  C   UNL     1      -8.717   7.774  72.195  1.00  0.00    -0.130 A  
HETATM   29  C   UNL     1     -10.587   7.025  73.670  1.00  0.00    -0.345 C  
HETATM   30  C   UNL     1     -10.369  10.051  69.880  1.00  0.00    -0.315 A  
HETATM   31  C   UNL     1     -11.665  10.573  69.964  1.00  0.00    -0.312 A  
HETATM   32  C   UNL     1     -12.516  10.097  70.960  1.00  0.00    -0.474 A  
HETATM   33  C   UNL     1     -12.072   9.158  71.907  1.00  0.00    -0.448 A  
BRANCH  31  34
HETATM   34  N   UNL     1     -12.135  11.579  69.087  1.00  0.00    -0.309 N  
HETATM   35  H   UNL     1     -13.141  11.628  68.933  1.00  0.00     0.000 HD 
HETATM   36  C   UNL     1     -11.356  12.494  68.426  1.00  0.00    -0.291 C  
HETATM   37  O   UNL     1     -10.139  12.570  68.446  1.00  0.00    -0.220 OA 
BRANCH  36  38
HETATM   38  O   UNL     1     -12.131  13.364  67.714  1.00  0.00    -0.338 OA 
BRANCH  38  39
HETATM   39  C   UNL     1     -12.226  13.004  66.333  1.00  0.00    -0.280 C  
HETATM   40  C   UNL     1     -12.558  14.215  65.464  1.00  0.00    -0.501 C  
HETATM   41  C   UNL     1     -12.142  13.758  64.080  1.00  0.00    -0.448 C  
HETATM   42  C   UNL     1     -10.854  12.978  64.318  1.00  0.00    -0.430 C  
HETATM   43  C   UNL     1     -10.896  12.507  65.775  1.00  0.00    -0.310 C  
ENDBRANCH  38  39
ENDBRANCH  36  38
ENDBRANCH  31  34
ENDBRANCH  23  24
ENDBRANCH   6  23
ENDBRANCH   2   3
TORSDOF 9
ENDMDL
MODEL       46
REMARK 921   NORMALIZED FREE ENERGY PREDICTED BY IDOCK:   -6.20 KCAL/MOL
REMARK 922        TOTAL FREE ENERGY PREDICTED BY IDOCK:  -11.22 KCAL/MOL
REMARK 923 INTER-LIGAND FREE ENERGY PREDICTED BY IDOCK:   -9.78 KCAL/MOL
REMARK 924 INTRA-LIGAND FREE ENERGY PREDICTED BY IDOCK:   -1.44 KCAL/MOL
REMARK 927      BINDING AFFINITY PREDICTED BY RF-SCORE:    0.00 PKD
ROOT
HETATM    1  C   UNL     1      -5.236   8.777  65.465  1.00  0.00    -0.034 C  
HETATM    2  O   UNL     1      -6.518   8.653  64.864  1.00  0.00    -0.064 OA 
ENDROOT
BRANCH   2   3
HETATM    3  C   UNL     1      -7.574   9.271  65.482  1.00  0.00    -0.091 A  
HETATM    4  C   UNL     1      -7.583  10.617  65.873  1.00  0.00    -0.138 A  
HETATM    5  C   UNL     1      -8.722  11.186  66.465  1.00  0.00    -0.174 A  
HETATM    6  C   UNL     1      -8.720   8.477  65.685  1.00  0.00    -0.213 A  
HETATM    7  C   UNL     1      -9.885  10.427  66.588  1.00  0.00    -0.251 A  
HETATM    8  C   UNL     1      -9.881   9.092  66.187  1.00  0.00    -0.349 A  
BRANCH   5   9
HETATM    9  C   UNL     1      -8.639  12.581  66.971  1.00  0.00    -0.188 C  
HETATM   10  N   UNL     1      -9.089  13.574  66.090  1.00  0.00    -0.471 N  
HETATM   11  H   UNL     1      -9.377  13.281  65.156  1.00  0.00     0.000 HD 
HETATM   12  O   UNL     1      -8.194  12.817  68.081  1.00  0.00    -0.152 OA 
BRANCH  10  13
HETATM   13  S   UNL     1      -9.190  15.193  66.452  1.00  0.00    -0.297 S  
HETATM   14  O   UNL     1      -9.838  15.857  65.339  1.00  0.00    -0.401 OA 
HETATM   15  O   UNL     1      -7.855  15.586  66.859  1.00  0.00    -0.218 OA 
BRANCH  13  16
HETATM   16  C   UNL     1     -10.239  15.289  67.890  1.00  0.00    -0.235 A  
HETATM   17  C   UNL     1      -9.726  15.941  69.022  1.00  0.00    -0.243 A  
HETATM   18  C   UNL     1     -12.130  13.983  66.751  1.00  0.00    -0.480 C  
HETATM   19  C   UNL     1     -10.489  16.038  70.184  1.00  0.00    -0.198 A  
HETATM   20  C   UNL     1     -11.527  14.716  67.914  1.00  0.00    -0.350 A  
HETATM   21  C   UNL     1     -11.765  15.485  70.220  1.00  0.00    -0.367 A  
HETATM   22  C   UNL     1     -12.279  14.831  69.097  1.00  0.00    -0.208 A  
ENDBRANCH  13  16
ENDBRANCH  10  13
ENDBRANCH   5   9
BRANCH   6  23
HETATM   23  C   UNL     1      -8.755   7.004  65.337  1.00  0.00     0.009 C  
BRANCH  23  24
HETATM   24  C   UNL     1      -8.413   6.175  66.551  1.00  0.00    -0.119 A  
HETATM   25  N   UNL     1      -7.546   4.518  67.783  1.00  0.00    -0.077 NA 
HETATM   26  C   UNL     1      -8.612   4.993  68.516  1.00  0.00    -0.094 A  
HETATM   27  C   UNL     1      -9.164   6.035  67.770  1.00  0.00    -0.107 A  
HETATM   28  C   UNL     1      -7.362   5.279  66.658  1.00  0.00    -0.086 A  
HETATM   29  C   UNL     1      -6.800   3.320  68.100  1.00  0.00    -0.049 C  
HETATM   30  C   UNL     1     -10.301   6.678  68.293  1.00  0.00    -0.220 A  
HETATM   31  C   UNL     1     -10.821   6.355  69.552  1.00  0.00    -0.321 A  
HETATM   32  C   UNL     1     -10.265   5.286  70.253  1.00  0.00    -0.345 A  
HETATM   33  C   UNL     1      -9.163   4.578  69.743  1.00  0.00    -0.191 A  
BRANCH  31  34
HETATM   34  N   UNL     1     -11.876   7.088  70.147  1.00  0.00    -0.592 N  
HETATM   35  H   UNL     1     -12.793   7.021  69.708  1.00  0.00     0.000 HD 
HETATM   36  C   UNL     1     -11.773   7.880  71.260  1.00  0.00    -0.287 C  
HETATM   37  O   UNL     1     -10.762   8.121  71.898  1.00  0.00    -0.233 OA 
BRANCH  36  38
HETATM   38  O   UNL     1     -12.992   8.389  71.607  1.00  0.00    -0.323 OA 
BRANCH  38  39
HETATM   39  C   UNL     1     -13.197   9.709  71.095  1.00  0.00    -0.303 C  
HETATM   40  C   UNL     1     -13.037  10.762  72.189  1.00  0.00    -0.350 C  
HETATM   41  C   UNL     1     -12.804  12.034  71.399  1.00  0.00    -0.391 C  
HETATM   42  C   UNL     1     -11.907  11.596  70.246  1.00  0.00    -0.414 C  
HETATM   43  C   UNL     1     -12.143  10.094  70.060  1.00  0.00    -0.166 C  
ENDBRANCH  38  39
ENDBRANCH  36  38
ENDBRANCH  31  34
ENDBRANCH  23  24
ENDBRANCH   6  23
ENDBRANCH   2   3
TORSDOF 9
ENDMDL
MODEL       47
REMARK 921   NORMALIZED FREE ENERGY PREDICTED BY IDOCK:   -6.19 KCAL/MOL
REMARK 922        TOTAL FREE ENERGY PREDICTED BY IDOCK:  -11.21 KCAL/MOL
REMARK 923 INTER-LIGAND FREE ENERGY PREDICTED BY IDOCK:  -10.09 KCAL/MOL
REMARK 924 INTRA-LIGAND FREE ENERGY PREDICTED BY IDOCK:   -1.12 KCAL/MOL
REMARK 927      BINDING AFFINITY PREDICTED BY RF-SCORE:    0.00 PKD
ROOT
HETATM    1  C   UNL     1     -13.906   8.903  72.342  1.00  0.00    -0.454 C  
HETATM    2  O   UNL     1     -12.539   8.742  72.698  1.00  0.00    -0.371 OA 
ENDROOT
BRANCH   2   3
HETATM    3  C   UNL     1     -11.593   9.131  71.786  1.00  0.00    -0.387 A  
HETATM    4  C   UNL     1     -11.842   9.988  70.704  1.00  0.00    -0.411 A  
HETATM    5  C   UNL     1     -10.807  10.371  69.837  1.00  0.00    -0.353 A  
HETATM    6  C   UNL     1     -10.288   8.647  72.006  1.00  0.00    -0.416 A  
HETATM    7  C   UNL     1      -9.500   9.963  70.103  1.00  0.00    -0.214 A  
HETATM    8  C   UNL     1      -9.249   9.122  71.186  1.00  0.00    -0.301 A  
BRANCH   5   9
HETATM    9  C   UNL     1     -11.147  11.181  68.638  1.00  0.00    -0.239 C  
HETATM   10  N   UNL     1     -10.338  12.304  68.416  1.00  0.00    -0.221 N  
HETATM   11  H   UNL     1      -9.626  12.519  69.114  1.00  0.00     0.000 HD 
HETATM   12  O   UNL     1     -12.081  10.870  67.919  1.00  0.00    -0.527 OA 
BRANCH  10  13
HETATM   13  S   UNL     1     -10.450  13.311  67.098  1.00  0.00    -0.248 S  
HETATM   14  O   UNL     1      -9.326  14.224  67.141  1.00  0.00    -0.210 OA 
HETATM   15  O   UNL     1     -11.807  13.822  67.112  1.00  0.00    -0.363 OA 
BRANCH  13  16
HETATM   16  C   UNL     1     -10.293  12.246  65.676  1.00  0.00    -0.257 A  
HETATM   17  C   UNL     1      -9.248  11.309  65.684  1.00  0.00    -0.231 A  
HETATM   18  C   UNL     1     -12.281  13.340  64.482  1.00  0.00    -0.456 C  
HETATM   19  C   UNL     1      -9.061  10.457  64.597  1.00  0.00    -0.255 A  
HETATM   20  C   UNL     1     -11.160  12.346  64.570  1.00  0.00    -0.360 A  
HETATM   21  C   UNL     1      -9.914  10.538  63.501  1.00  0.00    -0.278 A  
HETATM   22  C   UNL     1     -10.953  11.472  63.487  1.00  0.00    -0.453 A  
ENDBRANCH  13  16
ENDBRANCH  10  13
ENDBRANCH   5   9
BRANCH   6  23
HETATM   23  C   UNL     1      -9.964   7.675  73.121  1.00  0.00    -0.363 C  
BRANCH  23  24
HETATM   24  C   UNL     1     -10.280   6.264  72.689  1.00  0.00    -0.203 A  
HETATM   25  N   UNL     1     -10.855   4.105  72.834  1.00  0.00    -0.155 NA 
HETATM   26  C   UNL     1     -10.129   4.207  71.667  1.00  0.00    -0.128 A  
HETATM   27  C   UNL     1      -9.767   5.549  71.551  1.00  0.00    -0.201 A  
HETATM   28  C   UNL     1     -11.031   5.341  73.399  1.00  0.00    -0.316 A  
HETATM   29  C   UNL     1     -11.273   2.857  73.435  1.00  0.00    -0.154 C  
HETATM   30  C   UNL     1      -8.983   5.917  70.441  1.00  0.00    -0.154 A  
HETATM   31  C   UNL     1      -8.642   5.002  69.438  1.00  0.00    -0.088 A  
HETATM   32  C   UNL     1      -8.992   3.663  69.606  1.00  0.00    -0.175 A  
HETATM   33  C   UNL     1      -9.727   3.240  70.727  1.00  0.00    -0.173 A  
BRANCH  31  34
HETATM   34  N   UNL     1      -7.975   5.390  68.253  1.00  0.00    -0.088 N  
HETATM   35  H   UNL     1      -7.023   5.051  68.123  1.00  0.00     0.000 HD 
HETATM   36  C   UNL     1      -8.495   6.183  67.263  1.00  0.00    -0.104 C  
HETATM   37  O   UNL     1      -9.592   6.717  67.252  1.00  0.00    -0.129 OA 
BRANCH  36  38
HETATM   38  O   UNL     1      -7.613   6.308  66.228  1.00  0.00    -0.087 OA 
BRANCH  38  39
HETATM   39  C   UNL     1      -8.266   6.351  64.957  1.00  0.00    -0.125 C  
HETATM   40  C   UNL     1      -7.463   7.164  63.945  1.00  0.00    -0.103 C  
HETATM   41  C   UNL     1      -8.026   6.698  62.617  1.00  0.00    -0.095 C  
HETATM   42  C   UNL     1      -8.234   5.199  62.807  1.00  0.00    -0.103 C  
HETATM   43  C   UNL     1      -8.369   4.970  64.316  1.00  0.00    -0.136 C  
ENDBRANCH  38  39
ENDBRANCH  36  38
ENDBRANCH  31  34
ENDBRANCH  23  24
ENDBRANCH   6  23
ENDBRANCH   2   3
TORSDOF 9
ENDMDL
MODEL       48
REMARK 921   NORMALIZED FREE ENERGY PREDICTED BY IDOCK:   -6.19 KCAL/MOL
REMARK 922        TOTAL FREE ENERGY PREDICTED BY IDOCK:  -11.21 KCAL/MOL
REMARK 923 INTER-LIGAND FREE ENERGY PREDICTED BY IDOCK:   -9.39 KCAL/MOL
REMARK 924 INTRA-LIGAND FREE ENERGY PREDICTED BY IDOCK:   -1.82 KCAL/MOL
REMARK 927      BINDING AFFINITY PREDICTED BY RF-SCORE:    0.00 PKD
ROOT
HETATM    1  C   UNL     1     -13.973   6.991  71.652  1.00  0.00    -0.241 C  
HETATM    2  O   UNL     1     -12.602   6.731  71.382  1.00  0.00    -0.355 OA 
ENDROOT
BRANCH   2   3
HETATM    3  C   UNL     1     -11.788   7.804  71.127  1.00  0.00    -0.291 A  
HETATM    4  C   UNL     1     -12.249   9.107  70.892  1.00  0.00    -0.239 A  
HETATM    5  C   UNL     1     -11.346  10.162  70.679  1.00  0.00    -0.433 A  
HETATM    6  C   UNL     1     -10.403   7.546  71.147  1.00  0.00    -0.208 A  
HETATM    7  C   UNL     1      -9.975   9.925  70.784  1.00  0.00    -0.009 A  
HETATM    8  C   UNL     1      -9.517   8.632  71.030  1.00  0.00    -0.261 A  
BRANCH   5   9
HETATM    9  C   UNL     1     -11.886  11.497  70.315  1.00  0.00    -0.342 C  
HETATM   10  N   UNL     1     -10.992  12.355  69.659  1.00  0.00    -0.455 N  
HETATM   11  H   UNL     1     -10.032  12.032  69.538  1.00  0.00     0.000 HD 
HETATM   12  O   UNL     1     -13.034  11.803  70.590  1.00  0.00    -0.071 OA 
BRANCH  10  13
HETATM   13  S   UNL     1     -11.379  13.858  69.065  1.00  0.00    -0.300 S  
HETATM   14  O   UNL     1     -11.675  14.719  70.193  1.00  0.00    -0.270 OA 
HETATM   15  O   UNL     1     -12.380  13.628  68.042  1.00  0.00    -0.238 OA 
BRANCH  13  16
HETATM   16  C   UNL     1      -9.903  14.437  68.250  1.00  0.00    -0.229 A  
HETATM   17  C   UNL     1      -8.808  13.560  68.197  1.00  0.00    -0.179 A  
HETATM   18  C   UNL     1     -10.934  16.730  67.740  1.00  0.00    -0.217 C  
HETATM   19  C   UNL     1      -7.620  13.957  67.587  1.00  0.00    -0.188 A  
HETATM   20  C   UNL     1      -9.814  15.731  67.698  1.00  0.00    -0.232 A  
HETATM   21  C   UNL     1      -7.519  15.228  67.031  1.00  0.00    -0.125 A  
HETATM   22  C   UNL     1      -8.605  16.106  67.085  1.00  0.00    -0.211 A  
ENDBRANCH  13  16
ENDBRANCH  10  13
ENDBRANCH   5   9
BRANCH   6  23
HETATM   23  C   UNL     1      -9.843   6.153  71.338  1.00  0.00    -0.200 C  
BRANCH  23  24
HETATM   24  C   UNL     1      -9.820   5.417  70.021  1.00  0.00    -0.274 A  
HETATM   25  N   UNL     1      -9.533   3.749  68.554  1.00  0.00    -0.162 NA 
HETATM   26  C   UNL     1      -9.428   4.904  67.811  1.00  0.00    -0.138 A  
HETATM   27  C   UNL     1      -9.612   5.960  68.705  1.00  0.00    -0.145 A  
HETATM   28  C   UNL     1      -9.862   4.042  69.852  1.00  0.00    -0.115 A  
HETATM   29  C   UNL     1      -9.229   2.424  68.061  1.00  0.00    -0.206 C  
HETATM   30  C   UNL     1      -9.522   7.268  68.193  1.00  0.00    -0.134 A  
HETATM   31  C   UNL     1      -9.339   7.519  66.828  1.00  0.00    -0.165 A  
HETATM   32  C   UNL     1      -9.124   6.440  65.972  1.00  0.00    -0.118 A  
HETATM   33  C   UNL     1      -9.149   5.118  66.448  1.00  0.00    -0.131 A  
BRANCH  31  34
HETATM   34  N   UNL     1      -9.386   8.824  66.285  1.00  0.00    -0.204 N  
HETATM   35  H   UNL     1     -10.306   9.250  66.178  1.00  0.00     0.000 HD 
HETATM   36  C   UNL     1      -8.304   9.567  65.889  1.00  0.00    -0.120 C  
HETATM   37  O   UNL     1      -7.135   9.221  65.897  1.00  0.00    -0.087 OA 
BRANCH  36  38
HETATM   38  O   UNL     1      -8.695  10.808  65.474  1.00  0.00    -0.184 OA 
BRANCH  38  39
HETATM   39  C   UNL     1     -10.060  10.835  65.047  1.00  0.00    -0.313 C  
HETATM   40  C   UNL     1     -10.805  12.029  65.639  1.00  0.00    -0.325 C  
HETATM   41  C   UNL     1     -12.009  12.159  64.729  1.00  0.00    -0.377 C  
HETATM   42  C   UNL     1     -11.455  11.873  63.337  1.00  0.00    -0.470 C  
HETATM   43  C   UNL     1     -10.187  11.036  63.540  1.00  0.00    -0.424 C  
ENDBRANCH  38  39
ENDBRANCH  36  38
ENDBRANCH  31  34
ENDBRANCH  23  24
ENDBRANCH   6  23
ENDBRANCH   2   3
TORSDOF 9
ENDMDL
MODEL       49
REMARK 921   NORMALIZED FREE ENERGY PREDICTED BY IDOCK:   -6.17 KCAL/MOL
REMARK 922        TOTAL FREE ENERGY PREDICTED BY IDOCK:  -11.17 KCAL/MOL
REMARK 923 INTER-LIGAND FREE ENERGY PREDICTED BY IDOCK:   -9.55 KCAL/MOL
REMARK 924 INTRA-LIGAND FREE ENERGY PREDICTED BY IDOCK:   -1.62 KCAL/MOL
REMARK 927      BINDING AFFINITY PREDICTED BY RF-SCORE:    0.00 PKD
ROOT
HETATM    1  C   UNL     1      -8.038   4.784  67.059  1.00  0.00    -0.106 C  
HETATM    2  O   UNL     1      -8.124   5.311  68.376  1.00  0.00    -0.090 OA 
ENDROOT
BRANCH   2   3
HETATM    3  C   UNL     1      -8.263   6.668  68.512  1.00  0.00    -0.119 A  
HETATM    4  C   UNL     1      -9.009   7.476  67.643  1.00  0.00    -0.127 A  
HETATM    5  C   UNL     1      -9.137   8.856  67.876  1.00  0.00    -0.145 A  
HETATM    6  C   UNL     1      -7.632   7.243  69.633  1.00  0.00    -0.099 A  
HETATM    7  C   UNL     1      -8.586   9.412  69.030  1.00  0.00    -0.135 A  
HETATM    8  C   UNL     1      -7.855   8.606  69.902  1.00  0.00    -0.093 A  
BRANCH   5   9
HETATM    9  C   UNL     1      -9.835   9.686  66.861  1.00  0.00    -0.200 C  
HETATM   10  N   UNL     1      -9.968  11.045  67.177  1.00  0.00    -0.184 N  
HETATM   11  H   UNL     1      -9.641  11.351  68.093  1.00  0.00     0.000 HD 
HETATM   12  O   UNL     1     -10.262   9.188  65.833  1.00  0.00    -0.209 OA 
BRANCH  10  13
HETATM   13  S   UNL     1     -10.620  12.196  66.170  1.00  0.00    -0.265 S  
HETATM   14  O   UNL     1     -12.059  12.025  66.174  1.00  0.00    -0.582 OA 
HETATM   15  O   UNL     1      -9.878  12.095  64.929  1.00  0.00    -0.237 OA 
BRANCH  13  16
HETATM   16  C   UNL     1     -10.208  13.762  66.915  1.00  0.00    -0.261 A  
HETATM   17  C   UNL     1      -9.556  13.734  68.158  1.00  0.00    -0.216 A  
HETATM   18  C   UNL     1     -11.259  15.095  64.992  1.00  0.00    -0.414 C  
HETATM   19  C   UNL     1      -9.219  14.924  68.801  1.00  0.00    -0.193 A  
HETATM   20  C   UNL     1     -10.541  14.989  66.306  1.00  0.00    -0.309 A  
HETATM   21  C   UNL     1      -9.533  16.143  68.208  1.00  0.00    -0.208 A  
HETATM   22  C   UNL     1     -10.186  16.176  66.973  1.00  0.00    -0.285 A  
ENDBRANCH  13  16
ENDBRANCH  10  13
ENDBRANCH   5   9
BRANCH   6  23
HETATM   23  C   UNL     1      -6.767   6.436  70.577  1.00  0.00    -0.053 C  
BRANCH  23  24
HETATM   24  C   UNL     1      -7.620   5.485  71.379  1.00  0.00    -0.103 A  
HETATM   25  N   UNL     1      -8.449   3.554  72.154  1.00  0.00    -0.082 NA 
HETATM   26  C   UNL     1      -9.449   4.481  72.353  1.00  0.00    -0.135 A  
HETATM   27  C   UNL     1      -8.951   5.696  71.884  1.00  0.00    -0.144 A  
HETATM   28  C   UNL     1      -7.322   4.162  71.664  1.00  0.00    -0.059 A  
HETATM   29  C   UNL     1      -8.603   2.127  72.332  1.00  0.00    -0.062 C  
HETATM   30  C   UNL     1      -9.803   6.815  71.947  1.00  0.00    -0.173 A  
HETATM   31  C   UNL     1     -11.073   6.748  72.532  1.00  0.00    -0.264 A  
HETATM   32  C   UNL     1     -11.549   5.509  72.958  1.00  0.00    -0.233 A  
HETATM   33  C   UNL     1     -10.754   4.354  72.863  1.00  0.00    -0.263 A  
BRANCH  31  34
HETATM   34  N   UNL     1     -11.879   7.894  72.726  1.00  0.00    -0.606 N  
HETATM   35  H   UNL     1     -11.559   8.576  73.413  1.00  0.00     0.000 HD 
HETATM   36  C   UNL     1     -13.053   8.168  72.074  1.00  0.00    -0.293 C  
HETATM   37  O   UNL     1     -13.619   7.462  71.255  1.00  0.00    -0.355 OA 
BRANCH  36  38
HETATM   38  O   UNL     1     -13.542   9.387  72.448  1.00  0.00    -0.457 OA 
BRANCH  38  39
HETATM   39  C   UNL     1     -13.399  10.370  71.420  1.00  0.00    -0.280 C  
HETATM   40  C   UNL     1     -13.231  11.770  72.006  1.00  0.00    -0.460 C  
HETATM   41  C   UNL     1     -12.627  12.547  70.854  1.00  0.00    -0.331 C  
HETATM   42  C   UNL     1     -11.645  11.567  70.220  1.00  0.00    -0.305 C  
HETATM   43  C   UNL     1     -12.129  10.164  70.599  1.00  0.00    -0.411 C  
ENDBRANCH  38  39
ENDBRANCH  36  38
ENDBRANCH  31  34
ENDBRANCH  23  24
ENDBRANCH   6  23
ENDBRANCH   2   3
TORSDOF 9
ENDMDL
MODEL       50
REMARK 921   NORMALIZED FREE ENERGY PREDICTED BY IDOCK:   -6.16 KCAL/MOL
REMARK 922        TOTAL FREE ENERGY PREDICTED BY IDOCK:  -11.17 KCAL/MOL
REMARK 923 INTER-LIGAND FREE ENERGY PREDICTED BY IDOCK:   -9.50 KCAL/MOL
REMARK 924 INTRA-LIGAND FREE ENERGY PREDICTED BY IDOCK:   -1.67 KCAL/MOL
REMARK 927      BINDING AFFINITY PREDICTED BY RF-SCORE:    0.00 PKD
ROOT
HETATM    1  C   UNL     1     -11.032  12.195  64.074  1.00  0.00    -0.380 C  
HETATM    2  O   UNL     1     -10.153  12.780  65.026  1.00  0.00    -0.275 OA 
ENDROOT
BRANCH   2   3
HETATM    3  C   UNL     1      -9.646  11.969  66.008  1.00  0.00    -0.234 A  
HETATM    4  C   UNL     1      -9.995  10.621  66.178  1.00  0.00    -0.283 A  
HETATM    5  C   UNL     1      -9.398   9.846  67.186  1.00  0.00    -0.170 A  
HETATM    6  C   UNL     1      -8.686  12.554  66.857  1.00  0.00    -0.182 A  
HETATM    7  C   UNL     1      -8.387  10.399  67.971  1.00  0.00    -0.118 A  
HETATM    8  C   UNL     1      -8.029  11.735  67.793  1.00  0.00    -0.141 A  
BRANCH   5   9
HETATM    9  C   UNL     1      -9.890   8.461  67.402  1.00  0.00    -0.191 C  
HETATM   10  N   UNL     1      -9.261   7.747  68.431  1.00  0.00    -0.137 N  
HETATM   11  H   UNL     1      -8.480   8.198  68.908  1.00  0.00     0.000 HD 
HETATM   12  O   UNL     1     -10.779   7.998  66.707  1.00  0.00    -0.289 OA 
BRANCH  10  13
HETATM   13  S   UNL     1      -9.693   6.222  68.934  1.00  0.00    -0.132 S  
HETATM   14  O   UNL     1      -9.396   5.300  67.856  1.00  0.00    -0.111 OA 
HETATM   15  O   UNL     1     -11.047   6.346  69.436  1.00  0.00    -0.323 OA 
BRANCH  13  16
HETATM   16  C   UNL     1      -8.635   5.867  70.324  1.00  0.00    -0.134 A  
HETATM   17  C   UNL     1      -7.355   6.444  70.326  1.00  0.00    -0.089 A  
HETATM   18  C   UNL     1     -10.386   4.353  71.428  1.00  0.00    -0.080 C  
HETATM   19  C   UNL     1      -6.474   6.194  71.376  1.00  0.00    -0.050 A  
HETATM   20  C   UNL     1      -9.043   5.022  71.376  1.00  0.00    -0.174 A  
HETATM   21  C   UNL     1      -6.866   5.369  72.425  1.00  0.00    -0.075 A  
HETATM   22  C   UNL     1      -8.137   4.789  72.426  1.00  0.00    -0.107 A  
ENDBRANCH  13  16
ENDBRANCH  10  13
ENDBRANCH   5   9
BRANCH   6  23
HETATM   23  C   UNL     1      -8.308  14.016  66.762  1.00  0.00     0.075 C  
BRANCH  23  24
HETATM   24  C   UNL     1      -9.429  14.879  67.287  1.00  0.00    -0.216 A  
HETATM   25  N   UNL     1     -10.565  16.721  67.865  1.00  0.00    -0.340 NA 
HETATM   26  C   UNL     1     -11.095  15.712  68.640  1.00  0.00    -0.317 A  
HETATM   27  C   UNL     1     -10.406  14.550  68.290  1.00  0.00    -0.236 A  
HETATM   28  C   UNL     1      -9.640  16.216  66.988  1.00  0.00    -0.224 A  
HETATM   29  C   UNL     1     -10.861  18.126  68.031  1.00  0.00    -0.166 C  
HETATM   30  C   UNL     1     -10.744  13.365  68.970  1.00  0.00    -0.160 A  
HETATM   31  C   UNL     1     -11.786  13.317  69.903  1.00  0.00    -0.310 A  
HETATM   32  C   UNL     1     -12.428  14.504  70.252  1.00  0.00    -0.405 A  
HETATM   33  C   UNL     1     -12.085  15.722  69.640  1.00  0.00    -0.282 A  
BRANCH  31  34
HETATM   34  N   UNL     1     -12.224  12.105  70.488  1.00  0.00    -0.358 N  
HETATM   35  H   UNL     1     -12.358  12.099  71.498  1.00  0.00     0.000 HD 
HETATM   36  C   UNL     1     -12.485  10.939  69.817  1.00  0.00    -0.182 C  
HETATM   37  O   UNL     1     -12.346  10.734  68.622  1.00  0.00    -0.430 OA 
BRANCH  36  38
HETATM   38  O   UNL     1     -12.954   9.983  70.671  1.00  0.00    -0.289 OA 
BRANCH  38  39
HETATM   39  C   UNL     1     -12.016   9.668  71.704  1.00  0.00    -0.394 C  
HETATM   40  C   UNL     1     -12.246   8.264  72.257  1.00  0.00    -0.428 C  
HETATM   41  C   UNL     1     -10.928   7.950  72.935  1.00  0.00    -0.452 C  
HETATM   42  C   UNL     1      -9.878   8.532  71.994  1.00  0.00    -0.383 C  
HETATM   43  C   UNL     1     -10.581   9.626  71.185  1.00  0.00    -0.327 C  
ENDBRANCH  38  39
ENDBRANCH  36  38
ENDBRANCH  31  34
ENDBRANCH  23  24
ENDBRANCH   6  23
ENDBRANCH   2   3
TORSDOF 9
ENDMDL
MODEL       51
REMARK 921   NORMALIZED FREE ENERGY PREDICTED BY IDOCK:   -6.12 KCAL/MOL
REMARK 922        TOTAL FREE ENERGY PREDICTED BY IDOCK:  -11.10 KCAL/MOL
REMARK 923 INTER-LIGAND FREE ENERGY PREDICTED BY IDOCK:   -9.43 KCAL/MOL
REMARK 924 INTRA-LIGAND FREE ENERGY PREDICTED BY IDOCK:   -1.67 KCAL/MOL
REMARK 927      BINDING AFFINITY PREDICTED BY RF-SCORE:    0.00 PKD
ROOT
HETATM    1  C   UNL     1      -7.307  13.426  67.586  1.00  0.00    -0.168 C  
HETATM    2  O   UNL     1      -8.545  12.979  67.050  1.00  0.00    -0.200 OA 
ENDROOT
BRANCH   2   3
HETATM    3  C   UNL     1      -8.724  11.629  66.898  1.00  0.00    -0.185 A  
HETATM    4  C   UNL     1      -7.774  10.661  67.256  1.00  0.00    -0.108 A  
HETATM    5  C   UNL     1      -8.051   9.292  67.106  1.00  0.00    -0.109 A  
HETATM    6  C   UNL     1      -9.971  11.226  66.382  1.00  0.00    -0.252 A  
HETATM    7  C   UNL     1      -9.315   8.889  66.676  1.00  0.00    -0.237 A  
HETATM    8  C   UNL     1     -10.265   9.851  66.333  1.00  0.00    -0.292 A  
BRANCH   5   9
HETATM    9  C   UNL     1      -6.969   8.314  67.384  1.00  0.00    -0.075 C  
HETATM   10  N   UNL     1      -7.392   7.021  67.722  1.00  0.00    -0.094 N  
HETATM   11  H   UNL     1      -8.395   6.862  67.815  1.00  0.00     0.000 HD 
HETATM   12  O   UNL     1      -5.796   8.645  67.324  1.00  0.00    -0.042 OA 
BRANCH  10  13
HETATM   13  S   UNL     1      -6.381   5.727  67.983  1.00  0.00    -0.043 S  
HETATM   14  O   UNL     1      -5.645   5.978  69.206  1.00  0.00    -0.013 OA 
HETATM   15  O   UNL     1      -5.673   5.527  66.734  1.00  0.00    -0.016 OA 
BRANCH  13  16
HETATM   16  C   UNL     1      -7.459   4.327  68.219  1.00  0.00    -0.064 A  
HETATM   17  C   UNL     1      -7.277   3.559  69.380  1.00  0.00    -0.049 A  
HETATM   18  C   UNL     1      -8.680   4.736  66.001  1.00  0.00    -0.118 C  
HETATM   19  C   UNL     1      -8.077   2.443  69.617  1.00  0.00    -0.057 A  
HETATM   20  C   UNL     1      -8.445   3.977  67.274  1.00  0.00    -0.100 A  
HETATM   21  C   UNL     1      -9.060   2.090  68.698  1.00  0.00    -0.201 A  
HETATM   22  C   UNL     1      -9.243   2.849  67.539  1.00  0.00    -0.233 A  
ENDBRANCH  13  16
ENDBRANCH  10  13
ENDBRANCH   5   9
BRANCH   6  23
HETATM   23  C   UNL     1     -11.016  12.220  65.925  1.00  0.00    -0.338 C  
BRANCH  23  24
HETATM   24  C   UNL     1     -11.491  13.050  67.093  1.00  0.00    -0.379 A  
HETATM   25  N   UNL     1     -11.725  14.808  68.460  1.00  0.00    -0.318 NA 
HETATM   26  C   UNL     1     -12.014  13.707  69.236  1.00  0.00    -0.336 A  
HETATM   27  C   UNL     1     -11.883  12.597  68.401  1.00  0.00    -0.347 A  
HETATM   28  C   UNL     1     -11.506  14.434  67.159  1.00  0.00    -0.362 A  
HETATM   29  C   UNL     1     -11.564  16.152  68.968  1.00  0.00    -0.298 C  
HETATM   30  C   UNL     1     -12.100  11.328  68.968  1.00  0.00    -0.325 A  
HETATM   31  C   UNL     1     -12.516  11.171  70.296  1.00  0.00    -0.274 A  
HETATM   32  C   UNL     1     -12.602  12.300  71.109  1.00  0.00    -0.353 A  
HETATM   33  C   UNL     1     -12.340  13.583  70.599  1.00  0.00    -0.432 A  
BRANCH  31  34
HETATM   34  N   UNL     1     -12.871   9.911  70.835  1.00  0.00    -0.492 N  
HETATM   35  H   UNL     1     -13.830   9.598  70.691  1.00  0.00     0.000 HD 
HETATM   36  C   UNL     1     -12.039   9.075  71.533  1.00  0.00    -0.340 C  
HETATM   37  O   UNL     1     -10.879   9.287  71.843  1.00  0.00    -0.351 OA 
BRANCH  36  38
HETATM   38  O   UNL     1     -12.679   7.911  71.852  1.00  0.00    -0.314 OA 
BRANCH  38  39
HETATM   39  C   UNL     1     -12.139   6.785  71.157  1.00  0.00    -0.370 C  
HETATM   40  C   UNL     1     -11.287   7.220  69.967  1.00  0.00    -0.195 C  
HETATM   41  C   UNL     1     -10.449   5.990  69.685  1.00  0.00    -0.325 C  
HETATM   42  C   UNL     1     -10.095   5.456  71.069  1.00  0.00    -0.281 C  
HETATM   43  C   UNL     1     -11.171   5.983  72.024  1.00  0.00    -0.341 C  
ENDBRANCH  38  39
ENDBRANCH  36  38
ENDBRANCH  31  34
ENDBRANCH  23  24
ENDBRANCH   6  23
ENDBRANCH   2   3
TORSDOF 9
ENDMDL
MODEL       52
REMARK 921   NORMALIZED FREE ENERGY PREDICTED BY IDOCK:   -6.08 KCAL/MOL
REMARK 922        TOTAL FREE ENERGY PREDICTED BY IDOCK:  -11.04 KCAL/MOL
REMARK 923 INTER-LIGAND FREE ENERGY PREDICTED BY IDOCK:   -9.73 KCAL/MOL
REMARK 924 INTRA-LIGAND FREE ENERGY PREDICTED BY IDOCK:   -1.31 KCAL/MOL
REMARK 927      BINDING AFFINITY PREDICTED BY RF-SCORE:    0.00 PKD
ROOT
HETATM    1  C   UNL     1     -10.642  12.662  64.101  1.00  0.00    -0.407 C  
HETATM    2  O   UNL     1      -9.844  13.169  65.162  1.00  0.00    -0.181 OA 
ENDROOT
BRANCH   2   3
HETATM    3  C   UNL     1      -9.416  12.283  66.116  1.00  0.00    -0.217 A  
HETATM    4  C   UNL     1      -9.800  10.936  66.173  1.00  0.00    -0.268 A  
HETATM    5  C   UNL     1      -9.284  10.082  67.161  1.00  0.00    -0.161 A  
HETATM    6  C   UNL     1      -8.503  12.789  67.062  1.00  0.00    -0.154 A  
HETATM    7  C   UNL     1      -8.315  10.558  68.045  1.00  0.00    -0.116 A  
HETATM    8  C   UNL     1      -7.923  11.895  67.981  1.00  0.00    -0.147 A  
BRANCH   5   9
HETATM    9  C   UNL     1      -9.814   8.697  67.251  1.00  0.00    -0.197 C  
HETATM   10  N   UNL     1      -9.006   7.781  67.939  1.00  0.00    -0.126 N  
HETATM   11  H   UNL     1      -8.097   8.108  68.267  1.00  0.00     0.000 HD 
HETATM   12  O   UNL     1     -10.883   8.403  66.742  1.00  0.00    -0.172 OA 
BRANCH  10  13
HETATM   13  S   UNL     1      -9.417   6.203  68.260  1.00  0.00    -0.118 S  
HETATM   14  O   UNL     1     -10.786   6.190  68.735  1.00  0.00    -0.276 OA 
HETATM   15  O   UNL     1      -8.351   5.684  69.095  1.00  0.00    -0.099 OA 
BRANCH  13  16
HETATM   16  C   UNL     1      -9.327   5.364  66.691  1.00  0.00    -0.139 A  
HETATM   17  C   UNL     1     -10.507   4.784  66.199  1.00  0.00    -0.332 A  
HETATM   18  C   UNL     1      -6.817   5.829  66.446  1.00  0.00    -0.059 C  
HETATM   19  C   UNL     1     -10.501   4.101  64.984  1.00  0.00    -0.187 A  
HETATM   20  C   UNL     1      -8.120   5.256  65.970  1.00  0.00    -0.110 A  
HETATM   21  C   UNL     1      -9.319   3.993  64.258  1.00  0.00    -0.158 A  
HETATM   22  C   UNL     1      -8.141   4.565  64.745  1.00  0.00    -0.101 A  
ENDBRANCH  13  16
ENDBRANCH  10  13
ENDBRANCH   5   9
BRANCH   6  23
HETATM   23  C   UNL     1      -8.092  14.246  67.091  1.00  0.00    -0.154 C  
BRANCH  23  24
HETATM   24  C   UNL     1      -9.266  15.110  67.479  1.00  0.00    -0.188 A  
HETATM   25  N   UNL     1     -10.480  16.953  67.859  1.00  0.00    -0.331 NA 
HETATM   26  C   UNL     1     -11.044  15.980  68.655  1.00  0.00    -0.349 A  
HETATM   27  C   UNL     1     -10.307  14.817  68.429  1.00  0.00    -0.233 A  
HETATM   28  C   UNL     1      -9.483  16.420  67.084  1.00  0.00    -0.231 A  
HETATM   29  C   UNL     1     -10.818  18.358  67.915  1.00  0.00    -0.202 C  
HETATM   30  C   UNL     1     -10.668  13.667  69.156  1.00  0.00    -0.137 A  
HETATM   31  C   UNL     1     -11.774  13.650  70.013  1.00  0.00    -0.249 A  
HETATM   32  C   UNL     1     -12.464  14.839  70.241  1.00  0.00    -0.393 A  
HETATM   33  C   UNL     1     -12.104  16.025  69.580  1.00  0.00    -0.109 A  
BRANCH  31  34
HETATM   34  N   UNL     1     -12.228  12.465  70.640  1.00  0.00    -0.427 N  
HETATM   35  H   UNL     1     -12.346  12.491  71.652  1.00  0.00     0.000 HD 
HETATM   36  C   UNL     1     -12.523  11.286  70.007  1.00  0.00    -0.182 C  
HETATM   37  O   UNL     1     -12.407  11.043  68.817  1.00  0.00    -0.533 OA 
BRANCH  36  38
HETATM   38  O   UNL     1     -12.998  10.364  70.897  1.00  0.00    -0.379 OA 
BRANCH  38  39
HETATM   39  C   UNL     1     -11.961   9.802  71.705  1.00  0.00    -0.375 C  
HETATM   40  C   UNL     1     -12.407   8.495  72.355  1.00  0.00    -0.424 C  
HETATM   41  C   UNL     1     -11.093   7.841  72.731  1.00  0.00    -0.457 C  
HETATM   42  C   UNL     1     -10.174   8.149  71.554  1.00  0.00    -0.261 C  
HETATM   43  C   UNL     1     -10.742   9.401  70.879  1.00  0.00    -0.393 C  
ENDBRANCH  38  39
ENDBRANCH  36  38
ENDBRANCH  31  34
ENDBRANCH  23  24
ENDBRANCH   6  23
ENDBRANCH   2   3
TORSDOF 9
ENDMDL
MODEL       53
REMARK 921   NORMALIZED FREE ENERGY PREDICTED BY IDOCK:   -6.08 KCAL/MOL
REMARK 922        TOTAL FREE ENERGY PREDICTED BY IDOCK:  -11.03 KCAL/MOL
REMARK 923 INTER-LIGAND FREE ENERGY PREDICTED BY IDOCK:   -9.80 KCAL/MOL
REMARK 924 INTRA-LIGAND FREE ENERGY PREDICTED BY IDOCK:   -1.23 KCAL/MOL
REMARK 927      BINDING AFFINITY PREDICTED BY RF-SCORE:    0.00 PKD
ROOT
HETATM    1  C   UNL     1      -6.361  11.464  69.392  1.00  0.00    -0.100 C  
HETATM    2  O   UNL     1      -7.405  10.559  69.724  1.00  0.00    -0.145 OA 
ENDROOT
BRANCH   2   3
HETATM    3  C   UNL     1      -8.360  10.311  68.772  1.00  0.00    -0.125 A  
HETATM    4  C   UNL     1      -8.871  11.278  67.895  1.00  0.00    -0.142 A  
HETATM    5  C   UNL     1      -9.820  10.933  66.919  1.00  0.00    -0.222 A  
HETATM    6  C   UNL     1      -8.803   8.977  68.677  1.00  0.00    -0.137 A  
HETATM    7  C   UNL     1     -10.196   9.599  66.766  1.00  0.00    -0.308 A  
HETATM    8  C   UNL     1      -9.678   8.635  67.629  1.00  0.00    -0.201 A  
BRANCH   5   9
HETATM    9  C   UNL     1     -10.419  12.016  66.096  1.00  0.00    -0.236 C  
HETATM   10  N   UNL     1     -10.395  13.295  66.667  1.00  0.00    -0.270 N  
HETATM   11  H   UNL     1     -10.034  13.381  67.617  1.00  0.00     0.000 HD 
HETATM   12  O   UNL     1     -10.900  11.775  65.001  1.00  0.00    -0.282 OA 
BRANCH  10  13
HETATM   13  S   UNL     1     -10.911  14.684  65.912  1.00  0.00    -0.341 S  
HETATM   14  O   UNL     1     -12.359  14.712  65.977  1.00  0.00    -0.256 OA 
HETATM   15  O   UNL     1     -10.238  14.704  64.628  1.00  0.00    -0.298 OA 
BRANCH  13  16
HETATM   16  C   UNL     1     -10.250  16.023  66.885  1.00  0.00    -0.280 A  
HETATM   17  C   UNL     1     -11.048  17.168  67.036  1.00  0.00     0.235 A  
HETATM   18  C   UNL     1      -8.050  14.780  67.327  1.00  0.00    -0.232 C  
HETATM   19  C   UNL     1     -10.584  18.256  67.773  1.00  0.00    -0.415 A  
HETATM   20  C   UNL     1      -8.967  15.960  67.467  1.00  0.00    -0.201 A  
HETATM   21  C   UNL     1      -9.323  18.205  68.359  1.00  0.00    -0.319 A  
HETATM   22  C   UNL     1      -8.523  17.069  68.209  1.00  0.00    -0.233 A  
ENDBRANCH  13  16
ENDBRANCH  10  13
ENDBRANCH   5   9
BRANCH   6  23
HETATM   23  C   UNL     1      -8.334   7.899  69.630  1.00  0.00    -0.131 C  
BRANCH  23  24
HETATM   24  C   UNL     1      -9.400   7.615  70.659  1.00  0.00    -0.163 A  
HETATM   25  N   UNL     1     -10.784   6.450  71.980  1.00  0.00    -0.220 NA 
HETATM   26  C   UNL     1     -11.383   7.682  71.826  1.00  0.00    -0.255 A  
HETATM   27  C   UNL     1     -10.532   8.429  71.012  1.00  0.00    -0.251 A  
HETATM   28  C   UNL     1      -9.557   6.435  71.368  1.00  0.00    -0.162 A  
HETATM   29  C   UNL     1     -11.410   5.304  72.601  1.00  0.00    -0.231 C  
HETATM   30  C   UNL     1     -10.937   9.735  70.675  1.00  0.00    -0.398 A  
HETATM   31  C   UNL     1     -12.102  10.308  71.197  1.00  0.00    -0.395 A  
HETATM   32  C   UNL     1     -12.944   9.519  71.979  1.00  0.00    -0.514 A  
HETATM   33  C   UNL     1     -12.609   8.191  72.295  1.00  0.00    -0.314 A  
BRANCH  31  34
HETATM   34  N   UNL     1     -12.445  11.663  70.977  1.00  0.00    -0.374 N  
HETATM   35  H   UNL     1     -12.017  12.126  70.175  1.00  0.00     0.000 HD 
HETATM   36  C   UNL     1     -13.299  12.409  71.745  1.00  0.00    -0.270 C  
HETATM   37  O   UNL     1     -13.872  12.052  72.762  1.00  0.00     0.217 OA 
BRANCH  36  38
HETATM   38  O   UNL     1     -13.461  13.658  71.218  1.00  0.00    -0.249 OA 
BRANCH  38  39
HETATM   39  C   UNL     1     -12.297  14.473  71.382  1.00  0.00    -0.356 C  
HETATM   40  C   UNL     1     -12.090  15.398  70.185  1.00  0.00    -0.400 C  
HETATM   41  C   UNL     1     -11.165  16.462  70.738  1.00  0.00    -0.197 C  
HETATM   42  C   UNL     1     -11.680  16.703  72.153  1.00  0.00    -0.168 C  
HETATM   43  C   UNL     1     -12.427  15.430  72.564  1.00  0.00    -0.466 C  
ENDBRANCH  38  39
ENDBRANCH  36  38
ENDBRANCH  31  34
ENDBRANCH  23  24
ENDBRANCH   6  23
ENDBRANCH   2   3
TORSDOF 9
ENDMDL
MODEL       54
REMARK 921   NORMALIZED FREE ENERGY PREDICTED BY IDOCK:   -6.06 KCAL/MOL
REMARK 922        TOTAL FREE ENERGY PREDICTED BY IDOCK:  -11.01 KCAL/MOL
REMARK 923 INTER-LIGAND FREE ENERGY PREDICTED BY IDOCK:   -9.38 KCAL/MOL
REMARK 924 INTRA-LIGAND FREE ENERGY PREDICTED BY IDOCK:   -1.63 KCAL/MOL
REMARK 927      BINDING AFFINITY PREDICTED BY RF-SCORE:    0.00 PKD
ROOT
HETATM    1  C   UNL     1      -5.426  15.870  67.571  1.00  0.00    -0.083 C  
HETATM    2  O   UNL     1      -5.980  15.069  68.606  1.00  0.00    -0.083 OA 
ENDROOT
BRANCH   2   3
HETATM    3  C   UNL     1      -6.770  14.011  68.240  1.00  0.00    -0.109 A  
HETATM    4  C   UNL     1      -6.319  12.907  67.502  1.00  0.00    -0.161 A  
HETATM    5  C   UNL     1      -7.184  11.841  67.202  1.00  0.00    -0.147 A  
HETATM    6  C   UNL     1      -8.106  14.055  68.686  1.00  0.00    -0.113 A  
HETATM    7  C   UNL     1      -8.481  11.842  67.715  1.00  0.00    -0.154 A  
HETATM    8  C   UNL     1      -8.926  12.934  68.460  1.00  0.00    -0.047 A  
BRANCH   5   9
HETATM    9  C   UNL     1      -6.692  10.755  66.317  1.00  0.00    -0.134 C  
HETATM   10  N   UNL     1      -7.348   9.523  66.445  1.00  0.00    -0.093 N  
HETATM   11  H   UNL     1      -8.062   9.442  67.170  1.00  0.00     0.000 HD 
HETATM   12  O   UNL     1      -5.768  10.948  65.544  1.00  0.00    -0.139 OA 
BRANCH  10  13
HETATM   13  S   UNL     1      -7.053   8.184  65.505  1.00  0.00    -0.068 S  
HETATM   14  O   UNL     1      -5.802   7.601  65.946  1.00  0.00    -0.036 OA 
HETATM   15  O   UNL     1      -7.207   8.629  64.133  1.00  0.00    -0.088 OA 
BRANCH  13  16
HETATM   16  C   UNL     1      -8.388   7.057  65.857  1.00  0.00    -0.141 A  
HETATM   17  C   UNL     1      -9.428   7.522  66.676  1.00  0.00    -0.246 A  
HETATM   18  C   UNL     1      -7.313   5.165  64.498  1.00  0.00    -0.060 C  
HETATM   19  C   UNL     1     -10.494   6.686  67.001  1.00  0.00    -0.369 A  
HETATM   20  C   UNL     1      -8.401   5.738  65.359  1.00  0.00    -0.142 A  
HETATM   21  C   UNL     1     -10.525   5.384  66.511  1.00  0.00    -0.352 A  
HETATM   22  C   UNL     1      -9.490   4.915  65.698  1.00  0.00    -0.168 A  
ENDBRANCH  13  16
ENDBRANCH  10  13
ENDBRANCH   5   9
BRANCH   6  23
HETATM   23  C   UNL     1      -8.669  15.242  69.436  1.00  0.00    -0.216 C  
BRANCH  23  24
HETATM   24  C   UNL     1      -8.866  16.406  68.496  1.00  0.00    -0.224 A  
HETATM   25  N   UNL     1      -9.090  18.520  67.793  1.00  0.00    -0.275 NA 
HETATM   26  C   UNL     1      -9.722  17.754  66.837  1.00  0.00    -0.300 A  
HETATM   27  C   UNL     1      -9.587  16.428  67.251  1.00  0.00    -0.235 A  
HETATM   28  C   UNL     1      -8.495  17.719  68.733  1.00  0.00    -0.211 A  
HETATM   29  C   UNL     1      -9.143  19.964  67.855  1.00  0.00    -0.313 C  
HETATM   30  C   UNL     1     -10.181  15.434  66.451  1.00  0.00    -0.296 A  
HETATM   31  C   UNL     1     -10.812  15.738  65.239  1.00  0.00    -0.395 A  
HETATM   32  C   UNL     1     -10.957  17.076  64.876  1.00  0.00     0.083 A  
HETATM   33  C   UNL     1     -10.429  18.106  65.673  1.00  0.00    -0.103 A  
BRANCH  31  34
HETATM   34  N   UNL     1     -11.289  14.736  64.361  1.00  0.00    -0.638 N  
HETATM   35  H   UNL     1     -10.709  14.513  63.552  1.00  0.00     0.000 HD 
HETATM   36  C   UNL     1     -12.460  14.038  64.501  1.00  0.00    -0.308 C  
HETATM   37  O   UNL     1     -13.302  14.187  65.370  1.00  0.00    -0.705 OA 
BRANCH  36  38
HETATM   38  O   UNL     1     -12.585  13.099  63.517  1.00  0.00    -0.722 OA 
BRANCH  38  39
HETATM   39  C   UNL     1     -12.007  11.844  63.886  1.00  0.00    -0.402 C  
HETATM   40  C   UNL     1     -10.679  11.609  63.169  1.00  0.00    -0.312 C  
HETATM   41  C   UNL     1     -10.023  10.539  64.018  1.00  0.00    -0.363 C  
HETATM   42  C   UNL     1     -10.370  10.936  65.449  1.00  0.00    -0.326 C  
HETATM   43  C   UNL     1     -11.637  11.793  65.366  1.00  0.00    -0.190 C  
ENDBRANCH  38  39
ENDBRANCH  36  38
ENDBRANCH  31  34
ENDBRANCH  23  24
ENDBRANCH   6  23
ENDBRANCH   2   3
TORSDOF 9
ENDMDL
MODEL       55
REMARK 921   NORMALIZED FREE ENERGY PREDICTED BY IDOCK:   -6.06 KCAL/MOL
REMARK 922        TOTAL FREE ENERGY PREDICTED BY IDOCK:  -11.00 KCAL/MOL
REMARK 923 INTER-LIGAND FREE ENERGY PREDICTED BY IDOCK:   -9.25 KCAL/MOL
REMARK 924 INTRA-LIGAND FREE ENERGY PREDICTED BY IDOCK:   -1.75 KCAL/MOL
REMARK 927      BINDING AFFINITY PREDICTED BY RF-SCORE:    0.00 PKD
ROOT
HETATM    1  C   UNL     1     -10.318  10.884  64.582  1.00  0.00    -0.338 C  
HETATM    2  O   UNL     1     -10.688  11.079  65.940  1.00  0.00    -0.234 OA 
ENDROOT
BRANCH   2   3
HETATM    3  C   UNL     1      -9.687  11.302  66.849  1.00  0.00    -0.192 A  
HETATM    4  C   UNL     1      -8.680  10.376  67.159  1.00  0.00    -0.130 A  
HETATM    5  C   UNL     1      -7.664  10.698  68.073  1.00  0.00    -0.100 A  
HETATM    6  C   UNL     1      -9.681  12.571  67.461  1.00  0.00    -0.196 A  
HETATM    7  C   UNL     1      -7.608  11.982  68.615  1.00  0.00    -0.112 A  
HETATM    8  C   UNL     1      -8.600  12.908  68.296  1.00  0.00    -0.170 A  
BRANCH   5   9
HETATM    9  C   UNL     1      -6.694   9.641  68.458  1.00  0.00    -0.052 C  
HETATM   10  N   UNL     1      -7.254   8.431  68.888  1.00  0.00    -0.076 N  
HETATM   11  H   UNL     1      -8.270   8.383  68.966  1.00  0.00     0.000 HD 
HETATM   12  O   UNL     1      -5.493   9.846  68.403  1.00  0.00    -0.036 OA 
BRANCH  10  13
HETATM   13  S   UNL     1      -6.388   7.067  69.279  1.00  0.00    -0.036 S  
HETATM   14  O   UNL     1      -5.759   7.295  70.564  1.00  0.00    -0.024 OA 
HETATM   15  O   UNL     1      -5.578   6.771  68.113  1.00  0.00    -0.015 OA 
BRANCH  13  16
HETATM   16  C   UNL     1      -7.599   5.768  69.435  1.00  0.00    -0.088 A  
HETATM   17  C   UNL     1      -8.865   5.995  68.875  1.00  0.00    -0.120 A  
HETATM   18  C   UNL     1      -5.996   4.264  70.758  1.00  0.00    -0.014 C  
HETATM   19  C   UNL     1      -9.861   5.025  68.975  1.00  0.00    -0.252 A  
HETATM   20  C   UNL     1      -7.318   4.564  70.113  1.00  0.00    -0.050 A  
HETATM   21  C   UNL     1      -9.597   3.829  69.634  1.00  0.00    -0.242 A  
HETATM   22  C   UNL     1      -8.339   3.600  70.197  1.00  0.00    -0.085 A  
ENDBRANCH  13  16
ENDBRANCH  10  13
ENDBRANCH   5   9
BRANCH   6  23
HETATM   23  C   UNL     1     -10.769  13.593  67.212  1.00  0.00    -0.283 C  
BRANCH  23  24
HETATM   24  C   UNL     1     -11.552  13.838  68.478  1.00  0.00    -0.373 A  
HETATM   25  N   UNL     1     -12.325  14.892  70.297  1.00  0.00    -0.329 NA 
HETATM   26  C   UNL     1     -12.469  13.549  70.570  1.00  0.00    -0.302 A  
HETATM   27  C   UNL     1     -12.000  12.871  69.445  1.00  0.00    -0.327 A  
HETATM   28  C   UNL     1     -11.870  15.074  69.016  1.00  0.00    -0.300 A  
HETATM   29  C   UNL     1     -12.519  15.953  71.261  1.00  0.00    -0.387 C  
HETATM   30  C   UNL     1     -12.012  11.464  69.483  1.00  0.00    -0.409 A  
HETATM   31  C   UNL     1     -12.549  10.756  70.565  1.00  0.00    -0.336 A  
HETATM   32  C   UNL     1     -12.975  11.467  71.685  1.00  0.00    -0.499 A  
HETATM   33  C   UNL     1     -12.930  12.872  71.714  1.00  0.00    -0.416 A  
BRANCH  31  34
HETATM   34  N   UNL     1     -12.693   9.349  70.553  1.00  0.00    -0.475 N  
HETATM   35  H   UNL     1     -12.635   8.883  69.647  1.00  0.00     0.000 HD 
HETATM   36  C   UNL     1     -12.903   8.555  71.650  1.00  0.00    -0.338 C  
HETATM   37  O   UNL     1     -13.042   8.923  72.805  1.00  0.00    -0.377 OA 
BRANCH  36  38
HETATM   38  O   UNL     1     -12.929   7.236  71.296  1.00  0.00    -0.369 OA 
BRANCH  38  39
HETATM   39  C   UNL     1     -11.639   6.624  71.379  1.00  0.00    -0.313 C  
HETATM   40  C   UNL     1     -10.580   7.619  71.849  1.00  0.00    -0.257 C  
HETATM   41  C   UNL     1      -9.461   6.717  72.328  1.00  0.00    -0.149 C  
HETATM   42  C   UNL     1     -10.182   5.568  73.026  1.00  0.00    -0.214 C  
HETATM   43  C   UNL     1     -11.593   5.519  72.431  1.00  0.00    -0.230 C  
ENDBRANCH  38  39
ENDBRANCH  36  38
ENDBRANCH  31  34
ENDBRANCH  23  24
ENDBRANCH   6  23
ENDBRANCH   2   3
TORSDOF 9
ENDMDL
MODEL       56
REMARK 921   NORMALIZED FREE ENERGY PREDICTED BY IDOCK:   -6.04 KCAL/MOL
REMARK 922        TOTAL FREE ENERGY PREDICTED BY IDOCK:  -10.97 KCAL/MOL
REMARK 923 INTER-LIGAND FREE ENERGY PREDICTED BY IDOCK:   -9.23 KCAL/MOL
REMARK 924 INTRA-LIGAND FREE ENERGY PREDICTED BY IDOCK:   -1.74 KCAL/MOL
REMARK 927      BINDING AFFINITY PREDICTED BY RF-SCORE:    0.00 PKD
ROOT
HETATM    1  C   UNL     1      -6.666   9.969  68.009  1.00  0.00    -0.064 C  
HETATM    2  O   UNL     1      -7.263   9.586  69.241  1.00  0.00    -0.059 OA 
ENDROOT
BRANCH   2   3
HETATM    3  C   UNL     1      -8.555   9.981  69.474  1.00  0.00    -0.186 A  
HETATM    4  C   UNL     1      -9.191  11.036  68.804  1.00  0.00    -0.167 A  
HETATM    5  C   UNL     1     -10.533  11.352  69.072  1.00  0.00    -0.196 A  
HETATM    6  C   UNL     1      -9.267   9.229  70.428  1.00  0.00    -0.291 A  
HETATM    7  C   UNL     1     -11.265  10.555  69.953  1.00  0.00    -0.374 A  
HETATM    8  C   UNL     1     -10.637   9.498  70.609  1.00  0.00    -0.374 A  
BRANCH   5   9
HETATM    9  C   UNL     1     -11.123  12.553  68.426  1.00  0.00    -0.258 C  
HETATM   10  N   UNL     1     -10.393  13.741  68.573  1.00  0.00    -0.242 N  
HETATM   11  H   UNL     1      -9.557  13.711  69.157  1.00  0.00     0.000 HD 
HETATM   12  O   UNL     1     -12.180  12.482  67.821  1.00  0.00    -0.372 OA 
BRANCH  10  13
HETATM   13  S   UNL     1     -10.787  15.193  67.867  1.00  0.00    -0.301 S  
HETATM   14  O   UNL     1     -11.984  15.690  68.514  1.00  0.00    -0.313 OA 
HETATM   15  O   UNL     1     -10.780  14.947  66.438  1.00  0.00    -0.302 OA 
BRANCH  13  16
HETATM   16  C   UNL     1      -9.423  16.280  68.231  1.00  0.00    -0.214 A  
HETATM   17  C   UNL     1      -8.281  15.710  68.816  1.00  0.00    -0.183 A  
HETATM   18  C   UNL     1     -10.677  18.345  67.370  1.00  0.00    -0.397 C  
HETATM   19  C   UNL     1      -7.185  16.508  69.139  1.00  0.00    -0.226 A  
HETATM   20  C   UNL     1      -9.481  17.664  67.970  1.00  0.00    -0.282 A  
HETATM   21  C   UNL     1      -7.225  17.875  68.881  1.00  0.00    -0.258 A  
HETATM   22  C   UNL     1      -8.360  18.447  68.301  1.00  0.00    -0.321 A  
ENDBRANCH  13  16
ENDBRANCH  10  13
ENDBRANCH   5   9
BRANCH   6  23
HETATM   23  C   UNL     1      -8.623   8.115  71.226  1.00  0.00    -0.162 C  
BRANCH  23  24
HETATM   24  C   UNL     1      -9.155   6.777  70.776  1.00  0.00    -0.151 A  
HETATM   25  N   UNL     1      -9.683   4.602  70.835  1.00  0.00    -0.178 NA 
HETATM   26  C   UNL     1      -9.570   4.909  69.496  1.00  0.00    -0.170 A  
HETATM   27  C   UNL     1      -9.248   6.265  69.435  1.00  0.00    -0.139 A  
HETATM   28  C   UNL     1      -9.533   5.730  71.600  1.00  0.00    -0.152 A  
HETATM   29  C   UNL     1      -9.828   3.263  71.361  1.00  0.00    -0.124 C  
HETATM   30  C   UNL     1      -9.046   6.827  68.160  1.00  0.00    -0.123 A  
HETATM   31  C   UNL     1      -9.238   6.090  66.986  1.00  0.00    -0.121 A  
HETATM   32  C   UNL     1      -9.524   4.730  67.088  1.00  0.00    -0.164 A  
HETATM   33  C   UNL     1      -9.680   4.113  68.341  1.00  0.00    -0.150 A  
BRANCH  31  34
HETATM   34  N   UNL     1      -9.173   6.681  65.702  1.00  0.00    -0.376 N  
HETATM   35  H   UNL     1      -9.999   6.598  65.110  1.00  0.00     0.000 HD 
HETATM   36  C   UNL     1      -8.099   7.354  65.182  1.00  0.00    -0.129 C  
HETATM   37  O   UNL     1      -7.013   7.522  65.712  1.00  0.00    -0.058 OA 
BRANCH  36  38
HETATM   38  O   UNL     1      -8.392   7.854  63.946  1.00  0.00    -0.064 OA 
BRANCH  38  39
HETATM   39  C   UNL     1      -8.476   9.282  63.942  1.00  0.00    -0.190 C  
HETATM   40  C   UNL     1      -8.958   9.808  62.592  1.00  0.00    -0.284 C  
HETATM   41  C   UNL     1      -9.435  11.206  62.927  1.00  0.00    -0.382 C  
HETATM   42  C   UNL     1     -10.121  11.050  64.281  1.00  0.00    -0.398 C  
HETATM   43  C   UNL     1      -9.519   9.799  64.929  1.00  0.00    -0.331 C  
ENDBRANCH  38  39
ENDBRANCH  36  38
ENDBRANCH  31  34
ENDBRANCH  23  24
ENDBRANCH   6  23
ENDBRANCH   2   3
TORSDOF 9
ENDMDL
MODEL       57
REMARK 921   NORMALIZED FREE ENERGY PREDICTED BY IDOCK:   -6.03 KCAL/MOL
REMARK 922        TOTAL FREE ENERGY PREDICTED BY IDOCK:  -10.96 KCAL/MOL
REMARK 923 INTER-LIGAND FREE ENERGY PREDICTED BY IDOCK:  -10.11 KCAL/MOL
REMARK 924 INTRA-LIGAND FREE ENERGY PREDICTED BY IDOCK:   -0.85 KCAL/MOL
REMARK 927      BINDING AFFINITY PREDICTED BY RF-SCORE:    0.00 PKD
ROOT
HETATM    1  C   UNL     1      -6.320  11.986  69.612  1.00  0.00    -0.120 C  
HETATM    2  O   UNL     1      -6.983  10.733  69.508  1.00  0.00    -0.101 OA 
ENDROOT
BRANCH   2   3
HETATM    3  C   UNL     1      -7.683  10.476  68.358  1.00  0.00    -0.104 A  
HETATM    4  C   UNL     1      -8.560  11.384  67.747  1.00  0.00    -0.129 A  
HETATM    5  C   UNL     1      -9.209  11.059  66.545  1.00  0.00    -0.187 A  
HETATM    6  C   UNL     1      -7.448   9.222  67.760  1.00  0.00    -0.088 A  
HETATM    7  C   UNL     1      -8.913   9.854  65.907  1.00  0.00    -0.183 A  
HETATM    8  C   UNL     1      -8.030   8.957  66.506  1.00  0.00    -0.103 A  
BRANCH   5   9
HETATM    9  C   UNL     1     -10.220  12.004  66.005  1.00  0.00    -0.226 C  
HETATM   10  N   UNL     1     -10.118  13.326  66.459  1.00  0.00    -0.268 N  
HETATM   11  H   UNL     1      -9.410  13.529  67.164  1.00  0.00     0.000 HD 
HETATM   12  O   UNL     1     -11.078  11.624  65.226  1.00  0.00    -0.292 OA 
BRANCH  10  13
HETATM   13  S   UNL     1     -11.063  14.588  65.933  1.00  0.00    -0.334 S  
HETATM   14  O   UNL     1     -12.411  14.363  66.414  1.00  0.00    -0.409 OA 
HETATM   15  O   UNL     1     -10.806  14.702  64.510  1.00  0.00    -0.338 OA 
BRANCH  13  16
HETATM   16  C   UNL     1     -10.389  16.040  66.717  1.00  0.00    -0.300 A  
HETATM   17  C   UNL     1      -9.419  16.766  66.009  1.00  0.00    -0.257 A  
HETATM   18  C   UNL     1     -11.799  15.702  68.833  1.00  0.00    -0.368 C  
HETATM   19  C   UNL     1      -8.842  17.903  66.572  1.00  0.00    -0.281 A  
HETATM   20  C   UNL     1     -10.786  16.443  68.008  1.00  0.00    -0.342 A  
HETATM   21  C   UNL     1      -9.230  18.318  67.842  1.00  0.00    -0.284 A  
HETATM   22  C   UNL     1     -10.193  17.596  68.553  1.00  0.00    -0.386 A  
ENDBRANCH  13  16
ENDBRANCH  10  13
ENDBRANCH   5   9
BRANCH   6  23
HETATM   23  C   UNL     1      -6.557   8.178  68.396  1.00  0.00    -0.059 C  
BRANCH  23  24
HETATM   24  C   UNL     1      -7.380   6.994  68.841  1.00  0.00    -0.093 A  
HETATM   25  N   UNL     1      -8.087   4.875  69.012  1.00  0.00    -0.079 NA 
HETATM   26  C   UNL     1      -9.179   5.648  69.341  1.00  0.00    -0.121 A  
HETATM   27  C   UNL     1      -8.759   6.975  69.250  1.00  0.00    -0.136 A  
HETATM   28  C   UNL     1      -6.986   5.666  68.807  1.00  0.00    -0.064 A  
HETATM   29  C   UNL     1      -8.125   3.445  68.803  1.00  0.00    -0.060 C  
HETATM   30  C   UNL     1      -9.711   7.978  69.513  1.00  0.00    -0.170 A  
HETATM   31  C   UNL     1     -11.011   7.674  69.934  1.00  0.00    -0.200 A  
HETATM   32  C   UNL     1     -11.404   6.337  69.980  1.00  0.00    -0.486 A  
HETATM   33  C   UNL     1     -10.503   5.304  69.672  1.00  0.00    -0.320 A  
BRANCH  31  34
HETATM   34  N   UNL     1     -11.930   8.672  70.334  1.00  0.00    -0.472 N  
HETATM   35  H   UNL     1     -12.377   9.215  69.596  1.00  0.00     0.000 HD 
HETATM   36  C   UNL     1     -12.274   8.974  71.626  1.00  0.00    -0.348 C  
HETATM   37  O   UNL     1     -11.822   8.471  72.641  1.00  0.00    -0.369 OA 
BRANCH  36  38
HETATM   38  O   UNL     1     -13.237   9.942  71.658  1.00  0.00    -0.377 OA 
BRANCH  38  39
HETATM   39  C   UNL     1     -12.685  11.258  71.748  1.00  0.00    -0.273 C  
HETATM   40  C   UNL     1     -12.275  11.785  70.375  1.00  0.00    -0.416 C  
HETATM   41  C   UNL     1     -12.191  13.281  70.602  1.00  0.00    -0.417 C  
HETATM   42  C   UNL     1     -13.373  13.586  71.516  1.00  0.00    -0.363 C  
HETATM   43  C   UNL     1     -13.707  12.278  72.241  1.00  0.00    -0.193 C  
ENDBRANCH  38  39
ENDBRANCH  36  38
ENDBRANCH  31  34
ENDBRANCH  23  24
ENDBRANCH   6  23
ENDBRANCH   2   3
TORSDOF 9
ENDMDL
MODEL       58
REMARK 921   NORMALIZED FREE ENERGY PREDICTED BY IDOCK:   -5.96 KCAL/MOL
REMARK 922        TOTAL FREE ENERGY PREDICTED BY IDOCK:  -10.86 KCAL/MOL
REMARK 923 INTER-LIGAND FREE ENERGY PREDICTED BY IDOCK:   -9.28 KCAL/MOL
REMARK 924 INTRA-LIGAND FREE ENERGY PREDICTED BY IDOCK:   -1.59 KCAL/MOL
REMARK 927      BINDING AFFINITY PREDICTED BY RF-SCORE:    0.00 PKD
ROOT
HETATM    1  C   UNL     1      -7.610   9.782  69.810  1.00  0.00    -0.137 C  
HETATM    2  O   UNL     1      -8.307   9.785  68.571  1.00  0.00    -0.107 OA 
ENDROOT
BRANCH   2   3
HETATM    3  C   UNL     1      -8.621  11.000  68.020  1.00  0.00    -0.134 A  
HETATM    4  C   UNL     1      -7.731  12.080  67.928  1.00  0.00    -0.134 A  
HETATM    5  C   UNL     1      -8.118  13.280  67.310  1.00  0.00    -0.150 A  
HETATM    6  C   UNL     1      -9.920  11.119  67.487  1.00  0.00    -0.204 A  
HETATM    7  C   UNL     1      -9.373  13.370  66.707  1.00  0.00    -0.260 A  
HETATM    8  C   UNL     1     -10.253  12.292  66.786  1.00  0.00    -0.229 A  
BRANCH   5   9
HETATM    9  C   UNL     1      -7.181  14.433  67.347  1.00  0.00    -0.122 C  
HETATM   10  N   UNL     1      -7.780  15.700  67.365  1.00  0.00    -0.168 N  
HETATM   11  H   UNL     1      -8.796  15.743  67.288  1.00  0.00     0.000 HD 
HETATM   12  O   UNL     1      -5.975  14.257  67.351  1.00  0.00    -0.346 OA 
BRANCH  10  13
HETATM   13  S   UNL     1      -6.957  17.138  67.504  1.00  0.00    -0.158 S  
HETATM   14  O   UNL     1      -6.094  17.269  66.347  1.00  0.00    -0.201 OA 
HETATM   15  O   UNL     1      -6.392  17.138  68.839  1.00  0.00    -0.166 OA 
BRANCH  13  16
HETATM   16  C   UNL     1      -8.211  18.405  67.453  1.00  0.00    -0.244 A  
HETATM   17  C   UNL     1      -9.545  17.988  67.325  1.00  0.00    -0.269 A  
HETATM   18  C   UNL     1      -6.485  20.294  67.623  1.00  0.00    -0.281 C  
HETATM   19  C   UNL     1     -10.572  18.929  67.264  1.00  0.00    -0.529 A  
HETATM   20  C   UNL     1      -7.889  19.776  67.511  1.00  0.00    -0.317 A  
HETATM   21  C   UNL     1     -10.271  20.286  67.329  1.00  0.00    -0.495 A  
HETATM   22  C   UNL     1      -8.943  20.705  67.453  1.00  0.00    -0.361 A  
ENDBRANCH  13  16
ENDBRANCH  10  13
ENDBRANCH   5   9
BRANCH   6  23
HETATM   23  C   UNL     1     -10.946  10.012  67.604  1.00  0.00    -0.297 C  
BRANCH  23  24
HETATM   24  C   UNL     1     -11.593  10.044  68.966  1.00  0.00     0.006 A  
HETATM   25  N   UNL     1     -12.515  10.871  70.832  1.00  0.00    -0.375 NA 
HETATM   26  C   UNL     1     -12.025   9.634  71.190  1.00  0.00    -0.367 A  
HETATM   27  C   UNL     1     -11.452   9.095  70.038  1.00  0.00    -0.034 A  
HETATM   28  C   UNL     1     -12.348  11.082  69.488  1.00  0.00    -0.197 A  
HETATM   29  C   UNL     1     -13.030  11.852  71.762  1.00  0.00    -0.350 C  
HETATM   30  C   UNL     1     -10.846   7.829  70.146  1.00  0.00    -0.248 A  
HETATM   31  C   UNL     1     -10.881   7.089  71.333  1.00  0.00    -0.229 A  
HETATM   32  C   UNL     1     -11.432   7.675  72.472  1.00  0.00    -0.405 A  
HETATM   33  C   UNL     1     -11.999   8.960  72.425  1.00  0.00    -0.320 A  
BRANCH  31  34
HETATM   34  N   UNL     1     -10.399   5.761  71.413  1.00  0.00    -0.215 N  
HETATM   35  H   UNL     1     -11.067   5.012  71.234  1.00  0.00     0.000 HD 
HETATM   36  C   UNL     1      -9.112   5.392  71.709  1.00  0.00    -0.138 C  
HETATM   37  O   UNL     1      -8.185   6.132  71.993  1.00  0.00    -0.110 OA 
BRANCH  36  38
HETATM   38  O   UNL     1      -8.968   4.036  71.638  1.00  0.00    -0.111 OA 
BRANCH  38  39
HETATM   39  C   UNL     1      -9.560   3.487  70.457  1.00  0.00    -0.176 C  
HETATM   40  C   UNL     1      -8.736   3.818  69.215  1.00  0.00    -0.131 C  
HETATM   41  C   UNL     1      -9.217   2.792  68.209  1.00  0.00    -0.250 C  
HETATM   42  C   UNL     1      -9.384   1.517  69.030  1.00  0.00    -0.188 C  
HETATM   43  C   UNL     1      -9.586   1.961  70.482  1.00  0.00    -0.129 C  
ENDBRANCH  38  39
ENDBRANCH  36  38
ENDBRANCH  31  34
ENDBRANCH  23  24
ENDBRANCH   6  23
ENDBRANCH   2   3
TORSDOF 9
ENDMDL
MODEL       59
REMARK 921   NORMALIZED FREE ENERGY PREDICTED BY IDOCK:   -5.92 KCAL/MOL
REMARK 922        TOTAL FREE ENERGY PREDICTED BY IDOCK:  -10.80 KCAL/MOL
REMARK 923 INTER-LIGAND FREE ENERGY PREDICTED BY IDOCK:  -10.23 KCAL/MOL
REMARK 924 INTRA-LIGAND FREE ENERGY PREDICTED BY IDOCK:   -0.57 KCAL/MOL
REMARK 927      BINDING AFFINITY PREDICTED BY RF-SCORE:    0.00 PKD
ROOT
HETATM    1  C   UNL     1      -8.462  10.866  68.035  1.00  0.00    -0.130 C  
HETATM    2  O   UNL     1      -9.846  10.550  68.107  1.00  0.00    -0.149 OA 
ENDROOT
BRANCH   2   3
HETATM    3  C   UNL     1     -10.305   9.955  69.254  1.00  0.00    -0.219 A  
HETATM    4  C   UNL     1      -9.688   8.862  69.878  1.00  0.00    -0.185 A  
HETATM    5  C   UNL     1     -10.199   8.336  71.076  1.00  0.00    -0.230 A  
HETATM    6  C   UNL     1     -11.452  10.534  69.832  1.00  0.00    -0.384 A  
HETATM    7  C   UNL     1     -11.282   8.960  71.695  1.00  0.00    -0.415 A  
HETATM    8  C   UNL     1     -11.887  10.055  71.082  1.00  0.00    -0.481 A  
BRANCH   5   9
HETATM    9  C   UNL     1      -9.581   7.103  71.631  1.00  0.00    -0.155 C  
HETATM   10  N   UNL     1     -10.478   6.145  72.124  1.00  0.00    -0.198 N  
HETATM   11  H   UNL     1     -11.469   6.384  72.126  1.00  0.00     0.000 HD 
HETATM   12  O   UNL     1      -8.370   6.967  71.652  1.00  0.00    -0.109 OA 
BRANCH  10  13
HETATM   13  S   UNL     1     -10.046   4.648  72.704  1.00  0.00    -0.178 S  
HETATM   14  O   UNL     1     -11.177   4.114  73.436  1.00  0.00    -0.257 OA 
HETATM   15  O   UNL     1      -8.772   4.840  73.369  1.00  0.00    -0.102 OA 
BRANCH  13  16
HETATM   16  C   UNL     1      -9.751   3.649  71.258  1.00  0.00    -0.169 A  
HETATM   17  C   UNL     1      -9.849   4.278  70.007  1.00  0.00    -0.275 A  
HETATM   18  C   UNL     1      -9.360   1.530  72.650  1.00  0.00    -0.109 C  
HETATM   19  C   UNL     1      -9.644   3.549  68.837  1.00  0.00    -0.140 A  
HETATM   20  C   UNL     1      -9.455   2.273  71.349  1.00  0.00    -0.207 A  
HETATM   21  C   UNL     1      -9.343   2.193  68.911  1.00  0.00    -0.209 A  
HETATM   22  C   UNL     1      -9.249   1.561  70.154  1.00  0.00    -0.154 A  
ENDBRANCH  13  16
ENDBRANCH  10  13
ENDBRANCH   5   9
BRANCH   6  23
HETATM   23  C   UNL     1     -12.197  11.678  69.179  1.00  0.00    -0.201 C  
BRANCH  23  24
HETATM   24  C   UNL     1     -12.085  12.922  70.026  1.00  0.00    -0.357 A  
HETATM   25  N   UNL     1     -12.599  14.464  71.567  1.00  0.00    -0.332 NA 
HETATM   26  C   UNL     1     -11.796  15.117  70.657  1.00  0.00    -0.325 A  
HETATM   27  C   UNL     1     -11.456  14.171  69.690  1.00  0.00    -0.329 A  
HETATM   28  C   UNL     1     -12.698  13.134  71.251  1.00  0.00    -0.306 A  
HETATM   29  C   UNL     1     -13.325  15.113  72.636  1.00  0.00    -0.464 C  
HETATM   30  C   UNL     1     -10.652  14.599  68.616  1.00  0.00    -0.252 A  
HETATM   31  C   UNL     1     -10.134  15.898  68.550  1.00  0.00    -0.217 A  
HETATM   32  C   UNL     1     -10.525  16.824  69.515  1.00  0.00    -0.263 A  
HETATM   33  C   UNL     1     -11.371  16.456  70.575  1.00  0.00    -0.211 A  
BRANCH  31  34
HETATM   34  N   UNL     1      -9.215  16.297  67.551  1.00  0.00    -0.204 N  
HETATM   35  H   UNL     1      -8.236  16.051  67.696  1.00  0.00     0.000 HD 
HETATM   36  C   UNL     1      -9.523  16.985  66.407  1.00  0.00    -0.271 C  
HETATM   37  O   UNL     1     -10.620  17.403  66.076  1.00  0.00    -0.320 OA 
BRANCH  36  38
HETATM   38  O   UNL     1      -8.413  17.151  65.628  1.00  0.00    -0.460 OA 
BRANCH  38  39
HETATM   39  C   UNL     1      -7.487  18.085  66.191  1.00  0.00    -0.270 C  
HETATM   40  C   UNL     1      -6.263  18.264  65.297  1.00  0.00    -0.198 C  
HETATM   41  C   UNL     1      -5.683  19.578  65.780  1.00  0.00    -0.177 C  
HETATM   42  C   UNL     1      -6.907  20.449  66.046  1.00  0.00    -0.276 C  
HETATM   43  C   UNL     1      -8.076  19.489  66.292  1.00  0.00    -0.344 C  
ENDBRANCH  38  39
ENDBRANCH  36  38
ENDBRANCH  31  34
ENDBRANCH  23  24
ENDBRANCH   6  23
ENDBRANCH   2   3
TORSDOF 9
ENDMDL
MODEL       60
REMARK 921   NORMALIZED FREE ENERGY PREDICTED BY IDOCK:   -5.92 KCAL/MOL
REMARK 922        TOTAL FREE ENERGY PREDICTED BY IDOCK:  -10.79 KCAL/MOL
REMARK 923 INTER-LIGAND FREE ENERGY PREDICTED BY IDOCK:   -9.42 KCAL/MOL
REMARK 924 INTRA-LIGAND FREE ENERGY PREDICTED BY IDOCK:   -1.37 KCAL/MOL
REMARK 927      BINDING AFFINITY PREDICTED BY RF-SCORE:    0.00 PKD
ROOT
HETATM    1  C   UNL     1      -7.882  11.082  68.363  1.00  0.00    -0.127 C  
HETATM    2  O   UNL     1      -9.198  10.556  68.474  1.00  0.00    -0.153 OA 
ENDROOT
BRANCH   2   3
HETATM    3  C   UNL     1      -9.500   9.827  69.594  1.00  0.00    -0.219 A  
HETATM    4  C   UNL     1      -8.586   9.016  70.280  1.00  0.00    -0.193 A  
HETATM    5  C   UNL     1      -8.965   8.332  71.446  1.00  0.00    -0.211 A  
HETATM    6  C   UNL     1     -10.817   9.959  70.079  1.00  0.00    -0.339 A  
HETATM    7  C   UNL     1     -10.240   8.528  71.975  1.00  0.00    -0.391 A  
HETATM    8  C   UNL     1     -11.146   9.346  71.301  1.00  0.00    -0.446 A  
BRANCH   5   9
HETATM    9  C   UNL     1      -7.996   7.391  72.065  1.00  0.00    -0.093 C  
HETATM   10  N   UNL     1      -8.538   6.192  72.548  1.00  0.00    -0.122 N  
HETATM   11  H   UNL     1      -9.551   6.080  72.500  1.00  0.00     0.000 HD 
HETATM   12  O   UNL     1      -6.812   7.674  72.143  1.00  0.00    -0.057 OA 
BRANCH  10  13
HETATM   13  S   UNL     1      -7.655   4.939  73.193  1.00  0.00    -0.093 S  
HETATM   14  O   UNL     1      -7.022   5.421  74.404  1.00  0.00    -0.076 OA 
HETATM   15  O   UNL     1      -6.849   4.428  72.102  1.00  0.00    -0.045 OA 
BRANCH  13  16
HETATM   16  C   UNL     1      -8.851   3.685  73.610  1.00  0.00    -0.088 A  
HETATM   17  C   UNL     1     -10.204   3.980  73.380  1.00  0.00    -0.215 A  
HETATM   18  C   UNL     1      -7.048   2.076  74.469  1.00  0.00    -0.028 C  
HETATM   19  C   UNL     1     -11.190   3.048  73.697  1.00  0.00    -0.298 A  
HETATM   20  C   UNL     1      -8.472   2.450  74.173  1.00  0.00    -0.066 A  
HETATM   21  C   UNL     1     -10.831   1.821  74.246  1.00  0.00    -0.193 A  
HETATM   22  C   UNL     1      -9.485   1.525  74.480  1.00  0.00    -0.083 A  
ENDBRANCH  13  16
ENDBRANCH  10  13
ENDBRANCH   5   9
BRANCH   6  23
HETATM   23  C   UNL     1     -11.867  10.774  69.354  1.00  0.00    -0.370 C  
BRANCH  23  24
HETATM   24  C   UNL     1     -12.139  12.055  70.104  1.00  0.00    -0.377 A  
HETATM   25  N   UNL     1     -13.202  13.546  71.394  1.00  0.00    -0.307 NA 
HETATM   26  C   UNL     1     -12.362  14.293  70.596  1.00  0.00    -0.361 A  
HETATM   27  C   UNL     1     -11.682  13.382  69.788  1.00  0.00    -0.355 A  
HETATM   28  C   UNL     1     -13.005  12.207  71.174  1.00  0.00    -0.148 A  
HETATM   29  C   UNL     1     -14.223  14.098  72.256  1.00  0.00    -0.504 C  
HETATM   30  C   UNL     1     -10.771  13.901  68.848  1.00  0.00    -0.256 A  
HETATM   31  C   UNL     1     -10.484  15.269  68.772  1.00  0.00    -0.237 A  
HETATM   32  C   UNL     1     -11.208  16.151  69.572  1.00  0.00    -0.337 A  
HETATM   33  C   UNL     1     -12.168  15.682  70.485  1.00  0.00    -0.437 A  
BRANCH  31  34
HETATM   34  N   UNL     1      -9.470  15.784  67.930  1.00  0.00    -0.211 N  
HETATM   35  H   UNL     1      -9.717  15.950  66.954  1.00  0.00     0.000 HD 
HETATM   36  C   UNL     1      -8.187  16.081  68.308  1.00  0.00    -0.159 C  
HETATM   37  O   UNL     1      -7.691  15.915  69.410  1.00  0.00    -0.226 OA 
BRANCH  36  38
HETATM   38  O   UNL     1      -7.488  16.623  67.267  1.00  0.00    -0.142 OA 
BRANCH  38  39
HETATM   39  C   UNL     1      -7.998  17.900  66.875  1.00  0.00    -0.227 C  
HETATM   40  C   UNL     1      -7.870  18.921  68.003  1.00  0.00    -0.305 C  
HETATM   41  C   UNL     1      -7.987  20.244  67.274  1.00  0.00    -0.378 C  
HETATM   42  C   UNL     1      -7.205  20.026  65.982  1.00  0.00    -0.320 C  
HETATM   43  C   UNL     1      -7.193  18.515  65.733  1.00  0.00    -0.224 C  
ENDBRANCH  38  39
ENDBRANCH  36  38
ENDBRANCH  31  34
ENDBRANCH  23  24
ENDBRANCH   6  23
ENDBRANCH   2   3
TORSDOF 9
ENDMDL
MODEL       61
REMARK 921   NORMALIZED FREE ENERGY PREDICTED BY IDOCK:   -5.85 KCAL/MOL
REMARK 922        TOTAL FREE ENERGY PREDICTED BY IDOCK:  -10.69 KCAL/MOL
REMARK 923 INTER-LIGAND FREE ENERGY PREDICTED BY IDOCK:  -10.83 KCAL/MOL
REMARK 924 INTRA-LIGAND FREE ENERGY PREDICTED BY IDOCK:    0.14 KCAL/MOL
REMARK 927      BINDING AFFINITY PREDICTED BY RF-SCORE:    0.00 PKD
ROOT
HETATM    1  C   UNL     1     -12.504  13.256  63.240  1.00  0.00    -0.121 C  
HETATM    2  O   UNL     1     -12.892  13.088  64.597  1.00  0.00    -0.700 OA 
ENDROOT
BRANCH   2   3
HETATM    3  C   UNL     1     -11.960  13.357  65.565  1.00  0.00    -0.398 A  
HETATM    4  C   UNL     1     -11.887  14.563  66.278  1.00  0.00    -0.354 A  
HETATM    5  C   UNL     1     -10.925  14.745  67.285  1.00  0.00    -0.318 A  
HETATM    6  C   UNL     1     -11.059  12.315  65.861  1.00  0.00    -0.360 A  
HETATM    7  C   UNL     1     -10.089  13.686  67.638  1.00  0.00    -0.242 A  
HETATM    8  C   UNL     1     -10.171  12.482  66.939  1.00  0.00    -0.237 A  
BRANCH   5   9
HETATM    9  C   UNL     1     -10.811  16.081  67.924  1.00  0.00    -0.333 C  
HETATM   10  N   UNL     1     -10.176  17.068  67.157  1.00  0.00    -0.300 N  
HETATM   11  H   UNL     1      -9.787  16.788  66.257  1.00  0.00     0.000 HD 
HETATM   12  O   UNL     1     -11.242  16.275  69.048  1.00  0.00    -0.326 OA 
BRANCH  10  13
HETATM   13  S   UNL     1     -10.010  18.661  67.605  1.00  0.00    -0.360 S  
HETATM   14  O   UNL     1     -10.160  18.734  69.044  1.00  0.00    -0.393 OA 
HETATM   15  O   UNL     1     -10.904  19.405  66.739  1.00  0.00    -0.454 OA 
BRANCH  13  16
HETATM   16  C   UNL     1      -8.342  19.104  67.161  1.00  0.00    -0.279 A  
HETATM   17  C   UNL     1      -8.174  20.028  66.117  1.00  0.00    -0.302 A  
HETATM   18  C   UNL     1      -7.325  17.528  68.911  1.00  0.00    -0.245 C  
HETATM   19  C   UNL     1      -6.896  20.405  65.712  1.00  0.00    -0.273 A  
HETATM   20  C   UNL     1      -7.223  18.538  67.806  1.00  0.00    -0.228 A  
HETATM   21  C   UNL     1      -5.782  19.862  66.344  1.00  0.00    -0.179 A  
HETATM   22  C   UNL     1      -5.943  18.939  67.381  1.00  0.00    -0.167 A  
ENDBRANCH  13  16
ENDBRANCH  10  13
ENDBRANCH   5   9
BRANCH   6  23
HETATM   23  C   UNL     1     -11.049  11.012  65.091  1.00  0.00    -0.011 C  
BRANCH  23  24
HETATM   24  C   UNL     1      -9.858  10.179  65.494  1.00  0.00    -0.365 A  
HETATM   25  N   UNL     1      -7.931   9.050  65.320  1.00  0.00    -0.109 NA 
HETATM   26  C   UNL     1      -8.574   8.500  66.408  1.00  0.00    -0.125 A  
HETATM   27  C   UNL     1      -9.776   9.196  66.541  1.00  0.00    -0.306 A  
HETATM   28  C   UNL     1      -8.644  10.114  64.829  1.00  0.00    -0.181 A  
HETATM   29  C   UNL     1      -6.734   8.512  64.714  1.00  0.00    -0.068 C  
HETATM   30  C   UNL     1     -10.644   8.801  67.577  1.00  0.00    -0.298 A  
HETATM   31  C   UNL     1     -10.293   7.808  68.499  1.00  0.00    -0.197 A  
HETATM   32  C   UNL     1      -9.099   7.112  68.313  1.00  0.00    -0.134 A  
HETATM   33  C   UNL     1      -8.228   7.435  67.259  1.00  0.00    -0.115 A  
BRANCH  31  34
HETATM   34  N   UNL     1     -11.095   7.501  69.624  1.00  0.00    -0.429 N  
HETATM   35  H   UNL     1     -11.571   6.599  69.623  1.00  0.00     0.000 HD 
HETATM   36  C   UNL     1     -11.289   8.308  70.714  1.00  0.00    -0.266 C  
HETATM   37  O   UNL     1     -10.845   9.431  70.883  1.00  0.00    -0.267 OA 
BRANCH  36  38
HETATM   38  O   UNL     1     -12.065   7.682  71.648  1.00  0.00    -0.284 OA 
BRANCH  38  39
HETATM   39  C   UNL     1     -11.287   7.062  72.676  1.00  0.00    -0.252 C  
HETATM   40  C   UNL     1     -11.553   5.560  72.747  1.00  0.00    -0.298 C  
HETATM   41  C   UNL     1     -10.345   5.041  73.499  1.00  0.00    -0.250 C  
HETATM   42  C   UNL     1      -9.183   5.861  72.948  1.00  0.00    -0.138 C  
HETATM   43  C   UNL     1      -9.789   7.156  72.399  1.00  0.00    -0.174 C  
ENDBRANCH  38  39
ENDBRANCH  36  38
ENDBRANCH  31  34
ENDBRANCH  23  24
ENDBRANCH   6  23
ENDBRANCH   2   3
TORSDOF 9
ENDMDL
MODEL       62
REMARK 921   NORMALIZED FREE ENERGY PREDICTED BY IDOCK:   -5.79 KCAL/MOL
REMARK 922        TOTAL FREE ENERGY PREDICTED BY IDOCK:  -10.60 KCAL/MOL
REMARK 923 INTER-LIGAND FREE ENERGY PREDICTED BY IDOCK:   -9.77 KCAL/MOL
REMARK 924 INTRA-LIGAND FREE ENERGY PREDICTED BY IDOCK:   -0.84 KCAL/MOL
REMARK 927      BINDING AFFINITY PREDICTED BY RF-SCORE:    0.00 PKD
ROOT
HETATM    1  C   UNL     1     -13.539  14.461  71.374  1.00  0.00    -0.360 C  
HETATM    2  O   UNL     1     -12.409  14.159  70.566  1.00  0.00    -0.320 OA 
ENDROOT
BRANCH   2   3
HETATM    3  C   UNL     1     -12.205  12.848  70.221  1.00  0.00    -0.289 A  
HETATM    4  C   UNL     1     -12.441  11.761  71.074  1.00  0.00    -0.411 A  
HETATM    5  C   UNL     1     -12.245  10.443  70.630  1.00  0.00    -0.441 A  
HETATM    6  C   UNL     1     -11.765  12.619  68.903  1.00  0.00    -0.370 A  
HETATM    7  C   UNL     1     -11.893  10.210  69.300  1.00  0.00     0.007 A  
HETATM    8  C   UNL     1     -11.671  11.291  68.448  1.00  0.00    -0.365 A  
BRANCH   5   9
HETATM    9  C   UNL     1     -12.391   9.334  71.608  1.00  0.00    -0.372 C  
HETATM   10  N   UNL     1     -11.714   8.149  71.288  1.00  0.00    -0.276 N  
HETATM   11  H   UNL     1     -11.230   8.111  70.391  1.00  0.00     0.000 HD 
HETATM   12  O   UNL     1     -13.071   9.471  72.611  1.00  0.00    -0.318 OA 
BRANCH  10  13
HETATM   13  S   UNL     1     -11.640   6.803  72.260  1.00  0.00    -0.253 S  
HETATM   14  O   UNL     1     -12.989   6.300  72.425  1.00  0.00    -0.007 OA 
HETATM   15  O   UNL     1     -10.864   7.201  73.418  1.00  0.00    -0.351 OA 
BRANCH  13  16
HETATM   16  C   UNL     1     -10.673   5.615  71.348  1.00  0.00    -0.244 A  
HETATM   17  C   UNL     1     -10.414   5.895  69.997  1.00  0.00    -0.334 A  
HETATM   18  C   UNL     1     -10.462   4.050  73.369  1.00  0.00    -0.251 C  
HETATM   19  C   UNL     1      -9.676   5.000  69.224  1.00  0.00    -0.249 A  
HETATM   20  C   UNL     1     -10.202   4.425  71.939  1.00  0.00    -0.216 A  
HETATM   21  C   UNL     1      -9.197   3.825  69.795  1.00  0.00    -0.213 A  
HETATM   22  C   UNL     1      -9.456   3.541  71.139  1.00  0.00    -0.229 A  
ENDBRANCH  13  16
ENDBRANCH  10  13
ENDBRANCH   5   9
BRANCH   6  23
HETATM   23  C   UNL     1     -11.438  13.750  67.951  1.00  0.00    -0.347 C  
BRANCH  23  24
HETATM   24  C   UNL     1     -11.304  13.223  66.544  1.00  0.00    -0.353 A  
HETATM   25  N   UNL     1     -11.889  12.576  64.481  1.00  0.00    -0.363 NA 
HETATM   26  C   UNL     1     -10.719  11.901  64.753  1.00  0.00    -0.307 A  
HETATM   27  C   UNL     1     -10.330  12.296  66.033  1.00  0.00    -0.273 A  
HETATM   28  C   UNL     1     -12.193  13.438  65.503  1.00  0.00    -0.455 A  
HETATM   29  C   UNL     1     -12.733  12.328  63.334  1.00  0.00    -0.336 C  
HETATM   30  C   UNL     1      -9.162  11.717  66.565  1.00  0.00    -0.206 A  
HETATM   31  C   UNL     1      -8.363  10.843  65.819  1.00  0.00    -0.133 A  
HETATM   32  C   UNL     1      -8.801  10.445  64.558  1.00  0.00    -0.225 A  
HETATM   33  C   UNL     1      -9.991  10.953  64.009  1.00  0.00    -0.403 A  
BRANCH  31  34
HETATM   34  N   UNL     1      -7.117  10.367  66.292  1.00  0.00    -0.116 N  
HETATM   35  H   UNL     1      -6.467  11.057  66.666  1.00  0.00     0.000 HD 
HETATM   36  C   UNL     1      -6.706   9.059  66.291  1.00  0.00    -0.070 C  
HETATM   37  O   UNL     1      -7.316   8.099  65.850  1.00  0.00    -0.074 OA 
BRANCH  36  38
HETATM   38  O   UNL     1      -5.479   8.936  66.878  1.00  0.00    -0.039 OA 
BRANCH  38  39
HETATM   39  C   UNL     1      -5.557   8.371  68.189  1.00  0.00    -0.035 C  
HETATM   40  C   UNL     1      -6.939   8.578  68.804  1.00  0.00    -0.063 C  
HETATM   41  C   UNL     1      -6.976   7.538  69.906  1.00  0.00    -0.059 C  
HETATM   42  C   UNL     1      -6.289   6.323  69.292  1.00  0.00    -0.035 C  
HETATM   43  C   UNL     1      -5.389   6.854  68.172  1.00  0.00    -0.015 C  
ENDBRANCH  38  39
ENDBRANCH  36  38
ENDBRANCH  31  34
ENDBRANCH  23  24
ENDBRANCH   6  23
ENDBRANCH   2   3
TORSDOF 9
ENDMDL
MODEL       63
REMARK 921   NORMALIZED FREE ENERGY PREDICTED BY IDOCK:   -5.76 KCAL/MOL
REMARK 922        TOTAL FREE ENERGY PREDICTED BY IDOCK:  -10.55 KCAL/MOL
REMARK 923 INTER-LIGAND FREE ENERGY PREDICTED BY IDOCK:   -9.02 KCAL/MOL
REMARK 924 INTRA-LIGAND FREE ENERGY PREDICTED BY IDOCK:   -1.53 KCAL/MOL
REMARK 927      BINDING AFFINITY PREDICTED BY RF-SCORE:    0.00 PKD
ROOT
HETATM    1  C   UNL     1      -6.946  10.842  68.646  1.00  0.00    -0.073 C  
HETATM    2  O   UNL     1      -7.904  11.759  68.135  1.00  0.00    -0.119 OA 
ENDROOT
BRANCH   2   3
HETATM    3  C   UNL     1      -9.188  11.669  68.606  1.00  0.00    -0.108 A  
HETATM    4  C   UNL     1      -9.718  10.538  69.244  1.00  0.00    -0.215 A  
HETATM    5  C   UNL     1     -11.033  10.540  69.735  1.00  0.00    -0.350 A  
HETATM    6  C   UNL     1      -9.984  12.821  68.453  1.00  0.00    -0.210 A  
HETATM    7  C   UNL     1     -11.793  11.707  69.662  1.00  0.00    -0.419 A  
HETATM    8  C   UNL     1     -11.263  12.836  69.040  1.00  0.00    -0.317 A  
BRANCH   5   9
HETATM    9  C   UNL     1     -11.585   9.278  70.293  1.00  0.00    -0.114 C  
HETATM   10  N   UNL     1     -11.067   8.096  69.747  1.00  0.00    -0.431 N  
HETATM   11  H   UNL     1     -10.406   8.183  68.975  1.00  0.00     0.000 HD 
HETATM   12  O   UNL     1     -12.440   9.300  71.162  1.00  0.00    -0.306 OA 
BRANCH  10  13
HETATM   13  S   UNL     1     -11.447   6.562  70.265  1.00  0.00    -0.397 S  
HETATM   14  O   UNL     1     -11.044   5.632  69.229  1.00  0.00    -0.274 OA 
HETATM   15  O   UNL     1     -12.832   6.626  70.690  1.00  0.00    -0.068 OA 
BRANCH  13  16
HETATM   16  C   UNL     1     -10.451   6.295  71.719  1.00  0.00    -0.211 A  
HETATM   17  C   UNL     1     -11.115   5.919  72.897  1.00  0.00    -0.306 A  
HETATM   18  C   UNL     1      -8.280   6.901  70.495  1.00  0.00    -0.120 C  
HETATM   19  C   UNL     1     -10.396   5.709  74.072  1.00  0.00    -0.298 A  
HETATM   20  C   UNL     1      -9.053   6.476  71.709  1.00  0.00    -0.142 A  
HETATM   21  C   UNL     1      -9.015   5.875  74.076  1.00  0.00    -0.126 A  
HETATM   22  C   UNL     1      -8.350   6.254  72.907  1.00  0.00    -0.118 A  
ENDBRANCH  13  16
ENDBRANCH  10  13
ENDBRANCH   5   9
BRANCH   6  23
HETATM   23  C   UNL     1      -9.492  14.053  67.725  1.00  0.00    -0.209 C  
BRANCH  23  24
HETATM   24  C   UNL     1     -10.160  14.162  66.376  1.00  0.00    -0.299 A  
HETATM   25  N   UNL     1     -11.516  14.916  64.762  1.00  0.00    -0.410 NA 
HETATM   26  C   UNL     1     -11.254  13.604  64.429  1.00  0.00    -0.367 A  
HETATM   27  C   UNL     1     -10.402  13.115  65.419  1.00  0.00    -0.313 A  
HETATM   28  C   UNL     1     -10.792  15.284  65.866  1.00  0.00    -0.342 A  
HETATM   29  C   UNL     1     -12.500  15.749  64.106  1.00  0.00     0.402 C  
HETATM   30  C   UNL     1     -10.003  11.768  65.326  1.00  0.00    -0.284 A  
HETATM   31  C   UNL     1     -10.368  10.961  64.243  1.00  0.00    -0.368 A  
HETATM   32  C   UNL     1     -11.248  11.474  63.292  1.00  0.00    -0.239 A  
HETATM   33  C   UNL     1     -11.718  12.796  63.375  1.00  0.00    -0.556 A  
BRANCH  31  34
HETATM   34  N   UNL     1      -9.859   9.652  64.068  1.00  0.00    -0.365 N  
HETATM   35  H   UNL     1     -10.537   8.890  64.040  1.00  0.00     0.000 HD 
HETATM   36  C   UNL     1      -8.537   9.316  63.935  1.00  0.00    -0.192 C  
HETATM   37  O   UNL     1      -7.581  10.072  63.985  1.00  0.00    -0.135 OA 
BRANCH  36  38
HETATM   38  O   UNL     1      -8.397   7.976  63.716  1.00  0.00    -0.084 OA 
BRANCH  38  39
HETATM   39  C   UNL     1      -7.729   7.315  64.794  1.00  0.00    -0.115 C  
HETATM   40  C   UNL     1      -8.616   7.235  66.035  1.00  0.00    -0.160 C  
HETATM   41  C   UNL     1      -7.966   6.131  66.842  1.00  0.00    -0.105 C  
HETATM   42  C   UNL     1      -7.555   5.099  65.797  1.00  0.00    -0.083 C  
HETATM   43  C   UNL     1      -7.421   5.855  64.472  1.00  0.00    -0.079 C  
ENDBRANCH  38  39
ENDBRANCH  36  38
ENDBRANCH  31  34
ENDBRANCH  23  24
ENDBRANCH   6  23
ENDBRANCH   2   3
TORSDOF 9
ENDMDL
MODEL       64
REMARK 921   NORMALIZED FREE ENERGY PREDICTED BY IDOCK:   -5.76 KCAL/MOL
REMARK 922        TOTAL FREE ENERGY PREDICTED BY IDOCK:  -10.55 KCAL/MOL
REMARK 923 INTER-LIGAND FREE ENERGY PREDICTED BY IDOCK:   -9.32 KCAL/MOL
REMARK 924 INTRA-LIGAND FREE ENERGY PREDICTED BY IDOCK:   -1.23 KCAL/MOL
REMARK 927      BINDING AFFINITY PREDICTED BY RF-SCORE:    0.00 PKD
ROOT
HETATM    1  C   UNL     1      -7.777  12.520  68.424  1.00  0.00    -0.136 C  
HETATM    2  O   UNL     1      -8.548  12.149  67.289  1.00  0.00    -0.165 OA 
ENDROOT
BRANCH   2   3
HETATM    3  C   UNL     1      -8.967  10.848  67.201  1.00  0.00    -0.138 A  
HETATM    4  C   UNL     1      -8.107   9.744  67.115  1.00  0.00    -0.116 A  
HETATM    5  C   UNL     1      -8.617   8.436  67.069  1.00  0.00    -0.124 A  
HETATM    6  C   UNL     1     -10.361  10.645  67.241  1.00  0.00    -0.265 A  
HETATM    7  C   UNL     1      -9.990   8.229  67.195  1.00  0.00    -0.307 A  
HETATM    8  C   UNL     1     -10.846   9.325  67.294  1.00  0.00    -0.140 A  
BRANCH   5   9
HETATM    9  C   UNL     1      -7.670   7.311  66.855  1.00  0.00    -0.110 C  
HETATM   10  N   UNL     1      -8.181   6.215  66.145  1.00  0.00    -0.114 N  
HETATM   11  H   UNL     1      -9.167   6.239  65.887  1.00  0.00     0.000 HD 
HETATM   12  O   UNL     1      -6.531   7.362  67.288  1.00  0.00    -0.055 OA 
BRANCH  10  13
HETATM   13  S   UNL     1      -7.299   4.880  65.694  1.00  0.00    -0.077 S  
HETATM   14  O   UNL     1      -6.892   4.189  66.901  1.00  0.00    -0.050 OA 
HETATM   15  O   UNL     1      -6.302   5.368  64.761  1.00  0.00    -0.032 OA 
BRANCH  13  16
HETATM   16  C   UNL     1      -8.433   3.854  64.778  1.00  0.00    -0.105 A  
HETATM   17  C   UNL     1      -9.768   4.280  64.697  1.00  0.00    -0.152 A  
HETATM   18  C   UNL     1      -6.623   2.119  64.240  1.00  0.00    -0.026 C  
HETATM   19  C   UNL     1     -10.708   3.516  64.008  1.00  0.00    -0.220 A  
HETATM   20  C   UNL     1      -8.026   2.647  64.174  1.00  0.00    -0.081 A  
HETATM   21  C   UNL     1     -10.320   2.326  63.400  1.00  0.00    -0.160 A  
HETATM   22  C   UNL     1      -8.993   1.897  63.481  1.00  0.00    -0.089 A  
ENDBRANCH  13  16
ENDBRANCH  10  13
ENDBRANCH   5   9
BRANCH   6  23
HETATM   23  C   UNL     1     -11.345  11.794  67.277  1.00  0.00    -0.379 C  
BRANCH  23  24
HETATM   24  C   UNL     1     -11.594  12.221  68.703  1.00  0.00    -0.372 A  
HETATM   25  N   UNL     1     -12.407  12.195  70.789  1.00  0.00    -0.358 NA 
HETATM   26  C   UNL     1     -12.097  13.514  70.540  1.00  0.00    -0.335 A  
HETATM   27  C   UNL     1     -11.579  13.554  69.245  1.00  0.00    -0.369 A  
HETATM   28  C   UNL     1     -12.021  11.405  69.737  1.00  0.00    -0.353 A  
HETATM   29  C   UNL     1     -13.137  11.727  71.947  1.00  0.00    -0.376 C  
HETATM   30  C   UNL     1     -11.208  14.811  68.732  1.00  0.00    -0.286 A  
HETATM   31  C   UNL     1     -11.269  15.975  69.507  1.00  0.00    -0.348 A  
HETATM   32  C   UNL     1     -11.824  15.902  70.783  1.00  0.00    -0.423 A  
HETATM   33  C   UNL     1     -12.260  14.677  71.316  1.00  0.00    -0.410 A  
BRANCH  31  34
HETATM   34  N   UNL     1     -10.768  17.217  69.049  1.00  0.00    -0.302 N  
HETATM   35  H   UNL     1     -11.444  17.967  68.910  1.00  0.00     0.000 HD 
HETATM   36  C   UNL     1      -9.456  17.501  68.776  1.00  0.00    -0.249 C  
HETATM   37  O   UNL     1      -8.511  16.732  68.839  1.00  0.00    -0.246 OA 
BRANCH  36  38
HETATM   38  O   UNL     1      -9.307  18.811  68.418  1.00  0.00    -0.316 OA 
BRANCH  38  39
HETATM   39  C   UNL     1      -8.052  19.063  67.782  1.00  0.00    -0.268 C  
HETATM   40  C   UNL     1      -8.243  19.663  66.391  1.00  0.00    -0.356 C  
HETATM   41  C   UNL     1      -6.891  20.287  66.106  1.00  0.00    -0.282 C  
HETATM   42  C   UNL     1      -6.470  20.888  67.443  1.00  0.00    -0.396 C  
HETATM   43  C   UNL     1      -7.231  20.114  68.524  1.00  0.00    -0.236 C  
ENDBRANCH  38  39
ENDBRANCH  36  38
ENDBRANCH  31  34
ENDBRANCH  23  24
ENDBRANCH   6  23
ENDBRANCH   2   3
TORSDOF 9
ENDMDL
MODEL       65
REMARK 921   NORMALIZED FREE ENERGY PREDICTED BY IDOCK:   -5.74 KCAL/MOL
REMARK 922        TOTAL FREE ENERGY PREDICTED BY IDOCK:  -10.52 KCAL/MOL
REMARK 923 INTER-LIGAND FREE ENERGY PREDICTED BY IDOCK:  -10.15 KCAL/MOL
REMARK 924 INTRA-LIGAND FREE ENERGY PREDICTED BY IDOCK:   -0.37 KCAL/MOL
REMARK 927      BINDING AFFINITY PREDICTED BY RF-SCORE:    0.00 PKD
ROOT
HETATM    1  C   UNL     1      -9.107  10.979  65.969  1.00  0.00    -0.195 C  
HETATM    2  O   UNL     1     -10.341  10.399  66.370  1.00  0.00    -0.236 OA 
ENDROOT
BRANCH   2   3
HETATM    3  C   UNL     1     -10.436   9.925  67.652  1.00  0.00    -0.244 A  
HETATM    4  C   UNL     1      -9.827   8.747  68.107  1.00  0.00    -0.194 A  
HETATM    5  C   UNL     1      -9.939   8.352  69.450  1.00  0.00    -0.191 A  
HETATM    6  C   UNL     1     -11.171  10.723  68.551  1.00  0.00    -0.340 A  
HETATM    7  C   UNL     1     -10.593   9.183  70.360  1.00  0.00    -0.275 A  
HETATM    8  C   UNL     1     -11.187  10.361  69.911  1.00  0.00    -0.371 A  
BRANCH   5   9
HETATM    9  C   UNL     1      -9.378   7.036  69.852  1.00  0.00    -0.150 C  
HETATM   10  N   UNL     1      -8.456   7.067  70.907  1.00  0.00    -0.133 N  
HETATM   11  H   UNL     1      -8.190   7.980  71.275  1.00  0.00     0.000 HD 
HETATM   12  O   UNL     1      -9.710   6.013  69.278  1.00  0.00    -0.136 OA 
BRANCH  10  13
HETATM   13  S   UNL     1      -7.763   5.726  71.605  1.00  0.00    -0.102 S  
HETATM   14  O   UNL     1      -6.877   6.181  72.657  1.00  0.00    -0.071 OA 
HETATM   15  O   UNL     1      -7.243   4.938  70.504  1.00  0.00    -0.050 OA 
BRANCH  13  16
HETATM   16  C   UNL     1      -9.116   4.816  72.323  1.00  0.00    -0.126 A  
HETATM   17  C   UNL     1      -9.217   3.452  72.009  1.00  0.00    -0.172 A  
HETATM   18  C   UNL     1     -10.040   6.890  73.516  1.00  0.00    -0.323 C  
HETATM   19  C   UNL     1     -10.261   2.687  72.526  1.00  0.00    -0.230 A  
HETATM   20  C   UNL     1     -10.071   5.433  73.157  1.00  0.00    -0.204 A  
HETATM   21  C   UNL     1     -11.206   3.280  73.358  1.00  0.00    -0.249 A  
HETATM   22  C   UNL     1     -11.112   4.638  73.671  1.00  0.00    -0.379 A  
ENDBRANCH  13  16
ENDBRANCH  10  13
ENDBRANCH   5   9
BRANCH   6  23
HETATM   23  C   UNL     1     -11.900  11.975  68.112  1.00  0.00    -0.352 C  
BRANCH  23  24
HETATM   24  C   UNL     1     -11.747  13.057  69.152  1.00  0.00    -0.378 A  
HETATM   25  N   UNL     1     -12.122  14.248  71.011  1.00  0.00    -0.342 NA 
HETATM   26  C   UNL     1     -11.525  15.128  70.134  1.00  0.00    -0.281 A  
HETATM   27  C   UNL     1     -11.274  14.404  68.969  1.00  0.00    -0.288 A  
HETATM   28  C   UNL     1     -12.171  12.990  70.470  1.00  0.00    -0.313 A  
HETATM   29  C   UNL     1     -12.714  14.624  72.276  1.00  0.00    -0.335 C  
HETATM   30  C   UNL     1     -10.686  15.092  67.891  1.00  0.00    -0.268 A  
HETATM   31  C   UNL     1     -10.284  16.428  67.995  1.00  0.00    -0.264 A  
HETATM   32  C   UNL     1     -10.583  17.128  69.163  1.00  0.00    -0.259 A  
HETATM   33  C   UNL     1     -11.220  16.497  70.245  1.00  0.00    -0.140 A  
BRANCH  31  34
HETATM   34  N   UNL     1      -9.568  17.087  66.968  1.00  0.00    -0.247 N  
HETATM   35  H   UNL     1     -10.112  17.616  66.288  1.00  0.00     0.000 HD 
HETATM   36  C   UNL     1      -8.207  17.076  66.805  1.00  0.00    -0.238 C  
HETATM   37  O   UNL     1      -7.393  16.471  67.483  1.00  0.00    -0.127 OA 
BRANCH  36  38
HETATM   38  O   UNL     1      -7.838  17.866  65.754  1.00  0.00    -0.542 OA 
BRANCH  38  39
HETATM   39  C   UNL     1      -6.786  18.772  66.097  1.00  0.00    -0.231 C  
HETATM   40  C   UNL     1      -6.321  19.571  64.882  1.00  0.00    -0.297 C  
HETATM   41  C   UNL     1      -5.607  20.751  65.510  1.00  0.00    -0.248 C  
HETATM   42  C   UNL     1      -6.470  21.110  66.715  1.00  0.00    -0.376 C  
HETATM   43  C   UNL     1      -7.246  19.841  67.084  1.00  0.00    -0.251 C  
ENDBRANCH  38  39
ENDBRANCH  36  38
ENDBRANCH  31  34
ENDBRANCH  23  24
ENDBRANCH   6  23
ENDBRANCH   2   3
TORSDOF 9
ENDMDL
MODEL       66
REMARK 921   NORMALIZED FREE ENERGY PREDICTED BY IDOCK:   -5.72 KCAL/MOL
REMARK 922        TOTAL FREE ENERGY PREDICTED BY IDOCK:  -10.49 KCAL/MOL
REMARK 923 INTER-LIGAND FREE ENERGY PREDICTED BY IDOCK:   -8.54 KCAL/MOL
REMARK 924 INTRA-LIGAND FREE ENERGY PREDICTED BY IDOCK:   -1.95 KCAL/MOL
REMARK 927      BINDING AFFINITY PREDICTED BY RF-SCORE:    0.00 PKD
ROOT
HETATM    1  C   UNL     1     -12.369  10.621  70.749  1.00  0.00    -0.376 C  
HETATM    2  O   UNL     1     -11.692   9.629  69.988  1.00  0.00    -0.160 OA 
ENDROOT
BRANCH   2   3
HETATM    3  C   UNL     1     -10.340   9.497  70.172  1.00  0.00    -0.255 A  
HETATM    4  C   UNL     1      -9.389  10.434  69.744  1.00  0.00    -0.019 A  
HETATM    5  C   UNL     1      -8.023  10.243  70.008  1.00  0.00    -0.021 A  
HETATM    6  C   UNL     1      -9.923   8.350  70.875  1.00  0.00    -0.230 A  
HETATM    7  C   UNL     1      -7.616   9.153  70.777  1.00  0.00    -0.149 A  
HETATM    8  C   UNL     1      -8.563   8.229  71.215  1.00  0.00    -0.179 A  
BRANCH   5   9
HETATM    9  C   UNL     1      -7.047  11.201  69.428  1.00  0.00    -0.110 C  
HETATM   10  N   UNL     1      -7.599  12.264  68.699  1.00  0.00    -0.185 N  
HETATM   11  H   UNL     1      -8.611  12.269  68.566  1.00  0.00     0.000 HD 
HETATM   12  O   UNL     1      -5.848  11.043  69.583  1.00  0.00    -0.049 OA 
BRANCH  10  13
HETATM   13  S   UNL     1      -6.730  13.516  68.036  1.00  0.00    -0.158 S  
HETATM   14  O   UNL     1      -5.847  12.960  67.031  1.00  0.00    -0.306 OA 
HETATM   15  O   UNL     1      -6.185  14.251  69.160  1.00  0.00    -0.090 OA 
BRANCH  13  16
HETATM   16  C   UNL     1      -7.939  14.563  67.247  1.00  0.00    -0.191 A  
HETATM   17  C   UNL     1      -9.141  13.965  66.836  1.00  0.00    -0.257 A  
HETATM   18  C   UNL     1      -6.432  16.632  67.404  1.00  0.00    -0.202 C  
HETATM   19  C   UNL     1     -10.121  14.725  66.200  1.00  0.00    -0.312 A  
HETATM   20  C   UNL     1      -7.702  15.933  67.015  1.00  0.00    -0.268 A  
HETATM   21  C   UNL     1      -9.905  16.080  65.972  1.00  0.00    -0.365 A  
HETATM   22  C   UNL     1      -8.708  16.679  66.376  1.00  0.00    -0.345 A  
ENDBRANCH  13  16
ENDBRANCH  10  13
ENDBRANCH   5   9
BRANCH   6  23
HETATM   23  C   UNL     1     -10.893   7.274  71.315  1.00  0.00    -0.255 C  
BRANCH  23  24
HETATM   24  C   UNL     1     -10.527   5.954  70.682  1.00  0.00    -0.316 A  
HETATM   25  N   UNL     1      -9.839   3.830  70.507  1.00  0.00    -0.150 NA 
HETATM   26  C   UNL     1      -9.594   4.391  69.272  1.00  0.00    -0.191 A  
HETATM   27  C   UNL     1     -10.024   5.716  69.355  1.00  0.00    -0.261 A  
HETATM   28  C   UNL     1     -10.483   4.726  71.321  1.00  0.00    -0.051 A  
HETATM   29  C   UNL     1      -9.382   2.522  70.920  1.00  0.00    -0.145 C  
HETATM   30  C   UNL     1      -9.854   6.526  68.217  1.00  0.00    -0.132 A  
HETATM   31  C   UNL     1      -9.354   6.017  67.013  1.00  0.00    -0.122 A  
HETATM   32  C   UNL     1      -8.903   4.699  66.979  1.00  0.00    -0.111 A  
HETATM   33  C   UNL     1      -9.001   3.869  68.108  1.00  0.00    -0.158 A  
BRANCH  31  34
HETATM   34  N   UNL     1      -9.310   6.786  65.826  1.00  0.00    -0.383 N  
HETATM   35  H   UNL     1      -9.914   6.492  65.059  1.00  0.00     0.000 HD 
HETATM   36  C   UNL     1      -8.526   7.891  65.615  1.00  0.00    -0.147 C  
HETATM   37  O   UNL     1      -7.713   8.370  66.387  1.00  0.00    -0.092 OA 
BRANCH  36  38
HETATM   38  O   UNL     1      -8.776   8.434  64.387  1.00  0.00    -0.033 OA 
BRANCH  38  39
HETATM   39  C   UNL     1      -8.985   9.847  64.449  1.00  0.00    -0.239 C  
HETATM   40  C   UNL     1      -9.528  10.389  63.128  1.00  0.00    -0.362 C  
HETATM   41  C   UNL     1     -10.122  11.723  63.531  1.00  0.00    -0.463 C  
HETATM   42  C   UNL     1     -10.774  11.447  64.882  1.00  0.00    -0.350 C  
HETATM   43  C   UNL     1     -10.056  10.226  65.467  1.00  0.00    -0.351 C  
ENDBRANCH  38  39
ENDBRANCH  36  38
ENDBRANCH  31  34
ENDBRANCH  23  24
ENDBRANCH   6  23
ENDBRANCH   2   3
TORSDOF 9
ENDMDL
MODEL       67
REMARK 921   NORMALIZED FREE ENERGY PREDICTED BY IDOCK:   -5.69 KCAL/MOL
REMARK 922        TOTAL FREE ENERGY PREDICTED BY IDOCK:  -10.44 KCAL/MOL
REMARK 923 INTER-LIGAND FREE ENERGY PREDICTED BY IDOCK:   -9.43 KCAL/MOL
REMARK 924 INTRA-LIGAND FREE ENERGY PREDICTED BY IDOCK:   -1.01 KCAL/MOL
REMARK 927      BINDING AFFINITY PREDICTED BY RF-SCORE:    0.00 PKD
ROOT
HETATM    1  C   UNL     1      -9.770  10.545  62.956  1.00  0.00    -0.294 C  
HETATM    2  O   UNL     1     -10.257  10.352  64.277  1.00  0.00    -0.323 OA 
ENDROOT
BRANCH   2   3
HETATM    3  C   UNL     1      -9.414  10.645  65.317  1.00  0.00    -0.221 A  
HETATM    4  C   UNL     1      -8.464   9.756  65.839  1.00  0.00    -0.136 A  
HETATM    5  C   UNL     1      -7.608  10.148  66.881  1.00  0.00    -0.100 A  
HETATM    6  C   UNL     1      -9.514  11.948  65.844  1.00  0.00    -0.227 A  
HETATM    7  C   UNL     1      -7.647  11.463  67.345  1.00  0.00    -0.124 A  
HETATM    8  C   UNL     1      -8.582  12.352  66.818  1.00  0.00    -0.129 A  
BRANCH   5   9
HETATM    9  C   UNL     1      -6.704   9.131  67.479  1.00  0.00    -0.069 C  
HETATM   10  N   UNL     1      -7.339   8.061  68.126  1.00  0.00    -0.093 N  
HETATM   11  H   UNL     1      -8.356   8.089  68.195  1.00  0.00     0.000 HD 
HETATM   12  O   UNL     1      -5.493   9.251  67.405  1.00  0.00    -0.037 OA 
BRANCH  10  13
HETATM   13  S   UNL     1      -6.557   6.751  68.787  1.00  0.00    -0.053 S  
HETATM   14  O   UNL     1      -5.791   7.220  69.924  1.00  0.00    -0.023 OA 
HETATM   15  O   UNL     1      -5.891   6.095  67.679  1.00  0.00    -0.015 OA 
BRANCH  13  16
HETATM   16  C   UNL     1      -7.853   5.666  69.353  1.00  0.00    -0.088 A  
HETATM   17  C   UNL     1      -7.571   4.844  70.455  1.00  0.00    -0.062 A  
HETATM   18  C   UNL     1      -9.471   6.438  67.518  1.00  0.00    -0.121 C  
HETATM   19  C   UNL     1      -8.536   3.962  70.938  1.00  0.00    -0.107 A  
HETATM   20  C   UNL     1      -9.108   5.607  68.715  1.00  0.00    -0.126 A  
HETATM   21  C   UNL     1      -9.783   3.898  70.324  1.00  0.00    -0.245 A  
HETATM   22  C   UNL     1     -10.067   4.712  69.224  1.00  0.00    -0.170 A  
ENDBRANCH  13  16
ENDBRANCH  10  13
ENDBRANCH   5   9
BRANCH   6  23
HETATM   23  C   UNL     1     -10.555  12.936  65.364  1.00  0.00    -0.308 C  
BRANCH  23  24
HETATM   24  C   UNL     1     -10.966  13.849  66.494  1.00  0.00    -0.300 A  
HETATM   25  N   UNL     1     -11.056  15.672  67.791  1.00  0.00    -0.320 NA 
HETATM   26  C   UNL     1     -11.451  14.631  68.604  1.00  0.00    -0.300 A  
HETATM   27  C   UNL     1     -11.411  13.483  67.812  1.00  0.00    -0.327 A  
HETATM   28  C   UNL     1     -10.858  15.230  66.509  1.00  0.00    -0.311 A  
HETATM   29  C   UNL     1     -10.781  17.014  68.252  1.00  0.00    -0.372 C  
HETATM   30  C   UNL     1     -11.747  12.260  68.423  1.00  0.00    -0.390 A  
HETATM   31  C   UNL     1     -12.189  12.191  69.749  1.00  0.00    -0.144 A  
HETATM   32  C   UNL     1     -12.183  13.354  70.519  1.00  0.00    -0.425 A  
HETATM   33  C   UNL     1     -11.801  14.588  69.966  1.00  0.00    -0.372 A  
BRANCH  31  34
HETATM   34  N   UNL     1     -12.661  10.990  70.329  1.00  0.00    -0.276 N  
HETATM   35  H   UNL     1     -12.638  10.153  69.748  1.00  0.00     0.000 HD 
HETATM   36  C   UNL     1     -13.146  10.851  71.603  1.00  0.00    -0.433 C  
HETATM   37  O   UNL     1     -13.292  11.734  72.432  1.00  0.00    -0.343 OA 
BRANCH  36  38
HETATM   38  O   UNL     1     -13.454   9.547  71.866  1.00  0.00    -0.393 OA 
BRANCH  38  39
HETATM   39  C   UNL     1     -12.429   8.648  71.433  1.00  0.00    -0.301 C  
HETATM   40  C   UNL     1     -11.274   8.598  72.429  1.00  0.00    -0.339 C  
HETATM   41  C   UNL     1     -10.576   7.302  72.071  1.00  0.00    -0.236 C  
HETATM   42  C   UNL     1     -11.717   6.339  71.762  1.00  0.00    -0.355 C  
HETATM   43  C   UNL     1     -12.919   7.204  71.370  1.00  0.00    -0.419 C  
ENDBRANCH  38  39
ENDBRANCH  36  38
ENDBRANCH  31  34
ENDBRANCH  23  24
ENDBRANCH   6  23
ENDBRANCH   2   3
TORSDOF 9
ENDMDL
MODEL       68
REMARK 921   NORMALIZED FREE ENERGY PREDICTED BY IDOCK:   -5.66 KCAL/MOL
REMARK 922        TOTAL FREE ENERGY PREDICTED BY IDOCK:  -10.40 KCAL/MOL
REMARK 923 INTER-LIGAND FREE ENERGY PREDICTED BY IDOCK:   -8.61 KCAL/MOL
REMARK 924 INTRA-LIGAND FREE ENERGY PREDICTED BY IDOCK:   -1.79 KCAL/MOL
REMARK 927      BINDING AFFINITY PREDICTED BY RF-SCORE:    0.00 PKD
ROOT
HETATM    1  C   UNL     1      -7.293  13.295  67.719  1.00  0.00    -0.147 C  
HETATM    2  O   UNL     1      -8.476  13.092  66.958  1.00  0.00    -0.194 OA 
ENDROOT
BRANCH   2   3
HETATM    3  C   UNL     1      -8.705  11.837  66.458  1.00  0.00    -0.173 A  
HETATM    4  C   UNL     1      -7.807  10.766  66.570  1.00  0.00    -0.145 A  
HETATM    5  C   UNL     1      -8.134   9.497  66.066  1.00  0.00    -0.111 A  
HETATM    6  C   UNL     1      -9.951  11.640  65.832  1.00  0.00    -0.264 A  
HETATM    7  C   UNL     1      -9.400   9.278  65.523  1.00  0.00    -0.303 A  
HETATM    8  C   UNL     1     -10.299  10.339  65.423  1.00  0.00    -0.233 A  
BRANCH   5   9
HETATM    9  C   UNL     1      -7.101   8.430  66.101  1.00  0.00    -0.076 C  
HETATM   10  N   UNL     1      -7.572   7.123  65.911  1.00  0.00    -0.090 N  
HETATM   11  H   UNL     1      -8.581   6.992  65.829  1.00  0.00     0.000 HD 
HETATM   12  O   UNL     1      -5.928   8.701  66.293  1.00  0.00    -0.049 OA 
BRANCH  10  13
HETATM   13  S   UNL     1      -6.611   5.770  65.811  1.00  0.00    -0.045 S  
HETATM   14  O   UNL     1      -6.103   5.488  67.138  1.00  0.00    -0.027 OA 
HETATM   15  O   UNL     1      -5.693   6.024  64.717  1.00  0.00    -0.020 OA 
BRANCH  13  16
HETATM   16  C   UNL     1      -7.701   4.454  65.303  1.00  0.00    -0.086 A  
HETATM   17  C   UNL     1      -8.917   4.818  64.703  1.00  0.00    -0.138 A  
HETATM   18  C   UNL     1      -6.110   2.637  66.166  1.00  0.00    -0.024 C  
HETATM   19  C   UNL     1      -9.820   3.837  64.297  1.00  0.00    -0.186 A  
HETATM   20  C   UNL     1      -7.379   3.098  65.510  1.00  0.00    -0.072 A  
HETATM   21  C   UNL     1      -9.513   2.494  64.487  1.00  0.00    -0.132 A  
HETATM   22  C   UNL     1      -8.305   2.127  65.086  1.00  0.00    -0.085 A  
ENDBRANCH  13  16
ENDBRANCH  10  13
ENDBRANCH   5   9
BRANCH   6  23
HETATM   23  C   UNL     1     -10.941  12.767  65.629  1.00  0.00    -0.302 C  
BRANCH  23  24
HETATM   24  C   UNL     1     -11.505  13.209  66.957  1.00  0.00    -0.379 A  
HETATM   25  N   UNL     1     -12.035  14.552  68.669  1.00  0.00    -0.312 NA 
HETATM   26  C   UNL     1     -12.004  13.282  69.203  1.00  0.00    -0.296 A  
HETATM   27  C   UNL     1     -11.683  12.425  68.150  1.00  0.00    -0.408 A  
HETATM   28  C   UNL     1     -11.834  14.507  67.314  1.00  0.00    -0.392 A  
HETATM   29  C   UNL     1     -12.151  15.767  69.444  1.00  0.00    -0.227 C  
HETATM   30  C   UNL     1     -11.559  11.054  68.443  1.00  0.00    -0.372 A  
HETATM   31  C   UNL     1     -11.827  10.541  69.718  1.00  0.00    -0.257 A  
HETATM   32  C   UNL     1     -12.110  11.432  70.752  1.00  0.00    -0.433 A  
HETATM   33  C   UNL     1     -12.189  12.815  70.518  1.00  0.00    -0.389 A  
BRANCH  31  34
HETATM   34  N   UNL     1     -11.841   9.152  69.988  1.00  0.00    -0.439 N  
HETATM   35  H   UNL     1     -12.703   8.648  69.785  1.00  0.00     0.000 HD 
HETATM   36  C   UNL     1     -10.798   8.425  70.500  1.00  0.00    -0.232 C  
HETATM   37  O   UNL     1      -9.707   8.849  70.845  1.00  0.00    -0.197 OA 
BRANCH  36  38
HETATM   38  O   UNL     1     -11.122   7.100  70.575  1.00  0.00    -0.253 OA 
BRANCH  38  39
HETATM   39  C   UNL     1     -10.192   6.271  69.873  1.00  0.00    -0.184 C  
HETATM   40  C   UNL     1     -10.162   4.857  70.449  1.00  0.00    -0.292 C  
HETATM   41  C   UNL     1      -9.538   4.052  69.327  1.00  0.00    -0.247 C  
HETATM   42  C   UNL     1     -10.151   4.640  68.061  1.00  0.00    -0.077 C  
HETATM   43  C   UNL     1     -10.592   6.064  68.415  1.00  0.00    -0.322 C  
ENDBRANCH  38  39
ENDBRANCH  36  38
ENDBRANCH  31  34
ENDBRANCH  23  24
ENDBRANCH   6  23
ENDBRANCH   2   3
TORSDOF 9
ENDMDL
MODEL       69
REMARK 921   NORMALIZED FREE ENERGY PREDICTED BY IDOCK:   -5.65 KCAL/MOL
REMARK 922        TOTAL FREE ENERGY PREDICTED BY IDOCK:  -10.38 KCAL/MOL
REMARK 923 INTER-LIGAND FREE ENERGY PREDICTED BY IDOCK:   -9.08 KCAL/MOL
REMARK 924 INTRA-LIGAND FREE ENERGY PREDICTED BY IDOCK:   -1.30 KCAL/MOL
REMARK 927      BINDING AFFINITY PREDICTED BY RF-SCORE:    0.00 PKD
ROOT
HETATM    1  C   UNL     1      -8.621   6.695  64.936  1.00  0.00     0.136 C  
HETATM    2  O   UNL     1      -9.374   7.704  65.596  1.00  0.00     0.061 OA 
ENDROOT
BRANCH   2   3
HETATM    3  C   UNL     1      -8.697   8.573  66.411  1.00  0.00    -0.133 A  
HETATM    4  C   UNL     1      -8.079   8.208  67.616  1.00  0.00    -0.127 A  
HETATM    5  C   UNL     1      -7.369   9.152  68.375  1.00  0.00    -0.078 A  
HETATM    6  C   UNL     1      -8.608   9.903  65.956  1.00  0.00    -0.147 A  
HETATM    7  C   UNL     1      -7.206  10.447  67.884  1.00  0.00    -0.085 A  
HETATM    8  C   UNL     1      -7.809  10.808  66.680  1.00  0.00    -0.140 A  
BRANCH   5   9
HETATM    9  C   UNL     1      -6.837   8.743  69.700  1.00  0.00    -0.046 C  
HETATM   10  N   UNL     1      -7.767   8.164  70.575  1.00  0.00    -0.082 N  
HETATM   11  H   UNL     1      -8.739   8.123  70.269  1.00  0.00     0.000 HD 
HETATM   12  O   UNL     1      -5.665   8.921  69.985  1.00  0.00    -0.031 OA 
BRANCH  10  13
HETATM   13  S   UNL     1      -7.404   7.537  72.071  1.00  0.00    -0.071 S  
HETATM   14  O   UNL     1      -7.490   8.615  73.036  1.00  0.00    -0.341 OA 
HETATM   15  O   UNL     1      -6.161   6.811  71.899  1.00  0.00    -0.038 OA 
BRANCH  13  16
HETATM   16  C   UNL     1      -8.682   6.341  72.404  1.00  0.00    -0.121 A  
HETATM   17  C   UNL     1      -9.212   6.306  73.704  1.00  0.00    -0.136 A  
HETATM   18  C   UNL     1      -8.600   5.404  70.018  1.00  0.00    -0.124 C  
HETATM   19  C   UNL     1     -10.204   5.385  74.033  1.00  0.00    -0.273 A  
HETATM   20  C   UNL     1      -9.137   5.441  71.419  1.00  0.00    -0.163 A  
HETATM   21  C   UNL     1     -10.670   4.496  73.069  1.00  0.00    -0.298 A  
HETATM   22  C   UNL     1     -10.142   4.524  71.775  1.00  0.00    -0.254 A  
ENDBRANCH  13  16
ENDBRANCH  10  13
ENDBRANCH   5   9
BRANCH   6  23
HETATM   23  C   UNL     1      -9.299  10.374  64.695  1.00  0.00    -0.304 C  
BRANCH  23  24
HETATM   24  C   UNL     1     -10.201  11.544  65.003  1.00  0.00    -0.328 A  
HETATM   25  N   UNL     1     -11.070  13.606  64.904  1.00  0.00    -0.334 NA 
HETATM   26  C   UNL     1     -11.397  13.137  66.158  1.00  0.00    -0.312 A  
HETATM   27  C   UNL     1     -10.871  11.847  66.239  1.00  0.00    -0.323 A  
HETATM   28  C   UNL     1     -10.442  12.629  64.175  1.00  0.00    -0.413 A  
HETATM   29  C   UNL     1     -11.262  14.969  64.462  1.00  0.00    -0.265 C  
HETATM   30  C   UNL     1     -11.045  11.149  67.449  1.00  0.00    -0.370 A  
HETATM   31  C   UNL     1     -11.788  11.680  68.511  1.00  0.00    -0.292 A  
HETATM   32  C   UNL     1     -12.267  12.985  68.406  1.00  0.00    -0.029 A  
HETATM   33  C   UNL     1     -12.069  13.740  67.237  1.00  0.00    -0.393 A  
BRANCH  31  34
HETATM   34  N   UNL     1     -12.086  10.933  69.675  1.00  0.00    -0.380 N  
HETATM   35  H   UNL     1     -12.107   9.918  69.583  1.00  0.00     0.000 HD 
HETATM   36  C   UNL     1     -12.349  11.453  70.915  1.00  0.00    -0.381 C  
HETATM   37  O   UNL     1     -12.412  12.634  71.217  1.00  0.00    -0.309 OA 
BRANCH  36  38
HETATM   38  O   UNL     1     -12.530  10.456  71.830  1.00  0.00    -0.356 OA 
BRANCH  38  39
HETATM   39  C   UNL     1     -13.009   9.248  71.232  1.00  0.00    -0.277 C  
HETATM   40  C   UNL     1     -11.974   8.129  71.331  1.00  0.00    -0.330 C  
HETATM   41  C   UNL     1     -12.807   6.882  71.112  1.00  0.00    -0.289 C  
HETATM   42  C   UNL     1     -14.102   7.163  71.866  1.00  0.00    -0.379 C  
HETATM   43  C   UNL     1     -14.225   8.687  71.963  1.00  0.00    -0.524 C  
ENDBRANCH  38  39
ENDBRANCH  36  38
ENDBRANCH  31  34
ENDBRANCH  23  24
ENDBRANCH   6  23
ENDBRANCH   2   3
TORSDOF 9
ENDMDL
MODEL       70
REMARK 921   NORMALIZED FREE ENERGY PREDICTED BY IDOCK:   -5.63 KCAL/MOL
REMARK 922        TOTAL FREE ENERGY PREDICTED BY IDOCK:  -10.36 KCAL/MOL
REMARK 923 INTER-LIGAND FREE ENERGY PREDICTED BY IDOCK:   -8.32 KCAL/MOL
REMARK 924 INTRA-LIGAND FREE ENERGY PREDICTED BY IDOCK:   -2.03 KCAL/MOL
REMARK 927      BINDING AFFINITY PREDICTED BY RF-SCORE:    0.00 PKD
ROOT
HETATM    1  C   UNL     1     -11.260   8.629  70.757  1.00  0.00    -0.261 C  
HETATM    2  O   UNL     1     -10.542   8.365  69.559  1.00  0.00    -0.227 OA 
ENDROOT
BRANCH   2   3
HETATM    3  C   UNL     1      -9.215   8.704  69.523  1.00  0.00    -0.150 A  
HETATM    4  C   UNL     1      -8.733  10.018  69.600  1.00  0.00    -0.210 A  
HETATM    5  C   UNL     1      -7.353  10.279  69.597  1.00  0.00    -0.150 A  
HETATM    6  C   UNL     1      -8.306   7.630  69.442  1.00  0.00    -0.131 A  
HETATM    7  C   UNL     1      -6.452   9.215  69.604  1.00  0.00    -0.042 A  
HETATM    8  C   UNL     1      -6.930   7.907  69.542  1.00  0.00    -0.054 A  
BRANCH   5   9
HETATM    9  C   UNL     1      -6.897  11.693  69.557  1.00  0.00    -0.051 C  
HETATM   10  N   UNL     1      -7.761  12.590  68.915  1.00  0.00    -0.319 N  
HETATM   11  H   UNL     1      -8.596  12.207  68.472  1.00  0.00     0.000 HD 
HETATM   12  O   UNL     1      -5.831  12.020  70.051  1.00  0.00    -0.121 OA 
BRANCH  10  13
HETATM   13  S   UNL     1      -7.528  14.234  68.821  1.00  0.00    -0.127 S  
HETATM   14  O   UNL     1      -6.897  14.520  67.548  1.00  0.00    -0.181 OA 
HETATM   15  O   UNL     1      -6.872  14.606  70.060  1.00  0.00    -0.162 OA 
BRANCH  13  16
HETATM   16  C   UNL     1      -9.162  14.944  68.845  1.00  0.00    -0.192 A  
HETATM   17  C   UNL     1     -10.250  14.060  68.923  1.00  0.00    -0.159 A  
HETATM   18  C   UNL     1      -8.260  17.338  68.655  1.00  0.00    -0.262 C  
HETATM   19  C   UNL     1     -11.554  14.551  68.931  1.00  0.00    -0.341 A  
HETATM   20  C   UNL     1      -9.372  16.336  68.765  1.00  0.00    -0.235 A  
HETATM   21  C   UNL     1     -11.777  15.922  68.861  1.00  0.00    -0.376 A  
HETATM   22  C   UNL     1     -10.698  16.806  68.779  1.00  0.00    -0.341 A  
ENDBRANCH  13  16
ENDBRANCH  10  13
ENDBRANCH   5   9
BRANCH   6  23
HETATM   23  C   UNL     1      -8.762   6.194  69.301  1.00  0.00    -0.122 C  
BRANCH  23  24
HETATM   24  C   UNL     1      -8.381   5.659  67.942  1.00  0.00    -0.100 A  
HETATM   25  N   UNL     1      -7.377   4.391  66.393  1.00  0.00    -0.079 NA 
HETATM   26  C   UNL     1      -7.707   5.561  65.743  1.00  0.00    -0.088 A  
HETATM   27  C   UNL     1      -8.343   6.365  66.689  1.00  0.00    -0.113 A  
HETATM   28  C   UNL     1      -7.860   4.403  67.676  1.00  0.00    -0.085 A  
HETATM   29  C   UNL     1      -6.544   3.349  65.835  1.00  0.00    -0.040 C  
HETATM   30  C   UNL     1      -8.759   7.646  66.280  1.00  0.00    -0.170 A  
HETATM   31  C   UNL     1      -8.624   8.080  64.956  1.00  0.00    -0.011 A  
HETATM   32  C   UNL     1      -7.953   7.263  64.047  1.00  0.00    -0.087 A  
HETATM   33  C   UNL     1      -7.471   5.999  64.427  1.00  0.00    -0.078 A  
BRANCH  31  34
HETATM   34  N   UNL     1      -9.163   9.308  64.503  1.00  0.00    -0.434 N  
HETATM   35  H   UNL     1      -8.928   9.596  63.554  1.00  0.00     0.000 HD 
HETATM   36  C   UNL     1      -9.973  10.144  65.227  1.00  0.00    -0.311 C  
HETATM   37  O   UNL     1     -10.329   9.998  66.384  1.00  0.00    -0.226 OA 
BRANCH  36  38
HETATM   38  O   UNL     1     -10.369  11.210  64.470  1.00  0.00    -0.293 OA 
BRANCH  38  39
HETATM   39  C   UNL     1     -10.710  12.347  65.268  1.00  0.00    -0.287 C  
HETATM   40  C   UNL     1     -10.188  13.640  64.646  1.00  0.00    -0.338 C  
HETATM   41  C   UNL     1     -11.031  14.702  65.324  1.00  0.00    -0.374 C  
HETATM   42  C   UNL     1     -12.421  14.080  65.402  1.00  0.00    -0.520 C  
HETATM   43  C   UNL     1     -12.219  12.562  65.346  1.00  0.00    -0.475 C  
ENDBRANCH  38  39
ENDBRANCH  36  38
ENDBRANCH  31  34
ENDBRANCH  23  24
ENDBRANCH   6  23
ENDBRANCH   2   3
TORSDOF 9
ENDMDL
MODEL       71
REMARK 921   NORMALIZED FREE ENERGY PREDICTED BY IDOCK:   -5.62 KCAL/MOL
REMARK 922        TOTAL FREE ENERGY PREDICTED BY IDOCK:  -10.33 KCAL/MOL
REMARK 923 INTER-LIGAND FREE ENERGY PREDICTED BY IDOCK:  -10.08 KCAL/MOL
REMARK 924 INTRA-LIGAND FREE ENERGY PREDICTED BY IDOCK:   -0.25 KCAL/MOL
REMARK 927      BINDING AFFINITY PREDICTED BY RF-SCORE:    0.00 PKD
ROOT
HETATM    1  C   UNL     1     -11.344  11.817  63.174  1.00  0.00    -0.105 C  
HETATM    2  O   UNL     1     -11.599  11.746  64.571  1.00  0.00    -0.301 OA 
ENDROOT
BRANCH   2   3
HETATM    3  C   UNL     1     -10.533  11.885  65.421  1.00  0.00    -0.270 A  
HETATM    4  C   UNL     1      -9.692  10.833  65.812  1.00  0.00    -0.278 A  
HETATM    5  C   UNL     1      -8.594  11.066  66.656  1.00  0.00    -0.157 A  
HETATM    6  C   UNL     1     -10.276  13.192  65.880  1.00  0.00    -0.294 A  
HETATM    7  C   UNL     1      -8.288  12.371  67.042  1.00  0.00    -0.157 A  
HETATM    8  C   UNL     1      -9.115  13.419  66.643  1.00  0.00    -0.180 A  
BRANCH   5   9
HETATM    9  C   UNL     1      -7.808   9.901  67.137  1.00  0.00    -0.099 C  
HETATM   10  N   UNL     1      -8.481   9.032  68.007  1.00  0.00    -0.124 N  
HETATM   11  H   UNL     1      -9.425   9.291  68.294  1.00  0.00     0.000 HD 
HETATM   12  O   UNL     1      -6.650   9.742  66.789  1.00  0.00    -0.066 OA 
BRANCH  10  13
HETATM   13  S   UNL     1      -7.858   7.612  68.604  1.00  0.00    -0.122 S  
HETATM   14  O   UNL     1      -6.421   7.769  68.710  1.00  0.00    -0.042 OA 
HETATM   15  O   UNL     1      -8.418   6.561  67.777  1.00  0.00    -0.118 OA 
BRANCH  13  16
HETATM   16  C   UNL     1      -8.556   7.440  70.235  1.00  0.00    -0.145 A  
HETATM   17  C   UNL     1      -8.275   8.451  71.168  1.00  0.00    -0.154 A  
HETATM   18  C   UNL     1      -9.661   5.198  69.662  1.00  0.00    -0.234 C  
HETATM   19  C   UNL     1      -8.778   8.369  72.465  1.00  0.00    -0.277 A  
HETATM   20  C   UNL     1      -9.341   6.327  70.598  1.00  0.00    -0.171 A  
HETATM   21  C   UNL     1      -9.561   7.281  72.835  1.00  0.00    -0.206 A  
HETATM   22  C   UNL     1      -9.841   6.270  71.911  1.00  0.00    -0.172 A  
ENDBRANCH  13  16
ENDBRANCH  10  13
ENDBRANCH   5   9
BRANCH   6  23
HETATM   23  C   UNL     1     -11.177  14.360  65.541  1.00  0.00    -0.330 C  
BRANCH  23  24
HETATM   24  C   UNL     1     -11.181  15.359  66.672  1.00  0.00    -0.175 A  
HETATM   25  N   UNL     1     -10.724  17.223  67.826  1.00  0.00    -0.361 NA 
HETATM   26  C   UNL     1     -11.028  16.275  68.778  1.00  0.00    -0.343 A  
HETATM   27  C   UNL     1     -11.325  15.104  68.081  1.00  0.00    -0.345 A  
HETATM   28  C   UNL     1     -10.906  16.713  66.566  1.00  0.00    -0.017 A  
HETATM   29  C   UNL     1     -10.183  18.533  68.113  1.00  0.00    -0.378 C  
HETATM   30  C   UNL     1     -11.644  13.961  68.837  1.00  0.00    -0.353 A  
HETATM   31  C   UNL     1     -11.747  14.000  70.232  1.00  0.00    -0.238 A  
HETATM   32  C   UNL     1     -11.410  15.178  70.896  1.00  0.00    -0.345 A  
HETATM   33  C   UNL     1     -11.031  16.329  70.184  1.00  0.00    -0.335 A  
BRANCH  31  34
HETATM   34  N   UNL     1     -12.202  12.894  70.989  1.00  0.00    -0.410 N  
HETATM   35  H   UNL     1     -11.638  12.046  70.957  1.00  0.00     0.000 HD 
HETATM   36  C   UNL     1     -13.333  12.863  71.763  1.00  0.00    -0.359 C  
HETATM   37  O   UNL     1     -14.154  13.755  71.897  1.00  0.00    -0.416 OA 
BRANCH  36  38
HETATM   38  O   UNL     1     -13.443  11.667  72.412  1.00  0.00    -0.291 OA 
BRANCH  38  39
HETATM   39  C   UNL     1     -13.332  10.552  71.523  1.00  0.00    -0.290 C  
HETATM   40  C   UNL     1     -11.878  10.288  71.140  1.00  0.00    -0.455 C  
HETATM   41  C   UNL     1     -11.916   8.860  70.637  1.00  0.00    -0.105 C  
HETATM   42  C   UNL     1     -12.879   8.157  71.589  1.00  0.00    -0.347 C  
HETATM   43  C   UNL     1     -13.780   9.248  72.176  1.00  0.00    -0.517 C  
ENDBRANCH  38  39
ENDBRANCH  36  38
ENDBRANCH  31  34
ENDBRANCH  23  24
ENDBRANCH   6  23
ENDBRANCH   2   3
TORSDOF 9
ENDMDL
MODEL       72
REMARK 921   NORMALIZED FREE ENERGY PREDICTED BY IDOCK:   -5.62 KCAL/MOL
REMARK 922        TOTAL FREE ENERGY PREDICTED BY IDOCK:  -10.33 KCAL/MOL
REMARK 923 INTER-LIGAND FREE ENERGY PREDICTED BY IDOCK:   -9.54 KCAL/MOL
REMARK 924 INTRA-LIGAND FREE ENERGY PREDICTED BY IDOCK:   -0.79 KCAL/MOL
REMARK 927      BINDING AFFINITY PREDICTED BY RF-SCORE:    0.00 PKD
ROOT
HETATM    1  C   UNL     1     -11.352  11.744  66.170  1.00  0.00    -0.280 C  
HETATM    2  O   UNL     1     -11.921  11.449  67.439  1.00  0.00    -0.606 OA 
ENDROOT
BRANCH   2   3
HETATM    3  C   UNL     1     -11.667  12.317  68.468  1.00  0.00    -0.331 A  
HETATM    4  C   UNL     1     -11.032  13.558  68.317  1.00  0.00    -0.280 A  
HETATM    5  C   UNL     1     -10.846  14.410  69.418  1.00  0.00    -0.227 A  
HETATM    6  C   UNL     1     -12.125  11.918  69.739  1.00  0.00    -0.321 A  
HETATM    7  C   UNL     1     -11.374  14.054  70.659  1.00  0.00     0.150 A  
HETATM    8  C   UNL     1     -12.018  12.827  70.808  1.00  0.00    -0.085 A  
BRANCH   5   9
HETATM    9  C   UNL     1     -10.060  15.656  69.228  1.00  0.00    -0.258 C  
HETATM   10  N   UNL     1      -8.856  15.513  68.525  1.00  0.00    -0.178 N  
HETATM   11  H   UNL     1      -8.577  14.569  68.255  1.00  0.00     0.000 HD 
HETATM   12  O   UNL     1     -10.457  16.719  69.674  1.00  0.00    -0.291 OA 
BRANCH  10  13
HETATM   13  S   UNL     1      -7.848  16.764  68.098  1.00  0.00    -0.189 S  
HETATM   14  O   UNL     1      -6.941  16.275  67.080  1.00  0.00    -0.172 OA 
HETATM   15  O   UNL     1      -7.330  17.291  69.346  1.00  0.00    -0.147 OA 
BRANCH  13  16
HETATM   16  C   UNL     1      -8.914  18.007  67.393  1.00  0.00    -0.246 A  
HETATM   17  C   UNL     1      -8.854  19.297  67.944  1.00  0.00    -0.355 A  
HETATM   18  C   UNL     1      -9.940  16.356  65.720  1.00  0.00    -0.331 C  
HETATM   19  C   UNL     1      -9.672  20.311  67.448  1.00  0.00    -0.584 A  
HETATM   20  C   UNL     1      -9.805  17.716  66.340  1.00  0.00    -0.315 A  
HETATM   21  C   UNL     1     -10.551  20.041  66.403  1.00  0.00    -0.460 A  
HETATM   22  C   UNL     1     -10.616  18.757  65.854  1.00  0.00    -0.405 A  
ENDBRANCH  13  16
ENDBRANCH  10  13
ENDBRANCH   5   9
BRANCH   6  23
HETATM   23  C   UNL     1     -12.768  10.568  69.980  1.00  0.00    -0.125 C  
BRANCH  23  24
HETATM   24  C   UNL     1     -11.775   9.625  70.614  1.00  0.00    -0.353 A  
HETATM   25  N   UNL     1     -10.787   8.356  72.173  1.00  0.00    -0.312 NA 
HETATM   26  C   UNL     1      -9.791   8.659  71.270  1.00  0.00    -0.238 A  
HETATM   27  C   UNL     1     -10.387   9.444  70.282  1.00  0.00    -0.293 A  
HETATM   28  C   UNL     1     -11.992   8.847  71.740  1.00  0.00    -0.359 A  
HETATM   29  C   UNL     1     -10.571   7.711  73.449  1.00  0.00    -0.293 C  
HETATM   30  C   UNL     1      -9.564   9.916  69.243  1.00  0.00    -0.215 A  
HETATM   31  C   UNL     1      -8.216   9.551  69.141  1.00  0.00    -0.111 A  
HETATM   32  C   UNL     1      -7.648   8.794  70.165  1.00  0.00    -0.072 A  
HETATM   33  C   UNL     1      -8.419   8.348  71.251  1.00  0.00    -0.183 A  
BRANCH  31  34
HETATM   34  N   UNL     1      -7.417   9.904  68.028  1.00  0.00    -0.085 N  
HETATM   35  H   UNL     1      -7.138  10.882  67.948  1.00  0.00     0.000 HD 
HETATM   36  C   UNL     1      -6.985   9.050  67.047  1.00  0.00    -0.078 C  
HETATM   37  O   UNL     1      -7.245   7.863  66.943  1.00  0.00    -0.085 OA 
BRANCH  36  38
HETATM   38  O   UNL     1      -6.179   9.701  66.158  1.00  0.00    -0.065 OA 
BRANCH  38  39
HETATM   39  C   UNL     1      -6.863  10.039  64.948  1.00  0.00    -0.133 C  
HETATM   40  C   UNL     1      -6.676   8.961  63.883  1.00  0.00    -0.087 C  
HETATM   41  C   UNL     1      -7.813   9.238  62.921  1.00  0.00    -0.129 C  
HETATM   42  C   UNL     1      -8.985   9.604  63.827  1.00  0.00    -0.251 C  
HETATM   43  C   UNL     1      -8.376  10.102  65.141  1.00  0.00    -0.163 C  
ENDBRANCH  38  39
ENDBRANCH  36  38
ENDBRANCH  31  34
ENDBRANCH  23  24
ENDBRANCH   6  23
ENDBRANCH   2   3
TORSDOF 9
ENDMDL
MODEL       73
REMARK 921   NORMALIZED FREE ENERGY PREDICTED BY IDOCK:   -5.61 KCAL/MOL
REMARK 922        TOTAL FREE ENERGY PREDICTED BY IDOCK:  -10.32 KCAL/MOL
REMARK 923 INTER-LIGAND FREE ENERGY PREDICTED BY IDOCK:   -9.22 KCAL/MOL
REMARK 924 INTRA-LIGAND FREE ENERGY PREDICTED BY IDOCK:   -1.09 KCAL/MOL
REMARK 927      BINDING AFFINITY PREDICTED BY RF-SCORE:    0.00 PKD
ROOT
HETATM    1  C   UNL     1      -6.305   9.293  67.758  1.00  0.00    -0.059 C  
HETATM    2  O   UNL     1      -7.219  10.376  67.872  1.00  0.00    -0.083 OA 
ENDROOT
BRANCH   2   3
HETATM    3  C   UNL     1      -8.481  10.100  68.330  1.00  0.00    -0.115 A  
HETATM    4  C   UNL     1      -8.780   9.740  69.652  1.00  0.00    -0.211 A  
HETATM    5  C   UNL     1     -10.107   9.513  70.052  1.00  0.00    -0.279 A  
HETATM    6  C   UNL     1      -9.522  10.234  67.390  1.00  0.00    -0.174 A  
HETATM    7  C   UNL     1     -11.146   9.728  69.146  1.00  0.00    -0.158 A  
HETATM    8  C   UNL     1     -10.850  10.099  67.835  1.00  0.00    -0.336 A  
BRANCH   5   9
HETATM    9  C   UNL     1     -10.359   9.017  71.430  1.00  0.00    -0.326 C  
HETATM   10  N   UNL     1      -9.384   8.155  71.952  1.00  0.00    -0.170 N  
HETATM   11  H   UNL     1      -8.617   7.883  71.337  1.00  0.00     0.000 HD 
HETATM   12  O   UNL     1     -11.362   9.347  72.039  1.00  0.00    -0.313 OA 
BRANCH  10  13
HETATM   13  S   UNL     1      -9.383   7.545  73.498  1.00  0.00    -0.283 S  
HETATM   14  O   UNL     1     -10.762   7.330  73.890  1.00  0.00    -0.318 OA 
HETATM   15  O   UNL     1      -8.536   8.434  74.269  1.00  0.00    -0.180 OA 
BRANCH  13  16
HETATM   16  C   UNL     1      -8.549   5.973  73.384  1.00  0.00    -0.120 A  
HETATM   17  C   UNL     1      -7.427   5.776  74.204  1.00  0.00    -0.092 A  
HETATM   18  C   UNL     1     -10.147   5.117  71.569  1.00  0.00    -0.257 C  
HETATM   19  C   UNL     1      -6.722   4.576  74.152  1.00  0.00    -0.064 A  
HETATM   20  C   UNL     1      -8.973   4.967  72.492  1.00  0.00    -0.137 A  
HETATM   21  C   UNL     1      -7.132   3.570  73.283  1.00  0.00    -0.053 A  
HETATM   22  C   UNL     1      -8.247   3.763  72.462  1.00  0.00    -0.089 A  
ENDBRANCH  13  16
ENDBRANCH  10  13
ENDBRANCH   5   9
BRANCH   6  23
HETATM   23  C   UNL     1      -9.260  10.563  65.936  1.00  0.00    -0.210 C  
BRANCH  23  24
HETATM   24  C   UNL     1     -10.095  11.747  65.513  1.00  0.00    -0.285 A  
HETATM   25  N   UNL     1     -11.433  13.028  64.254  1.00  0.00    -0.360 NA 
HETATM   26  C   UNL     1     -10.758  13.907  65.073  1.00  0.00    -0.386 A  
HETATM   27  C   UNL     1      -9.923  13.129  65.875  1.00  0.00    -0.275 A  
HETATM   28  C   UNL     1     -11.115  11.734  64.576  1.00  0.00    -0.315 A  
HETATM   29  C   UNL     1     -12.270  13.419  63.141  1.00  0.00    -0.066 C  
HETATM   30  C   UNL     1      -9.093  13.800  66.792  1.00  0.00    -0.235 A  
HETATM   31  C   UNL     1      -9.151  15.187  66.967  1.00  0.00    -0.230 A  
HETATM   32  C   UNL     1      -9.973  15.935  66.124  1.00  0.00    -0.337 A  
HETATM   33  C   UNL     1     -10.778  15.312  65.156  1.00  0.00    -0.455 A  
BRANCH  31  34
HETATM   34  N   UNL     1      -8.424  15.854  67.981  1.00  0.00    -0.161 N  
HETATM   35  H   UNL     1      -8.947  16.173  68.796  1.00  0.00     0.000 HD 
HETATM   36  C   UNL     1      -7.078  16.111  67.965  1.00  0.00    -0.131 C  
HETATM   37  O   UNL     1      -6.292  15.850  67.069  1.00  0.00    -0.309 OA 
BRANCH  36  38
HETATM   38  O   UNL     1      -6.685  16.712  69.127  1.00  0.00    -0.192 OA 
BRANCH  38  39
HETATM   39  C   UNL     1      -6.070  17.983  68.903  1.00  0.00    -0.212 C  
HETATM   40  C   UNL     1      -7.058  18.981  68.303  1.00  0.00    -0.296 C  
HETATM   41  C   UNL     1      -6.403  20.317  68.593  1.00  0.00    -0.345 C  
HETATM   42  C   UNL     1      -5.824  20.150  69.994  1.00  0.00    -0.371 C  
HETATM   43  C   UNL     1      -5.626  18.645  70.204  1.00  0.00    -0.237 C  
ENDBRANCH  38  39
ENDBRANCH  36  38
ENDBRANCH  31  34
ENDBRANCH  23  24
ENDBRANCH   6  23
ENDBRANCH   2   3
TORSDOF 9
ENDMDL
MODEL       74
REMARK 921   NORMALIZED FREE ENERGY PREDICTED BY IDOCK:   -5.58 KCAL/MOL
REMARK 922        TOTAL FREE ENERGY PREDICTED BY IDOCK:  -10.28 KCAL/MOL
REMARK 923 INTER-LIGAND FREE ENERGY PREDICTED BY IDOCK:   -9.44 KCAL/MOL
REMARK 924 INTRA-LIGAND FREE ENERGY PREDICTED BY IDOCK:   -0.83 KCAL/MOL
REMARK 927      BINDING AFFINITY PREDICTED BY RF-SCORE:    0.00 PKD
ROOT
HETATM    1  C   UNL     1     -12.525  12.535  63.581  1.00  0.00    -0.470 C  
HETATM    2  O   UNL     1     -12.564  12.105  64.935  1.00  0.00    -0.500 OA 
ENDROOT
BRANCH   2   3
HETATM    3  C   UNL     1     -11.651  12.646  65.802  1.00  0.00    -0.387 A  
HETATM    4  C   UNL     1     -11.799  13.891  66.430  1.00  0.00    -0.436 A  
HETATM    5  C   UNL     1     -10.835  14.357  67.339  1.00  0.00    -0.293 A  
HETATM    6  C   UNL     1     -10.522  11.852  66.084  1.00  0.00    -0.272 A  
HETATM    7  C   UNL     1      -9.762  13.536  67.684  1.00  0.00    -0.229 A  
HETATM    8  C   UNL     1      -9.621  12.292  67.070  1.00  0.00    -0.208 A  
BRANCH   5   9
HETATM    9  C   UNL     1     -10.977  15.732  67.883  1.00  0.00    -0.324 C  
HETATM   10  N   UNL     1      -9.992  16.646  67.486  1.00  0.00    -0.258 N  
HETATM   11  H   UNL     1      -9.224  16.294  66.915  1.00  0.00     0.000 HD 
HETATM   12  O   UNL     1     -11.897  16.016  68.632  1.00  0.00    -0.367 OA 
BRANCH  10  13
HETATM   13  S   UNL     1      -9.980  18.262  67.878  1.00  0.00    -0.365 S  
HETATM   14  O   UNL     1     -10.093  18.370  69.318  1.00  0.00    -0.278 OA 
HETATM   15  O   UNL     1     -10.974  18.878  67.020  1.00  0.00    -0.373 OA 
BRANCH  13  16
HETATM   16  C   UNL     1      -8.382  18.860  67.363  1.00  0.00    -0.275 A  
HETATM   17  C   UNL     1      -7.408  17.903  67.038  1.00  0.00    -0.218 A  
HETATM   18  C   UNL     1      -9.066  21.314  67.659  1.00  0.00     0.230 C  
HETATM   19  C   UNL     1      -6.133  18.304  66.642  1.00  0.00    -0.189 A  
HETATM   20  C   UNL     1      -8.084  20.237  67.303  1.00  0.00    -0.381 A  
HETATM   21  C   UNL     1      -5.827  19.659  66.570  1.00  0.00    -0.164 A  
HETATM   22  C   UNL     1      -6.792  20.616  66.896  1.00  0.00    -0.353 A  
ENDBRANCH  13  16
ENDBRANCH  10  13
ENDBRANCH   5   9
BRANCH   6  23
HETATM   23  C   UNL     1     -10.275  10.526  65.397  1.00  0.00    -0.340 C  
BRANCH  23  24
HETATM   24  C   UNL     1      -8.842  10.098  65.592  1.00  0.00    -0.185 A  
HETATM   25  N   UNL     1      -6.738   9.518  65.087  1.00  0.00    -0.084 NA 
HETATM   26  C   UNL     1      -6.984   8.948  66.318  1.00  0.00    -0.079 A  
HETATM   27  C   UNL     1      -8.290   9.304  66.657  1.00  0.00    -0.122 A  
HETATM   28  C   UNL     1      -7.804  10.284  64.692  1.00  0.00    -0.123 A  
HETATM   29  C   UNL     1      -5.569   9.254  64.278  1.00  0.00    -0.068 C  
HETATM   30  C   UNL     1      -8.801   8.816  67.874  1.00  0.00    -0.136 A  
HETATM   31  C   UNL     1      -8.016   8.071  68.762  1.00  0.00    -0.119 A  
HETATM   32  C   UNL     1      -6.728   7.705  68.373  1.00  0.00    -0.061 A  
HETATM   33  C   UNL     1      -6.196   8.123  67.141  1.00  0.00    -0.055 A  
BRANCH  31  34
HETATM   34  N   UNL     1      -8.475   7.694  70.046  1.00  0.00    -0.135 N  
HETATM   35  H   UNL     1      -9.045   6.852  70.108  1.00  0.00     0.000 HD 
HETATM   36  C   UNL     1      -8.221   8.362  71.216  1.00  0.00    -0.134 C  
HETATM   37  O   UNL     1      -7.600   9.404  71.345  1.00  0.00    -0.340 OA 
BRANCH  36  38
HETATM   38  O   UNL     1      -8.755   7.695  72.281  1.00  0.00    -0.114 OA 
BRANCH  38  39
HETATM   39  C   UNL     1      -9.788   6.786  71.891  1.00  0.00    -0.165 C  
HETATM   40  C   UNL     1     -10.155   5.837  73.030  1.00  0.00    -0.198 C  
HETATM   41  C   UNL     1     -11.520   5.328  72.617  1.00  0.00    -0.270 C  
HETATM   42  C   UNL     1     -12.212   6.553  72.029  1.00  0.00    -0.343 C  
HETATM   43  C   UNL     1     -11.098   7.504  71.578  1.00  0.00    -0.263 C  
ENDBRANCH  38  39
ENDBRANCH  36  38
ENDBRANCH  31  34
ENDBRANCH  23  24
ENDBRANCH   6  23
ENDBRANCH   2   3
TORSDOF 9
ENDMDL
MODEL       75
REMARK 921   NORMALIZED FREE ENERGY PREDICTED BY IDOCK:   -5.54 KCAL/MOL
REMARK 922        TOTAL FREE ENERGY PREDICTED BY IDOCK:  -10.22 KCAL/MOL
REMARK 923 INTER-LIGAND FREE ENERGY PREDICTED BY IDOCK:   -9.69 KCAL/MOL
REMARK 924 INTRA-LIGAND FREE ENERGY PREDICTED BY IDOCK:   -0.53 KCAL/MOL
REMARK 927      BINDING AFFINITY PREDICTED BY RF-SCORE:    0.00 PKD
ROOT
HETATM    1  C   UNL     1     -10.919  11.733  66.581  1.00  0.00    -0.294 C  
HETATM    2  O   UNL     1     -11.921  11.508  67.564  1.00  0.00    -0.629 OA 
ENDROOT
BRANCH   2   3
HETATM    3  C   UNL     1     -11.897  12.291  68.689  1.00  0.00    -0.305 A  
HETATM    4  C   UNL     1     -11.613  13.664  68.690  1.00  0.00    -0.364 A  
HETATM    5  C   UNL     1     -11.649  14.405  69.883  1.00  0.00    -0.341 A  
HETATM    6  C   UNL     1     -12.223  11.644  69.897  1.00  0.00    -0.310 A  
HETATM    7  C   UNL     1     -12.055  13.785  71.065  1.00  0.00    -0.324 A  
HETATM    8  C   UNL     1     -12.351  12.423  71.062  1.00  0.00    -0.309 A  
BRANCH   5   9
HETATM    9  C   UNL     1     -11.222  15.827  69.850  1.00  0.00    -0.334 C  
HETATM   10  N   UNL     1     -10.670  16.266  68.638  1.00  0.00    -0.290 N  
HETATM   11  H   UNL     1     -10.543  15.574  67.900  1.00  0.00     0.000 HD 
HETATM   12  O   UNL     1     -11.347  16.540  70.831  1.00  0.00    -0.321 OA 
BRANCH  10  13
HETATM   13  S   UNL     1     -10.207  17.830  68.315  1.00  0.00    -0.394 S  
HETATM   14  O   UNL     1     -10.302  18.584  69.549  1.00  0.00     0.035 OA 
HETATM   15  O   UNL     1     -10.975  18.232  67.153  1.00  0.00    -0.288 OA 
BRANCH  13  16
HETATM   16  C   UNL     1      -8.499  17.722  67.818  1.00  0.00    -0.236 A  
HETATM   17  C   UNL     1      -7.582  18.564  68.467  1.00  0.00    -0.328 A  
HETATM   18  C   UNL     1      -8.999  15.939  66.043  1.00  0.00    -0.337 C  
HETATM   19  C   UNL     1      -6.234  18.539  68.115  1.00  0.00    -0.195 A  
HETATM   20  C   UNL     1      -8.072  16.849  66.797  1.00  0.00    -0.276 A  
HETATM   21  C   UNL     1      -5.797  17.676  67.115  1.00  0.00    -0.163 A  
HETATM   22  C   UNL     1      -6.706  16.839  66.463  1.00  0.00    -0.173 A  
ENDBRANCH  13  16
ENDBRANCH  10  13
ENDBRANCH   5   9
BRANCH   6  23
HETATM   23  C   UNL     1     -12.485  10.155  69.972  1.00  0.00    -0.020 C  
BRANCH  23  24
HETATM   24  C   UNL     1     -11.279   9.443  70.534  1.00  0.00    -0.329 A  
HETATM   25  N   UNL     1      -9.864   8.582  72.041  1.00  0.00    -0.284 NA 
HETATM   26  C   UNL     1      -9.100   8.804  70.916  1.00  0.00    -0.208 A  
HETATM   27  C   UNL     1      -9.965   9.334  69.958  1.00  0.00    -0.238 A  
HETATM   28  C   UNL     1     -11.181   8.869  71.791  1.00  0.00    -0.362 A  
HETATM   29  C   UNL     1      -9.334   8.206  73.333  1.00  0.00    -0.197 C  
HETATM   30  C   UNL     1      -9.417   9.681  68.709  1.00  0.00    -0.148 A  
HETATM   31  C   UNL     1      -8.076   9.431  68.393  1.00  0.00    -0.109 A  
HETATM   32  C   UNL     1      -7.235   8.933  69.387  1.00  0.00    -0.061 A  
HETATM   33  C   UNL     1      -7.727   8.625  70.667  1.00  0.00    -0.086 A  
BRANCH  31  34
HETATM   34  N   UNL     1      -7.550   9.647  67.097  1.00  0.00    -0.091 N  
HETATM   35  H   UNL     1      -7.391  10.614  66.815  1.00  0.00     0.000 HD 
HETATM   36  C   UNL     1      -7.235   8.672  66.187  1.00  0.00    -0.085 C  
HETATM   37  O   UNL     1      -7.391   7.469  66.318  1.00  0.00    -0.079 OA 
BRANCH  36  38
HETATM   38  O   UNL     1      -6.688   9.218  65.061  1.00  0.00    -0.075 OA 
BRANCH  38  39
HETATM   39  C   UNL     1      -7.624   9.294  63.983  1.00  0.00    -0.113 C  
HETATM   40  C   UNL     1      -8.968   9.849  64.449  1.00  0.00    -0.275 C  
HETATM   41  C   UNL     1      -9.613  10.299  63.154  1.00  0.00    -0.295 C  
HETATM   42  C   UNL     1      -8.464  10.908  62.358  1.00  0.00    -0.323 C  
HETATM   43  C   UNL     1      -7.179  10.277  62.903  1.00  0.00    -0.133 C  
ENDBRANCH  38  39
ENDBRANCH  36  38
ENDBRANCH  31  34
ENDBRANCH  23  24
ENDBRANCH   6  23
ENDBRANCH   2   3
TORSDOF 9
ENDMDL
MODEL       76
REMARK 921   NORMALIZED FREE ENERGY PREDICTED BY IDOCK:   -5.53 KCAL/MOL
REMARK 922        TOTAL FREE ENERGY PREDICTED BY IDOCK:  -10.20 KCAL/MOL
REMARK 923 INTER-LIGAND FREE ENERGY PREDICTED BY IDOCK:  -10.43 KCAL/MOL
REMARK 924 INTRA-LIGAND FREE ENERGY PREDICTED BY IDOCK:    0.24 KCAL/MOL
REMARK 927      BINDING AFFINITY PREDICTED BY RF-SCORE:    0.00 PKD
ROOT
HETATM    1  C   UNL     1     -13.239  11.526  71.709  1.00  0.00    -0.351 C  
HETATM    2  O   UNL     1     -12.390  11.924  70.641  1.00  0.00    -0.356 OA 
ENDROOT
BRANCH   2   3
HETATM    3  C   UNL     1     -11.557  10.979  70.103  1.00  0.00    -0.334 A  
HETATM    4  C   UNL     1     -11.608   9.612  70.412  1.00  0.00    -0.299 A  
HETATM    5  C   UNL     1     -10.743   8.700  69.785  1.00  0.00    -0.215 A  
HETATM    6  C   UNL     1     -10.626  11.446  69.154  1.00  0.00    -0.196 A  
HETATM    7  C   UNL     1      -9.881   9.147  68.783  1.00  0.00    -0.175 A  
HETATM    8  C   UNL     1      -9.839  10.504  68.466  1.00  0.00    -0.175 A  
BRANCH   5   9
HETATM    9  C   UNL     1     -10.755   7.284  70.235  1.00  0.00    -0.236 C  
HETATM   10  N   UNL     1      -9.535   6.791  70.718  1.00  0.00    -0.165 N  
HETATM   11  H   UNL     1      -8.724   7.408  70.668  1.00  0.00     0.000 HD 
HETATM   12  O   UNL     1     -11.773   6.616  70.168  1.00  0.00    -0.394 OA 
BRANCH  10  13
HETATM   13  S   UNL     1      -9.311   5.278  71.368  1.00  0.00    -0.151 S  
HETATM   14  O   UNL     1      -8.853   4.403  70.307  1.00  0.00    -0.076 OA 
HETATM   15  O   UNL     1     -10.535   4.976  72.085  1.00  0.00    -0.210 OA 
BRANCH  13  16
HETATM   16  C   UNL     1      -8.015   5.471  72.576  1.00  0.00    -0.103 A  
HETATM   17  C   UNL     1      -7.026   4.476  72.627  1.00  0.00    -0.062 A  
HETATM   18  C   UNL     1      -9.019   7.647  73.488  1.00  0.00    -0.295 C  
HETATM   19  C   UNL     1      -5.993   4.560  73.559  1.00  0.00    -0.020 A  
HETATM   20  C   UNL     1      -7.983   6.561  73.469  1.00  0.00    -0.094 A  
HETATM   21  C   UNL     1      -5.944   5.634  74.442  1.00  0.00    -0.059 A  
HETATM   22  C   UNL     1      -6.928   6.625  74.397  1.00  0.00    -0.091 A  
ENDBRANCH  13  16
ENDBRANCH  10  13
ENDBRANCH   5   9
BRANCH   6  23
HETATM   23  C   UNL     1     -10.482  12.914  68.818  1.00  0.00    -0.183 C  
BRANCH  23  24
HETATM   24  C   UNL     1     -11.111  13.206  67.478  1.00  0.00    -0.296 A  
HETATM   25  N   UNL     1     -11.938  12.854  65.427  1.00  0.00    -0.399 NA 
HETATM   26  C   UNL     1     -11.559  14.179  65.440  1.00  0.00    -0.334 A  
HETATM   27  C   UNL     1     -11.048  14.424  66.715  1.00  0.00    -0.323 A  
HETATM   28  C   UNL     1     -11.764  12.293  66.666  1.00  0.00    -0.349 A  
HETATM   29  C   UNL     1     -12.352  12.129  64.246  1.00  0.00    -0.371 C  
HETATM   30  C   UNL     1     -10.558  15.717  66.981  1.00  0.00    -0.311 A  
HETATM   31  C   UNL     1     -10.651  16.751  66.043  1.00  0.00    -0.228 A  
HETATM   32  C   UNL     1     -11.135  16.460  64.769  1.00  0.00    -0.246 A  
HETATM   33  C   UNL     1     -11.583  15.169  64.441  1.00  0.00    -0.275 A  
BRANCH  31  34
HETATM   34  N   UNL     1     -10.290  18.085  66.348  1.00  0.00    -0.384 N  
HETATM   35  H   UNL     1     -11.035  18.709  66.657  1.00  0.00     0.000 HD 
HETATM   36  C   UNL     1      -9.028  18.614  66.264  1.00  0.00    -0.219 C  
HETATM   37  O   UNL     1      -8.020  18.046  65.878  1.00  0.00    -0.521 OA 
BRANCH  36  38
HETATM   38  O   UNL     1      -9.016  19.910  66.695  1.00  0.00    -0.340 OA 
BRANCH  38  39
HETATM   39  C   UNL     1      -8.164  20.100  67.827  1.00  0.00    -0.261 C  
HETATM   40  C   UNL     1      -7.867  18.777  68.530  1.00  0.00    -0.367 C  
HETATM   41  C   UNL     1      -6.628  19.098  69.340  1.00  0.00    -0.333 C  
HETATM   42  C   UNL     1      -5.800  19.987  68.417  1.00  0.00    -0.273 C  
HETATM   43  C   UNL     1      -6.785  20.619  67.428  1.00  0.00    -0.363 C  
ENDBRANCH  38  39
ENDBRANCH  36  38
ENDBRANCH  31  34
ENDBRANCH  23  24
ENDBRANCH   6  23
ENDBRANCH   2   3
TORSDOF 9
ENDMDL
MODEL       77
REMARK 921   NORMALIZED FREE ENERGY PREDICTED BY IDOCK:   -5.51 KCAL/MOL
REMARK 922        TOTAL FREE ENERGY PREDICTED BY IDOCK:  -10.18 KCAL/MOL
REMARK 923 INTER-LIGAND FREE ENERGY PREDICTED BY IDOCK:   -9.70 KCAL/MOL
REMARK 924 INTRA-LIGAND FREE ENERGY PREDICTED BY IDOCK:   -0.47 KCAL/MOL
REMARK 927      BINDING AFFINITY PREDICTED BY RF-SCORE:    0.00 PKD
ROOT
HETATM    1  C   UNL     1      -6.372  11.858  66.997  1.00  0.00    -0.141 C  
HETATM    2  O   UNL     1      -7.755  12.173  66.905  1.00  0.00    -0.135 OA 
ENDROOT
BRANCH   2   3
HETATM    3  C   UNL     1      -8.649  11.135  66.941  1.00  0.00    -0.148 A  
HETATM    4  C   UNL     1      -8.455   9.949  67.664  1.00  0.00    -0.114 A  
HETATM    5  C   UNL     1      -9.441   8.949  67.682  1.00  0.00    -0.164 A  
HETATM    6  C   UNL     1      -9.846  11.326  66.222  1.00  0.00    -0.248 A  
HETATM    7  C   UNL     1     -10.660   9.172  67.042  1.00  0.00    -0.266 A  
HETATM    8  C   UNL     1     -10.859  10.356  66.334  1.00  0.00    -0.057 A  
BRANCH   5   9
HETATM    9  C   UNL     1      -9.136   7.664  68.362  1.00  0.00    -0.130 C  
HETATM   10  N   UNL     1      -9.295   6.511  67.581  1.00  0.00    -0.119 N  
HETATM   11  H   UNL     1      -9.664   6.628  66.637  1.00  0.00     0.000 HD 
HETATM   12  O   UNL     1      -8.781   7.643  69.529  1.00  0.00    -0.135 OA 
BRANCH  10  13
HETATM   13  S   UNL     1      -8.927   4.967  68.076  1.00  0.00    -0.110 S  
HETATM   14  O   UNL     1      -9.889   4.586  69.090  1.00  0.00    -0.184 OA 
HETATM   15  O   UNL     1      -7.510   4.984  68.385  1.00  0.00    -0.072 OA 
BRANCH  13  16
HETATM   16  C   UNL     1      -9.150   3.944  66.634  1.00  0.00    -0.151 A  
HETATM   17  C   UNL     1      -9.632   4.563  65.470  1.00  0.00    -0.190 A  
HETATM   18  C   UNL     1      -8.389   1.827  67.866  1.00  0.00    -0.080 C  
HETATM   19  C   UNL     1      -9.843   3.816  64.313  1.00  0.00    -0.186 A  
HETATM   20  C   UNL     1      -8.882   2.560  66.652  1.00  0.00    -0.140 A  
HETATM   21  C   UNL     1      -9.574   2.451  64.313  1.00  0.00    -0.135 A  
HETATM   22  C   UNL     1      -9.098   1.829  65.470  1.00  0.00    -0.079 A  
ENDBRANCH  13  16
ENDBRANCH  10  13
ENDBRANCH   5   9
BRANCH   6  23
HETATM   23  C   UNL     1     -10.092  12.557  65.376  1.00  0.00    -0.284 C  
BRANCH  23  24
HETATM   24  C   UNL     1     -10.582  13.693  66.241  1.00  0.00    -0.289 A  
HETATM   25  N   UNL     1     -10.819  15.773  67.036  1.00  0.00    -0.305 NA 
HETATM   26  C   UNL     1     -11.148  14.945  68.088  1.00  0.00    -0.283 A  
HETATM   27  C   UNL     1     -11.015  13.641  67.612  1.00  0.00    -0.283 A  
HETATM   28  C   UNL     1     -10.574  15.037  65.906  1.00  0.00    -0.329 A  
HETATM   29  C   UNL     1     -10.647  17.205  67.141  1.00  0.00    -0.244 C  
HETATM   30  C   UNL     1     -11.270  12.591  68.514  1.00  0.00    -0.322 A  
HETATM   31  C   UNL     1     -11.722  12.827  69.818  1.00  0.00    -0.282 A  
HETATM   32  C   UNL     1     -11.809  14.143  70.268  1.00  0.00    -0.373 A  
HETATM   33  C   UNL     1     -11.510  15.223  69.419  1.00  0.00    -0.329 A  
BRANCH  31  34
HETATM   34  N   UNL     1     -12.113  11.780  70.686  1.00  0.00    -0.424 N  
HETATM   35  H   UNL     1     -11.740  10.852  70.491  1.00  0.00     0.000 HD 
HETATM   36  C   UNL     1     -12.948  11.903  71.765  1.00  0.00    -0.350 C  
HETATM   37  O   UNL     1     -13.524  12.913  72.134  1.00  0.00    -0.523 OA 
BRANCH  36  38
HETATM   38  O   UNL     1     -13.064  10.714  72.427  1.00  0.00    -0.269 OA 
BRANCH  38  39
HETATM   39  C   UNL     1     -12.697   9.599  71.610  1.00  0.00    -0.407 C  
HETATM   40  C   UNL     1     -11.624   8.746  72.282  1.00  0.00    -0.391 C  
HETATM   41  C   UNL     1     -11.730   7.428  71.542  1.00  0.00    -0.314 C  
HETATM   42  C   UNL     1     -13.229   7.234  71.341  1.00  0.00    -0.404 C  
HETATM   43  C   UNL     1     -13.858   8.630  71.404  1.00  0.00    -0.313 C  
ENDBRANCH  38  39
ENDBRANCH  36  38
ENDBRANCH  31  34
ENDBRANCH  23  24
ENDBRANCH   6  23
ENDBRANCH   2   3
TORSDOF 9
ENDMDL
MODEL       78
REMARK 921   NORMALIZED FREE ENERGY PREDICTED BY IDOCK:   -5.49 KCAL/MOL
REMARK 922        TOTAL FREE ENERGY PREDICTED BY IDOCK:  -10.15 KCAL/MOL
REMARK 923 INTER-LIGAND FREE ENERGY PREDICTED BY IDOCK:   -8.26 KCAL/MOL
REMARK 924 INTRA-LIGAND FREE ENERGY PREDICTED BY IDOCK:   -1.89 KCAL/MOL
REMARK 927      BINDING AFFINITY PREDICTED BY RF-SCORE:    0.00 PKD
ROOT
HETATM    1  C   UNL     1      -9.922  11.249  63.414  1.00  0.00    -0.395 C  
HETATM    2  O   UNL     1     -10.328  12.350  64.216  1.00  0.00    -0.325 OA 
ENDROOT
BRANCH   2   3
HETATM    3  C   UNL     1     -10.750  12.086  65.493  1.00  0.00    -0.276 A  
HETATM    4  C   UNL     1     -10.542  10.870  66.159  1.00  0.00    -0.270 A  
HETATM    5  C   UNL     1     -10.971  10.694  67.485  1.00  0.00    -0.371 A  
HETATM    6  C   UNL     1     -11.398  13.145  66.159  1.00  0.00    -0.343 A  
HETATM    7  C   UNL     1     -11.535  11.768  68.174  1.00  0.00    -0.382 A  
HETATM    8  C   UNL     1     -11.730  12.981  67.517  1.00  0.00    -0.421 A  
BRANCH   5   9
HETATM    9  C   UNL     1     -10.835   9.350  68.103  1.00  0.00    -0.119 C  
HETATM   10  N   UNL     1     -10.969   8.263  67.227  1.00  0.00    -0.435 N  
HETATM   11  H   UNL     1     -11.209   8.467  66.257  1.00  0.00     0.000 HD 
HETATM   12  O   UNL     1     -10.631   9.230  69.299  1.00  0.00    -0.221 OA 
BRANCH  10  13
HETATM   13  S   UNL     1     -10.764   6.669  67.651  1.00  0.00    -0.326 S  
HETATM   14  O   UNL     1     -11.029   5.861  66.478  1.00  0.00    -0.250 OA 
HETATM   15  O   UNL     1     -11.546   6.482  68.857  1.00  0.00    -0.195 OA 
BRANCH  13  16
HETATM   16  C   UNL     1      -9.045   6.517  68.098  1.00  0.00    -0.114 A  
HETATM   17  C   UNL     1      -8.743   5.813  69.274  1.00  0.00    -0.113 A  
HETATM   18  C   UNL     1      -8.270   7.884  66.071  1.00  0.00    -0.122 C  
HETATM   19  C   UNL     1      -7.419   5.671  69.686  1.00  0.00    -0.075 A  
HETATM   20  C   UNL     1      -8.019   7.098  67.324  1.00  0.00    -0.111 A  
HETATM   21  C   UNL     1      -6.395   6.231  68.929  1.00  0.00    -0.041 A  
HETATM   22  C   UNL     1      -6.691   6.936  67.760  1.00  0.00    -0.067 A  
ENDBRANCH  13  16
ENDBRANCH  10  13
ENDBRANCH   5   9
BRANCH   6  23
HETATM   23  C   UNL     1     -11.704  14.462  65.478  1.00  0.00    -0.352 C  
BRANCH  23  24
HETATM   24  C   UNL     1     -10.746  15.527  65.953  1.00  0.00    -0.346 A  
HETATM   25  N   UNL     1      -9.723  17.514  66.100  1.00  0.00    -0.465 NA 
HETATM   26  C   UNL     1      -8.808  16.601  66.578  1.00  0.00    -0.279 A  
HETATM   27  C   UNL     1      -9.429  15.354  66.504  1.00  0.00    -0.298 A  
HETATM   28  C   UNL     1     -10.913  16.896  65.816  1.00  0.00     0.068 A  
HETATM   29  C   UNL     1      -9.432  18.905  65.831  1.00  0.00     0.107 C  
HETATM   30  C   UNL     1      -8.683  14.232  66.912  1.00  0.00    -0.202 A  
HETATM   31  C   UNL     1      -7.398  14.354  67.454  1.00  0.00    -0.142 A  
HETATM   32  C   UNL     1      -6.798  15.612  67.481  1.00  0.00    -0.221 A  
HETATM   33  C   UNL     1      -7.485  16.753  67.031  1.00  0.00    -0.236 A  
BRANCH  31  34
HETATM   34  N   UNL     1      -6.696  13.250  67.995  1.00  0.00    -0.109 N  
HETATM   35  H   UNL     1      -6.506  12.469  67.369  1.00  0.00     0.000 HD 
HETATM   36  C   UNL     1      -6.250  13.139  69.286  1.00  0.00    -0.102 C  
HETATM   37  O   UNL     1      -6.414  13.941  70.190  1.00  0.00    -0.112 OA 
BRANCH  36  38
HETATM   38  O   UNL     1      -5.553  11.977  69.459  1.00  0.00    -0.067 OA 
BRANCH  38  39
HETATM   39  C   UNL     1      -6.148  11.127  70.443  1.00  0.00    -0.126 C  
HETATM   40  C   UNL     1      -7.211  10.220  69.828  1.00  0.00    -0.147 C  
HETATM   41  C   UNL     1      -7.353   9.120  70.859  1.00  0.00    -0.129 C  
HETATM   42  C   UNL     1      -5.924   8.866  71.330  1.00  0.00    -0.057 C  
HETATM   43  C   UNL     1      -5.141  10.151  71.045  1.00  0.00    -0.068 C  
ENDBRANCH  38  39
ENDBRANCH  36  38
ENDBRANCH  31  34
ENDBRANCH  23  24
ENDBRANCH   6  23
ENDBRANCH   2   3
TORSDOF 9
ENDMDL
MODEL       79
REMARK 921   NORMALIZED FREE ENERGY PREDICTED BY IDOCK:   -5.49 KCAL/MOL
REMARK 922        TOTAL FREE ENERGY PREDICTED BY IDOCK:  -10.14 KCAL/MOL
REMARK 923 INTER-LIGAND FREE ENERGY PREDICTED BY IDOCK:   -8.94 KCAL/MOL
REMARK 924 INTRA-LIGAND FREE ENERGY PREDICTED BY IDOCK:   -1.20 KCAL/MOL
REMARK 927      BINDING AFFINITY PREDICTED BY RF-SCORE:    0.00 PKD
ROOT
HETATM    1  C   UNL     1     -12.026  12.106  65.740  1.00  0.00    -0.194 C  
HETATM    2  O   UNL     1     -10.680  11.823  65.381  1.00  0.00    -0.268 OA 
ENDROOT
BRANCH   2   3
HETATM    3  C   UNL     1      -9.687  12.465  66.073  1.00  0.00    -0.244 A  
HETATM    4  C   UNL     1      -9.765  13.793  66.517  1.00  0.00    -0.301 A  
HETATM    5  C   UNL     1      -8.718  14.366  67.258  1.00  0.00    -0.228 A  
HETATM    6  C   UNL     1      -8.546  11.695  66.371  1.00  0.00    -0.143 A  
HETATM    7  C   UNL     1      -7.627  13.580  67.627  1.00  0.00    -0.181 A  
HETATM    8  C   UNL     1      -7.555  12.256  67.197  1.00  0.00    -0.118 A  
BRANCH   5   9
HETATM    9  C   UNL     1      -8.796  15.810  67.599  1.00  0.00    -0.175 C  
HETATM   10  N   UNL     1      -9.446  16.621  66.658  1.00  0.00    -0.240 N  
HETATM   11  H   UNL     1      -9.756  16.182  65.791  1.00  0.00     0.000 HD 
HETATM   12  O   UNL     1      -8.310  16.235  68.633  1.00  0.00    -0.195 OA 
BRANCH  10  13
HETATM   13  S   UNL     1      -9.748  18.245  66.849  1.00  0.00    -0.332 S  
HETATM   14  O   UNL     1     -10.146  18.462  68.225  1.00  0.00    -0.347 OA 
HETATM   15  O   UNL     1     -10.642  18.605  65.766  1.00  0.00    -0.567 OA 
BRANCH  13  16
HETATM   16  C   UNL     1      -8.188  19.053  66.549  1.00  0.00    -0.302 A  
HETATM   17  C   UNL     1      -7.166  18.289  65.964  1.00  0.00    -0.298 A  
HETATM   18  C   UNL     1      -9.002  21.268  67.554  1.00  0.00     0.252 C  
HETATM   19  C   UNL     1      -5.918  18.857  65.717  1.00  0.00    -0.219 A  
HETATM   20  C   UNL     1      -7.965  20.399  66.903  1.00  0.00    -0.326 A  
HETATM   21  C   UNL     1      -5.685  20.187  66.053  1.00  0.00    -0.190 A  
HETATM   22  C   UNL     1      -6.698  20.951  66.639  1.00  0.00    -0.338 A  
ENDBRANCH  13  16
ENDBRANCH  10  13
ENDBRANCH   5   9
BRANCH   6  23
HETATM   23  C   UNL     1      -8.376  10.276  65.873  1.00  0.00    -0.145 C  
BRANCH  23  24
HETATM   24  C   UNL     1      -8.063   9.354  67.026  1.00  0.00    -0.105 A  
HETATM   25  N   UNL     1      -7.340   7.544  68.129  1.00  0.00    -0.093 NA 
HETATM   26  C   UNL     1      -8.279   8.119  68.957  1.00  0.00    -0.127 A  
HETATM   27  C   UNL     1      -8.739   9.256  68.292  1.00  0.00    -0.129 A  
HETATM   28  C   UNL     1      -7.135   8.325  67.021  1.00  0.00    -0.079 A  
HETATM   29  C   UNL     1      -6.739   6.246  68.344  1.00  0.00    -0.068 C  
HETATM   30  C   UNL     1      -9.741  10.017  68.924  1.00  0.00    -0.181 A  
HETATM   31  C   UNL     1     -10.210   9.707  70.206  1.00  0.00    -0.277 A  
HETATM   32  C   UNL     1      -9.753   8.543  70.823  1.00  0.00    -0.221 A  
HETATM   33  C   UNL     1      -8.793   7.723  70.205  1.00  0.00    -0.144 A  
BRANCH  31  34
HETATM   34  N   UNL     1     -11.113  10.542  70.904  1.00  0.00    -0.291 N  
HETATM   35  H   UNL     1     -10.900  10.743  71.881  1.00  0.00     0.000 HD 
HETATM   36  C   UNL     1     -12.250  11.104  70.385  1.00  0.00    -0.369 C  
HETATM   37  O   UNL     1     -12.696  10.951  69.260  1.00  0.00    -0.282 OA 
BRANCH  36  38
HETATM   38  O   UNL     1     -12.858  11.908  71.308  1.00  0.00    -0.380 OA 
BRANCH  38  39
HETATM   39  C   UNL     1     -12.949  13.267  70.870  1.00  0.00    -0.098 C  
HETATM   40  C   UNL     1     -14.226  13.931  71.378  1.00  0.00     0.040 C  
HETATM   41  C   UNL     1     -13.913  15.407  71.245  1.00  0.00    -0.491 C  
HETATM   42  C   UNL     1     -12.452  15.517  71.667  1.00  0.00    -0.473 C  
HETATM   43  C   UNL     1     -11.833  14.133  71.446  1.00  0.00    -0.071 C  
ENDBRANCH  38  39
ENDBRANCH  36  38
ENDBRANCH  31  34
ENDBRANCH  23  24
ENDBRANCH   6  23
ENDBRANCH   2   3
TORSDOF 9
ENDMDL
MODEL       80
REMARK 921   NORMALIZED FREE ENERGY PREDICTED BY IDOCK:   -5.48 KCAL/MOL
REMARK 922        TOTAL FREE ENERGY PREDICTED BY IDOCK:  -10.12 KCAL/MOL
REMARK 923 INTER-LIGAND FREE ENERGY PREDICTED BY IDOCK:   -9.16 KCAL/MOL
REMARK 924 INTRA-LIGAND FREE ENERGY PREDICTED BY IDOCK:   -0.96 KCAL/MOL
REMARK 927      BINDING AFFINITY PREDICTED BY RF-SCORE:    0.00 PKD
ROOT
HETATM    1  C   UNL     1      -6.977   9.211  68.993  1.00  0.00    -0.063 C  
HETATM    2  O   UNL     1      -7.801   9.277  70.150  1.00  0.00    -0.092 OA 
ENDROOT
BRANCH   2   3
HETATM    3  C   UNL     1      -9.081   9.741  69.995  1.00  0.00    -0.223 A  
HETATM    4  C   UNL     1      -9.530  10.464  68.882  1.00  0.00    -0.190 A  
HETATM    5  C   UNL     1     -10.871  10.869  68.781  1.00  0.00    -0.251 A  
HETATM    6  C   UNL     1      -9.983   9.416  71.027  1.00  0.00    -0.334 A  
HETATM    7  C   UNL     1     -11.785  10.475  69.759  1.00  0.00    -0.354 A  
HETATM    8  C   UNL     1     -11.341   9.744  70.860  1.00  0.00    -0.439 A  
BRANCH   5   9
HETATM    9  C   UNL     1     -11.268  11.737  67.641  1.00  0.00    -0.281 C  
HETATM   10  N   UNL     1     -10.891  13.083  67.744  1.00  0.00    -0.235 N  
HETATM   11  H   UNL     1     -10.436  13.381  68.607  1.00  0.00     0.000 HD 
HETATM   12  O   UNL     1     -11.889  11.281  66.696  1.00  0.00    -0.311 OA 
BRANCH  10  13
HETATM   13  S   UNL     1     -11.129  14.230  66.564  1.00  0.00    -0.331 S  
HETATM   14  O   UNL     1     -12.534  14.216  66.210  1.00  0.00    -0.466 OA 
HETATM   15  O   UNL     1     -10.120  13.969  65.556  1.00  0.00    -0.322 OA 
BRANCH  13  16
HETATM   16  C   UNL     1     -10.728  15.787  67.334  1.00  0.00    -0.317 A  
HETATM   17  C   UNL     1     -10.576  15.798  68.729  1.00  0.00    -0.239 A  
HETATM   18  C   UNL     1     -10.762  17.042  65.097  1.00  0.00    -0.066 C  
HETATM   19  C   UNL     1     -10.277  16.986  69.393  1.00  0.00    -0.190 A  
HETATM   20  C   UNL     1     -10.590  16.975  66.587  1.00  0.00    -0.182 A  
HETATM   21  C   UNL     1     -10.129  18.165  68.669  1.00  0.00    -0.406 A  
HETATM   22  C   UNL     1     -10.283  18.159  67.280  1.00  0.00    -0.377 A  
ENDBRANCH  13  16
ENDBRANCH  10  13
ENDBRANCH   5   9
BRANCH   6  23
HETATM   23  C   UNL     1      -9.549   8.687  72.281  1.00  0.00    -0.348 C  
BRANCH  23  24
HETATM   24  C   UNL     1     -10.011   7.251  72.234  1.00  0.00    -0.199 A  
HETATM   25  N   UNL     1     -10.633   5.223  72.951  1.00  0.00    -0.212 NA 
HETATM   26  C   UNL     1     -10.172   5.026  71.667  1.00  0.00    -0.208 A  
HETATM   27  C   UNL     1      -9.786   6.281  71.196  1.00  0.00    -0.203 A  
HETATM   28  C   UNL     1     -10.630   6.558  73.261  1.00  0.00    -0.276 A  
HETATM   29  C   UNL     1     -10.965   4.162  73.877  1.00  0.00    -0.218 C  
HETATM   30  C   UNL     1      -9.245   6.349  69.898  1.00  0.00    -0.154 A  
HETATM   31  C   UNL     1      -9.168   5.226  69.067  1.00  0.00    -0.118 A  
HETATM   32  C   UNL     1      -9.531   3.983  69.585  1.00  0.00    -0.262 A  
HETATM   33  C   UNL     1     -10.024   3.859  70.895  1.00  0.00    -0.134 A  
BRANCH  31  34
HETATM   34  N   UNL     1      -8.756   5.309  67.716  1.00  0.00    -0.104 N  
HETATM   35  H   UNL     1      -9.361   4.877  67.018  1.00  0.00     0.000 HD 
HETATM   36  C   UNL     1      -7.616   5.920  67.262  1.00  0.00    -0.096 C  
HETATM   37  O   UNL     1      -6.751   6.452  67.937  1.00  0.00    -0.059 OA 
BRANCH  36  38
HETATM   38  O   UNL     1      -7.554   5.877  65.898  1.00  0.00    -0.083 OA 
BRANCH  38  39
HETATM   39  C   UNL     1      -8.231   6.980  65.288  1.00  0.00    -0.128 C  
HETATM   40  C   UNL     1      -9.234   7.617  66.246  1.00  0.00    -0.204 C  
HETATM   41  C   UNL     1      -9.463   8.984  65.632  1.00  0.00    -0.273 C  
HETATM   42  C   UNL     1      -8.080   9.410  65.149  1.00  0.00    -0.126 C  
HETATM   43  C   UNL     1      -7.278   8.121  64.945  1.00  0.00    -0.081 C  
ENDBRANCH  38  39
ENDBRANCH  36  38
ENDBRANCH  31  34
ENDBRANCH  23  24
ENDBRANCH   6  23
ENDBRANCH   2   3
TORSDOF 9
ENDMDL
MODEL       81
REMARK 921   NORMALIZED FREE ENERGY PREDICTED BY IDOCK:   -5.47 KCAL/MOL
REMARK 922        TOTAL FREE ENERGY PREDICTED BY IDOCK:  -10.12 KCAL/MOL
REMARK 923 INTER-LIGAND FREE ENERGY PREDICTED BY IDOCK:  -10.53 KCAL/MOL
REMARK 924 INTRA-LIGAND FREE ENERGY PREDICTED BY IDOCK:    0.41 KCAL/MOL
REMARK 927      BINDING AFFINITY PREDICTED BY RF-SCORE:    0.00 PKD
ROOT
HETATM    1  C   UNL     1      -7.147  13.643  68.076  1.00  0.00    -0.132 C  
HETATM    2  O   UNL     1      -8.459  13.113  67.934  1.00  0.00    -0.157 OA 
ENDROOT
BRANCH   2   3
HETATM    3  C   UNL     1      -9.330  13.780  67.112  1.00  0.00    -0.240 A  
HETATM    4  C   UNL     1      -9.271  15.155  66.848  1.00  0.00    -0.259 A  
HETATM    5  C   UNL     1     -10.179  15.756  65.959  1.00  0.00    -0.352 A  
HETATM    6  C   UNL     1     -10.311  12.988  66.482  1.00  0.00    -0.278 A  
HETATM    7  C   UNL     1     -11.094  14.961  65.269  1.00  0.00    -0.382 A  
HETATM    8  C   UNL     1     -11.144  13.591  65.522  1.00  0.00    -0.303 A  
BRANCH   5   9
HETATM    9  C   UNL     1     -10.152  17.233  65.807  1.00  0.00    -0.141 C  
HETATM   10  N   UNL     1      -9.344  17.923  66.723  1.00  0.00    -0.267 N  
HETATM   11  H   UNL     1      -8.892  17.377  67.456  1.00  0.00     0.000 HD 
HETATM   12  O   UNL     1     -10.807  17.784  64.939  1.00  0.00    -0.815 OA 
BRANCH  10  13
HETATM   13  S   UNL     1      -9.069  19.562  66.703  1.00  0.00    -0.369 S  
HETATM   14  O   UNL     1     -10.199  20.209  67.340  1.00  0.00    -0.411 OA 
HETATM   15  O   UNL     1      -8.723  19.883  65.332  1.00  0.00    -0.138 OA 
BRANCH  13  16
HETATM   16  C   UNL     1      -7.610  19.808  67.697  1.00  0.00    -0.282 A  
HETATM   17  C   UNL     1      -7.653  19.364  69.028  1.00  0.00    -0.369 A  
HETATM   18  C   UNL     1      -6.351  20.963  65.784  1.00  0.00    -0.247 C  
HETATM   19  C   UNL     1      -6.551  19.539  69.862  1.00  0.00    -0.254 A  
HETATM   20  C   UNL     1      -6.459  20.443  67.188  1.00  0.00    -0.267 A  
HETATM   21  C   UNL     1      -5.404  20.157  69.372  1.00  0.00    -0.267 A  
HETATM   22  C   UNL     1      -5.358  20.603  68.048  1.00  0.00    -0.270 A  
ENDBRANCH  13  16
ENDBRANCH  10  13
ENDBRANCH   5   9
BRANCH   6  23
HETATM   23  C   UNL     1     -10.463  11.510  66.768  1.00  0.00    -0.275 C  
BRANCH  23  24
HETATM   24  C   UNL     1     -11.174  11.305  68.083  1.00  0.00    -0.351 A  
HETATM   25  N   UNL     1     -12.147  11.793  70.040  1.00  0.00    -0.323 NA 
HETATM   26  C   UNL     1     -11.731  10.484  70.161  1.00  0.00    -0.326 A  
HETATM   27  C   UNL     1     -11.127  10.155  68.947  1.00  0.00    -0.251 A  
HETATM   28  C   UNL     1     -11.905  12.258  68.773  1.00  0.00    -0.306 A  
HETATM   29  C   UNL     1     -12.662  12.594  71.128  1.00  0.00    -0.254 C  
HETATM   30  C   UNL     1     -10.584   8.863  68.821  1.00  0.00    -0.185 A  
HETATM   31  C   UNL     1     -10.710   7.904  69.832  1.00  0.00    -0.244 A  
HETATM   32  C   UNL     1     -11.289   8.280  71.044  1.00  0.00    -0.299 A  
HETATM   33  C   UNL     1     -11.795   9.577  71.234  1.00  0.00    -0.450 A  
BRANCH  31  34
HETATM   34  N   UNL     1     -10.292   6.563  69.662  1.00  0.00    -0.185 N  
HETATM   35  H   UNL     1     -10.844   5.842  70.124  1.00  0.00     0.000 HD 
HETATM   36  C   UNL     1      -9.209   6.148  68.932  1.00  0.00    -0.125 C  
HETATM   37  O   UNL     1      -8.406   6.855  68.345  1.00  0.00    -0.119 OA 
BRANCH  36  38
HETATM   38  O   UNL     1      -9.127   4.785  68.919  1.00  0.00    -0.104 OA 
BRANCH  38  39
HETATM   39  C   UNL     1      -8.801   4.271  67.625  1.00  0.00    -0.111 C  
HETATM   40  C   UNL     1      -7.302   4.367  67.348  1.00  0.00    -0.069 C  
HETATM   41  C   UNL     1      -7.105   3.377  66.219  1.00  0.00    -0.063 C  
HETATM   42  C   UNL     1      -8.015   2.209  66.585  1.00  0.00    -0.076 C  
HETATM   43  C   UNL     1      -9.098   2.778  67.507  1.00  0.00    -0.213 C  
ENDBRANCH  38  39
ENDBRANCH  36  38
ENDBRANCH  31  34
ENDBRANCH  23  24
ENDBRANCH   6  23
ENDBRANCH   2   3
TORSDOF 9
ENDMDL
MODEL       82
REMARK 921   NORMALIZED FREE ENERGY PREDICTED BY IDOCK:   -5.42 KCAL/MOL
REMARK 922        TOTAL FREE ENERGY PREDICTED BY IDOCK:  -10.04 KCAL/MOL
REMARK 923 INTER-LIGAND FREE ENERGY PREDICTED BY IDOCK:   -9.37 KCAL/MOL
REMARK 924 INTRA-LIGAND FREE ENERGY PREDICTED BY IDOCK:   -0.66 KCAL/MOL
REMARK 927      BINDING AFFINITY PREDICTED BY RF-SCORE:    0.00 PKD
ROOT
HETATM    1  C   UNL     1      -9.723  10.574  63.284  1.00  0.00    -0.312 C  
HETATM    2  O   UNL     1      -8.958   9.807  64.203  1.00  0.00    -0.214 OA 
ENDROOT
BRANCH   2   3
HETATM    3  C   UNL     1      -8.967  10.191  65.519  1.00  0.00    -0.172 A  
HETATM    4  C   UNL     1      -9.882  11.100  66.069  1.00  0.00    -0.270 A  
HETATM    5  C   UNL     1      -9.851  11.412  67.438  1.00  0.00    -0.199 A  
HETATM    6  C   UNL     1      -8.004   9.582  66.347  1.00  0.00    -0.111 A  
HETATM    7  C   UNL     1      -8.955  10.746  68.275  1.00  0.00    -0.143 A  
HETATM    8  C   UNL     1      -8.054   9.832  67.731  1.00  0.00    -0.113 A  
BRANCH   5   9
HETATM    9  C   UNL     1     -10.761  12.470  67.947  1.00  0.00    -0.217 C  
HETATM   10  N   UNL     1     -10.169  13.719  68.179  1.00  0.00    -0.246 N  
HETATM   11  H   UNL     1      -9.160  13.795  68.046  1.00  0.00     0.000 HD 
HETATM   12  O   UNL     1     -11.941  12.236  68.150  1.00  0.00    -0.386 OA 
BRANCH  10  13
HETATM   13  S   UNL     1     -10.986  15.087  68.654  1.00  0.00    -0.271 S  
HETATM   14  O   UNL     1     -11.365  14.917  70.042  1.00  0.00    -0.254 OA 
HETATM   15  O   UNL     1     -12.002  15.305  67.642  1.00  0.00    -0.185 OA 
BRANCH  13  16
HETATM   16  C   UNL     1      -9.803  16.413  68.522  1.00  0.00    -0.231 A  
HETATM   17  C   UNL     1     -10.234  17.607  67.922  1.00  0.00    -0.357 A  
HETATM   18  C   UNL     1      -7.938  15.023  69.603  1.00  0.00    -0.069 C  
HETATM   19  C   UNL     1      -9.354  18.677  67.775  1.00  0.00    -0.315 A  
HETATM   20  C   UNL     1      -8.475  16.276  68.975  1.00  0.00    -0.244 A  
HETATM   21  C   UNL     1      -8.042  18.560  68.225  1.00  0.00    -0.324 A  
HETATM   22  C   UNL     1      -7.607  17.372  68.820  1.00  0.00    -0.252 A  
ENDBRANCH  13  16
ENDBRANCH  10  13
ENDBRANCH   5   9
BRANCH   6  23
HETATM   23  C   UNL     1      -6.954   8.637  65.805  1.00  0.00    -0.075 C  
BRANCH  23  24
HETATM   24  C   UNL     1      -7.584   7.316  65.435  1.00  0.00    -0.100 A  
HETATM   25  N   UNL     1      -8.191   5.557  64.190  1.00  0.00    -0.127 NA 
HETATM   26  C   UNL     1      -9.119   5.616  65.207  1.00  0.00     0.037 A  
HETATM   27  C   UNL     1      -8.755   6.703  66.003  1.00  0.00    -0.155 A  
HETATM   28  C   UNL     1      -7.219   6.506  64.373  1.00  0.00    -0.069 A  
HETATM   29  C   UNL     1      -8.291   4.692  63.036  1.00  0.00    -0.106 C  
HETATM   30  C   UNL     1      -9.572   7.000  67.109  1.00  0.00    -0.187 A  
HETATM   31  C   UNL     1     -10.663   6.197  67.462  1.00  0.00    -0.313 A  
HETATM   32  C   UNL     1     -11.017   5.141  66.624  1.00  0.00     0.095 A  
HETATM   33  C   UNL     1     -10.262   4.841  65.477  1.00  0.00    -0.162 A  
BRANCH  31  34
HETATM   34  N   UNL     1     -11.405   6.406  68.649  1.00  0.00    -0.559 N  
HETATM   35  H   UNL     1     -12.320   6.845  68.553  1.00  0.00     0.000 HD 
HETATM   36  C   UNL     1     -11.003   6.072  69.915  1.00  0.00    -0.388 C  
HETATM   37  O   UNL     1      -9.934   5.581  70.239  1.00  0.00    -0.185 OA 
BRANCH  36  38
HETATM   38  O   UNL     1     -11.984   6.349  70.824  1.00  0.00    -0.338 OA 
BRANCH  38  39
HETATM   39  C   UNL     1     -11.831   7.643  71.413  1.00  0.00    -0.293 C  
HETATM   40  C   UNL     1     -11.335   8.665  70.392  1.00  0.00    -0.203 C  
HETATM   41  C   UNL     1     -11.699   9.987  71.036  1.00  0.00    -0.479 C  
HETATM   42  C   UNL     1     -13.065   9.732  71.663  1.00  0.00    -0.516 C  
HETATM   43  C   UNL     1     -13.162   8.219  71.889  1.00  0.00    -0.366 C  
ENDBRANCH  38  39
ENDBRANCH  36  38
ENDBRANCH  31  34
ENDBRANCH  23  24
ENDBRANCH   6  23
ENDBRANCH   2   3
TORSDOF 9
ENDMDL
MODEL       83
REMARK 921   NORMALIZED FREE ENERGY PREDICTED BY IDOCK:   -5.41 KCAL/MOL
REMARK 922        TOTAL FREE ENERGY PREDICTED BY IDOCK:  -10.01 KCAL/MOL
REMARK 923 INTER-LIGAND FREE ENERGY PREDICTED BY IDOCK:   -9.03 KCAL/MOL
REMARK 924 INTRA-LIGAND FREE ENERGY PREDICTED BY IDOCK:   -0.98 KCAL/MOL
REMARK 927      BINDING AFFINITY PREDICTED BY RF-SCORE:    0.00 PKD
ROOT
HETATM    1  C   UNL     1     -10.151  14.979  69.705  1.00  0.00    -0.125 C  
HETATM    2  O   UNL     1      -8.780  15.125  70.049  1.00  0.00     0.036 OA 
ENDROOT
BRANCH   2   3
HETATM    3  C   UNL     1      -7.855  14.482  69.268  1.00  0.00    -0.023 A  
HETATM    4  C   UNL     1      -8.163  13.458  68.360  1.00  0.00    -0.139 A  
HETATM    5  C   UNL     1      -7.161  12.877  67.565  1.00  0.00    -0.153 A  
HETATM    6  C   UNL     1      -6.526  14.933  69.387  1.00  0.00    -0.131 A  
HETATM    7  C   UNL     1      -5.861  13.381  67.620  1.00  0.00    -0.092 A  
HETATM    8  C   UNL     1      -5.558  14.407  68.513  1.00  0.00    -0.098 A  
BRANCH   5   9
HETATM    9  C   UNL     1      -7.517  11.716  66.709  1.00  0.00    -0.091 C  
HETATM   10  N   UNL     1      -8.760  11.795  66.067  1.00  0.00    -0.386 N  
HETATM   11  H   UNL     1      -9.350  12.599  66.279  1.00  0.00     0.000 HD 
HETATM   12  O   UNL     1      -6.761  10.766  66.599  1.00  0.00    -0.102 OA 
BRANCH  10  13
HETATM   13  S   UNL     1      -9.345  10.676  64.985  1.00  0.00    -0.235 S  
HETATM   14  O   UNL     1      -8.370  10.537  63.922  1.00  0.00    -0.161 OA 
HETATM   15  O   UNL     1     -10.699  11.097  64.682  1.00  0.00    -0.325 OA 
BRANCH  13  16
HETATM   16  C   UNL     1      -9.448   9.148  65.897  1.00  0.00    -0.259 A  
HETATM   17  C   UNL     1      -8.781   8.033  65.367  1.00  0.00    -0.101 A  
HETATM   18  C   UNL     1     -10.946  10.184  67.703  1.00  0.00    -0.331 C  
HETATM   19  C   UNL     1      -8.835   6.805  66.023  1.00  0.00    -0.150 A  
HETATM   20  C   UNL     1     -10.188   9.041  67.092  1.00  0.00    -0.334 A  
HETATM   21  C   UNL     1      -9.554   6.686  67.208  1.00  0.00    -0.157 A  
HETATM   22  C   UNL     1     -10.224   7.792  67.738  1.00  0.00    -0.271 A  
ENDBRANCH  13  16
ENDBRANCH  10  13
ENDBRANCH   5   9
BRANCH   6  23
HETATM   23  C   UNL     1      -6.119  15.993  70.388  1.00  0.00     0.055 C  
BRANCH  23  24
HETATM   24  C   UNL     1      -6.033  17.340  69.712  1.00  0.00    -0.243 A  
HETATM   25  N   UNL     1      -5.660  19.532  69.442  1.00  0.00    -0.210 NA 
HETATM   26  C   UNL     1      -6.577  19.199  68.469  1.00  0.00    -0.255 A  
HETATM   27  C   UNL     1      -6.819  17.833  68.613  1.00  0.00    -0.242 A  
HETATM   28  C   UNL     1      -5.258  18.412  70.125  1.00  0.00    -0.229 A  
HETATM   29  C   UNL     1      -5.264  20.883  69.771  1.00  0.00    -0.375 C  
HETATM   30  C   UNL     1      -7.755  17.243  67.743  1.00  0.00    -0.196 A  
HETATM   31  C   UNL     1      -8.367  17.967  66.712  1.00  0.00    -0.252 A  
HETATM   32  C   UNL     1      -8.127  19.337  66.622  1.00  0.00    -0.300 A  
HETATM   33  C   UNL     1      -7.242  19.979  67.505  1.00  0.00    -0.313 A  
BRANCH  31  34
HETATM   34  N   UNL     1      -9.202  17.353  65.748  1.00  0.00     0.084 N  
HETATM   35  H   UNL     1      -8.801  16.590  65.205  1.00  0.00     0.000 HD 
HETATM   36  C   UNL     1     -10.502  17.695  65.480  1.00  0.00    -0.040 C  
HETATM   37  O   UNL     1     -11.142  18.600  65.989  1.00  0.00     0.043 OA 
BRANCH  36  38
HETATM   38  O   UNL     1     -11.038  16.861  64.541  1.00  0.00    -1.054 OA 
BRANCH  38  39
HETATM   39  C   UNL     1     -11.069  15.499  64.976  1.00  0.00    -0.401 C  
HETATM   40  C   UNL     1     -11.411  15.396  66.461  1.00  0.00    -0.098 C  
HETATM   41  C   UNL     1     -11.864  13.957  66.602  1.00  0.00    -0.447 C  
HETATM   42  C   UNL     1     -12.671  13.695  65.334  1.00  0.00    -0.500 C  
HETATM   43  C   UNL     1     -12.175  14.701  64.291  1.00  0.00    -0.432 C  
ENDBRANCH  38  39
ENDBRANCH  36  38
ENDBRANCH  31  34
ENDBRANCH  23  24
ENDBRANCH   6  23
ENDBRANCH   2   3
TORSDOF 9
ENDMDL
MODEL       84
REMARK 921   NORMALIZED FREE ENERGY PREDICTED BY IDOCK:   -5.40 KCAL/MOL
REMARK 922        TOTAL FREE ENERGY PREDICTED BY IDOCK:  -10.01 KCAL/MOL
REMARK 923 INTER-LIGAND FREE ENERGY PREDICTED BY IDOCK:   -8.58 KCAL/MOL
REMARK 924 INTRA-LIGAND FREE ENERGY PREDICTED BY IDOCK:   -1.43 KCAL/MOL
REMARK 927      BINDING AFFINITY PREDICTED BY RF-SCORE:    0.00 PKD
ROOT
HETATM    1  C   UNL     1      -5.911  13.058  70.051  1.00  0.00    -0.143 C  
HETATM    2  O   UNL     1      -6.294  11.891  69.335  1.00  0.00    -0.095 OA 
ENDROOT
BRANCH   2   3
HETATM    3  C   UNL     1      -7.519  11.893  68.721  1.00  0.00    -0.100 A  
HETATM    4  C   UNL     1      -8.138  13.037  68.197  1.00  0.00    -0.155 A  
HETATM    5  C   UNL     1      -9.379  12.949  67.545  1.00  0.00    -0.190 A  
HETATM    6  C   UNL     1      -8.149  10.639  68.595  1.00  0.00    -0.132 A  
HETATM    7  C   UNL     1      -9.962  11.698  67.344  1.00  0.00    -0.200 A  
HETATM    8  C   UNL     1      -9.341  10.558  67.853  1.00  0.00    -0.150 A  
BRANCH   5   9
HETATM    9  C   UNL     1     -10.048  14.204  67.116  1.00  0.00    -0.258 C  
HETATM   10  N   UNL     1      -9.401  15.392  67.485  1.00  0.00    -0.202 N  
HETATM   11  H   UNL     1      -8.567  15.314  68.066  1.00  0.00     0.000 HD 
HETATM   12  O   UNL     1     -11.095  14.172  66.492  1.00  0.00    -0.308 OA 
BRANCH  10  13
HETATM   13  S   UNL     1      -9.892  16.918  67.044  1.00  0.00    -0.281 S  
HETATM   14  O   UNL     1     -11.155  17.184  67.703  1.00  0.00    -0.219 OA 
HETATM   15  O   UNL     1      -9.801  16.955  65.598  1.00  0.00    -0.549 OA 
BRANCH  13  16
HETATM   16  C   UNL     1      -8.646  18.018  67.689  1.00  0.00    -0.247 A  
HETATM   17  C   UNL     1      -7.583  17.443  68.402  1.00  0.00    -0.255 A  
HETATM   18  C   UNL     1      -9.843  20.101  66.790  1.00  0.00    -0.591 C  
HETATM   19  C   UNL     1      -6.584  18.249  68.944  1.00  0.00    -0.251 A  
HETATM   20  C   UNL     1      -8.724  19.415  67.519  1.00  0.00    -0.346 A  
HETATM   21  C   UNL     1      -6.642  19.629  68.778  1.00  0.00    -0.337 A  
HETATM   22  C   UNL     1      -7.701  20.206  68.071  1.00  0.00    -0.267 A  
ENDBRANCH  13  16
ENDBRANCH  10  13
ENDBRANCH   5   9
BRANCH   6  23
HETATM   23  C   UNL     1      -7.561   9.377  69.189  1.00  0.00    -0.074 C  
BRANCH  23  24
HETATM   24  C   UNL     1      -8.629   8.598  69.915  1.00  0.00    -0.131 A  
HETATM   25  N   UNL     1      -9.987   7.940  71.570  1.00  0.00    -0.170 NA 
HETATM   26  C   UNL     1      -9.880   6.848  70.736  1.00  0.00    -0.182 A  
HETATM   27  C   UNL     1      -9.043   7.238  69.690  1.00  0.00    -0.140 A  
HETATM   28  C   UNL     1      -9.324   9.015  71.039  1.00  0.00    -0.271 A  
HETATM   29  C   UNL     1     -10.615   7.920  72.873  1.00  0.00    -0.368 C  
HETATM   30  C   UNL     1      -8.746   6.279  68.704  1.00  0.00    -0.120 A  
HETATM   31  C   UNL     1      -9.327   5.006  68.709  1.00  0.00    -0.130 A  
HETATM   32  C   UNL     1     -10.130   4.640  69.789  1.00  0.00    -0.243 A  
HETATM   33  C   UNL     1     -10.408   5.547  70.826  1.00  0.00    -0.321 A  
BRANCH  31  34
HETATM   34  N   UNL     1      -9.144   4.085  67.650  1.00  0.00    -0.133 N  
HETATM   35  H   UNL     1      -8.463   3.340  67.794  1.00  0.00     0.000 HD 
HETATM   36  C   UNL     1      -9.802   4.106  66.448  1.00  0.00    -0.195 C  
HETATM   37  O   UNL     1     -10.615   4.933  66.072  1.00  0.00    -0.305 OA 
BRANCH  36  38
HETATM   38  O   UNL     1      -9.439   3.037  65.679  1.00  0.00    -0.127 OA 
BRANCH  38  39
HETATM   39  C   UNL     1      -9.005   3.428  64.373  1.00  0.00    -0.123 C  
HETATM   40  C   UNL     1      -7.685   4.192  64.431  1.00  0.00    -0.084 C  
HETATM   41  C   UNL     1      -7.171   4.082  63.009  1.00  0.00    -0.049 C  
HETATM   42  C   UNL     1      -7.524   2.657  62.596  1.00  0.00    -0.048 C  
HETATM   43  C   UNL     1      -8.693   2.225  63.487  1.00  0.00    -0.085 C  
ENDBRANCH  38  39
ENDBRANCH  36  38
ENDBRANCH  31  34
ENDBRANCH  23  24
ENDBRANCH   6  23
ENDBRANCH   2   3
TORSDOF 9
ENDMDL
MODEL       85
REMARK 921   NORMALIZED FREE ENERGY PREDICTED BY IDOCK:   -5.38 KCAL/MOL
REMARK 922        TOTAL FREE ENERGY PREDICTED BY IDOCK:   -9.97 KCAL/MOL
REMARK 923 INTER-LIGAND FREE ENERGY PREDICTED BY IDOCK:   -9.87 KCAL/MOL
REMARK 924 INTRA-LIGAND FREE ENERGY PREDICTED BY IDOCK:   -0.09 KCAL/MOL
REMARK 927      BINDING AFFINITY PREDICTED BY RF-SCORE:    0.00 PKD
ROOT
HETATM    1  C   UNL     1      -6.203  12.360  67.583  1.00  0.00    -0.132 C  
HETATM    2  O   UNL     1      -7.624  12.374  67.601  1.00  0.00    -0.118 OA 
ENDROOT
BRANCH   2   3
HETATM    3  C   UNL     1      -8.275  11.170  67.541  1.00  0.00    -0.119 A  
HETATM    4  C   UNL     1      -7.969  10.066  68.350  1.00  0.00    -0.097 A  
HETATM    5  C   UNL     1      -8.711   8.877  68.256  1.00  0.00    -0.134 A  
HETATM    6  C   UNL     1      -9.339  11.088  66.622  1.00  0.00    -0.196 A  
HETATM    7  C   UNL     1      -9.818   8.823  67.408  1.00  0.00    -0.250 A  
HETATM    8  C   UNL     1     -10.131   9.925  66.614  1.00  0.00    -0.297 A  
BRANCH   5   9
HETATM    9  C   UNL     1      -8.270   7.699  69.046  1.00  0.00    -0.127 C  
HETATM   10  N   UNL     1      -9.181   6.636  69.109  1.00  0.00    -0.137 N  
HETATM   11  H   UNL     1     -10.092   6.768  68.670  1.00  0.00     0.000 HD 
HETATM   12  O   UNL     1      -7.184   7.690  69.601  1.00  0.00    -0.075 OA 
BRANCH  10  13
HETATM   13  S   UNL     1      -8.888   5.174  69.845  1.00  0.00    -0.105 S  
HETATM   14  O   UNL     1      -7.491   4.846  69.639  1.00  0.00    -0.055 OA 
HETATM   15  O   UNL     1      -9.925   4.281  69.367  1.00  0.00    -0.183 OA 
BRANCH  13  16
HETATM   16  C   UNL     1      -9.179   5.454  71.581  1.00  0.00    -0.146 A  
HETATM   17  C   UNL     1      -8.752   6.678  72.119  1.00  0.00    -0.130 A  
HETATM   18  C   UNL     1     -10.251   3.145  71.900  1.00  0.00    -0.063 C  
HETATM   19  C   UNL     1      -8.937   6.953  73.473  1.00  0.00    -0.166 A  
HETATM   20  C   UNL     1      -9.792   4.484  72.401  1.00  0.00    -0.220 A  
HETATM   21  C   UNL     1      -9.547   6.009  74.293  1.00  0.00    -0.195 A  
HETATM   22  C   UNL     1      -9.971   4.787  73.762  1.00  0.00    -0.188 A  
ENDBRANCH  13  16
ENDBRANCH  10  13
ENDBRANCH   5   9
BRANCH   6  23
HETATM   23  C   UNL     1      -9.684  12.222  65.681  1.00  0.00    -0.205 C  
BRANCH  23  24
HETATM   24  C   UNL     1     -10.219  13.399  66.460  1.00  0.00    -0.282 A  
HETATM   25  N   UNL     1     -10.449  15.505  67.186  1.00  0.00    -0.281 NA 
HETATM   26  C   UNL     1     -10.946  14.717  68.202  1.00  0.00    -0.268 A  
HETATM   27  C   UNL     1     -10.820  13.397  67.767  1.00  0.00    -0.267 A  
HETATM   28  C   UNL     1     -10.104  14.733  66.106  1.00  0.00    -0.296 A  
HETATM   29  C   UNL     1     -10.221  16.929  67.287  1.00  0.00    -0.297 C  
HETATM   30  C   UNL     1     -11.236  12.381  68.648  1.00  0.00    -0.314 A  
HETATM   31  C   UNL     1     -11.833  12.668  69.881  1.00  0.00    -0.294 A  
HETATM   32  C   UNL     1     -11.909  13.996  70.296  1.00  0.00    -0.373 A  
HETATM   33  C   UNL     1     -11.456  15.041  69.473  1.00  0.00    -0.317 A  
BRANCH  31  34
HETATM   34  N   UNL     1     -12.379  11.660  70.711  1.00  0.00    -0.385 N  
HETATM   35  H   UNL     1     -12.202  10.692  70.444  1.00  0.00     0.000 HD 
HETATM   36  C   UNL     1     -13.125  11.869  71.841  1.00  0.00    -0.369 C  
HETATM   37  O   UNL     1     -13.478  12.944  72.298  1.00  0.00    -0.562 OA 
BRANCH  36  38
HETATM   38  O   UNL     1     -13.439  10.683  72.441  1.00  0.00    -0.242 OA 
BRANCH  38  39
HETATM   39  C   UNL     1     -13.154   9.558  71.606  1.00  0.00    -0.401 C  
HETATM   40  C   UNL     1     -12.043   8.692  72.196  1.00  0.00    -0.451 C  
HETATM   41  C   UNL     1     -12.228   7.372  71.475  1.00  0.00    -0.368 C  
HETATM   42  C   UNL     1     -13.741   7.200  71.395  1.00  0.00    -0.364 C  
HETATM   43  C   UNL     1     -14.342   8.606  71.499  1.00  0.00    -0.402 C  
ENDBRANCH  38  39
ENDBRANCH  36  38
ENDBRANCH  31  34
ENDBRANCH  23  24
ENDBRANCH   6  23
ENDBRANCH   2   3
TORSDOF 9
ENDMDL
MODEL       86
REMARK 921   NORMALIZED FREE ENERGY PREDICTED BY IDOCK:   -5.36 KCAL/MOL
REMARK 922        TOTAL FREE ENERGY PREDICTED BY IDOCK:   -9.94 KCAL/MOL
REMARK 923 INTER-LIGAND FREE ENERGY PREDICTED BY IDOCK:   -8.59 KCAL/MOL
REMARK 924 INTRA-LIGAND FREE ENERGY PREDICTED BY IDOCK:   -1.35 KCAL/MOL
REMARK 927      BINDING AFFINITY PREDICTED BY RF-SCORE:    0.00 PKD
ROOT
HETATM    1  C   UNL     1      -9.518  15.708  69.656  1.00  0.00    -0.243 C  
HETATM    2  O   UNL     1      -8.120  15.900  69.486  1.00  0.00    -0.220 OA 
ENDROOT
BRANCH   2   3
HETATM    3  C   UNL     1      -7.375  14.828  69.069  1.00  0.00    -0.139 A  
HETATM    4  C   UNL     1      -7.383  13.570  69.688  1.00  0.00     0.479 A  
HETATM    5  C   UNL     1      -6.621  12.510  69.173  1.00  0.00    -0.100 A  
HETATM    6  C   UNL     1      -6.592  15.033  67.915  1.00  0.00    -0.174 A  
HETATM    7  C   UNL     1      -5.913  12.685  67.984  1.00  0.00    -0.094 A  
HETATM    8  C   UNL     1      -5.915  13.932  67.359  1.00  0.00     0.218 A  
BRANCH   5   9
HETATM    9  C   UNL     1      -6.569  11.235  69.935  1.00  0.00    -0.108 C  
HETATM   10  N   UNL     1      -7.782  10.539  70.035  1.00  0.00    -0.340 N  
HETATM   11  H   UNL     1      -8.612  10.980  69.641  1.00  0.00     0.000 HD 
HETATM   12  O   UNL     1      -5.527  10.850  70.439  1.00  0.00    -0.069 OA 
BRANCH  10  13
HETATM   13  S   UNL     1      -7.967   9.049  70.749  1.00  0.00    -0.155 S  
HETATM   14  O   UNL     1      -7.354   9.106  72.061  1.00  0.00    -0.335 OA 
HETATM   15  O   UNL     1      -7.503   8.087  69.769  1.00  0.00    -0.085 OA 
BRANCH  13  16
HETATM   16  C   UNL     1      -9.726   8.827  70.927  1.00  0.00    -0.222 A  
HETATM   17  C   UNL     1     -10.541   9.959  70.760  1.00  0.00    -0.309 A  
HETATM   18  C   UNL     1      -9.483   6.332  71.466  1.00  0.00    -0.162 C  
HETATM   19  C   UNL     1     -11.923   9.856  70.900  1.00  0.00    -0.434 A  
HETATM   20  C   UNL     1     -10.292   7.577  71.248  1.00  0.00    -0.203 A  
HETATM   21  C   UNL     1     -12.497   8.627  71.209  1.00  0.00    -0.284 A  
HETATM   22  C   UNL     1     -11.690   7.498  71.381  1.00  0.00    -0.310 A  
ENDBRANCH  13  16
ENDBRANCH  10  13
ENDBRANCH   5   9
BRANCH   6  23
HETATM   23  C   UNL     1      -6.496  16.380  67.232  1.00  0.00    -0.222 C  
BRANCH  23  24
HETATM   24  C   UNL     1      -7.819  16.741  66.604  1.00  0.00    -0.307 A  
HETATM   25  N   UNL     1      -9.628  17.947  66.068  1.00  0.00    -0.529 NA 
HETATM   26  C   UNL     1     -10.015  16.633  65.921  1.00  0.00    -0.295 A  
HETATM   27  C   UNL     1      -8.898  15.861  66.242  1.00  0.00    -0.386 A  
HETATM   28  C   UNL     1      -8.295  18.022  66.381  1.00  0.00    -0.246 A  
HETATM   29  C   UNL     1     -10.526  19.079  66.012  1.00  0.00    -0.458 C  
HETATM   30  C   UNL     1      -9.042  14.461  66.198  1.00  0.00    -0.043 A  
HETATM   31  C   UNL     1     -10.226  13.850  65.769  1.00  0.00    -0.318 A  
HETATM   32  C   UNL     1     -11.331  14.653  65.490  1.00  0.00    -0.341 A  
HETATM   33  C   UNL     1     -11.250  16.054  65.575  1.00  0.00     0.008 A  
BRANCH  31  34
HETATM   34  N   UNL     1     -10.334  12.451  65.588  1.00  0.00    -0.253 N  
HETATM   35  H   UNL     1     -10.551  11.892  66.412  1.00  0.00     0.000 HD 
HETATM   36  C   UNL     1     -10.174  11.781  64.404  1.00  0.00    -0.289 C  
HETATM   37  O   UNL     1      -9.872  12.262  63.324  1.00  0.00    -0.390 OA 
BRANCH  36  38
HETATM   38  O   UNL     1     -10.412  10.446  64.566  1.00  0.00    -0.249 OA 
BRANCH  38  39
HETATM   39  C   UNL     1      -9.645   9.882  65.634  1.00  0.00    -0.256 C  
HETATM   40  C   UNL     1     -10.539   9.165  66.643  1.00  0.00    -0.157 C  
HETATM   41  C   UNL     1      -9.565   8.263  67.374  1.00  0.00    -0.205 C  
HETATM   42  C   UNL     1      -8.631   7.760  66.278  1.00  0.00    -0.161 C  
HETATM   43  C   UNL     1      -8.696   8.791  65.147  1.00  0.00    -0.202 C  
ENDBRANCH  38  39
ENDBRANCH  36  38
ENDBRANCH  31  34
ENDBRANCH  23  24
ENDBRANCH   6  23
ENDBRANCH   2   3
TORSDOF 9
ENDMDL
MODEL       87
REMARK 921   NORMALIZED FREE ENERGY PREDICTED BY IDOCK:   -5.33 KCAL/MOL
REMARK 922        TOTAL FREE ENERGY PREDICTED BY IDOCK:   -9.89 KCAL/MOL
REMARK 923 INTER-LIGAND FREE ENERGY PREDICTED BY IDOCK:   -8.63 KCAL/MOL
REMARK 924 INTRA-LIGAND FREE ENERGY PREDICTED BY IDOCK:   -1.26 KCAL/MOL
REMARK 927      BINDING AFFINITY PREDICTED BY RF-SCORE:    0.00 PKD
ROOT
HETATM    1  C   UNL     1      -7.878   6.649  66.766  1.00  0.00    -0.107 C  
HETATM    2  O   UNL     1      -7.372   6.801  68.086  1.00  0.00    -0.091 OA 
ENDROOT
BRANCH   2   3
HETATM    3  C   UNL     1      -7.376   8.059  68.629  1.00  0.00    -0.089 A  
HETATM    4  C   UNL     1      -7.738   9.220  67.932  1.00  0.00    -0.088 A  
HETATM    5  C   UNL     1      -7.755  10.469  68.574  1.00  0.00    -0.104 A  
HETATM    6  C   UNL     1      -7.025   8.143  69.991  1.00  0.00    -0.040 A  
HETATM    7  C   UNL     1      -7.492  10.543  69.942  1.00  0.00    -0.091 A  
HETATM    8  C   UNL     1      -7.145   9.386  70.639  1.00  0.00    -0.127 A  
BRANCH   5   9
HETATM    9  C   UNL     1      -8.027  11.682  67.761  1.00  0.00    -0.131 C  
HETATM   10  N   UNL     1      -8.659  12.735  68.436  1.00  0.00    -0.295 N  
HETATM   11  H   UNL     1      -8.941  12.574  69.403  1.00  0.00     0.000 HD 
HETATM   12  O   UNL     1      -7.718  11.727  66.582  1.00  0.00    -0.119 OA 
BRANCH  10  13
HETATM   13  S   UNL     1      -8.983  14.228  67.780  1.00  0.00    -0.198 S  
HETATM   14  O   UNL     1      -7.828  14.630  67.002  1.00  0.00    -0.174 OA 
HETATM   15  O   UNL     1      -9.441  15.049  68.883  1.00  0.00    -0.198 OA 
BRANCH  13  16
HETATM   16  C   UNL     1     -10.370  13.972  66.690  1.00  0.00    -0.278 A  
HETATM   17  C   UNL     1     -11.030  12.736  66.763  1.00  0.00    -0.301 A  
HETATM   18  C   UNL     1     -10.111  16.287  65.616  1.00  0.00    -0.340 C  
HETATM   19  C   UNL     1     -12.113  12.467  65.928  1.00  0.00    -0.420 A  
HETATM   20  C   UNL     1     -10.784  14.954  65.767  1.00  0.00    -0.338 A  
HETATM   21  C   UNL     1     -12.539  13.429  65.018  1.00  0.00    -0.459 A  
HETATM   22  C   UNL     1     -11.882  14.660  64.938  1.00  0.00    -0.403 A  
ENDBRANCH  13  16
ENDBRANCH  10  13
ENDBRANCH   5   9
BRANCH   6  23
HETATM   23  C   UNL     1      -6.571   6.938  70.785  1.00  0.00    -0.052 C  
BRANCH  23  24
HETATM   24  C   UNL     1      -7.738   6.019  71.049  1.00  0.00    -0.102 A  
HETATM   25  N   UNL     1      -9.040   4.199  70.951  1.00  0.00    -0.109 NA 
HETATM   26  C   UNL     1      -9.889   5.232  71.287  1.00  0.00    -0.173 A  
HETATM   27  C   UNL     1      -9.096   6.378  71.363  1.00  0.00    -0.145 A  
HETATM   28  C   UNL     1      -7.744   4.641  70.902  1.00  0.00    -0.072 A  
HETATM   29  C   UNL     1      -9.471   2.866  70.592  1.00  0.00    -0.147 C  
HETATM   30  C   UNL     1      -9.738   7.593  71.666  1.00  0.00    -0.191 A  
HETATM   31  C   UNL     1     -11.103   7.655  71.968  1.00  0.00    -0.255 A  
HETATM   32  C   UNL     1     -11.869   6.496  71.848  1.00  0.00    -0.381 A  
HETATM   33  C   UNL     1     -11.280   5.271  71.493  1.00  0.00     0.091 A  
BRANCH  31  34
HETATM   34  N   UNL     1     -11.728   8.845  72.409  1.00  0.00    -0.281 N  
HETATM   35  H   UNL     1     -11.360   9.277  73.256  1.00  0.00     0.000 HD 
HETATM   36  C   UNL     1     -12.785   9.469  71.799  1.00  0.00    -0.404 C  
HETATM   37  O   UNL     1     -13.388   9.090  70.808  1.00  0.00     0.071 OA 
BRANCH  36  38
HETATM   38  O   UNL     1     -13.101  10.630  72.445  1.00  0.00    -0.269 OA 
BRANCH  38  39
HETATM   39  C   UNL     1     -13.330  11.713  71.540  1.00  0.00    -0.051 C  
HETATM   40  C   UNL     1     -13.556  13.026  72.286  1.00  0.00    -0.643 C  
HETATM   41  C   UNL     1     -13.293  14.069  71.219  1.00  0.00    -0.342 C  
HETATM   42  C   UNL     1     -12.104  13.513  70.442  1.00  0.00    -0.415 C  
HETATM   43  C   UNL     1     -12.114  11.997  70.663  1.00  0.00    -0.369 C  
ENDBRANCH  38  39
ENDBRANCH  36  38
ENDBRANCH  31  34
ENDBRANCH  23  24
ENDBRANCH   6  23
ENDBRANCH   2   3
TORSDOF 9
ENDMDL
MODEL       88
REMARK 921   NORMALIZED FREE ENERGY PREDICTED BY IDOCK:   -5.32 KCAL/MOL
REMARK 922        TOTAL FREE ENERGY PREDICTED BY IDOCK:   -9.88 KCAL/MOL
REMARK 923 INTER-LIGAND FREE ENERGY PREDICTED BY IDOCK:   -9.37 KCAL/MOL
REMARK 924 INTRA-LIGAND FREE ENERGY PREDICTED BY IDOCK:   -0.51 KCAL/MOL
REMARK 927      BINDING AFFINITY PREDICTED BY RF-SCORE:    0.00 PKD
ROOT
HETATM    1  C   UNL     1      -7.480  12.473  68.683  1.00  0.00    -0.090 C  
HETATM    2  O   UNL     1      -8.487  12.334  67.690  1.00  0.00    -0.147 OA 
ENDROOT
BRANCH   2   3
HETATM    3  C   UNL     1      -8.895  11.065  67.369  1.00  0.00    -0.138 A  
HETATM    4  C   UNL     1      -8.030   9.973  67.209  1.00  0.00    -0.106 A  
HETATM    5  C   UNL     1      -8.533   8.694  66.919  1.00  0.00    -0.113 A  
HETATM    6  C   UNL     1     -10.286  10.880  67.238  1.00  0.00    -0.242 A  
HETATM    7  C   UNL     1      -9.912   8.491  66.874  1.00  0.00    -0.335 A  
HETATM    8  C   UNL     1     -10.773   9.574  67.047  1.00  0.00    -0.220 A  
BRANCH   5   9
HETATM    9  C   UNL     1      -7.569   7.599  66.640  1.00  0.00    -0.097 C  
HETATM   10  N   UNL     1      -7.608   6.515  67.527  1.00  0.00    -0.102 N  
HETATM   11  H   UNL     1      -8.239   6.582  68.326  1.00  0.00     0.000 HD 
HETATM   12  O   UNL     1      -6.799   7.670  65.697  1.00  0.00    -0.048 OA 
BRANCH  10  13
HETATM   13  S   UNL     1      -6.704   5.128  67.376  1.00  0.00    -0.056 S  
HETATM   14  O   UNL     1      -5.349   5.435  67.788  1.00  0.00    -0.010 OA 
HETATM   15  O   UNL     1      -6.966   4.636  66.038  1.00  0.00    -0.063 OA 
BRANCH  13  16
HETATM   16  C   UNL     1      -7.423   3.969  68.524  1.00  0.00    -0.059 A  
HETATM   17  C   UNL     1      -6.546   3.249  69.350  1.00  0.00    -0.034 A  
HETATM   18  C   UNL     1      -9.809   4.470  67.726  1.00  0.00    -0.169 C  
HETATM   19  C   UNL     1      -7.044   2.317  70.259  1.00  0.00    -0.033 A  
HETATM   20  C   UNL     1      -8.815   3.755  68.594  1.00  0.00    -0.155 A  
HETATM   21  C   UNL     1      -8.415   2.100  70.346  1.00  0.00    -0.084 A  
HETATM   22  C   UNL     1      -9.292   2.812  69.523  1.00  0.00    -0.191 A  
ENDBRANCH  13  16
ENDBRANCH  10  13
ENDBRANCH   5   9
BRANCH   6  23
HETATM   23  C   UNL     1     -11.268  12.026  67.343  1.00  0.00    -0.368 C  
BRANCH  23  24
HETATM   24  C   UNL     1     -11.545  12.343  68.792  1.00  0.00    -0.373 A  
HETATM   25  N   UNL     1     -12.420  12.172  70.846  1.00  0.00    -0.342 NA 
HETATM   26  C   UNL     1     -12.061  13.496  70.716  1.00  0.00    -0.271 A  
HETATM   27  C   UNL     1     -11.504  13.625  69.443  1.00  0.00    -0.343 A  
HETATM   28  C   UNL     1     -12.029  11.459  69.743  1.00  0.00    -0.353 A  
HETATM   29  C   UNL     1     -13.198  11.636  71.941  1.00  0.00    -0.369 C  
HETATM   30  C   UNL     1     -11.077  14.906  69.047  1.00  0.00    -0.260 A  
HETATM   31  C   UNL     1     -11.123  16.004  69.915  1.00  0.00    -0.352 A  
HETATM   32  C   UNL     1     -11.718  15.845  71.165  1.00  0.00    -0.490 A  
HETATM   33  C   UNL     1     -12.209  14.596  71.582  1.00  0.00    -0.411 A  
BRANCH  31  34
HETATM   34  N   UNL     1     -10.570  17.261  69.576  1.00  0.00    -0.335 N  
HETATM   35  H   UNL     1     -10.235  17.843  70.343  1.00  0.00     0.000 HD 
HETATM   36  C   UNL     1     -10.445  17.767  68.308  1.00  0.00    -0.364 C  
HETATM   37  O   UNL     1     -10.821  17.246  67.271  1.00  0.00    -0.258 OA 
BRANCH  36  38
HETATM   38  O   UNL     1      -9.808  18.975  68.329  1.00  0.00    -0.334 OA 
BRANCH  38  39
HETATM   39  C   UNL     1      -8.607  18.971  67.553  1.00  0.00    -0.286 C  
HETATM   40  C   UNL     1      -8.800  19.695  66.223  1.00  0.00    -0.410 C  
HETATM   41  C   UNL     1      -7.379  20.005  65.799  1.00  0.00    -0.321 C  
HETATM   42  C   UNL     1      -6.680  20.395  67.098  1.00  0.00    -0.297 C  
HETATM   43  C   UNL     1      -7.481  19.747  68.231  1.00  0.00    -0.346 C  
ENDBRANCH  38  39
ENDBRANCH  36  38
ENDBRANCH  31  34
ENDBRANCH  23  24
ENDBRANCH   6  23
ENDBRANCH   2   3
TORSDOF 9
ENDMDL
MODEL       89
REMARK 921   NORMALIZED FREE ENERGY PREDICTED BY IDOCK:   -5.30 KCAL/MOL
REMARK 922        TOTAL FREE ENERGY PREDICTED BY IDOCK:   -9.85 KCAL/MOL
REMARK 923 INTER-LIGAND FREE ENERGY PREDICTED BY IDOCK:  -10.18 KCAL/MOL
REMARK 924 INTRA-LIGAND FREE ENERGY PREDICTED BY IDOCK:    0.33 KCAL/MOL
REMARK 927      BINDING AFFINITY PREDICTED BY RF-SCORE:    0.00 PKD
ROOT
HETATM    1  C   UNL     1     -13.266  11.514  71.652  1.00  0.00    -0.286 C  
HETATM    2  O   UNL     1     -12.472  11.923  70.546  1.00  0.00    -0.287 OA 
ENDROOT
BRANCH   2   3
HETATM    3  C   UNL     1     -11.668  10.983  69.956  1.00  0.00    -0.355 A  
HETATM    4  C   UNL     1     -11.712   9.612  70.246  1.00  0.00    -0.213 A  
HETATM    5  C   UNL     1     -10.880   8.706  69.566  1.00  0.00    -0.138 A  
HETATM    6  C   UNL     1     -10.780  11.461  68.973  1.00  0.00    -0.245 A  
HETATM    7  C   UNL     1     -10.063   9.165  68.533  1.00  0.00    -0.212 A  
HETATM    8  C   UNL     1     -10.029  10.526  68.235  1.00  0.00    -0.176 A  
BRANCH   5   9
HETATM    9  C   UNL     1     -10.878   7.284  69.995  1.00  0.00    -0.253 C  
HETATM   10  N   UNL     1      -9.628   6.760  70.352  1.00  0.00    -0.169 N  
HETATM   11  H   UNL     1      -8.813   7.362  70.233  1.00  0.00     0.000 HD 
HETATM   12  O   UNL     1     -11.911   6.636  70.016  1.00  0.00    -0.340 OA 
BRANCH  10  13
HETATM   13  S   UNL     1      -9.374   5.232  70.956  1.00  0.00    -0.155 S  
HETATM   14  O   UNL     1     -10.595   4.804  71.608  1.00  0.00    -0.139 OA 
HETATM   15  O   UNL     1      -8.135   5.309  71.706  1.00  0.00    -0.112 OA 
BRANCH  13  16
HETATM   16  C   UNL     1      -9.074   4.206  69.530  1.00  0.00    -0.121 A  
HETATM   17  C   UNL     1      -9.642   2.922  69.526  1.00  0.00    -0.063 A  
HETATM   18  C   UNL     1      -7.621   5.990  68.397  1.00  0.00    -0.091 C  
HETATM   19  C   UNL     1      -9.433   2.065  68.447  1.00  0.00    -0.227 A  
HETATM   20  C   UNL     1      -8.279   4.642  68.450  1.00  0.00    -0.083 A  
HETATM   21  C   UNL     1      -8.658   2.484  67.371  1.00  0.00    -0.122 A  
HETATM   22  C   UNL     1      -8.087   3.760  67.372  1.00  0.00    -0.090 A  
ENDBRANCH  13  16
ENDBRANCH  10  13
ENDBRANCH   5   9
BRANCH   6  23
HETATM   23  C   UNL     1     -10.644  12.934  68.653  1.00  0.00    -0.256 C  
BRANCH  23  24
HETATM   24  C   UNL     1     -11.256  13.232  67.307  1.00  0.00    -0.320 A  
HETATM   25  N   UNL     1     -12.054  12.890  65.242  1.00  0.00    -0.425 NA 
HETATM   26  C   UNL     1     -11.678  14.216  65.268  1.00  0.00    -0.353 A  
HETATM   27  C   UNL     1     -11.184  14.455  66.551  1.00  0.00    -0.340 A  
HETATM   28  C   UNL     1     -11.896  12.323  66.480  1.00  0.00    -0.306 A  
HETATM   29  C   UNL     1     -12.451  12.173  64.051  1.00  0.00    -0.440 C  
HETATM   30  C   UNL     1     -10.701  15.747  66.831  1.00  0.00    -0.299 A  
HETATM   31  C   UNL     1     -10.782  16.787  65.898  1.00  0.00    -0.163 A  
HETATM   32  C   UNL     1     -11.249  16.502  64.616  1.00  0.00    -0.123 A  
HETATM   33  C   UNL     1     -11.690  15.212  64.274  1.00  0.00    -0.234 A  
BRANCH  31  34
HETATM   34  N   UNL     1     -10.428  18.119  66.216  1.00  0.00    -0.388 N  
HETATM   35  H   UNL     1     -11.180  18.744  66.505  1.00  0.00     0.000 HD 
HETATM   36  C   UNL     1      -9.163  18.646  66.170  1.00  0.00    -0.136 C  
HETATM   37  O   UNL     1      -8.146  18.077  65.812  1.00  0.00    -0.525 OA 
BRANCH  36  38
HETATM   38  O   UNL     1      -9.162  19.941  66.603  1.00  0.00    -0.345 OA 
BRANCH  38  39
HETATM   39  C   UNL     1      -8.334  20.130  67.753  1.00  0.00    -0.256 C  
HETATM   40  C   UNL     1      -8.064  18.808  68.468  1.00  0.00    -0.379 C  
HETATM   41  C   UNL     1      -6.841  19.122  69.305  1.00  0.00    -0.336 C  
HETATM   42  C   UNL     1      -5.985  20.001  68.398  1.00  0.00    -0.287 C  
HETATM   43  C   UNL     1      -6.942  20.636  67.384  1.00  0.00    -0.395 C  
ENDBRANCH  38  39
ENDBRANCH  36  38
ENDBRANCH  31  34
ENDBRANCH  23  24
ENDBRANCH   6  23
ENDBRANCH   2   3
TORSDOF 9
ENDMDL
MODEL       90
REMARK 921   NORMALIZED FREE ENERGY PREDICTED BY IDOCK:   -5.28 KCAL/MOL
REMARK 922        TOTAL FREE ENERGY PREDICTED BY IDOCK:   -9.82 KCAL/MOL
REMARK 923 INTER-LIGAND FREE ENERGY PREDICTED BY IDOCK:   -7.86 KCAL/MOL
REMARK 924 INTRA-LIGAND FREE ENERGY PREDICTED BY IDOCK:   -1.96 KCAL/MOL
REMARK 927      BINDING AFFINITY PREDICTED BY RF-SCORE:    0.00 PKD
ROOT
HETATM    1  C   UNL     1      -8.457   7.594  65.612  1.00  0.00    -0.142 C  
HETATM    2  O   UNL     1      -9.012   8.694  66.322  1.00  0.00    -0.151 OA 
ENDROOT
BRANCH   2   3
HETATM    3  C   UNL     1      -8.265   9.244  67.331  1.00  0.00    -0.117 A  
HETATM    4  C   UNL     1      -7.746   8.521  68.414  1.00  0.00    -0.101 A  
HETATM    5  C   UNL     1      -6.954   9.152  69.387  1.00  0.00    -0.052 A  
HETATM    6  C   UNL     1      -7.990  10.621  67.215  1.00  0.00    -0.116 A  
HETATM    7  C   UNL     1      -6.610  10.495  69.228  1.00  0.00    -0.060 A  
HETATM    8  C   UNL     1      -7.114  11.211  68.144  1.00  0.00    -0.071 A  
BRANCH   5   9
HETATM    9  C   UNL     1      -6.531   8.370  70.577  1.00  0.00    -0.036 C  
HETATM   10  N   UNL     1      -7.139   7.116  70.725  1.00  0.00    -0.065 N  
HETATM   11  H   UNL     1      -7.864   6.861  70.054  1.00  0.00     0.000 HD 
HETATM   12  O   UNL     1      -5.712   8.819  71.361  1.00  0.00    -0.037 OA 
BRANCH  10  13
HETATM   13  S   UNL     1      -6.768   6.013  71.913  1.00  0.00    -0.065 S  
HETATM   14  O   UNL     1      -6.987   6.652  73.195  1.00  0.00    -0.076 OA 
HETATM   15  O   UNL     1      -5.458   5.496  71.570  1.00  0.00    -0.009 OA 
BRANCH  13  16
HETATM   16  C   UNL     1      -7.940   4.686  71.706  1.00  0.00    -0.099 A  
HETATM   17  C   UNL     1      -8.639   4.625  70.491  1.00  0.00    -0.116 A  
HETATM   18  C   UNL     1      -7.493   3.760  74.056  1.00  0.00    -0.065 C  
HETATM   19  C   UNL     1      -9.580   3.620  70.271  1.00  0.00    -0.246 A  
HETATM   20  C   UNL     1      -8.184   3.741  72.724  1.00  0.00    -0.090 A  
HETATM   21  C   UNL     1      -9.826   2.676  71.263  1.00  0.00    -0.129 A  
HETATM   22  C   UNL     1      -9.135   2.735  72.476  1.00  0.00    -0.120 A  
ENDBRANCH  13  16
ENDBRANCH  10  13
ENDBRANCH   5   9
BRANCH   6  23
HETATM   23  C   UNL     1      -8.567  11.469  66.101  1.00  0.00    -0.094 C  
BRANCH  23  24
HETATM   24  C   UNL     1      -9.494  12.515  66.670  1.00  0.00    -0.242 A  
HETATM   25  N   UNL     1     -10.252  14.523  67.306  1.00  0.00    -0.254 NA 
HETATM   26  C   UNL     1     -10.940  13.616  68.083  1.00  0.00    -0.253 A  
HETATM   27  C   UNL     1     -10.489  12.353  67.697  1.00  0.00    -0.229 A  
HETATM   28  C   UNL     1      -9.460  13.872  66.396  1.00  0.00    -0.250 A  
HETATM   29  C   UNL     1     -10.278  15.956  67.500  1.00  0.00    -0.269 C  
HETATM   30  C   UNL     1     -11.023  11.239  68.370  1.00  0.00    -0.268 A  
HETATM   31  C   UNL     1     -12.031  11.367  69.333  1.00  0.00    -0.339 A  
HETATM   32  C   UNL     1     -12.431  12.646  69.717  1.00  0.00     0.062 A  
HETATM   33  C   UNL     1     -11.885  13.791  69.111  1.00  0.00    -0.398 A  
BRANCH  31  34
HETATM   34  N   UNL     1     -12.671  10.247  69.914  1.00  0.00    -0.540 N  
HETATM   35  H   UNL     1     -12.820   9.435  69.315  1.00  0.00     0.000 HD 
HETATM   36  C   UNL     1     -13.110  10.157  71.209  1.00  0.00    -0.396 C  
HETATM   37  O   UNL     1     -13.062  11.028  72.061  1.00  0.00    -0.496 OA 
BRANCH  36  38
HETATM   38  O   UNL     1     -13.622   8.916  71.462  1.00  0.00    -0.362 OA 
BRANCH  38  39
HETATM   39  C   UNL     1     -12.754   8.124  72.277  1.00  0.00    -0.255 C  
HETATM   40  C   UNL     1     -12.727   6.670  71.814  1.00  0.00    -0.280 C  
HETATM   41  C   UNL     1     -11.453   6.141  72.439  1.00  0.00    -0.349 C  
HETATM   42  C   UNL     1     -10.462   7.291  72.293  1.00  0.00    -0.246 C  
HETATM   43  C   UNL     1     -11.298   8.569  72.168  1.00  0.00    -0.442 C  
ENDBRANCH  38  39
ENDBRANCH  36  38
ENDBRANCH  31  34
ENDBRANCH  23  24
ENDBRANCH   6  23
ENDBRANCH   2   3
TORSDOF 9
ENDMDL
MODEL       91
REMARK 921   NORMALIZED FREE ENERGY PREDICTED BY IDOCK:   -5.25 KCAL/MOL
REMARK 922        TOTAL FREE ENERGY PREDICTED BY IDOCK:   -9.77 KCAL/MOL
REMARK 923 INTER-LIGAND FREE ENERGY PREDICTED BY IDOCK:  -10.88 KCAL/MOL
REMARK 924 INTRA-LIGAND FREE ENERGY PREDICTED BY IDOCK:    1.11 KCAL/MOL
REMARK 927      BINDING AFFINITY PREDICTED BY RF-SCORE:    0.00 PKD
ROOT
HETATM    1  C   UNL     1      -7.212  14.182  68.941  1.00  0.00    -0.118 C  
HETATM    2  O   UNL     1      -8.251  13.293  68.554  1.00  0.00    -0.147 OA 
ENDROOT
BRANCH   2   3
HETATM    3  C   UNL     1      -9.258  13.793  67.770  1.00  0.00    -0.206 A  
HETATM    4  C   UNL     1      -9.285  15.096  67.254  1.00  0.00    -0.208 A  
HETATM    5  C   UNL     1     -10.335  15.519  66.422  1.00  0.00    -0.303 A  
HETATM    6  C   UNL     1     -10.296  12.894  67.452  1.00  0.00    -0.233 A  
HETATM    7  C   UNL     1     -11.318  14.607  66.037  1.00  0.00    -0.344 A  
HETATM    8  C   UNL     1     -11.284  13.306  66.539  1.00  0.00    -0.329 A  
BRANCH   5   9
HETATM    9  C   UNL     1     -10.380  16.943  66.002  1.00  0.00    -0.325 C  
HETATM   10  N   UNL     1      -9.856  17.863  66.921  1.00  0.00    -0.306 N  
HETATM   11  H   UNL     1      -9.545  17.503  67.823  1.00  0.00     0.000 HD 
HETATM   12  O   UNL     1     -10.857  17.263  64.926  1.00  0.00    -0.773 OA 
BRANCH  10  13
HETATM   13  S   UNL     1      -9.702  19.496  66.649  1.00  0.00    -0.407 S  
HETATM   14  O   UNL     1     -10.208  20.189  67.817  1.00  0.00    -0.407 OA 
HETATM   15  O   UNL     1     -10.293  19.733  65.347  1.00  0.00    -0.380 OA 
BRANCH  13  16
HETATM   16  C   UNL     1      -7.949  19.786  66.504  1.00  0.00    -0.319 A  
HETATM   17  C   UNL     1      -7.493  20.417  65.336  1.00  0.00     0.007 A  
HETATM   18  C   UNL     1      -7.453  18.681  68.765  1.00  0.00    -0.322 C  
HETATM   19  C   UNL     1      -6.133  20.660  65.154  1.00  0.00    -0.294 A  
HETATM   20  C   UNL     1      -7.040  19.382  67.503  1.00  0.00    -0.240 A  
HETATM   21  C   UNL     1      -5.225  20.274  66.135  1.00  0.00    -0.182 A  
HETATM   22  C   UNL     1      -5.673  19.642  67.298  1.00  0.00    -0.179 A  
ENDBRANCH  13  16
ENDBRANCH  10  13
ENDBRANCH   5   9
BRANCH   6  23
HETATM   23  C   UNL     1     -10.355  11.493  68.022  1.00  0.00    -0.208 C  
BRANCH  23  24
HETATM   24  C   UNL     1     -11.341  11.436  69.162  1.00  0.00    -0.353 A  
HETATM   25  N   UNL     1     -12.612  12.123  70.873  1.00  0.00    -0.308 NA 
HETATM   26  C   UNL     1     -12.425  10.774  71.082  1.00  0.00    -0.414 A  
HETATM   27  C   UNL     1     -11.640  10.322  70.021  1.00  0.00    -0.349 A  
HETATM   28  C   UNL     1     -12.051  12.506  69.682  1.00  0.00    -0.207 A  
HETATM   29  C   UNL     1     -13.215  13.027  71.828  1.00  0.00    -0.392 C  
HETATM   30  C   UNL     1     -11.277   8.962  70.015  1.00  0.00    -0.120 A  
HETATM   31  C   UNL     1     -11.746   8.065  70.983  1.00  0.00    -0.277 A  
HETATM   32  C   UNL     1     -12.499   8.561  72.046  1.00  0.00    -0.417 A  
HETATM   33  C   UNL     1     -12.838   9.922  72.123  1.00  0.00    -0.435 A  
BRANCH  31  34
HETATM   34  N   UNL     1     -11.502   6.674  70.908  1.00  0.00    -0.327 N  
HETATM   35  H   UNL     1     -12.173   6.112  70.385  1.00  0.00     0.000 HD 
HETATM   36  C   UNL     1     -10.444   6.014  71.476  1.00  0.00    -0.228 C  
HETATM   37  O   UNL     1      -9.565   6.498  72.169  1.00  0.00    -0.150 OA 
BRANCH  36  38
HETATM   38  O   UNL     1     -10.472   4.686  71.156  1.00  0.00    -0.130 OA 
BRANCH  38  39
HETATM   39  C   UNL     1      -9.465   3.939  71.842  1.00  0.00    -0.140 C  
HETATM   40  C   UNL     1      -8.099   4.614  71.735  1.00  0.00    -0.103 C  
HETATM   41  C   UNL     1      -7.322   3.984  72.873  1.00  0.00    -0.072 C  
HETATM   42  C   UNL     1      -8.339   3.881  74.005  1.00  0.00    -0.090 C  
HETATM   43  C   UNL     1      -9.722   3.872  73.345  1.00  0.00    -0.146 C  
ENDBRANCH  38  39
ENDBRANCH  36  38
ENDBRANCH  31  34
ENDBRANCH  23  24
ENDBRANCH   6  23
ENDBRANCH   2   3
TORSDOF 9
ENDMDL
MODEL       92
REMARK 921   NORMALIZED FREE ENERGY PREDICTED BY IDOCK:   -5.24 KCAL/MOL
REMARK 922        TOTAL FREE ENERGY PREDICTED BY IDOCK:   -9.76 KCAL/MOL
REMARK 923 INTER-LIGAND FREE ENERGY PREDICTED BY IDOCK:   -8.26 KCAL/MOL
REMARK 924 INTRA-LIGAND FREE ENERGY PREDICTED BY IDOCK:   -1.50 KCAL/MOL
REMARK 927      BINDING AFFINITY PREDICTED BY RF-SCORE:    0.00 PKD
ROOT
HETATM    1  C   UNL     1     -13.125  12.831  64.749  1.00  0.00     0.066 C  
HETATM    2  O   UNL     1     -12.640  13.307  65.998  1.00  0.00    -0.371 OA 
ENDROOT
BRANCH   2   3
HETATM    3  C   UNL     1     -11.573  12.655  66.558  1.00  0.00    -0.381 A  
HETATM    4  C   UNL     1     -11.683  11.631  67.509  1.00  0.00    -0.288 A  
HETATM    5  C   UNL     1     -10.539  10.984  68.005  1.00  0.00    -0.241 A  
HETATM    6  C   UNL     1     -10.301  13.042  66.093  1.00  0.00    -0.285 A  
HETATM    7  C   UNL     1      -9.286  11.306  67.483  1.00  0.00    -0.159 A  
HETATM    8  C   UNL     1      -9.177  12.315  66.527  1.00  0.00    -0.219 A  
BRANCH   5   9
HETATM    9  C   UNL     1     -10.701   9.991  69.098  1.00  0.00    -0.220 C  
HETATM   10  N   UNL     1     -10.815   8.654  68.692  1.00  0.00    -0.438 N  
HETATM   11  H   UNL     1     -10.842   8.467  67.690  1.00  0.00     0.000 HD 
HETATM   12  O   UNL     1     -10.739  10.347  70.264  1.00  0.00    -0.282 OA 
BRANCH  10  13
HETATM   13  S   UNL     1     -10.907   7.352  69.722  1.00  0.00    -0.202 S  
HETATM   14  O   UNL     1     -11.076   6.160  68.915  1.00  0.00    -0.349 OA 
HETATM   15  O   UNL     1     -11.903   7.709  70.714  1.00  0.00    -0.279 OA 
BRANCH  13  16
HETATM   16  C   UNL     1      -9.328   7.290  70.546  1.00  0.00    -0.158 A  
HETATM   17  C   UNL     1      -9.308   7.547  71.926  1.00  0.00    -0.171 A  
HETATM   18  C   UNL     1      -8.075   6.760  68.371  1.00  0.00    -0.119 C  
HETATM   19  C   UNL     1      -8.103   7.528  72.626  1.00  0.00    -0.134 A  
HETATM   20  C   UNL     1      -8.133   7.019  69.849  1.00  0.00    -0.125 A  
HETATM   21  C   UNL     1      -6.917   7.254  71.954  1.00  0.00    -0.059 A  
HETATM   22  C   UNL     1      -6.931   7.001  70.579  1.00  0.00    -0.062 A  
ENDBRANCH  13  16
ENDBRANCH  10  13
ENDBRANCH   5   9
BRANCH   6  23
HETATM   23  C   UNL     1     -10.110  14.177  65.110  1.00  0.00    -0.348 C  
BRANCH  23  24
HETATM   24  C   UNL     1     -10.120  15.500  65.836  1.00  0.00    -0.374 A  
HETATM   25  N   UNL     1     -10.287  17.708  66.171  1.00  0.00    -0.420 NA 
HETATM   26  C   UNL     1      -9.503  17.245  67.205  1.00  0.00    -0.250 A  
HETATM   27  C   UNL     1      -9.392  15.867  67.021  1.00  0.00    -0.230 A  
HETATM   28  C   UNL     1     -10.738  16.663  65.406  1.00  0.00    -0.215 A  
HETATM   29  C   UNL     1     -10.510  19.105  65.871  1.00  0.00    -0.424 C  
HETATM   30  C   UNL     1      -8.605  15.150  67.942  1.00  0.00    -0.154 A  
HETATM   31  C   UNL     1      -8.020  15.766  69.055  1.00  0.00    -0.214 A  
HETATM   32  C   UNL     1      -8.124  17.150  69.186  1.00  0.00    -0.019 A  
HETATM   33  C   UNL     1      -8.853  17.914  68.259  1.00  0.00    -0.277 A  
BRANCH  31  34
HETATM   34  N   UNL     1      -7.345  15.033  70.059  1.00  0.00    -0.279 N  
HETATM   35  H   UNL     1      -7.921  14.546  70.745  1.00  0.00     0.000 HD 
HETATM   36  C   UNL     1      -5.986  14.920  70.193  1.00  0.00    -0.149 C  
HETATM   37  O   UNL     1      -5.134  15.457  69.504  1.00  0.00    -0.094 OA 
BRANCH  36  38
HETATM   38  O   UNL     1      -5.669  14.086  71.227  1.00  0.00    -0.208 OA 
BRANCH  38  39
HETATM   39  C   UNL     1      -5.279  12.785  70.779  1.00  0.00    -0.147 C  
HETATM   40  C   UNL     1      -5.408  11.750  71.893  1.00  0.00     0.322 C  
HETATM   41  C   UNL     1      -5.434  10.439  71.133  1.00  0.00    -0.071 C  
HETATM   42  C   UNL     1      -6.279  10.742  69.900  1.00  0.00    -0.106 C  
HETATM   43  C   UNL     1      -6.197  12.256  69.681  1.00  0.00    -0.131 C  
ENDBRANCH  38  39
ENDBRANCH  36  38
ENDBRANCH  31  34
ENDBRANCH  23  24
ENDBRANCH   6  23
ENDBRANCH   2   3
TORSDOF 9
ENDMDL
MODEL       93
REMARK 921   NORMALIZED FREE ENERGY PREDICTED BY IDOCK:   -5.23 KCAL/MOL
REMARK 922        TOTAL FREE ENERGY PREDICTED BY IDOCK:   -9.75 KCAL/MOL
REMARK 923 INTER-LIGAND FREE ENERGY PREDICTED BY IDOCK:   -7.34 KCAL/MOL
REMARK 924 INTRA-LIGAND FREE ENERGY PREDICTED BY IDOCK:   -2.41 KCAL/MOL
REMARK 927      BINDING AFFINITY PREDICTED BY RF-SCORE:    0.00 PKD
ROOT
HETATM    1  C   UNL     1     -12.942  13.119  64.998  1.00  0.00    -0.150 C  
HETATM    2  O   UNL     1     -12.156  12.712  66.110  1.00  0.00    -0.521 OA 
ENDROOT
BRANCH   2   3
HETATM    3  C   UNL     1     -11.020  11.988  65.856  1.00  0.00    -0.298 A  
HETATM    4  C   UNL     1     -10.858  10.633  66.177  1.00  0.00    -0.069 A  
HETATM    5  C   UNL     1      -9.675   9.952  65.845  1.00  0.00    -0.326 A  
HETATM    6  C   UNL     1      -9.984  12.678  65.194  1.00  0.00    -0.194 A  
HETATM    7  C   UNL     1      -8.685  10.609  65.115  1.00  0.00    -0.196 A  
HETATM    8  C   UNL     1      -8.851  11.953  64.783  1.00  0.00     0.685 A  
BRANCH   5   9
HETATM    9  C   UNL     1      -9.506   8.553  66.315  1.00  0.00    -0.231 C  
HETATM   10  N   UNL     1     -10.009   8.277  67.594  1.00  0.00    -0.177 N  
HETATM   11  H   UNL     1     -10.392   9.057  68.128  1.00  0.00     0.000 HD 
HETATM   12  O   UNL     1      -8.952   7.722  65.615  1.00  0.00    -0.118 OA 
BRANCH  10  13
HETATM   13  S   UNL     1     -10.030   6.774  68.304  1.00  0.00    -0.153 S  
HETATM   14  O   UNL     1      -8.673   6.266  68.306  1.00  0.00    -0.117 OA 
HETATM   15  O   UNL     1     -11.083   6.039  67.630  1.00  0.00    -0.297 OA 
BRANCH  13  16
HETATM   16  C   UNL     1     -10.560   7.053  69.983  1.00  0.00    -0.230 A  
HETATM   17  C   UNL     1     -10.905   8.366  70.341  1.00  0.00    -0.246 A  
HETATM   18  C   UNL     1     -10.236   4.592  70.626  1.00  0.00    -0.158 C  
HETATM   19  C   UNL     1     -11.313   8.654  71.642  1.00  0.00    -0.377 A  
HETATM   20  C   UNL     1     -10.613   6.012  70.932  1.00  0.00    -0.310 A  
HETATM   21  C   UNL     1     -11.378   7.636  72.588  1.00  0.00    -0.423 A  
HETATM   22  C   UNL     1     -11.032   6.328  72.236  1.00  0.00    -0.297 A  
ENDBRANCH  13  16
ENDBRANCH  10  13
ENDBRANCH   5   9
BRANCH   6  23
HETATM   23  C   UNL     1     -10.074  14.154  64.871  1.00  0.00    -0.280 C  
BRANCH  23  24
HETATM   24  C   UNL     1      -9.812  14.974  66.109  1.00  0.00    -0.325 A  
HETATM   25  N   UNL     1      -9.591  16.771  67.428  1.00  0.00    -0.234 NA 
HETATM   26  C   UNL     1      -8.817  15.795  68.017  1.00  0.00    -0.176 A  
HETATM   27  C   UNL     1      -8.947  14.660  67.215  1.00  0.00    -0.216 A  
HETATM   28  C   UNL     1     -10.263  16.263  66.346  1.00  0.00    -0.313 A  
HETATM   29  C   UNL     1      -9.605  18.161  67.828  1.00  0.00    -0.286 C  
HETATM   30  C   UNL     1      -8.220  13.514  67.589  1.00  0.00    -0.178 A  
HETATM   31  C   UNL     1      -7.459  13.470  68.763  1.00  0.00    -0.071 A  
HETATM   32  C   UNL     1      -7.326  14.633  69.520  1.00  0.00    -0.107 A  
HETATM   33  C   UNL     1      -7.989  15.817  69.154  1.00  0.00    -0.231 A  
BRANCH  31  34
HETATM   34  N   UNL     1      -6.839  12.282  69.219  1.00  0.00    -0.246 N  
HETATM   35  H   UNL     1      -5.852  12.340  69.469  1.00  0.00     0.000 HD 
HETATM   36  C   UNL     1      -7.447  11.062  69.355  1.00  0.00    -0.072 C  
HETATM   37  O   UNL     1      -8.600  10.781  69.071  1.00  0.00    -0.163 OA 
BRANCH  36  38
HETATM   38  O   UNL     1      -6.582  10.146  69.883  1.00  0.00    -0.070 OA 
BRANCH  38  39
HETATM   39  C   UNL     1      -7.245   8.952  70.308  1.00  0.00    -0.054 C  
HETATM   40  C   UNL     1      -6.320   7.740  70.224  1.00  0.00    -0.037 C  
HETATM   41  C   UNL     1      -6.999   6.736  71.133  1.00  0.00    -0.070 C  
HETATM   42  C   UNL     1      -7.500   7.574  72.304  1.00  0.00    -0.079 C  
HETATM   43  C   UNL     1      -7.642   9.007  71.781  1.00  0.00     0.074 C  
ENDBRANCH  38  39
ENDBRANCH  36  38
ENDBRANCH  31  34
ENDBRANCH  23  24
ENDBRANCH   6  23
ENDBRANCH   2   3
TORSDOF 9
ENDMDL
MODEL       94
REMARK 921   NORMALIZED FREE ENERGY PREDICTED BY IDOCK:   -5.22 KCAL/MOL
REMARK 922        TOTAL FREE ENERGY PREDICTED BY IDOCK:   -9.73 KCAL/MOL
REMARK 923 INTER-LIGAND FREE ENERGY PREDICTED BY IDOCK:   -7.73 KCAL/MOL
REMARK 924 INTRA-LIGAND FREE ENERGY PREDICTED BY IDOCK:   -2.00 KCAL/MOL
REMARK 927      BINDING AFFINITY PREDICTED BY RF-SCORE:    0.00 PKD
ROOT
HETATM    1  C   UNL     1      -9.791  16.109  69.612  1.00  0.00    -0.150 C  
HETATM    2  O   UNL     1      -8.424  16.403  69.355  1.00  0.00    -0.166 OA 
ENDROOT
BRANCH   2   3
HETATM    3  C   UNL     1      -7.612  15.369  68.967  1.00  0.00    -0.177 A  
HETATM    4  C   UNL     1      -7.625  14.093  69.548  1.00  0.00     0.226 A  
HETATM    5  C   UNL     1      -6.788  13.074  69.064  1.00  0.00    -0.081 A  
HETATM    6  C   UNL     1      -6.750  15.635  67.885  1.00  0.00    -0.167 A  
HETATM    7  C   UNL     1      -5.997  13.309  67.940  1.00  0.00    -0.138 A  
HETATM    8  C   UNL     1      -5.994  14.574  67.353  1.00  0.00     0.253 A  
BRANCH   5   9
HETATM    9  C   UNL     1      -6.751  11.779  69.792  1.00  0.00     0.016 C  
HETATM   10  N   UNL     1      -7.667  10.812  69.355  1.00  0.00    -0.273 N  
HETATM   11  H   UNL     1      -8.326  11.083  68.625  1.00  0.00     0.000 HD 
HETATM   12  O   UNL     1      -5.971  11.601  70.711  1.00  0.00    -0.335 OA 
BRANCH  10  13
HETATM   13  S   UNL     1      -7.760   9.258  69.937  1.00  0.00    -0.117 S  
HETATM   14  O   UNL     1      -8.585   9.279  71.128  1.00  0.00    -0.281 OA 
HETATM   15  O   UNL     1      -6.391   8.785  70.006  1.00  0.00    -0.036 OA 
BRANCH  13  16
HETATM   16  C   UNL     1      -8.586   8.325  68.662  1.00  0.00    -0.133 A  
HETATM   17  C   UNL     1      -7.832   7.361  67.975  1.00  0.00    -0.118 A  
HETATM   18  C   UNL     1     -10.795   9.583  69.002  1.00  0.00    -0.184 C  
HETATM   19  C   UNL     1      -8.414   6.608  66.957  1.00  0.00    -0.113 A  
HETATM   20  C   UNL     1      -9.936   8.553  68.328  1.00  0.00    -0.211 A  
HETATM   21  C   UNL     1      -9.748   6.816  66.622  1.00  0.00    -0.213 A  
HETATM   22  C   UNL     1     -10.502   7.777  67.300  1.00  0.00    -0.392 A  
ENDBRANCH  13  16
ENDBRANCH  10  13
ENDBRANCH   5   9
BRANCH   6  23
HETATM   23  C   UNL     1      -6.648  17.005  67.250  1.00  0.00    -0.195 C  
BRANCH  23  24
HETATM   24  C   UNL     1      -7.937  17.350  66.546  1.00  0.00    -0.317 A  
HETATM   25  N   UNL     1      -9.761  18.507  65.956  1.00  0.00    -0.516 NA 
HETATM   26  C   UNL     1     -10.067  17.191  65.686  1.00  0.00    -0.079 A  
HETATM   27  C   UNL     1      -8.939  16.450  66.039  1.00  0.00    -0.307 A  
HETATM   28  C   UNL     1      -8.461  18.621  66.377  1.00  0.00    -0.272 A  
HETATM   29  C   UNL     1     -10.710  19.597  65.908  1.00  0.00    -0.413 C  
HETATM   30  C   UNL     1      -9.005  15.052  65.885  1.00  0.00     0.127 A  
HETATM   31  C   UNL     1     -10.120  14.421  65.321  1.00  0.00    -0.356 A  
HETATM   32  C   UNL     1     -11.241  15.190  65.014  1.00  0.00    -0.414 A  
HETATM   33  C   UNL     1     -11.240  16.583  65.203  1.00  0.00    -0.029 A  
BRANCH  31  34
HETATM   34  N   UNL     1     -10.142  13.036  65.034  1.00  0.00    -0.471 N  
HETATM   35  H   UNL     1      -9.693  12.733  64.170  1.00  0.00     0.000 HD 
HETATM   36  C   UNL     1     -10.713  12.064  65.814  1.00  0.00    -0.279 C  
HETATM   37  O   UNL     1     -11.328  12.227  66.855  1.00  0.00    -0.292 OA 
BRANCH  36  38
HETATM   38  O   UNL     1     -10.497  10.825  65.281  1.00  0.00    -0.270 OA 
BRANCH  38  39
HETATM   39  C   UNL     1      -9.256  10.745  64.575  1.00  0.00    -0.220 C  
HETATM   40  C   UNL     1      -8.177  10.071  65.420  1.00  0.00    -0.149 C  
HETATM   41  C   UNL     1      -7.153   9.651  64.384  1.00  0.00    -0.118 C  
HETATM   42  C   UNL     1      -7.993   9.172  63.204  1.00  0.00    -0.145 C  
HETATM   43  C   UNL     1      -9.355   9.860  63.336  1.00  0.00    -0.223 C  
ENDBRANCH  38  39
ENDBRANCH  36  38
ENDBRANCH  31  34
ENDBRANCH  23  24
ENDBRANCH   6  23
ENDBRANCH   2   3
TORSDOF 9
ENDMDL
MODEL       95
REMARK 921   NORMALIZED FREE ENERGY PREDICTED BY IDOCK:   -5.22 KCAL/MOL
REMARK 922        TOTAL FREE ENERGY PREDICTED BY IDOCK:   -9.72 KCAL/MOL
REMARK 923 INTER-LIGAND FREE ENERGY PREDICTED BY IDOCK:   -8.21 KCAL/MOL
REMARK 924 INTRA-LIGAND FREE ENERGY PREDICTED BY IDOCK:   -1.51 KCAL/MOL
REMARK 927      BINDING AFFINITY PREDICTED BY RF-SCORE:    0.00 PKD
ROOT
HETATM    1  C   UNL     1      -5.723  11.659  68.208  1.00  0.00    -0.045 C  
HETATM    2  O   UNL     1      -6.866  12.504  68.219  1.00  0.00    -0.069 OA 
ENDROOT
BRANCH   2   3
HETATM    3  C   UNL     1      -8.071  11.943  68.552  1.00  0.00    -0.130 A  
HETATM    4  C   UNL     1      -8.217  10.682  69.149  1.00  0.00    -0.142 A  
HETATM    5  C   UNL     1      -9.488  10.194  69.497  1.00  0.00    -0.235 A  
HETATM    6  C   UNL     1      -9.211  12.731  68.298  1.00  0.00    -0.186 A  
HETATM    7  C   UNL     1     -10.608  11.008  69.325  1.00  0.00    -0.236 A  
HETATM    8  C   UNL     1     -10.461  12.267  68.745  1.00  0.00    -0.187 A  
BRANCH   5   9
HETATM    9  C   UNL     1      -9.599   8.805  70.013  1.00  0.00    -0.169 C  
HETATM   10  N   UNL     1     -10.895   8.380  70.336  1.00  0.00    -0.233 N  
HETATM   11  H   UNL     1     -11.648   9.063  70.256  1.00  0.00     0.000 HD 
HETATM   12  O   UNL     1      -8.608   8.107  70.146  1.00  0.00    -0.125 OA 
BRANCH  10  13
HETATM   13  S   UNL     1     -11.295   6.847  70.838  1.00  0.00    -0.324 S  
HETATM   14  O   UNL     1     -12.741   6.765  70.902  1.00  0.00    -0.301 OA 
HETATM   15  O   UNL     1     -10.497   6.603  72.023  1.00  0.00    -0.202 OA 
BRANCH  13  16
HETATM   16  C   UNL     1     -10.699   5.761  69.556  1.00  0.00    -0.338 A  
HETATM   17  C   UNL     1     -10.951   6.131  68.226  1.00  0.00    -0.397 A  
HETATM   18  C   UNL     1      -9.737   4.090  71.249  1.00  0.00    -0.255 C  
HETATM   19  C   UNL     1     -10.524   5.318  67.178  1.00  0.00    -0.261 A  
HETATM   20  C   UNL     1     -10.020   4.561  69.852  1.00  0.00    -0.273 A  
HETATM   21  C   UNL     1      -9.846   4.135  67.453  1.00  0.00    -0.152 A  
HETATM   22  C   UNL     1      -9.595   3.760  68.776  1.00  0.00    -0.172 A  
ENDBRANCH  13  16
ENDBRANCH  10  13
ENDBRANCH   5   9
BRANCH   6  23
HETATM   23  C   UNL     1      -9.126  14.075  67.606  1.00  0.00    -0.192 C  
BRANCH  23  24
HETATM   24  C   UNL     1      -9.875  14.034  66.297  1.00  0.00    -0.318 A  
HETATM   25  N   UNL     1     -11.415  14.520  64.745  1.00  0.00    -0.396 NA 
HETATM   26  C   UNL     1     -10.979  13.250  64.435  1.00  0.00    -0.393 A  
HETATM   27  C   UNL     1     -10.010  12.928  65.386  1.00  0.00    -0.208 A  
HETATM   28  C   UNL     1     -10.695  15.031  65.794  1.00  0.00    -0.342 A  
HETATM   29  C   UNL     1     -12.546  15.174  64.125  1.00  0.00     0.209 C  
HETATM   30  C   UNL     1      -9.420  11.653  65.307  1.00  0.00    -0.170 A  
HETATM   31  C   UNL     1      -9.719  10.761  64.271  1.00  0.00    -0.302 A  
HETATM   32  C   UNL     1     -10.717  11.103  63.360  1.00  0.00    -0.286 A  
HETATM   33  C   UNL     1     -11.373  12.343  63.433  1.00  0.00    -0.507 A  
BRANCH  31  34
HETATM   34  N   UNL     1      -9.032   9.535  64.104  1.00  0.00    -0.338 N  
HETATM   35  H   UNL     1      -8.501   9.414  63.242  1.00  0.00     0.000 HD 
HETATM   36  C   UNL     1      -9.016   8.497  64.998  1.00  0.00     0.050 C  
HETATM   37  O   UNL     1      -9.616   8.432  66.058  1.00  0.00    -0.207 OA 
BRANCH  36  38
HETATM   38  O   UNL     1      -8.202   7.492  64.559  1.00  0.00    -0.122 OA 
BRANCH  38  39
HETATM   39  C   UNL     1      -7.745   6.655  65.625  1.00  0.00    -0.095 C  
HETATM   40  C   UNL     1      -6.949   5.464  65.097  1.00  0.00    -0.057 C  
HETATM   41  C   UNL     1      -6.174   5.010  66.318  1.00  0.00    -0.035 C  
HETATM   42  C   UNL     1      -5.761   6.310  67.000  1.00  0.00    -0.013 C  
HETATM   43  C   UNL     1      -6.760   7.377  66.540  1.00  0.00    -0.061 C  
ENDBRANCH  38  39
ENDBRANCH  36  38
ENDBRANCH  31  34
ENDBRANCH  23  24
ENDBRANCH   6  23
ENDBRANCH   2   3
TORSDOF 9
ENDMDL
MODEL       96
REMARK 921   NORMALIZED FREE ENERGY PREDICTED BY IDOCK:   -5.18 KCAL/MOL
REMARK 922        TOTAL FREE ENERGY PREDICTED BY IDOCK:   -9.67 KCAL/MOL
REMARK 923 INTER-LIGAND FREE ENERGY PREDICTED BY IDOCK:   -9.00 KCAL/MOL
REMARK 924 INTRA-LIGAND FREE ENERGY PREDICTED BY IDOCK:   -0.67 KCAL/MOL
REMARK 927      BINDING AFFINITY PREDICTED BY RF-SCORE:    0.00 PKD
ROOT
HETATM    1  C   UNL     1     -10.064  11.272  66.130  1.00  0.00    -0.236 C  
HETATM    2  O   UNL     1     -11.020  11.140  67.174  1.00  0.00    -0.265 OA 
ENDROOT
BRANCH   2   3
HETATM    3  C   UNL     1     -11.039  12.104  68.148  1.00  0.00    -0.248 A  
HETATM    4  C   UNL     1     -10.390  13.343  68.045  1.00  0.00    -0.242 A  
HETATM    5  C   UNL     1     -10.492  14.295  69.072  1.00  0.00    -0.212 A  
HETATM    6  C   UNL     1     -11.801  11.808  69.295  1.00  0.00    -0.389 A  
HETATM    7  C   UNL     1     -11.315  14.039  70.169  1.00  0.00    -0.109 A  
HETATM    8  C   UNL     1     -11.971  12.813  70.265  1.00  0.00    -0.358 A  
BRANCH   5   9
HETATM    9  C   UNL     1      -9.688  15.541  68.969  1.00  0.00    -0.237 C  
HETATM   10  N   UNL     1      -8.584  15.480  68.108  1.00  0.00    -0.151 N  
HETATM   11  H   UNL     1      -8.375  14.583  67.671  1.00  0.00     0.000 HD 
HETATM   12  O   UNL     1      -9.989  16.533  69.611  1.00  0.00    -0.177 OA 
BRANCH  10  13
HETATM   13  S   UNL     1      -7.588  16.762  67.746  1.00  0.00    -0.172 S  
HETATM   14  O   UNL     1      -6.753  16.372  66.628  1.00  0.00    -0.235 OA 
HETATM   15  O   UNL     1      -6.986  17.155  69.005  1.00  0.00    -0.218 OA 
BRANCH  13  16
HETATM   16  C   UNL     1      -8.679  18.077  67.240  1.00  0.00    -0.243 A  
HETATM   17  C   UNL     1      -9.708  17.753  66.341  1.00  0.00    -0.315 A  
HETATM   18  C   UNL     1      -7.422  19.824  68.634  1.00  0.00    -0.329 C  
HETATM   19  C   UNL     1     -10.586  18.739  65.895  1.00  0.00    -0.405 A  
HETATM   20  C   UNL     1      -8.513  19.401  67.694  1.00  0.00    -0.339 A  
HETATM   21  C   UNL     1     -10.440  20.049  66.341  1.00  0.00    -0.534 A  
HETATM   22  C   UNL     1      -9.415  20.377  67.232  1.00  0.00    -0.568 A  
ENDBRANCH  13  16
ENDBRANCH  10  13
ENDBRANCH   5   9
BRANCH   6  23
HETATM   23  C   UNL     1     -12.478  10.469  69.492  1.00  0.00     0.035 C  
BRANCH  23  24
HETATM   24  C   UNL     1     -11.536   9.504  70.167  1.00  0.00    -0.205 A  
HETATM   25  N   UNL     1     -10.174   8.642  71.723  1.00  0.00    -0.279 NA 
HETATM   26  C   UNL     1      -9.777   8.064  70.536  1.00  0.00    -0.178 A  
HETATM   27  C   UNL     1     -10.619   8.581  69.551  1.00  0.00    -0.215 A  
HETATM   28  C   UNL     1     -11.282   9.426  71.527  1.00  0.00    -0.386 A  
HETATM   29  C   UNL     1      -9.457   8.527  72.973  1.00  0.00    -0.057 C  
HETATM   30  C   UNL     1     -10.400   8.165  68.225  1.00  0.00    -0.241 A  
HETATM   31  C   UNL     1      -9.434   7.206  67.899  1.00  0.00    -0.130 A  
HETATM   32  C   UNL     1      -8.589   6.738  68.905  1.00  0.00    -0.130 A  
HETATM   33  C   UNL     1      -8.735   7.169  70.234  1.00  0.00    -0.144 A  
BRANCH  31  34
HETATM   34  N   UNL     1      -9.299   6.679  66.593  1.00  0.00    -0.159 N  
HETATM   35  H   UNL     1      -8.741   7.216  65.931  1.00  0.00     0.000 HD 
HETATM   36  C   UNL     1      -9.852   5.510  66.139  1.00  0.00    -0.107 C  
HETATM   37  O   UNL     1     -10.580   4.754  66.760  1.00  0.00    -0.193 OA 
BRANCH  36  38
HETATM   38  O   UNL     1      -9.471   5.262  64.851  1.00  0.00     0.054 OA 
BRANCH  38  39
HETATM   39  C   UNL     1      -9.479   3.866  64.540  1.00  0.00    -0.166 C  
HETATM   40  C   UNL     1     -10.513   3.540  63.466  1.00  0.00    -0.252 C  
HETATM   41  C   UNL     1     -10.046   2.195  62.947  1.00  0.00    -0.104 C  
HETATM   42  C   UNL     1      -8.526   2.316  62.916  1.00  0.00    -0.077 C  
HETATM   43  C   UNL     1      -8.158   3.406  63.928  1.00  0.00    -0.089 C  
ENDBRANCH  38  39
ENDBRANCH  36  38
ENDBRANCH  31  34
ENDBRANCH  23  24
ENDBRANCH   6  23
ENDBRANCH   2   3
TORSDOF 9
ENDMDL
MODEL       97
REMARK 921   NORMALIZED FREE ENERGY PREDICTED BY IDOCK:   -5.18 KCAL/MOL
REMARK 922        TOTAL FREE ENERGY PREDICTED BY IDOCK:   -9.67 KCAL/MOL
REMARK 923 INTER-LIGAND FREE ENERGY PREDICTED BY IDOCK:   -8.61 KCAL/MOL
REMARK 924 INTRA-LIGAND FREE ENERGY PREDICTED BY IDOCK:   -1.06 KCAL/MOL
REMARK 927      BINDING AFFINITY PREDICTED BY RF-SCORE:    0.00 PKD
ROOT
HETATM    1  C   UNL     1     -10.653  12.174  64.237  1.00  0.00    -0.345 C  
HETATM    2  O   UNL     1      -9.412  12.244  64.926  1.00  0.00    -0.007 OA 
ENDROOT
BRANCH   2   3
HETATM    3  C   UNL     1      -9.177  11.321  65.911  1.00  0.00    -0.212 A  
HETATM    4  C   UNL     1      -9.630   9.995  65.876  1.00  0.00    -0.283 A  
HETATM    5  C   UNL     1      -9.311   9.098  66.909  1.00  0.00    -0.199 A  
HETATM    6  C   UNL     1      -8.392  11.763  66.995  1.00  0.00    -0.172 A  
HETATM    7  C   UNL     1      -8.464   9.508  67.939  1.00  0.00    -0.119 A  
HETATM    8  C   UNL     1      -8.002  10.823  67.967  1.00  0.00    -0.108 A  
BRANCH   5   9
HETATM    9  C   UNL     1      -9.916   7.742  66.885  1.00  0.00    -0.261 C  
HETATM   10  N   UNL     1      -9.161   6.753  66.238  1.00  0.00    -0.249 N  
HETATM   11  H   UNL     1      -8.296   7.042  65.783  1.00  0.00     0.000 HD 
HETATM   12  O   UNL     1     -11.004   7.534  67.394  1.00  0.00    -0.226 OA 
BRANCH  10  13
HETATM   13  S   UNL     1      -9.571   5.143  66.160  1.00  0.00    -0.170 S  
HETATM   14  O   UNL     1      -8.951   4.585  64.975  1.00  0.00    -0.139 OA 
HETATM   15  O   UNL     1     -11.011   5.099  66.320  1.00  0.00    -0.236 OA 
BRANCH  13  16
HETATM   16  C   UNL     1      -8.847   4.402  67.611  1.00  0.00    -0.109 A  
HETATM   17  C   UNL     1      -9.722   3.845  68.557  1.00  0.00    -0.114 A  
HETATM   18  C   UNL     1      -6.462   4.986  66.871  1.00  0.00    -0.041 C  
HETATM   19  C   UNL     1      -9.221   3.263  69.720  1.00  0.00    -0.221 A  
HETATM   20  C   UNL     1      -7.454   4.389  67.826  1.00  0.00    -0.069 A  
HETATM   21  C   UNL     1      -7.848   3.235  69.942  1.00  0.00    -0.050 A  
HETATM   22  C   UNL     1      -6.973   3.791  69.005  1.00  0.00    -0.046 A  
ENDBRANCH  13  16
ENDBRANCH  10  13
ENDBRANCH   5   9
BRANCH   6  23
HETATM   23  C   UNL     1      -7.920  13.195  67.121  1.00  0.00    -0.083 C  
BRANCH  23  24
HETATM   24  C   UNL     1      -9.101  14.120  67.285  1.00  0.00    -0.218 A  
HETATM   25  N   UNL     1     -10.317  16.000  67.235  1.00  0.00    -0.290 NA 
HETATM   26  C   UNL     1     -10.908  15.214  68.201  1.00  0.00    -0.266 A  
HETATM   27  C   UNL     1     -10.170  14.031  68.244  1.00  0.00    -0.249 A  
HETATM   28  C   UNL     1      -9.300  15.318  66.618  1.00  0.00    -0.260 A  
HETATM   29  C   UNL     1     -10.649  17.385  66.987  1.00  0.00    -0.238 C  
HETATM   30  C   UNL     1     -10.557  13.058  69.185  1.00  0.00     0.005 A  
HETATM   31  C   UNL     1     -11.688  13.218  69.994  1.00  0.00    -0.225 A  
HETATM   32  C   UNL     1     -12.379  14.428  69.948  1.00  0.00    -0.365 A  
HETATM   33  C   UNL     1     -11.994  15.451  69.064  1.00  0.00    -0.313 A  
BRANCH  31  34
HETATM   34  N   UNL     1     -12.165  12.190  70.841  1.00  0.00    -0.407 N  
HETATM   35  H   UNL     1     -12.087  12.343  71.846  1.00  0.00     0.000 HD 
HETATM   36  C   UNL     1     -12.723  11.008  70.431  1.00  0.00    -0.218 C  
HETATM   37  O   UNL     1     -12.864  10.624  69.282  1.00  0.00    -0.103 OA 
BRANCH  36  38
HETATM   38  O   UNL     1     -13.138  10.270  71.503  1.00  0.00    -0.384 OA 
BRANCH  38  39
HETATM   39  C   UNL     1     -12.212   9.235  71.843  1.00  0.00    -0.378 C  
HETATM   40  C   UNL     1     -12.739   7.860  71.439  1.00  0.00    -0.312 C  
HETATM   41  C   UNL     1     -11.484   7.011  71.421  1.00  0.00    -0.312 C  
HETATM   42  C   UNL     1     -10.423   7.929  70.822  1.00  0.00    -0.218 C  
HETATM   43  C   UNL     1     -10.899   9.363  71.075  1.00  0.00    -0.406 C  
ENDBRANCH  38  39
ENDBRANCH  36  38
ENDBRANCH  31  34
ENDBRANCH  23  24
ENDBRANCH   6  23
ENDBRANCH   2   3
TORSDOF 9
ENDMDL
MODEL       98
REMARK 921   NORMALIZED FREE ENERGY PREDICTED BY IDOCK:   -5.18 KCAL/MOL
REMARK 922        TOTAL FREE ENERGY PREDICTED BY IDOCK:   -9.67 KCAL/MOL
REMARK 923 INTER-LIGAND FREE ENERGY PREDICTED BY IDOCK:   -9.49 KCAL/MOL
REMARK 924 INTRA-LIGAND FREE ENERGY PREDICTED BY IDOCK:   -0.18 KCAL/MOL
REMARK 927      BINDING AFFINITY PREDICTED BY RF-SCORE:    0.00 PKD
ROOT
HETATM    1  C   UNL     1     -11.307  10.539  69.394  1.00  0.00    -0.269 C  
HETATM    2  O   UNL     1     -10.058  10.974  68.873  1.00  0.00    -0.197 OA 
ENDROOT
BRANCH   2   3
HETATM    3  C   UNL     1      -9.345  10.089  68.106  1.00  0.00    -0.131 A  
HETATM    4  C   UNL     1      -9.264   8.712  68.356  1.00  0.00    -0.138 A  
HETATM    5  C   UNL     1      -8.545   7.866  67.497  1.00  0.00    -0.122 A  
HETATM    6  C   UNL     1      -8.696  10.633  66.980  1.00  0.00    -0.128 A  
HETATM    7  C   UNL     1      -7.974   8.388  66.336  1.00  0.00    -0.099 A  
HETATM    8  C   UNL     1      -8.065   9.755  66.080  1.00  0.00    -0.114 A  
BRANCH   5   9
HETATM    9  C   UNL     1      -8.389   6.437  67.873  1.00  0.00    -0.118 C  
HETATM   10  N   UNL     1      -8.754   6.112  69.187  1.00  0.00    -0.121 N  
HETATM   11  H   UNL     1      -9.035   6.877  69.801  1.00  0.00     0.000 HD 
HETATM   12  O   UNL     1      -7.960   5.623  67.073  1.00  0.00    -0.101 OA 
BRANCH  10  13
HETATM   13  S   UNL     1      -8.765   4.575  69.819  1.00  0.00    -0.079 S  
HETATM   14  O   UNL     1      -7.389   4.166  70.015  1.00  0.00    -0.045 OA 
HETATM   15  O   UNL     1      -9.639   3.804  68.956  1.00  0.00    -0.175 OA 
BRANCH  13  16
HETATM   16  C   UNL     1      -9.570   4.722  71.403  1.00  0.00    -0.163 A  
HETATM   17  C   UNL     1      -9.008   4.020  72.481  1.00  0.00    -0.128 A  
HETATM   18  C   UNL     1     -11.407   6.247  70.466  1.00  0.00    -0.428 C  
HETATM   19  C   UNL     1      -9.598   4.081  73.742  1.00  0.00    -0.130 A  
HETATM   20  C   UNL     1     -10.739   5.490  71.577  1.00  0.00    -0.290 A  
HETATM   21  C   UNL     1     -10.747   4.842  73.932  1.00  0.00    -0.362 A  
HETATM   22  C   UNL     1     -11.312   5.540  72.861  1.00  0.00    -0.348 A  
ENDBRANCH  13  16
ENDBRANCH  10  13
ENDBRANCH   5   9
BRANCH   6  23
HETATM   23  C   UNL     1      -8.696  12.118  66.685  1.00  0.00    -0.153 C  
BRANCH  23  24
HETATM   24  C   UNL     1      -9.921  12.489  65.885  1.00  0.00    -0.269 A  
HETATM   25  N   UNL     1     -11.578  12.324  64.388  1.00  0.00    -0.342 NA 
HETATM   26  C   UNL     1     -11.405  13.676  64.587  1.00  0.00    -0.366 A  
HETATM   27  C   UNL     1     -10.381  13.803  65.525  1.00  0.00    -0.333 A  
HETATM   28  C   UNL     1     -10.765  11.608  65.228  1.00  0.00    -0.291 A  
HETATM   29  C   UNL     1     -12.416  11.745  63.361  1.00  0.00    -0.372 C  
HETATM   30  C   UNL     1      -9.986  15.106  65.884  1.00  0.00    -0.355 A  
HETATM   31  C   UNL     1     -10.642  16.241  65.393  1.00  0.00    -0.352 A  
HETATM   32  C   UNL     1     -11.638  16.075  64.431  1.00  0.00    -0.212 A  
HETATM   33  C   UNL     1     -12.026  14.795  64.001  1.00  0.00    -0.153 A  
BRANCH  31  34
HETATM   34  N   UNL     1     -10.346  17.546  65.853  1.00  0.00    -0.321 N  
HETATM   35  H   UNL     1      -9.863  18.168  65.206  1.00  0.00     0.000 HD 
HETATM   36  C   UNL     1     -10.650  18.048  67.091  1.00  0.00    -0.325 C  
HETATM   37  O   UNL     1     -11.184  17.452  68.012  1.00  0.00    -0.157 OA 
BRANCH  36  38
HETATM   38  O   UNL     1     -10.284  19.360  67.185  1.00  0.00    -0.356 OA 
BRANCH  38  39
HETATM   39  C   UNL     1      -8.906  19.517  67.533  1.00  0.00    -0.307 C  
HETATM   40  C   UNL     1      -8.563  18.757  68.812  1.00  0.00    -0.316 C  
HETATM   41  C   UNL     1      -7.055  18.638  68.738  1.00  0.00    -0.326 C  
HETATM   42  C   UNL     1      -6.775  18.362  67.264  1.00  0.00    -0.206 C  
HETATM   43  C   UNL     1      -7.976  18.910  66.486  1.00  0.00    -0.289 C  
ENDBRANCH  38  39
ENDBRANCH  36  38
ENDBRANCH  31  34
ENDBRANCH  23  24
ENDBRANCH   6  23
ENDBRANCH   2   3
TORSDOF 9
ENDMDL
MODEL       99
REMARK 921   NORMALIZED FREE ENERGY PREDICTED BY IDOCK:   -5.16 KCAL/MOL
REMARK 922        TOTAL FREE ENERGY PREDICTED BY IDOCK:   -9.64 KCAL/MOL
REMARK 923 INTER-LIGAND FREE ENERGY PREDICTED BY IDOCK:   -8.81 KCAL/MOL
REMARK 924 INTRA-LIGAND FREE ENERGY PREDICTED BY IDOCK:   -0.83 KCAL/MOL
REMARK 927      BINDING AFFINITY PREDICTED BY RF-SCORE:    0.00 PKD
ROOT
HETATM    1  C   UNL     1     -11.936  12.102  67.440  1.00  0.00    -0.098 C  
HETATM    2  O   UNL     1     -10.707  11.769  68.073  1.00  0.00    -0.194 OA 
ENDROOT
BRANCH   2   3
HETATM    3  C   UNL     1      -9.622  12.567  67.817  1.00  0.00    -0.203 A  
HETATM    4  C   UNL     1      -9.701  13.859  67.279  1.00  0.00    -0.245 A  
HETATM    5  C   UNL     1      -8.543  14.630  67.085  1.00  0.00    -0.244 A  
HETATM    6  C   UNL     1      -8.367  12.032  68.168  1.00  0.00    -0.165 A  
HETATM    7  C   UNL     1      -7.309  14.136  67.511  1.00  0.00    -0.193 A  
HETATM    8  C   UNL     1      -7.232  12.856  68.058  1.00  0.00    -0.115 A  
BRANCH   5   9
HETATM    9  C   UNL     1      -8.668  15.942  66.400  1.00  0.00    -0.327 C  
HETATM   10  N   UNL     1      -7.887  16.979  66.929  1.00  0.00    -0.193 N  
HETATM   11  H   UNL     1      -7.346  16.780  67.770  1.00  0.00     0.000 HD 
HETATM   12  O   UNL     1      -9.418  16.081  65.449  1.00  0.00    -0.378 OA 
BRANCH  10  13
HETATM   13  S   UNL     1      -7.775  18.508  66.286  1.00  0.00    -0.231 S  
HETATM   14  O   UNL     1      -9.119  19.034  66.158  1.00  0.00    -0.422 OA 
HETATM   15  O   UNL     1      -6.928  18.379  65.116  1.00  0.00    -0.501 OA 
BRANCH  13  16
HETATM   16  C   UNL     1      -6.879  19.463  67.495  1.00  0.00    -0.204 A  
HETATM   17  C   UNL     1      -7.008  19.087  68.841  1.00  0.00    -0.357 A  
HETATM   18  C   UNL     1      -5.921  21.045  65.717  1.00  0.00    -0.290 C  
HETATM   19  C   UNL     1      -6.345  19.801  69.837  1.00  0.00    -0.377 A  
HETATM   20  C   UNL     1      -6.086  20.571  67.132  1.00  0.00    -0.249 A  
HETATM   21  C   UNL     1      -5.552  20.892  69.494  1.00  0.00    -0.372 A  
HETATM   22  C   UNL     1      -5.423  21.273  68.155  1.00  0.00    -0.323 A  
ENDBRANCH  13  16
ENDBRANCH  10  13
ENDBRANCH   5   9
BRANCH   6  23
HETATM   23  C   UNL     1      -8.208  10.624  68.700  1.00  0.00    -0.135 C  
BRANCH  23  24
HETATM   24  C   UNL     1      -8.196   9.636  67.560  1.00  0.00    -0.114 A  
HETATM   25  N   UNL     1      -8.180   8.853  65.462  1.00  0.00    -0.121 NA 
HETATM   26  C   UNL     1      -8.725   7.839  66.220  1.00  0.00    -0.155 A  
HETATM   27  C   UNL     1      -8.737   8.302  67.536  1.00  0.00    -0.129 A  
HETATM   28  C   UNL     1      -7.774   9.887  66.265  1.00  0.00    -0.105 A  
HETATM   29  C   UNL     1      -8.145   8.869  64.016  1.00  0.00    -0.161 C  
HETATM   30  C   UNL     1      -9.281   7.454  68.519  1.00  0.00    -0.142 A  
HETATM   31  C   UNL     1      -9.718   6.158  68.219  1.00  0.00    -0.121 A  
HETATM   32  C   UNL     1      -9.722   5.744  66.888  1.00  0.00    -0.163 A  
HETATM   33  C   UNL     1      -9.241   6.579  65.866  1.00  0.00    -0.022 A  
BRANCH  31  34
HETATM   34  N   UNL     1     -10.135   5.249  69.220  1.00  0.00    -0.214 N  
HETATM   35  H   UNL     1     -11.139   5.128  69.348  1.00  0.00     0.000 HD 
HETATM   36  C   UNL     1      -9.310   4.517  70.033  1.00  0.00    -0.153 C  
HETATM   37  O   UNL     1      -8.091   4.552  70.062  1.00  0.00    -0.066 OA 
BRANCH  36  38
HETATM   38  O   UNL     1     -10.035   3.689  70.841  1.00  0.00    -0.149 OA 
BRANCH  38  39
HETATM   39  C   UNL     1      -9.773   3.915  72.228  1.00  0.00    -0.154 C  
HETATM   40  C   UNL     1     -10.637   5.045  72.782  1.00  0.00    -0.274 C  
HETATM   41  C   UNL     1     -10.584   4.807  74.278  1.00  0.00    -0.330 C  
HETATM   42  C   UNL     1     -10.653   3.290  74.415  1.00  0.00    -0.221 C  
HETATM   43  C   UNL     1     -10.150   2.712  73.089  1.00  0.00    -0.197 C  
ENDBRANCH  38  39
ENDBRANCH  36  38
ENDBRANCH  31  34
ENDBRANCH  23  24
ENDBRANCH   6  23
ENDBRANCH   2   3
TORSDOF 9
ENDMDL
MODEL      100
REMARK 921   NORMALIZED FREE ENERGY PREDICTED BY IDOCK:   -5.15 KCAL/MOL
REMARK 922        TOTAL FREE ENERGY PREDICTED BY IDOCK:   -9.62 KCAL/MOL
REMARK 923 INTER-LIGAND FREE ENERGY PREDICTED BY IDOCK:   -8.45 KCAL/MOL
REMARK 924 INTRA-LIGAND FREE ENERGY PREDICTED BY IDOCK:   -1.17 KCAL/MOL
REMARK 927      BINDING AFFINITY PREDICTED BY RF-SCORE:    0.00 PKD
ROOT
HETATM    1  C   UNL     1      -7.349   7.799  66.693  1.00  0.00    -0.088 C  
HETATM    2  O   UNL     1      -6.385   7.883  67.734  1.00  0.00    -0.049 OA 
ENDROOT
BRANCH   2   3
HETATM    3  C   UNL     1      -6.370   9.020  68.499  1.00  0.00    -0.054 A  
HETATM    4  C   UNL     1      -6.412  10.322  67.980  1.00  0.00    -0.060 A  
HETATM    5  C   UNL     1      -6.435  11.436  68.834  1.00  0.00    -0.062 A  
HETATM    6  C   UNL     1      -6.348   8.825  69.894  1.00  0.00    -0.037 A  
HETATM    7  C   UNL     1      -6.500  11.244  70.214  1.00  0.00     0.002 A  
HETATM    8  C   UNL     1      -6.472   9.949  70.731  1.00  0.00    -0.081 A  
BRANCH   5   9
HETATM    9  C   UNL     1      -6.357  12.793  68.235  1.00  0.00    -0.078 C  
HETATM   10  N   UNL     1      -6.884  13.832  69.015  1.00  0.00    -0.110 N  
HETATM   11  H   UNL     1      -7.334  13.580  69.895  1.00  0.00     0.000 HD 
HETATM   12  O   UNL     1      -5.870  12.961  67.130  1.00  0.00    -0.339 OA 
BRANCH  10  13
HETATM   13  S   UNL     1      -6.830  15.445  68.614  1.00  0.00    -0.111 S  
HETATM   14  O   UNL     1      -6.063  15.572  67.391  1.00  0.00    -0.278 OA 
HETATM   15  O   UNL     1      -6.404  16.132  69.817  1.00  0.00    -0.190 OA 
BRANCH  13  16
HETATM   16  C   UNL     1      -8.522  15.909  68.301  1.00  0.00    -0.170 A  
HETATM   17  C   UNL     1      -9.437  14.878  68.036  1.00  0.00    -0.198 A  
HETATM   18  C   UNL     1      -8.010  18.411  68.543  1.00  0.00    -0.333 C  
HETATM   19  C   UNL     1     -10.772  15.175  67.770  1.00  0.00    -0.279 A  
HETATM   20  C   UNL     1      -8.937  17.256  68.293  1.00  0.00    -0.262 A  
HETATM   21  C   UNL     1     -11.198  16.499  67.766  1.00  0.00    -0.097 A  
HETATM   22  C   UNL     1     -10.291  17.530  68.026  1.00  0.00    -0.368 A  
ENDBRANCH  13  16
ENDBRANCH  10  13
ENDBRANCH   5   9
BRANCH   6  23
HETATM   23  C   UNL     1      -6.245   7.449  70.516  1.00  0.00    -0.038 C  
BRANCH  23  24
HETATM   24  C   UNL     1      -7.527   6.683  70.300  1.00  0.00    -0.094 A  
HETATM   25  N   UNL     1      -8.953   5.172  69.465  1.00  0.00    -0.098 NA 
HETATM   26  C   UNL     1      -9.747   6.200  69.926  1.00  0.00    -0.163 A  
HETATM   27  C   UNL     1      -8.878   7.152  70.460  1.00  0.00    -0.154 A  
HETATM   28  C   UNL     1      -7.638   5.408  69.770  1.00  0.00    -0.070 A  
HETATM   29  C   UNL     1      -9.428   4.059  68.673  1.00  0.00    -0.154 C  
HETATM   30  C   UNL     1      -9.445   8.331  70.978  1.00  0.00    -0.197 A  
HETATM   31  C   UNL     1     -10.831   8.521  71.041  1.00  0.00    -0.241 A  
HETATM   32  C   UNL     1     -11.665   7.564  70.466  1.00  0.00    -0.183 A  
HETATM   33  C   UNL     1     -11.139   6.397  69.887  1.00  0.00    -0.444 A  
BRANCH  31  34
HETATM   34  N   UNL     1     -11.414   9.638  71.685  1.00  0.00    -0.367 N  
HETATM   35  H   UNL     1     -11.161   9.797  72.660  1.00  0.00     0.000 HD 
HETATM   36  C   UNL     1     -12.288  10.526  71.115  1.00  0.00    -0.405 C  
HETATM   37  O   UNL     1     -12.741  10.485  69.983  1.00  0.00    -0.256 OA 
BRANCH  36  38
HETATM   38  O   UNL     1     -12.606  11.524  71.992  1.00  0.00    -0.128 OA 
BRANCH  38  39
HETATM   39  C   UNL     1     -13.205  12.649  71.343  1.00  0.00    -0.127 C  
HETATM   40  C   UNL     1     -13.986  13.511  72.331  1.00  0.00    -0.638 C  
HETATM   41  C   UNL     1     -14.111  14.832  71.599  1.00  0.00    -0.590 C  
HETATM   42  C   UNL     1     -12.758  15.008  70.918  1.00  0.00    -0.437 C  
HETATM   43  C   UNL     1     -12.162  13.605  70.769  1.00  0.00    -0.424 C  
ENDBRANCH  38  39
ENDBRANCH  36  38
ENDBRANCH  31  34
ENDBRANCH  23  24
ENDBRANCH   6  23
ENDBRANCH   2   3
TORSDOF 9
ENDMDL
MODEL      101
REMARK 921   NORMALIZED FREE ENERGY PREDICTED BY IDOCK:   -5.15 KCAL/MOL
REMARK 922        TOTAL FREE ENERGY PREDICTED BY IDOCK:   -9.61 KCAL/MOL
REMARK 923 INTER-LIGAND FREE ENERGY PREDICTED BY IDOCK:   -8.30 KCAL/MOL
REMARK 924 INTRA-LIGAND FREE ENERGY PREDICTED BY IDOCK:   -1.32 KCAL/MOL
REMARK 927      BINDING AFFINITY PREDICTED BY RF-SCORE:    0.00 PKD
ROOT
HETATM    1  C   UNL     1      -6.627  11.845  67.177  1.00  0.00    -0.148 C  
HETATM    2  O   UNL     1      -7.442  12.003  68.331  1.00  0.00    -0.097 OA 
ENDROOT
BRANCH   2   3
HETATM    3  C   UNL     1      -8.531  11.181  68.460  1.00  0.00    -0.156 A  
HETATM    4  C   UNL     1      -8.457   9.789  68.608  1.00  0.00    -0.116 A  
HETATM    5  C   UNL     1      -9.620   9.020  68.776  1.00  0.00    -0.155 A  
HETATM    6  C   UNL     1      -9.787  11.819  68.479  1.00  0.00    -0.192 A  
HETATM    7  C   UNL     1     -10.856   9.658  68.881  1.00  0.00    -0.201 A  
HETATM    8  C   UNL     1     -10.930  11.043  68.748  1.00  0.00    -0.270 A  
BRANCH   5   9
HETATM    9  C   UNL     1      -9.496   7.540  68.805  1.00  0.00    -0.148 C  
HETATM   10  N   UNL     1      -8.673   7.020  69.815  1.00  0.00    -0.141 N  
HETATM   11  H   UNL     1      -8.176   7.686  70.406  1.00  0.00     0.000 HD 
HETATM   12  O   UNL     1     -10.076   6.847  67.986  1.00  0.00    -0.152 OA 
BRANCH  10  13
HETATM   13  S   UNL     1      -8.448   5.402  70.120  1.00  0.00    -0.120 S  
HETATM   14  O   UNL     1      -7.098   5.227  70.615  1.00  0.00    -0.056 OA 
HETATM   15  O   UNL     1      -8.879   4.715  68.918  1.00  0.00    -0.094 OA 
BRANCH  13  16
HETATM   16  C   UNL     1      -9.608   5.000  71.412  1.00  0.00    -0.164 A  
HETATM   17  C   UNL     1     -10.455   6.026  71.862  1.00  0.00    -0.263 A  
HETATM   18  C   UNL     1      -8.779   2.578  71.574  1.00  0.00    -0.111 C  
HETATM   19  C   UNL     1     -11.374   5.781  72.880  1.00  0.00    -0.298 A  
HETATM   20  C   UNL     1      -9.669   3.715  71.987  1.00  0.00    -0.238 A  
HETATM   21  C   UNL     1     -11.452   4.515  73.452  1.00  0.00    -0.322 A  
HETATM   22  C   UNL     1     -10.609   3.492  73.010  1.00  0.00    -0.251 A  
ENDBRANCH  13  16
ENDBRANCH  10  13
ENDBRANCH   5   9
BRANCH   6  23
HETATM   23  C   UNL     1      -9.939  13.310  68.269  1.00  0.00    -0.236 C  
BRANCH  23  24
HETATM   24  C   UNL     1     -10.370  13.594  66.851  1.00  0.00    -0.262 A  
HETATM   25  N   UNL     1     -11.468  14.532  65.139  1.00  0.00    -0.354 NA 
HETATM   26  C   UNL     1     -11.077  13.293  64.681  1.00  0.00    -0.357 A  
HETATM   27  C   UNL     1     -10.382  12.692  65.730  1.00  0.00    -0.298 A  
HETATM   28  C   UNL     1     -10.968  14.758  66.396  1.00  0.00    -0.331 A  
HETATM   29  C   UNL     1     -12.369  15.421  64.440  1.00  0.00    -0.077 C  
HETATM   30  C   UNL     1      -9.895  11.387  65.524  1.00  0.00    -0.271 A  
HETATM   31  C   UNL     1     -10.021  10.735  64.291  1.00  0.00    -0.341 A  
HETATM   32  C   UNL     1     -10.752  11.354  63.278  1.00  0.00    -0.332 A  
HETATM   33  C   UNL     1     -11.304  12.633  63.459  1.00  0.00    -0.527 A  
BRANCH  31  34
HETATM   34  N   UNL     1      -9.415   9.483  64.031  1.00  0.00    -0.387 N  
HETATM   35  H   UNL     1     -10.021   8.663  64.042  1.00  0.00     0.000 HD 
HETATM   36  C   UNL     1      -8.087   9.275  63.766  1.00  0.00    -0.155 C  
HETATM   37  O   UNL     1      -7.202  10.114  63.750  1.00  0.00    -0.131 OA 
BRANCH  36  38
HETATM   38  O   UNL     1      -7.848   7.958  63.495  1.00  0.00    -0.133 OA 
BRANCH  38  39
HETATM   39  C   UNL     1      -8.105   7.115  64.621  1.00  0.00    -0.083 C  
HETATM   40  C   UNL     1      -7.817   5.650  64.298  1.00  0.00    -0.112 C  
HETATM   41  C   UNL     1      -7.671   5.026  65.670  1.00  0.00    -0.087 C  
HETATM   42  C   UNL     1      -6.914   6.075  66.478  1.00  0.00    -0.067 C  
HETATM   43  C   UNL     1      -7.175   7.420  65.792  1.00  0.00    -0.066 C  
ENDBRANCH  38  39
ENDBRANCH  36  38
ENDBRANCH  31  34
ENDBRANCH  23  24
ENDBRANCH   6  23
ENDBRANCH   2   3
TORSDOF 9
ENDMDL
MODEL      102
REMARK 921   NORMALIZED FREE ENERGY PREDICTED BY IDOCK:   -5.12 KCAL/MOL
REMARK 922        TOTAL FREE ENERGY PREDICTED BY IDOCK:   -9.58 KCAL/MOL
REMARK 923 INTER-LIGAND FREE ENERGY PREDICTED BY IDOCK:   -8.91 KCAL/MOL
REMARK 924 INTRA-LIGAND FREE ENERGY PREDICTED BY IDOCK:   -0.67 KCAL/MOL
REMARK 927      BINDING AFFINITY PREDICTED BY RF-SCORE:    0.00 PKD
ROOT
HETATM    1  C   UNL     1      -6.872   9.746  69.135  1.00  0.00    -0.054 C  
HETATM    2  O   UNL     1      -7.846   9.611  70.161  1.00  0.00    -0.141 OA 
ENDROOT
BRANCH   2   3
HETATM    3  C   UNL     1      -9.133   9.982  69.870  1.00  0.00    -0.154 A  
HETATM    4  C   UNL     1      -9.503  10.741  68.750  1.00  0.00    -0.187 A  
HETATM    5  C   UNL     1     -10.851  11.045  68.501  1.00  0.00    -0.254 A  
HETATM    6  C   UNL     1     -10.124   9.518  70.757  1.00  0.00    -0.352 A  
HETATM    7  C   UNL     1     -11.840  10.515  69.330  1.00  0.00    -0.242 A  
HETATM    8  C   UNL     1     -11.474   9.749  70.436  1.00  0.00    -0.347 A  
BRANCH   5   9
HETATM    9  C   UNL     1     -11.178  11.952  67.371  1.00  0.00    -0.305 C  
HETATM   10  N   UNL     1     -10.871  13.305  67.571  1.00  0.00    -0.259 N  
HETATM   11  H   UNL     1     -10.510  13.576  68.486  1.00  0.00     0.000 HD 
HETATM   12  O   UNL     1     -11.690  11.522  66.351  1.00  0.00    -0.422 OA 
BRANCH  10  13
HETATM   13  S   UNL     1     -11.048  14.500  66.429  1.00  0.00    -0.336 S  
HETATM   14  O   UNL     1     -12.458  14.605  66.113  1.00  0.00    -0.222 OA 
HETATM   15  O   UNL     1     -10.088  14.191  65.388  1.00  0.00    -0.338 OA 
BRANCH  13  16
HETATM   16  C   UNL     1     -10.509  16.000  67.229  1.00  0.00    -0.308 A  
HETATM   17  C   UNL     1      -9.535  16.768  66.572  1.00  0.00    -0.287 A  
HETATM   18  C   UNL     1     -12.037  15.616  69.253  1.00  0.00    -0.263 C  
HETATM   19  C   UNL     1      -9.061  17.943  67.151  1.00  0.00    -0.251 A  
HETATM   20  C   UNL     1     -11.014  16.399  68.483  1.00  0.00    -0.350 A  
HETATM   21  C   UNL     1      -9.555  18.355  68.384  1.00  0.00    -0.366 A  
HETATM   22  C   UNL     1     -10.522  17.592  69.044  1.00  0.00    -0.250 A  
ENDBRANCH  13  16
ENDBRANCH  10  13
ENDBRANCH   5   9
BRANCH   6  23
HETATM   23  C   UNL     1      -9.787   8.744  72.013  1.00  0.00    -0.376 C  
BRANCH  23  24
HETATM   24  C   UNL     1     -10.202   7.301  71.862  1.00  0.00    -0.206 A  
HETATM   25  N   UNL     1     -10.862   5.237  72.428  1.00  0.00    -0.229 NA 
HETATM   26  C   UNL     1     -10.233   5.093  71.210  1.00  0.00    -0.222 A  
HETATM   27  C   UNL     1      -9.820   6.371  70.833  1.00  0.00    -0.204 A  
HETATM   28  C   UNL     1     -10.933   6.561  72.777  1.00  0.00    -0.253 A  
HETATM   29  C   UNL     1     -11.285   4.139  73.269  1.00  0.00    -0.209 C  
HETATM   30  C   UNL     1      -9.115   6.495  69.620  1.00  0.00    -0.141 A  
HETATM   31  C   UNL     1      -8.903   5.402  68.772  1.00  0.00    -0.103 A  
HETATM   32  C   UNL     1      -9.299   4.135  69.199  1.00  0.00    -0.235 A  
HETATM   33  C   UNL     1      -9.956   3.956  70.429  1.00  0.00    -0.055 A  
BRANCH  31  34
HETATM   34  N   UNL     1      -8.320   5.539  67.490  1.00  0.00    -0.101 N  
HETATM   35  H   UNL     1      -7.337   5.286  67.397  1.00  0.00     0.000 HD 
HETATM   36  C   UNL     1      -8.960   5.984  66.362  1.00  0.00    -0.145 C  
HETATM   37  O   UNL     1     -10.113   6.371  66.278  1.00  0.00    -0.063 OA 
BRANCH  36  38
HETATM   38  O   UNL     1      -8.127   5.932  65.281  1.00  0.00    -0.118 OA 
BRANCH  38  39
HETATM   39  C   UNL     1      -8.437   4.843  64.406  1.00  0.00    -0.137 C  
HETATM   40  C   UNL     1      -7.508   3.655  64.646  1.00  0.00    -0.072 C  
HETATM   41  C   UNL     1      -8.269   2.503  64.022  1.00  0.00    -0.082 C  
HETATM   42  C   UNL     1      -9.723   2.771  64.397  1.00  0.00    -0.124 C  
HETATM   43  C   UNL     1      -9.830   4.276  64.665  1.00  0.00    -0.148 C  
ENDBRANCH  38  39
ENDBRANCH  36  38
ENDBRANCH  31  34
ENDBRANCH  23  24
ENDBRANCH   6  23
ENDBRANCH   2   3
TORSDOF 9
ENDMDL
MODEL      103
REMARK 921   NORMALIZED FREE ENERGY PREDICTED BY IDOCK:   -5.09 KCAL/MOL
REMARK 922        TOTAL FREE ENERGY PREDICTED BY IDOCK:   -9.53 KCAL/MOL
REMARK 923 INTER-LIGAND FREE ENERGY PREDICTED BY IDOCK:   -8.90 KCAL/MOL
REMARK 924 INTRA-LIGAND FREE ENERGY PREDICTED BY IDOCK:   -0.63 KCAL/MOL
REMARK 927      BINDING AFFINITY PREDICTED BY RF-SCORE:    0.00 PKD
ROOT
HETATM    1  C   UNL     1     -12.584  12.907  64.946  1.00  0.00    -0.458 C  
HETATM    2  O   UNL     1     -12.084  12.200  66.073  1.00  0.00    -0.612 OA 
ENDROOT
BRANCH   2   3
HETATM    3  C   UNL     1     -10.773  12.400  66.421  1.00  0.00    -0.247 A  
HETATM    4  C   UNL     1     -10.311  13.495  67.165  1.00  0.00    -0.250 A  
HETATM    5  C   UNL     1      -8.955  13.606  67.515  1.00  0.00    -0.209 A  
HETATM    6  C   UNL     1      -9.868  11.398  66.018  1.00  0.00    -0.256 A  
HETATM    7  C   UNL     1      -8.075  12.573  67.192  1.00  0.00    -0.156 A  
HETATM    8  C   UNL     1      -8.536  11.478  66.464  1.00  0.00    -0.172 A  
BRANCH   5   9
HETATM    9  C   UNL     1      -8.497  14.843  68.197  1.00  0.00    -0.146 C  
HETATM   10  N   UNL     1      -7.638  15.663  67.453  1.00  0.00    -0.178 N  
HETATM   11  H   UNL     1      -7.342  15.327  66.536  1.00  0.00     0.000 HD 
HETATM   12  O   UNL     1      -8.853  15.098  69.336  1.00  0.00    -0.220 OA 
BRANCH  10  13
HETATM   13  S   UNL     1      -7.065  17.143  67.951  1.00  0.00    -0.165 S  
HETATM   14  O   UNL     1      -6.064  17.575  66.997  1.00  0.00    -0.129 OA 
HETATM   15  O   UNL     1      -6.717  16.975  69.349  1.00  0.00    -0.236 OA 
BRANCH  13  16
HETATM   16  C   UNL     1      -8.468  18.240  67.876  1.00  0.00    -0.254 A  
HETATM   17  C   UNL     1      -8.614  19.174  68.914  1.00  0.00    -0.314 A  
HETATM   18  C   UNL     1      -9.336  17.182  65.707  1.00  0.00     0.076 C  
HETATM   19  C   UNL     1      -9.697  20.051  68.921  1.00  0.00    -0.236 A  
HETATM   20  C   UNL     1      -9.415  18.169  66.834  1.00  0.00    -0.286 A  
HETATM   21  C   UNL     1     -10.636  19.999  67.896  1.00  0.00    -0.379 A  
HETATM   22  C   UNL     1     -10.497  19.068  66.863  1.00  0.00    -0.505 A  
ENDBRANCH  13  16
ENDBRANCH  10  13
ENDBRANCH   5   9
BRANCH   6  23
HETATM   23  C   UNL     1     -10.293  10.221  65.167  1.00  0.00    -0.198 C  
BRANCH  23  24
HETATM   24  C   UNL     1      -9.134   9.274  64.973  1.00  0.00    -0.245 A  
HETATM   25  N   UNL     1      -7.579   8.046  63.928  1.00  0.00    -0.120 NA 
HETATM   26  C   UNL     1      -7.767   7.429  65.147  1.00  0.00    -0.112 A  
HETATM   27  C   UNL     1      -8.728   8.184  65.820  1.00  0.00    -0.183 A  
HETATM   28  C   UNL     1      -8.318   9.199  63.856  1.00  0.00    -0.181 A  
HETATM   29  C   UNL     1      -6.802   7.496  62.840  1.00  0.00    -0.070 C  
HETATM   30  C   UNL     1      -9.124   7.741  67.096  1.00  0.00    -0.154 A  
HETATM   31  C   UNL     1      -8.527   6.637  67.716  1.00  0.00    -0.122 A  
HETATM   32  C   UNL     1      -7.597   5.888  66.998  1.00  0.00    -0.099 A  
HETATM   33  C   UNL     1      -7.212   6.261  65.699  1.00  0.00    -0.074 A  
BRANCH  31  34
HETATM   34  N   UNL     1      -8.819   6.268  69.051  1.00  0.00    -0.124 N  
HETATM   35  H   UNL     1      -8.581   6.939  69.781  1.00  0.00     0.000 HD 
HETATM   36  C   UNL     1      -9.393   5.089  69.449  1.00  0.00    -0.124 C  
HETATM   37  O   UNL     1      -9.708   4.150  68.738  1.00  0.00    -0.158 OA 
BRANCH  36  38
HETATM   38  O   UNL     1      -9.597   5.082  70.800  1.00  0.00    -0.158 OA 
BRANCH  38  39
HETATM   39  C   UNL     1     -10.007   6.359  71.296  1.00  0.00    -0.182 C  
HETATM   40  C   UNL     1     -11.521   6.533  71.203  1.00  0.00    -0.380 C  
HETATM   41  C   UNL     1     -11.790   7.661  72.177  1.00  0.00    -0.352 C  
HETATM   42  C   UNL     1     -10.852   7.376  73.345  1.00  0.00    -0.362 C  
HETATM   43  C   UNL     1      -9.712   6.519  72.785  1.00  0.00    -0.166 C  
ENDBRANCH  38  39
ENDBRANCH  36  38
ENDBRANCH  31  34
ENDBRANCH  23  24
ENDBRANCH   6  23
ENDBRANCH   2   3
TORSDOF 9
ENDMDL
MODEL      104
REMARK 921   NORMALIZED FREE ENERGY PREDICTED BY IDOCK:   -5.09 KCAL/MOL
REMARK 922        TOTAL FREE ENERGY PREDICTED BY IDOCK:   -9.53 KCAL/MOL
REMARK 923 INTER-LIGAND FREE ENERGY PREDICTED BY IDOCK:   -9.37 KCAL/MOL
REMARK 924 INTRA-LIGAND FREE ENERGY PREDICTED BY IDOCK:   -0.15 KCAL/MOL
REMARK 927      BINDING AFFINITY PREDICTED BY RF-SCORE:    0.00 PKD
ROOT
HETATM    1  C   UNL     1     -12.844  10.434  71.716  1.00  0.00    -0.456 C  
HETATM    2  O   UNL     1     -12.085  11.162  70.761  1.00  0.00    -0.344 OA 
ENDROOT
BRANCH   2   3
HETATM    3  C   UNL     1     -11.276  10.451  69.913  1.00  0.00    -0.306 A  
HETATM    4  C   UNL     1     -11.113   9.059  69.958  1.00  0.00    -0.197 A  
HETATM    5  C   UNL     1     -10.296   8.400  69.026  1.00  0.00    -0.231 A  
HETATM    6  C   UNL     1     -10.611  11.200  68.922  1.00  0.00    -0.239 A  
HETATM    7  C   UNL     1      -9.706   9.128  67.993  1.00  0.00    -0.177 A  
HETATM    8  C   UNL     1      -9.878  10.510  67.939  1.00  0.00    -0.181 A  
BRANCH   5   9
HETATM    9  C   UNL     1     -10.061   6.942  69.192  1.00  0.00    -0.173 C  
HETATM   10  N   UNL     1      -9.417   6.306  68.122  1.00  0.00    -0.114 N  
HETATM   11  H   UNL     1      -9.216   6.865  67.292  1.00  0.00     0.000 HD 
HETATM   12  O   UNL     1     -10.425   6.362  70.201  1.00  0.00    -0.195 OA 
BRANCH  10  13
HETATM   13  S   UNL     1      -8.955   4.709  68.103  1.00  0.00    -0.119 S  
HETATM   14  O   UNL     1     -10.096   3.913  68.511  1.00  0.00     0.097 OA 
HETATM   15  O   UNL     1      -7.718   4.652  68.857  1.00  0.00    -0.070 OA 
BRANCH  13  16
HETATM   16  C   UNL     1      -8.563   4.352  66.401  1.00  0.00    -0.112 A  
HETATM   17  C   UNL     1      -8.517   5.434  65.508  1.00  0.00    -0.141 A  
HETATM   18  C   UNL     1      -8.388   1.831  66.841  1.00  0.00    -0.083 C  
HETATM   19  C   UNL     1      -8.230   5.221  64.161  1.00  0.00    -0.132 A  
HETATM   20  C   UNL     1      -8.331   3.037  65.949  1.00  0.00    -0.098 A  
HETATM   21  C   UNL     1      -7.990   3.930  63.701  1.00  0.00    -0.088 A  
HETATM   22  C   UNL     1      -8.039   2.849  64.586  1.00  0.00    -0.086 A  
ENDBRANCH  13  16
ENDBRANCH  10  13
ENDBRANCH   5   9
BRANCH   6  23
HETATM   23  C   UNL     1     -10.700  12.709  68.854  1.00  0.00    -0.201 C  
BRANCH  23  24
HETATM   24  C   UNL     1     -11.246  13.138  67.514  1.00  0.00    -0.314 A  
HETATM   25  N   UNL     1     -12.018  12.988  65.418  1.00  0.00    -0.387 NA 
HETATM   26  C   UNL     1     -11.521  14.268  65.527  1.00  0.00    -0.329 A  
HETATM   27  C   UNL     1     -11.040  14.388  66.832  1.00  0.00    -0.325 A  
HETATM   28  C   UNL     1     -11.946  12.341  66.624  1.00  0.00    -0.182 A  
HETATM   29  C   UNL     1     -12.450  12.377  64.180  1.00  0.00    -0.442 C  
HETATM   30  C   UNL     1     -10.445  15.611  67.195  1.00  0.00    -0.303 A  
HETATM   31  C   UNL     1     -10.405  16.704  66.322  1.00  0.00    -0.317 A  
HETATM   32  C   UNL     1     -10.863  16.535  65.016  1.00  0.00    -0.245 A  
HETATM   33  C   UNL     1     -11.414  15.314  64.592  1.00  0.00    -0.356 A  
BRANCH  31  34
HETATM   34  N   UNL     1      -9.936  17.977  66.723  1.00  0.00    -0.327 N  
HETATM   35  H   UNL     1     -10.548  18.531  67.321  1.00  0.00     0.000 HD 
HETATM   36  C   UNL     1      -8.731  18.533  66.378  1.00  0.00    -0.260 C  
HETATM   37  O   UNL     1      -7.885  18.051  65.643  1.00  0.00    -0.531 OA 
BRANCH  36  38
HETATM   38  O   UNL     1      -8.564  19.743  66.988  1.00  0.00    -0.299 OA 
BRANCH  38  39
HETATM   39  C   UNL     1      -8.029  19.619  68.308  1.00  0.00    -0.321 C  
HETATM   40  C   UNL     1      -7.504  18.209  68.566  1.00  0.00    -0.289 C  
HETATM   41  C   UNL     1      -6.582  18.405  69.753  1.00  0.00    -0.016 C  
HETATM   42  C   UNL     1      -5.886  19.732  69.467  1.00  0.00    -0.304 C  
HETATM   43  C   UNL     1      -6.807  20.508  68.520  1.00  0.00    -0.177 C  
ENDBRANCH  38  39
ENDBRANCH  36  38
ENDBRANCH  31  34
ENDBRANCH  23  24
ENDBRANCH   6  23
ENDBRANCH   2   3
TORSDOF 9
ENDMDL
MODEL      105
REMARK 921   NORMALIZED FREE ENERGY PREDICTED BY IDOCK:   -5.08 KCAL/MOL
REMARK 922        TOTAL FREE ENERGY PREDICTED BY IDOCK:   -9.52 KCAL/MOL
REMARK 923 INTER-LIGAND FREE ENERGY PREDICTED BY IDOCK:   -8.77 KCAL/MOL
REMARK 924 INTRA-LIGAND FREE ENERGY PREDICTED BY IDOCK:   -0.75 KCAL/MOL
REMARK 927      BINDING AFFINITY PREDICTED BY RF-SCORE:    0.00 PKD
ROOT
HETATM    1  C   UNL     1     -10.345   9.212  67.420  1.00  0.00    -0.264 C  
HETATM    2  O   UNL     1     -10.659   8.414  68.554  1.00  0.00    -0.191 OA 
ENDROOT
BRANCH   2   3
HETATM    3  C   UNL     1     -11.290   9.023  69.607  1.00  0.00     0.121 A  
HETATM    4  C   UNL     1     -11.513  10.404  69.704  1.00  0.00    -0.326 A  
HETATM    5  C   UNL     1     -12.205  10.947  70.798  1.00  0.00    -0.483 A  
HETATM    6  C   UNL     1     -11.766   8.167  70.620  1.00  0.00    -0.148 A  
HETATM    7  C   UNL     1     -12.751  10.094  71.758  1.00  0.00    -0.534 A  
HETATM    8  C   UNL     1     -12.542   8.719  71.655  1.00  0.00    -0.393 A  
BRANCH   5   9
HETATM    9  C   UNL     1     -12.308  12.424  70.913  1.00  0.00    -0.262 C  
HETATM   10  N   UNL     1     -11.491  13.158  70.042  1.00  0.00    -0.519 N  
HETATM   11  H   UNL     1     -10.848  12.637  69.446  1.00  0.00     0.000 HD 
HETATM   12  O   UNL     1     -13.055  12.937  71.729  1.00  0.00    -0.399 OA 
BRANCH  10  13
HETATM   13  S   UNL     1     -11.491  14.815  69.907  1.00  0.00    -0.291 S  
HETATM   14  O   UNL     1     -10.381  15.324  70.686  1.00  0.00    -0.161 OA 
HETATM   15  O   UNL     1     -12.847  15.231  70.211  1.00  0.00    -0.341 OA 
BRANCH  13  16
HETATM   16  C   UNL     1     -11.203  15.147  68.180  1.00  0.00    -0.320 A  
HETATM   17  C   UNL     1     -11.652  14.192  67.254  1.00  0.00    -0.399 A  
HETATM   18  C   UNL     1     -10.002  17.358  68.678  1.00  0.00    -0.340 C  
HETATM   19  C   UNL     1     -11.445  14.384  65.890  1.00  0.00    -0.341 A  
HETATM   20  C   UNL     1     -10.530  16.307  67.745  1.00  0.00    -0.295 A  
HETATM   21  C   UNL     1     -10.790  15.528  65.445  1.00  0.00    -0.402 A  
HETATM   22  C   UNL     1     -10.338  16.481  66.363  1.00  0.00    -0.316 A  
ENDBRANCH  13  16
ENDBRANCH  10  13
ENDBRANCH   5   9
BRANCH   6  23
HETATM   23  C   UNL     1     -11.510   6.676  70.604  1.00  0.00    -0.420 C  
BRANCH  23  24
HETATM   24  C   UNL     1     -10.252   6.355  71.372  1.00  0.00    -0.228 A  
HETATM   25  N   UNL     1      -8.910   5.908  73.109  1.00  0.00    -0.122 NA 
HETATM   26  C   UNL     1      -8.081   6.425  72.137  1.00  0.00    -0.108 A  
HETATM   27  C   UNL     1      -8.896   6.704  71.040  1.00  0.00    -0.142 A  
HETATM   28  C   UNL     1     -10.187   5.774  72.628  1.00  0.00    -0.184 A  
HETATM   29  C   UNL     1      -8.513   5.651  74.476  1.00  0.00    -0.107 C  
HETATM   30  C   UNL     1      -8.287   7.276  69.907  1.00  0.00    -0.135 A  
HETATM   31  C   UNL     1      -6.905   7.486  69.836  1.00  0.00    -0.047 A  
HETATM   32  C   UNL     1      -6.129   7.228  70.964  1.00  0.00    -0.036 A  
HETATM   33  C   UNL     1      -6.703   6.709  72.137  1.00  0.00    -0.059 A  
BRANCH  31  34
HETATM   34  N   UNL     1      -6.266   7.930  68.654  1.00  0.00    -0.039 N  
HETATM   35  H   UNL     1      -5.824   8.848  68.681  1.00  0.00     0.000 HD 
HETATM   36  C   UNL     1      -6.189   7.235  67.475  1.00  0.00    -0.046 C  
HETATM   37  O   UNL     1      -6.686   6.149  67.230  1.00  0.00    -0.057 OA 
BRANCH  36  38
HETATM   38  O   UNL     1      -5.446   7.921  66.556  1.00  0.00    -0.027 OA 
BRANCH  38  39
HETATM   39  C   UNL     1      -6.196   8.249  65.384  1.00  0.00    -0.045 C  
HETATM   40  C   UNL     1      -6.871   9.612  65.518  1.00  0.00    -0.089 C  
HETATM   41  C   UNL     1      -7.176   9.978  64.079  1.00  0.00    -0.129 C  
HETATM   42  C   UNL     1      -5.950   9.503  63.307  1.00  0.00    -0.093 C  
HETATM   43  C   UNL     1      -5.305   8.401  64.154  1.00  0.00    -0.048 C  
ENDBRANCH  38  39
ENDBRANCH  36  38
ENDBRANCH  31  34
ENDBRANCH  23  24
ENDBRANCH   6  23
ENDBRANCH   2   3
TORSDOF 9
ENDMDL
MODEL      106
REMARK 921   NORMALIZED FREE ENERGY PREDICTED BY IDOCK:   -5.06 KCAL/MOL
REMARK 922        TOTAL FREE ENERGY PREDICTED BY IDOCK:   -9.48 KCAL/MOL
REMARK 923 INTER-LIGAND FREE ENERGY PREDICTED BY IDOCK:   -9.68 KCAL/MOL
REMARK 924 INTRA-LIGAND FREE ENERGY PREDICTED BY IDOCK:    0.19 KCAL/MOL
REMARK 927      BINDING AFFINITY PREDICTED BY RF-SCORE:    0.00 PKD
ROOT
HETATM    1  C   UNL     1     -11.575  12.385  63.115  1.00  0.00    -0.212 C  
HETATM    2  O   UNL     1     -11.824  11.701  64.335  1.00  0.00    -0.224 OA 
ENDROOT
BRANCH   2   3
HETATM    3  C   UNL     1     -10.750  11.418  65.138  1.00  0.00    -0.269 A  
HETATM    4  C   UNL     1     -10.275  10.124  65.395  1.00  0.00    -0.281 A  
HETATM    5  C   UNL     1      -9.141   9.921  66.198  1.00  0.00    -0.193 A  
HETATM    6  C   UNL     1     -10.084  12.529  65.692  1.00  0.00    -0.285 A  
HETATM    7  C   UNL     1      -8.430  11.022  66.676  1.00  0.00    -0.153 A  
HETATM    8  C   UNL     1      -8.894  12.309  66.410  1.00  0.00    -0.072 A  
BRANCH   5   9
HETATM    9  C   UNL     1      -8.751   8.528  66.539  1.00  0.00    -0.132 C  
HETATM   10  N   UNL     1      -9.676   7.536  66.185  1.00  0.00    -0.435 N  
HETATM   11  H   UNL     1     -10.564   7.840  65.784  1.00  0.00     0.000 HD 
HETATM   12  O   UNL     1      -7.694   8.294  67.099  1.00  0.00    -0.094 OA 
BRANCH  10  13
HETATM   13  S   UNL     1      -9.435   5.901  66.368  1.00  0.00    -0.137 S  
HETATM   14  O   UNL     1     -10.728   5.251  66.295  1.00  0.00    -0.294 OA 
HETATM   15  O   UNL     1      -8.613   5.759  67.554  1.00  0.00    -0.107 OA 
BRANCH  13  16
HETATM   16  C   UNL     1      -8.446   5.411  64.968  1.00  0.00    -0.150 A  
HETATM   17  C   UNL     1      -8.070   6.413  64.060  1.00  0.00    -0.043 A  
HETATM   18  C   UNL     1      -8.456   2.943  65.669  1.00  0.00    -0.103 C  
HETATM   19  C   UNL     1      -7.310   6.093  62.937  1.00  0.00    -0.060 A  
HETATM   20  C   UNL     1      -8.070   4.069  64.754  1.00  0.00    -0.093 A  
HETATM   21  C   UNL     1      -6.924   4.775  62.716  1.00  0.00    -0.034 A  
HETATM   22  C   UNL     1      -7.299   3.773  63.616  1.00  0.00    -0.051 A  
ENDBRANCH  13  16
ENDBRANCH  10  13
ENDBRANCH   5   9
BRANCH   6  23
HETATM   23  C   UNL     1     -10.579  13.946  65.499  1.00  0.00    -0.318 C  
BRANCH  23  24
HETATM   24  C   UNL     1     -10.934  14.559  66.832  1.00  0.00    -0.316 A  
HETATM   25  N   UNL     1     -10.950  16.014  68.534  1.00  0.00    -0.308 NA 
HETATM   26  C   UNL     1     -11.326  14.808  69.087  1.00  0.00    -0.282 A  
HETATM   27  C   UNL     1     -11.331  13.886  68.040  1.00  0.00    -0.317 A  
HETATM   28  C   UNL     1     -10.808  15.895  67.176  1.00  0.00    -0.267 A  
HETATM   29  C   UNL     1     -10.640  17.205  69.294  1.00  0.00    -0.220 C  
HETATM   30  C   UNL     1     -11.658  12.553  68.350  1.00  0.00    -0.368 A  
HETATM   31  C   UNL     1     -12.048  12.166  69.638  1.00  0.00    -0.218 A  
HETATM   32  C   UNL     1     -11.997  13.107  70.665  1.00  0.00    -0.246 A  
HETATM   33  C   UNL     1     -11.622  14.438  70.411  1.00  0.00    -0.288 A  
BRANCH  31  34
HETATM   34  N   UNL     1     -12.512  10.861  69.929  1.00  0.00    -0.377 N  
HETATM   35  H   UNL     1     -12.426  10.162  69.192  1.00  0.00     0.000 HD 
HETATM   36  C   UNL     1     -13.066  10.453  71.114  1.00  0.00    -0.383 C  
HETATM   37  O   UNL     1     -13.290  11.144  72.095  1.00  0.00    -0.452 OA 
BRANCH  36  38
HETATM   38  O   UNL     1     -13.343   9.116  71.085  1.00  0.00    -0.263 OA 
BRANCH  38  39
HETATM   39  C   UNL     1     -12.161   8.313  71.135  1.00  0.00    -0.252 C  
HETATM   40  C   UNL     1     -11.440   8.467  72.472  1.00  0.00    -0.422 C  
HETATM   41  C   UNL     1     -10.555   7.237  72.520  1.00  0.00    -0.285 C  
HETATM   42  C   UNL     1     -11.427   6.130  71.936  1.00  0.00    -0.355 C  
HETATM   43  C   UNL     1     -12.475   6.822  71.059  1.00  0.00    -0.318 C  
ENDBRANCH  38  39
ENDBRANCH  36  38
ENDBRANCH  31  34
ENDBRANCH  23  24
ENDBRANCH   6  23
ENDBRANCH   2   3
TORSDOF 9
ENDMDL
MODEL      107
REMARK 921   NORMALIZED FREE ENERGY PREDICTED BY IDOCK:   -5.04 KCAL/MOL
REMARK 922        TOTAL FREE ENERGY PREDICTED BY IDOCK:   -9.45 KCAL/MOL
REMARK 923 INTER-LIGAND FREE ENERGY PREDICTED BY IDOCK:   -8.57 KCAL/MOL
REMARK 924 INTRA-LIGAND FREE ENERGY PREDICTED BY IDOCK:   -0.88 KCAL/MOL
REMARK 927      BINDING AFFINITY PREDICTED BY RF-SCORE:    0.00 PKD
ROOT
HETATM    1  C   UNL     1      -6.851   8.804  67.377  1.00  0.00    -0.071 C  
HETATM    2  O   UNL     1      -7.848   9.350  66.524  1.00  0.00    -0.096 OA 
ENDROOT
BRANCH   2   3
HETATM    3  C   UNL     1      -8.344  10.589  66.835  1.00  0.00    -0.126 A  
HETATM    4  C   UNL     1      -7.565  11.750  66.938  1.00  0.00    -0.119 A  
HETATM    5  C   UNL     1      -8.157  12.991  67.221  1.00  0.00    -0.164 A  
HETATM    6  C   UNL     1      -9.739  10.666  67.018  1.00  0.00    -0.207 A  
HETATM    7  C   UNL     1      -9.545  13.085  67.318  1.00  0.00    -0.225 A  
HETATM    8  C   UNL     1     -10.323  11.933  67.202  1.00  0.00    -0.235 A  
BRANCH   5   9
HETATM    9  C   UNL     1      -7.275  14.166  67.440  1.00  0.00    -0.101 C  
HETATM   10  N   UNL     1      -7.892  15.419  67.319  1.00  0.00    -0.189 N  
HETATM   11  H   UNL     1      -8.870  15.437  67.031  1.00  0.00     0.000 HD 
HETATM   12  O   UNL     1      -6.092  14.020  67.697  1.00  0.00    -0.259 OA 
BRANCH  10  13
HETATM   13  S   UNL     1      -7.149  16.877  67.610  1.00  0.00    -0.146 S  
HETATM   14  O   UNL     1      -6.062  17.018  66.662  1.00  0.00    -0.192 OA 
HETATM   15  O   UNL     1      -6.882  16.902  69.035  1.00  0.00    -0.200 OA 
BRANCH  13  16
HETATM   16  C   UNL     1      -8.390  18.113  67.275  1.00  0.00    -0.241 A  
HETATM   17  C   UNL     1      -9.583  17.684  66.673  1.00  0.00    -0.301 A  
HETATM   18  C   UNL     1      -6.928  20.009  68.196  1.00  0.00    -0.330 C  
HETATM   19  C   UNL     1     -10.587  18.602  66.371  1.00  0.00    -0.399 A  
HETATM   20  C   UNL     1      -8.186  19.475  67.575  1.00  0.00    -0.328 A  
HETATM   21  C   UNL     1     -10.404  19.949  66.669  1.00  0.00    -0.608 A  
HETATM   22  C   UNL     1      -9.216  20.381  67.266  1.00  0.00    -0.525 A  
ENDBRANCH  13  16
ENDBRANCH  10  13
ENDBRANCH   5   9
BRANCH   6  23
HETATM   23  C   UNL     1     -10.629   9.442  66.976  1.00  0.00    -0.272 C  
BRANCH  23  24
HETATM   24  C   UNL     1     -10.527   8.680  68.274  1.00  0.00    -0.234 A  
HETATM   25  N   UNL     1     -10.163   8.276  70.447  1.00  0.00    -0.198 NA 
HETATM   26  C   UNL     1      -9.995   7.060  69.820  1.00  0.00    -0.173 A  
HETATM   27  C   UNL     1     -10.226   7.286  68.463  1.00  0.00    -0.197 A  
HETATM   28  C   UNL     1     -10.574   9.225  69.547  1.00  0.00    -0.224 A  
HETATM   29  C   UNL     1      -9.842   8.537  71.832  1.00  0.00    -0.288 C  
HETATM   30  C   UNL     1     -10.086   6.192  67.589  1.00  0.00    -0.183 A  
HETATM   31  C   UNL     1      -9.810   4.901  68.055  1.00  0.00    -0.139 A  
HETATM   32  C   UNL     1      -9.551   4.721  69.413  1.00  0.00    -0.249 A  
HETATM   33  C   UNL     1      -9.624   5.796  70.315  1.00  0.00    -0.206 A  
BRANCH  31  34
HETATM   34  N   UNL     1      -9.805   3.773  67.202  1.00  0.00    -0.298 N  
HETATM   35  H   UNL     1     -10.647   3.197  67.188  1.00  0.00     0.000 HD 
HETATM   36  C   UNL     1      -8.770   3.384  66.392  1.00  0.00    -0.126 C  
HETATM   37  O   UNL     1      -7.674   3.912  66.300  1.00  0.00    -0.087 OA 
BRANCH  36  38
HETATM   38  O   UNL     1      -9.119   2.291  65.651  1.00  0.00    -0.130 OA 
BRANCH  38  39
HETATM   39  C   UNL     1      -9.089   2.554  64.246  1.00  0.00    -0.121 C  
HETATM   40  C   UNL     1      -9.459   4.004  63.942  1.00  0.00    -0.156 C  
HETATM   41  C   UNL     1      -8.913   4.204  62.543  1.00  0.00    -0.108 C  
HETATM   42  C   UNL     1      -7.583   3.457  62.553  1.00  0.00    -0.054 C  
HETATM   43  C   UNL     1      -7.686   2.405  63.662  1.00  0.00    -0.067 C  
ENDBRANCH  38  39
ENDBRANCH  36  38
ENDBRANCH  31  34
ENDBRANCH  23  24
ENDBRANCH   6  23
ENDBRANCH   2   3
TORSDOF 9
ENDMDL
MODEL      108
REMARK 921   NORMALIZED FREE ENERGY PREDICTED BY IDOCK:   -5.01 KCAL/MOL
REMARK 922        TOTAL FREE ENERGY PREDICTED BY IDOCK:   -9.41 KCAL/MOL
REMARK 923 INTER-LIGAND FREE ENERGY PREDICTED BY IDOCK:   -8.96 KCAL/MOL
REMARK 924 INTRA-LIGAND FREE ENERGY PREDICTED BY IDOCK:   -0.45 KCAL/MOL
REMARK 927      BINDING AFFINITY PREDICTED BY RF-SCORE:    0.00 PKD
ROOT
HETATM    1  C   UNL     1     -12.489  12.729  63.640  1.00  0.00    -0.389 C  
HETATM    2  O   UNL     1     -12.703  13.335  64.908  1.00  0.00    -0.635 OA 
ENDROOT
BRANCH   2   3
HETATM    3  C   UNL     1     -11.859  12.988  65.931  1.00  0.00    -0.416 A  
HETATM    4  C   UNL     1     -12.161  12.038  66.917  1.00  0.00     0.136 A  
HETATM    5  C   UNL     1     -11.223  11.710  67.910  1.00  0.00    -0.334 A  
HETATM    6  C   UNL     1     -10.601  13.623  65.934  1.00  0.00    -0.289 A  
HETATM    7  C   UNL     1      -9.948  12.272  67.865  1.00  0.00    -0.202 A  
HETATM    8  C   UNL     1      -9.642  13.207  66.876  1.00  0.00    -0.248 A  
BRANCH   5   9
HETATM    9  C   UNL     1     -11.636  10.789  69.000  1.00  0.00    -0.299 C  
HETATM   10  N   UNL     1     -10.647   9.906  69.455  1.00  0.00    -0.226 N  
HETATM   11  H   UNL     1      -9.749   9.914  68.971  1.00  0.00     0.000 HD 
HETATM   12  O   UNL     1     -12.771  10.815  69.444  1.00  0.00    -0.261 OA 
BRANCH  10  13
HETATM   13  S   UNL     1     -10.827   8.849  70.726  1.00  0.00    -0.259 S  
HETATM   14  O   UNL     1     -12.224   8.852  71.110  1.00  0.00    -0.291 OA 
HETATM   15  O   UNL     1      -9.805   9.216  71.687  1.00  0.00    -0.305 OA 
BRANCH  13  16
HETATM   16  C   UNL     1     -10.397   7.248  70.071  1.00  0.00    -0.213 A  
HETATM   17  C   UNL     1     -10.021   7.182  68.720  1.00  0.00    -0.163 A  
HETATM   18  C   UNL     1     -10.868   6.071  72.301  1.00  0.00    -0.289 C  
HETATM   19  C   UNL     1      -9.687   5.958  68.143  1.00  0.00    -0.143 A  
HETATM   20  C   UNL     1     -10.451   6.080  70.858  1.00  0.00    -0.293 A  
HETATM   21  C   UNL     1      -9.728   4.798  68.909  1.00  0.00    -0.244 A  
HETATM   22  C   UNL     1     -10.105   4.858  70.254  1.00  0.00    -0.322 A  
ENDBRANCH  13  16
ENDBRANCH  10  13
ENDBRANCH   5   9
BRANCH   6  23
HETATM   23  C   UNL     1     -10.235  14.697  64.933  1.00  0.00    -0.322 C  
BRANCH  23  24
HETATM   24  C   UNL     1     -10.327  16.060  65.575  1.00  0.00    -0.415 A  
HETATM   25  N   UNL     1     -10.698  18.258  65.787  1.00  0.00    -0.450 NA 
HETATM   26  C   UNL     1      -9.794  17.947  66.780  1.00  0.00    -0.333 A  
HETATM   27  C   UNL     1      -9.554  16.577  66.672  1.00  0.00    -0.275 A  
HETATM   28  C   UNL     1     -11.093  17.124  65.127  1.00  0.00     0.163 A  
HETATM   29  C   UNL     1     -11.086  19.602  65.421  1.00  0.00     0.275 C  
HETATM   30  C   UNL     1      -8.631  16.007  67.568  1.00  0.00    -0.190 A  
HETATM   31  C   UNL     1      -8.031  16.753  68.589  1.00  0.00    -0.246 A  
HETATM   32  C   UNL     1      -8.268  18.126  68.644  1.00  0.00    -0.295 A  
HETATM   33  C   UNL     1      -9.140  18.748  67.734  1.00  0.00    -0.311 A  
BRANCH  31  34
HETATM   34  N   UNL     1      -7.210  16.161  69.579  1.00  0.00    -0.195 N  
HETATM   35  H   UNL     1      -7.631  15.994  70.492  1.00  0.00     0.000 HD 
HETATM   36  C   UNL     1      -5.900  15.794  69.419  1.00  0.00    -0.124 C  
HETATM   37  O   UNL     1      -5.211  15.950  68.424  1.00  0.00    -0.094 OA 
BRANCH  36  38
HETATM   38  O   UNL     1      -5.424  15.192  70.548  1.00  0.00    -0.128 OA 
BRANCH  38  39
HETATM   39  C   UNL     1      -5.182  13.795  70.360  1.00  0.00    -0.106 C  
HETATM   40  C   UNL     1      -5.159  13.049  71.692  1.00  0.00    -0.154 C  
HETATM   41  C   UNL     1      -5.382  11.609  71.274  1.00  0.00    -0.013 C  
HETATM   42  C   UNL     1      -6.418  11.702  70.159  1.00  0.00     0.029 C  
HETATM   43  C   UNL     1      -6.305  13.116  69.581  1.00  0.00    -0.086 C  
ENDBRANCH  38  39
ENDBRANCH  36  38
ENDBRANCH  31  34
ENDBRANCH  23  24
ENDBRANCH   6  23
ENDBRANCH   2   3
TORSDOF 9
ENDMDL
MODEL      109
REMARK 921   NORMALIZED FREE ENERGY PREDICTED BY IDOCK:   -5.01 KCAL/MOL
REMARK 922        TOTAL FREE ENERGY PREDICTED BY IDOCK:   -9.41 KCAL/MOL
REMARK 923 INTER-LIGAND FREE ENERGY PREDICTED BY IDOCK:   -7.94 KCAL/MOL
REMARK 924 INTRA-LIGAND FREE ENERGY PREDICTED BY IDOCK:   -1.47 KCAL/MOL
REMARK 927      BINDING AFFINITY PREDICTED BY RF-SCORE:    0.00 PKD
ROOT
HETATM    1  C   UNL     1      -5.181   7.088  64.446  1.00  0.00    -0.028 C  
HETATM    2  O   UNL     1      -6.337   7.830  64.083  1.00  0.00    -0.055 OA 
ENDROOT
BRANCH   2   3
HETATM    3  C   UNL     1      -6.955   8.566  65.060  1.00  0.00    -0.075 A  
HETATM    4  C   UNL     1      -6.456   9.770  65.578  1.00  0.00    -0.084 A  
HETATM    5  C   UNL     1      -7.172  10.486  66.551  1.00  0.00    -0.124 A  
HETATM    6  C   UNL     1      -8.189   8.066  65.521  1.00  0.00    -0.138 A  
HETATM    7  C   UNL     1      -8.433  10.038  66.946  1.00  0.00    -0.125 A  
HETATM    8  C   UNL     1      -8.936   8.848  66.422  1.00  0.00    -0.193 A  
BRANCH   5   9
HETATM    9  C   UNL     1      -6.544  11.689  67.154  1.00  0.00    -0.134 C  
HETATM   10  N   UNL     1      -7.325  12.853  67.139  1.00  0.00    -0.359 N  
HETATM   11  H   UNL     1      -8.228  12.809  66.666  1.00  0.00     0.000 HD 
HETATM   12  O   UNL     1      -5.416  11.641  67.615  1.00  0.00    -0.048 OA 
BRANCH  10  13
HETATM   13  S   UNL     1      -6.890  14.300  67.834  1.00  0.00    -0.177 S  
HETATM   14  O   UNL     1      -5.652  14.733  67.219  1.00  0.00    -0.298 OA 
HETATM   15  O   UNL     1      -6.955  14.080  69.266  1.00  0.00    -0.115 OA 
BRANCH  13  16
HETATM   16  C   UNL     1      -8.193  15.438  67.406  1.00  0.00    -0.183 A  
HETATM   17  C   UNL     1      -9.292  14.927  66.698  1.00  0.00    -0.291 A  
HETATM   18  C   UNL     1      -6.973  17.428  68.471  1.00  0.00    -0.215 C  
HETATM   19  C   UNL     1     -10.337  15.768  66.321  1.00  0.00    -0.320 A  
HETATM   20  C   UNL     1      -8.126  16.807  67.737  1.00  0.00    -0.186 A  
HETATM   21  C   UNL     1     -10.289  17.119  66.647  1.00  0.00    -0.310 A  
HETATM   22  C   UNL     1      -9.196  17.634  67.349  1.00  0.00    -0.247 A  
ENDBRANCH  13  16
ENDBRANCH  10  13
ENDBRANCH   5   9
BRANCH   6  23
HETATM   23  C   UNL     1      -8.755   6.745  65.045  1.00  0.00     0.187 C  
BRANCH  23  24
HETATM   24  C   UNL     1      -8.418   5.651  66.027  1.00  0.00    -0.132 A  
HETATM   25  N   UNL     1      -7.726   3.666  66.801  1.00  0.00    -0.080 NA 
HETATM   26  C   UNL     1      -8.574   4.155  67.771  1.00  0.00    -0.100 A  
HETATM   27  C   UNL     1      -9.012   5.398  67.313  1.00  0.00    -0.111 A  
HETATM   28  C   UNL     1      -7.552   4.592  65.805  1.00  0.00    -0.082 A  
HETATM   29  C   UNL     1      -7.186   2.325  66.782  1.00  0.00    -0.056 C  
HETATM   30  C   UNL     1      -9.926   6.103  68.119  1.00  0.00    -0.158 A  
HETATM   31  C   UNL     1     -10.325   5.629  69.374  1.00  0.00    -0.273 A  
HETATM   32  C   UNL     1      -9.894   4.367  69.782  1.00  0.00    -0.284 A  
HETATM   33  C   UNL     1      -9.025   3.604  68.984  1.00  0.00    -0.179 A  
BRANCH  31  34
HETATM   34  N   UNL     1     -11.132   6.392  70.251  1.00  0.00    -0.322 N  
HETATM   35  H   UNL     1     -12.133   6.415  70.060  1.00  0.00     0.000 HD 
HETATM   36  C   UNL     1     -10.687   7.105  71.334  1.00  0.00    -0.225 C  
HETATM   37  O   UNL     1      -9.530   7.237  71.700  1.00  0.00    -0.152 OA 
BRANCH  36  38
HETATM   38  O   UNL     1     -11.733   7.673  72.003  1.00  0.00    -0.277 OA 
BRANCH  38  39
HETATM   39  C   UNL     1     -11.715   9.101  71.933  1.00  0.00    -0.366 C  
HETATM   40  C   UNL     1     -11.516   9.585  70.498  1.00  0.00    -0.337 C  
HETATM   41  C   UNL     1     -12.001  11.019  70.558  1.00  0.00    -0.474 C  
HETATM   42  C   UNL     1     -13.222  10.961  71.470  1.00  0.00    -0.420 C  
HETATM   43  C   UNL     1     -13.050   9.714  72.343  1.00  0.00    -0.389 C  
ENDBRANCH  38  39
ENDBRANCH  36  38
ENDBRANCH  31  34
ENDBRANCH  23  24
ENDBRANCH   6  23
ENDBRANCH   2   3
TORSDOF 9
ENDMDL
MODEL      110
REMARK 921   NORMALIZED FREE ENERGY PREDICTED BY IDOCK:   -4.97 KCAL/MOL
REMARK 922        TOTAL FREE ENERGY PREDICTED BY IDOCK:   -9.35 KCAL/MOL
REMARK 923 INTER-LIGAND FREE ENERGY PREDICTED BY IDOCK:   -9.11 KCAL/MOL
REMARK 924 INTRA-LIGAND FREE ENERGY PREDICTED BY IDOCK:   -0.24 KCAL/MOL
REMARK 927      BINDING AFFINITY PREDICTED BY RF-SCORE:    0.00 PKD
ROOT
HETATM    1  C   UNL     1     -10.311  15.341  70.096  1.00  0.00    -0.187 C  
HETATM    2  O   UNL     1      -8.914  15.599  70.054  1.00  0.00    -0.011 OA 
ENDROOT
BRANCH   2   3
HETATM    3  C   UNL     1      -8.112  14.669  69.447  1.00  0.00     0.031 A  
HETATM    4  C   UNL     1      -8.569  13.449  68.929  1.00  0.00     0.236 A  
HETATM    5  C   UNL     1      -7.688  12.566  68.283  1.00  0.00    -0.141 A  
HETATM    6  C   UNL     1      -6.752  15.016  69.319  1.00  0.00    -0.141 A  
HETATM    7  C   UNL     1      -6.361  12.945  68.080  1.00  0.00    -0.109 A  
HETATM    8  C   UNL     1      -5.909  14.164  68.582  1.00  0.00    -0.086 A  
BRANCH   5   9
HETATM    9  C   UNL     1      -8.197  11.236  67.861  1.00  0.00    -0.123 C  
HETATM   10  N   UNL     1      -8.980  10.558  68.807  1.00  0.00    -0.158 N  
HETATM   11  H   UNL     1      -9.089  10.990  69.724  1.00  0.00     0.000 HD 
HETATM   12  O   UNL     1      -7.927  10.783  66.761  1.00  0.00    -0.126 OA 
BRANCH  10  13
HETATM   13  S   UNL     1      -9.743   9.105  68.544  1.00  0.00    -0.159 S  
HETATM   14  O   UNL     1      -8.736   8.063  68.577  1.00  0.00    -0.131 OA 
HETATM   15  O   UNL     1     -10.553   9.299  67.357  1.00  0.00    -0.272 OA 
BRANCH  13  16
HETATM   16  C   UNL     1     -10.853   8.900  69.924  1.00  0.00    -0.211 A  
HETATM   17  C   UNL     1     -10.795   7.684  70.624  1.00  0.00    -0.245 A  
HETATM   18  C   UNL     1     -11.910  11.210  69.577  1.00  0.00    -0.423 C  
HETATM   19  C   UNL     1     -11.646   7.455  71.704  1.00  0.00    -0.302 A  
HETATM   20  C   UNL     1     -11.776   9.899  70.294  1.00  0.00    -0.286 A  
HETATM   21  C   UNL     1     -12.556   8.435  72.087  1.00  0.00    -0.412 A  
HETATM   22  C   UNL     1     -12.620   9.645  71.390  1.00  0.00    -0.463 A  
ENDBRANCH  13  16
ENDBRANCH  10  13
ENDBRANCH   5   9
BRANCH   6  23
HETATM   23  C   UNL     1      -6.185  16.291  69.905  1.00  0.00    -0.161 C  
BRANCH  23  24
HETATM   24  C   UNL     1      -6.340  17.427  68.925  1.00  0.00    -0.202 A  
HETATM   25  N   UNL     1      -6.291  19.510  68.103  1.00  0.00    -0.227 NA 
HETATM   26  C   UNL     1      -7.237  18.848  67.351  1.00  0.00    -0.213 A  
HETATM   27  C   UNL     1      -7.279  17.542  67.841  1.00  0.00    -0.194 A  
HETATM   28  C   UNL     1      -5.684  18.646  68.978  1.00  0.00    -0.213 A  
HETATM   29  C   UNL     1      -6.053  20.935  68.053  1.00  0.00    -0.342 C  
HETATM   30  C   UNL     1      -8.201  16.656  67.252  1.00  0.00    -0.197 A  
HETATM   31  C   UNL     1      -8.993  17.029  66.160  1.00  0.00    -0.208 A  
HETATM   32  C   UNL     1      -8.948  18.351  65.721  1.00  0.00     0.449 A  
HETATM   33  C   UNL     1      -8.083  19.285  66.316  1.00  0.00    -0.322 A  
BRANCH  31  34
HETATM   34  N   UNL     1      -9.819  16.108  65.474  1.00  0.00    -0.238 N  
HETATM   35  H   UNL     1      -9.580  15.120  65.555  1.00  0.00     0.000 HD 
HETATM   36  C   UNL     1     -10.912  16.426  64.710  1.00  0.00    -0.231 C  
HETATM   37  O   UNL     1     -11.330  17.544  64.459  1.00  0.00    -0.850 OA 
BRANCH  36  38
HETATM   38  O   UNL     1     -11.523  15.296  64.245  1.00  0.00    -0.275 OA 
BRANCH  38  39
HETATM   39  C   UNL     1     -11.157  14.132  64.992  1.00  0.00    -0.370 C  
HETATM   40  C   UNL     1     -12.369  13.508  65.679  1.00  0.00    -0.522 C  
HETATM   41  C   UNL     1     -11.896  12.100  65.979  1.00  0.00    -0.328 C  
HETATM   42  C   UNL     1     -11.091  11.707  64.744  1.00  0.00    -0.328 C  
HETATM   43  C   UNL     1     -10.630  13.016  64.095  1.00  0.00    -0.421 C  
ENDBRANCH  38  39
ENDBRANCH  36  38
ENDBRANCH  31  34
ENDBRANCH  23  24
ENDBRANCH   6  23
ENDBRANCH   2   3
TORSDOF 9
ENDMDL
MODEL      111
REMARK 921   NORMALIZED FREE ENERGY PREDICTED BY IDOCK:   -4.95 KCAL/MOL
REMARK 922        TOTAL FREE ENERGY PREDICTED BY IDOCK:   -9.32 KCAL/MOL
REMARK 923 INTER-LIGAND FREE ENERGY PREDICTED BY IDOCK:   -8.44 KCAL/MOL
REMARK 924 INTRA-LIGAND FREE ENERGY PREDICTED BY IDOCK:   -0.88 KCAL/MOL
REMARK 927      BINDING AFFINITY PREDICTED BY RF-SCORE:    0.00 PKD
ROOT
HETATM    1  C   UNL     1     -12.105  10.286  69.817  1.00  0.00    -0.056 C  
HETATM    2  O   UNL     1     -10.684  10.268  69.838  1.00  0.00    -0.262 OA 
ENDROOT
BRANCH   2   3
HETATM    3  C   UNL     1     -10.023  11.200  69.082  1.00  0.00    -0.082 A  
HETATM    4  C   UNL     1     -10.568  12.431  68.690  1.00  0.00    -0.243 A  
HETATM    5  C   UNL     1      -9.810  13.351  67.948  1.00  0.00    -0.237 A  
HETATM    6  C   UNL     1      -8.698  10.879  68.726  1.00  0.00    -0.158 A  
HETATM    7  C   UNL     1      -8.472  13.072  67.669  1.00  0.00    -0.187 A  
HETATM    8  C   UNL     1      -7.924  11.854  68.070  1.00  0.00    -0.147 A  
BRANCH   5   9
HETATM    9  C   UNL     1     -10.472  14.586  67.456  1.00  0.00    -0.253 C  
HETATM   10  N   UNL     1      -9.635  15.697  67.285  1.00  0.00    -0.216 N  
HETATM   11  H   UNL     1      -8.660  15.600  67.567  1.00  0.00     0.000 HD 
HETATM   12  O   UNL     1     -11.671  14.605  67.232  1.00  0.00    -0.381 OA 
BRANCH  10  13
HETATM   13  S   UNL     1     -10.112  17.160  66.657  1.00  0.00    -0.315 S  
HETATM   14  O   UNL     1     -10.904  17.837  67.664  1.00  0.00    -0.363 OA 
HETATM   15  O   UNL     1     -10.684  16.860  65.359  1.00  0.00    -0.524 OA 
BRANCH  13  16
HETATM   16  C   UNL     1      -8.604  18.069  66.381  1.00  0.00    -0.228 A  
HETATM   17  C   UNL     1      -7.421  17.328  66.233  1.00  0.00    -0.354 A  
HETATM   18  C   UNL     1      -9.799  20.335  66.512  1.00  0.00    -0.531 C  
HETATM   19  C   UNL     1      -6.205  17.979  66.030  1.00  0.00    -0.277 A  
HETATM   20  C   UNL     1      -8.579  19.478  66.337  1.00  0.00    -0.384 A  
HETATM   21  C   UNL     1      -6.166  19.369  65.974  1.00  0.00    -0.204 A  
HETATM   22  C   UNL     1      -7.341  20.111  66.126  1.00  0.00    -0.312 A  
ENDBRANCH  13  16
ENDBRANCH  10  13
ENDBRANCH   5   9
BRANCH   6  23
HETATM   23  C   UNL     1      -8.070   9.545  69.068  1.00  0.00    -0.101 C  
BRANCH  23  24
HETATM   24  C   UNL     1      -8.108   8.630  67.869  1.00  0.00    -0.108 A  
HETATM   25  N   UNL     1      -8.175   7.979  65.727  1.00  0.00    -0.124 NA 
HETATM   26  C   UNL     1      -8.698   6.923  66.441  1.00  0.00    -0.142 A  
HETATM   27  C   UNL     1      -8.658   7.303  67.783  1.00  0.00    -0.120 A  
HETATM   28  C   UNL     1      -7.732   8.960  66.577  1.00  0.00    -0.099 A  
HETATM   29  C   UNL     1      -8.193   8.086  64.285  1.00  0.00    -0.067 C  
HETATM   30  C   UNL     1      -9.171   6.397  68.730  1.00  0.00    -0.127 A  
HETATM   31  C   UNL     1      -9.629   5.125  68.367  1.00  0.00    -0.139 A  
HETATM   32  C   UNL     1      -9.685   4.795  67.014  1.00  0.00    -0.205 A  
HETATM   33  C   UNL     1      -9.236   5.690  66.029  1.00  0.00    -0.164 A  
BRANCH  31  34
HETATM   34  N   UNL     1     -10.015   4.157  69.325  1.00  0.00    -0.060 N  
HETATM   35  H   UNL     1     -11.014   4.001  69.450  1.00  0.00     0.000 HD 
HETATM   36  C   UNL     1      -9.165   3.411  70.099  1.00  0.00    -0.155 C  
HETATM   37  O   UNL     1      -7.947   3.481  70.126  1.00  0.00    -0.047 OA 
BRANCH  36  38
HETATM   38  O   UNL     1      -9.862   2.525  70.868  1.00  0.00    -0.107 OA 
BRANCH  38  39
HETATM   39  C   UNL     1      -9.629   2.716  72.266  1.00  0.00    -0.121 C  
HETATM   40  C   UNL     1     -10.441   3.887  72.812  1.00  0.00    -0.231 C  
HETATM   41  C   UNL     1     -10.447   3.626  74.305  1.00  0.00    -0.266 C  
HETATM   42  C   UNL     1     -10.609   2.114  74.417  1.00  0.00    -0.188 C  
HETATM   43  C   UNL     1     -10.101   1.525  73.096  1.00  0.00    -0.158 C  
ENDBRANCH  38  39
ENDBRANCH  36  38
ENDBRANCH  31  34
ENDBRANCH  23  24
ENDBRANCH   6  23
ENDBRANCH   2   3
TORSDOF 9
ENDMDL
MODEL      112
REMARK 921   NORMALIZED FREE ENERGY PREDICTED BY IDOCK:   -4.93 KCAL/MOL
REMARK 922        TOTAL FREE ENERGY PREDICTED BY IDOCK:   -9.29 KCAL/MOL
REMARK 923 INTER-LIGAND FREE ENERGY PREDICTED BY IDOCK:   -8.60 KCAL/MOL
REMARK 924 INTRA-LIGAND FREE ENERGY PREDICTED BY IDOCK:   -0.69 KCAL/MOL
REMARK 927      BINDING AFFINITY PREDICTED BY RF-SCORE:    0.00 PKD
ROOT
HETATM    1  C   UNL     1     -13.884   8.285  72.482  1.00  0.00    -0.053 C  
HETATM    2  O   UNL     1     -12.526   8.197  72.894  1.00  0.00    -0.139 OA 
ENDROOT
BRANCH   2   3
HETATM    3  C   UNL     1     -11.570   8.696  72.048  1.00  0.00    -0.370 A  
HETATM    4  C   UNL     1     -11.837   9.550  70.969  1.00  0.00    -0.408 A  
HETATM    5  C   UNL     1     -10.794  10.052  70.174  1.00  0.00    -0.365 A  
HETATM    6  C   UNL     1     -10.240   8.333  72.339  1.00  0.00    -0.397 A  
HETATM    7  C   UNL     1      -9.472   9.764  70.511  1.00  0.00    -0.140 A  
HETATM    8  C   UNL     1      -9.205   8.925  71.592  1.00  0.00    -0.302 A  
BRANCH   5   9
HETATM    9  C   UNL     1     -11.140  10.854  68.972  1.00  0.00    -0.246 C  
HETATM   10  N   UNL     1     -10.639  12.163  68.951  1.00  0.00    -0.359 N  
HETATM   11  H   UNL     1     -10.137  12.489  69.777  1.00  0.00     0.000 HD 
HETATM   12  O   UNL     1     -11.825  10.380  68.080  1.00  0.00    -0.338 OA 
BRANCH  10  13
HETATM   13  S   UNL     1     -10.803  13.224  67.682  1.00  0.00    -0.264 S  
HETATM   14  O   UNL     1      -9.825  14.279  67.858  1.00  0.00    -0.218 OA 
HETATM   15  O   UNL     1     -12.216  13.543  67.620  1.00  0.00    -0.312 OA 
BRANCH  13  16
HETATM   16  C   UNL     1     -10.401  12.281  66.224  1.00  0.00    -0.232 A  
HETATM   17  C   UNL     1     -11.385  12.181  65.228  1.00  0.00    -0.386 A  
HETATM   18  C   UNL     1      -8.069  11.678  67.107  1.00  0.00    -0.166 C  
HETATM   19  C   UNL     1     -11.138  11.446  64.070  1.00  0.00    -0.400 A  
HETATM   20  C   UNL     1      -9.157  11.635  66.074  1.00  0.00    -0.188 A  
HETATM   21  C   UNL     1      -9.913  10.809  63.903  1.00  0.00    -0.404 A  
HETATM   22  C   UNL     1      -8.932  10.903  64.894  1.00  0.00    -0.167 A  
ENDBRANCH  13  16
ENDBRANCH  10  13
ENDBRANCH   5   9
BRANCH   6  23
HETATM   23  C   UNL     1      -9.889   7.371  73.453  1.00  0.00    -0.345 C  
BRANCH  23  24
HETATM   24  C   UNL     1     -10.210   5.956  73.039  1.00  0.00    -0.211 A  
HETATM   25  N   UNL     1     -10.824   3.809  73.206  1.00  0.00    -0.198 NA 
HETATM   26  C   UNL     1     -10.053   3.876  72.066  1.00  0.00    -0.149 A  
HETATM   27  C   UNL     1      -9.665   5.210  71.936  1.00  0.00    -0.211 A  
HETATM   28  C   UNL     1     -11.003   5.060  73.738  1.00  0.00    -0.269 A  
HETATM   29  C   UNL     1     -11.285   2.581  73.815  1.00  0.00    -0.197 C  
HETATM   30  C   UNL     1      -8.834   5.542  70.850  1.00  0.00    -0.148 A  
HETATM   31  C   UNL     1      -8.469   4.601  69.881  1.00  0.00    -0.073 A  
HETATM   32  C   UNL     1      -8.847   3.271  70.062  1.00  0.00    -0.149 A  
HETATM   33  C   UNL     1      -9.631   2.883  71.162  1.00  0.00    -0.226 A  
BRANCH  31  34
HETATM   34  N   UNL     1      -7.751   4.954  68.714  1.00  0.00    -0.076 N  
HETATM   35  H   UNL     1      -6.734   4.906  68.762  1.00  0.00     0.000 HD 
HETATM   36  C   UNL     1      -8.301   5.355  67.524  1.00  0.00    -0.103 C  
HETATM   37  O   UNL     1      -9.486   5.516  67.282  1.00  0.00    -0.113 OA 
BRANCH  36  38
HETATM   38  O   UNL     1      -7.331   5.556  66.585  1.00  0.00    -0.080 OA 
BRANCH  38  39
HETATM   39  C   UNL     1      -6.807   4.328  66.072  1.00  0.00    -0.057 C  
HETATM   40  C   UNL     1      -5.443   4.008  66.678  1.00  0.00    -0.013 C  
HETATM   41  C   UNL     1      -5.298   2.523  66.413  1.00  0.00    -0.012 C  
HETATM   42  C   UNL     1      -6.695   1.963  66.657  1.00  0.00    -0.038 C  
HETATM   43  C   UNL     1      -7.669   3.130  66.458  1.00  0.00    -0.077 C  
ENDBRANCH  38  39
ENDBRANCH  36  38
ENDBRANCH  31  34
ENDBRANCH  23  24
ENDBRANCH   6  23
ENDBRANCH   2   3
TORSDOF 9
ENDMDL
MODEL      113
REMARK 921   NORMALIZED FREE ENERGY PREDICTED BY IDOCK:   -4.90 KCAL/MOL
REMARK 922        TOTAL FREE ENERGY PREDICTED BY IDOCK:   -9.24 KCAL/MOL
REMARK 923 INTER-LIGAND FREE ENERGY PREDICTED BY IDOCK:   -8.60 KCAL/MOL
REMARK 924 INTRA-LIGAND FREE ENERGY PREDICTED BY IDOCK:   -0.64 KCAL/MOL
REMARK 927      BINDING AFFINITY PREDICTED BY RF-SCORE:    0.00 PKD
ROOT
HETATM    1  C   UNL     1      -9.818   8.362  68.615  1.00  0.00    -0.170 C  
HETATM    2  O   UNL     1      -8.608   8.551  67.894  1.00  0.00    -0.132 OA 
ENDROOT
BRANCH   2   3
HETATM    3  C   UNL     1      -8.674   9.229  66.704  1.00  0.00    -0.127 A  
HETATM    4  C   UNL     1      -9.604  10.241  66.422  1.00  0.00    -0.233 A  
HETATM    5  C   UNL     1      -9.579  10.916  65.191  1.00  0.00    -0.291 A  
HETATM    6  C   UNL     1      -7.704   8.884  65.743  1.00  0.00    -0.094 A  
HETATM    7  C   UNL     1      -8.567  10.637  64.273  1.00  0.00    -0.104 A  
HETATM    8  C   UNL     1      -7.635   9.640  64.558  1.00  0.00    -0.127 A  
BRANCH   5   9
HETATM    9  C   UNL     1     -10.659  11.893  64.895  1.00  0.00    -0.287 C  
HETATM   10  N   UNL     1     -10.676  13.041  65.699  1.00  0.00    -0.272 N  
HETATM   11  H   UNL     1      -9.998  13.094  66.460  1.00  0.00     0.000 HD 
HETATM   12  O   UNL     1     -11.470  11.679  64.010  1.00  0.00    -0.364 OA 
BRANCH  10  13
HETATM   13  S   UNL     1     -11.717  14.322  65.507  1.00  0.00    -0.363 S  
HETATM   14  O   UNL     1     -12.998  13.941  66.067  1.00  0.00    -0.378 OA 
HETATM   15  O   UNL     1     -11.616  14.702  64.111  1.00  0.00    -0.248 OA 
BRANCH  13  16
HETATM   16  C   UNL     1     -11.019  15.646  66.475  1.00  0.00    -0.206 A  
HETATM   17  C   UNL     1     -10.398  16.696  65.780  1.00  0.00    -0.338 A  
HETATM   18  C   UNL     1     -11.685  14.543  68.692  1.00  0.00    -0.364 C  
HETATM   19  C   UNL     1      -9.819  17.754  66.479  1.00  0.00    -0.331 A  
HETATM   20  C   UNL     1     -11.060  15.642  67.884  1.00  0.00    -0.324 A  
HETATM   21  C   UNL     1      -9.859  17.769  67.869  1.00  0.00    -0.306 A  
HETATM   22  C   UNL     1     -10.473  16.724  68.565  1.00  0.00    -0.335 A  
ENDBRANCH  13  16
ENDBRANCH  10  13
ENDBRANCH   5   9
BRANCH   6  23
HETATM   23  C   UNL     1      -6.710   7.764  65.963  1.00  0.00    -0.049 C  
BRANCH  23  24
HETATM   24  C   UNL     1      -7.293   6.452  65.499  1.00  0.00    -0.076 A  
HETATM   25  N   UNL     1      -8.214   4.930  64.139  1.00  0.00    -0.115 NA 
HETATM   26  C   UNL     1      -8.567   4.537  65.412  1.00  0.00    -0.126 A  
HETATM   27  C   UNL     1      -7.995   5.468  66.279  1.00  0.00    -0.105 A  
HETATM   28  C   UNL     1      -7.376   6.014  64.187  1.00  0.00    -0.069 A  
HETATM   29  C   UNL     1      -8.743   4.351  62.924  1.00  0.00    -0.114 C  
HETATM   30  C   UNL     1      -8.234   5.306  67.657  1.00  0.00    -0.099 A  
HETATM   31  C   UNL     1      -8.944   4.210  68.161  1.00  0.00    -0.118 A  
HETATM   32  C   UNL     1      -9.530   3.320  67.263  1.00  0.00    -0.189 A  
HETATM   33  C   UNL     1      -9.364   3.474  65.876  1.00  0.00    -0.159 A  
BRANCH  31  34
HETATM   34  N   UNL     1      -9.071   3.964  69.549  1.00  0.00    -0.115 N  
HETATM   35  H   UNL     1      -8.421   3.297  69.964  1.00  0.00     0.000 HD 
HETATM   36  C   UNL     1      -9.990   4.542  70.385  1.00  0.00    -0.213 C  
HETATM   37  O   UNL     1     -10.872   5.325  70.076  1.00  0.00    -0.245 OA 
BRANCH  36  38
HETATM   38  O   UNL     1      -9.795   4.135  71.675  1.00  0.00    -0.170 OA 
BRANCH  38  39
HETATM   39  C   UNL     1      -9.601   5.233  72.569  1.00  0.00    -0.149 C  
HETATM   40  C   UNL     1      -8.977   6.430  71.855  1.00  0.00    -0.138 C  
HETATM   41  C   UNL     1      -9.299   7.582  72.785  1.00  0.00    -0.217 C  
HETATM   42  C   UNL     1     -10.717   7.288  73.264  1.00  0.00    -0.428 C  
HETATM   43  C   UNL     1     -10.921   5.777  73.108  1.00  0.00    -0.309 C  
ENDBRANCH  38  39
ENDBRANCH  36  38
ENDBRANCH  31  34
ENDBRANCH  23  24
ENDBRANCH   6  23
ENDBRANCH   2   3
TORSDOF 9
ENDMDL
MODEL      114
REMARK 921   NORMALIZED FREE ENERGY PREDICTED BY IDOCK:   -4.86 KCAL/MOL
REMARK 922        TOTAL FREE ENERGY PREDICTED BY IDOCK:   -9.18 KCAL/MOL
REMARK 923 INTER-LIGAND FREE ENERGY PREDICTED BY IDOCK:   -8.26 KCAL/MOL
REMARK 924 INTRA-LIGAND FREE ENERGY PREDICTED BY IDOCK:   -0.92 KCAL/MOL
REMARK 927      BINDING AFFINITY PREDICTED BY RF-SCORE:    0.00 PKD
ROOT
HETATM    1  C   UNL     1     -12.585  13.111  63.664  1.00  0.00    -0.157 C  
HETATM    2  O   UNL     1     -12.719  12.715  65.022  1.00  0.00    -0.658 OA 
ENDROOT
BRANCH   2   3
HETATM    3  C   UNL     1     -11.708  13.048  65.886  1.00  0.00    -0.394 A  
HETATM    4  C   UNL     1     -11.298  14.362  66.154  1.00  0.00    -0.350 A  
HETATM    5  C   UNL     1     -10.279  14.622  67.085  1.00  0.00    -0.256 A  
HETATM    6  C   UNL     1     -11.092  11.974  66.557  1.00  0.00    -0.362 A  
HETATM    7  C   UNL     1      -9.728  13.567  67.813  1.00  0.00    -0.226 A  
HETATM    8  C   UNL     1     -10.144  12.262  67.557  1.00  0.00    -0.206 A  
BRANCH   5   9
HETATM    9  C   UNL     1      -9.799  16.019  67.242  1.00  0.00    -0.236 C  
HETATM   10  N   UNL     1      -8.718  16.384  66.429  1.00  0.00    -0.291 N  
HETATM   11  H   UNL     1      -8.302  15.659  65.843  1.00  0.00     0.000 HD 
HETATM   12  O   UNL     1     -10.325  16.774  68.042  1.00  0.00    -0.288 OA 
BRANCH  10  13
HETATM   13  S   UNL     1      -8.062  17.909  66.346  1.00  0.00    -0.242 S  
HETATM   14  O   UNL     1      -9.154  18.862  66.344  1.00  0.00    -0.317 OA 
HETATM   15  O   UNL     1      -7.125  17.871  65.240  1.00  0.00    -0.346 OA 
BRANCH  13  16
HETATM   16  C   UNL     1      -7.115  18.097  67.844  1.00  0.00    -0.218 A  
HETATM   17  C   UNL     1      -7.244  19.309  68.542  1.00  0.00    -0.349 A  
HETATM   18  C   UNL     1      -6.042  15.780  67.605  1.00  0.00    -0.179 C  
HETATM   19  C   UNL     1      -6.520  19.524  69.713  1.00  0.00    -0.328 A  
HETATM   20  C   UNL     1      -6.248  17.088  68.311  1.00  0.00    -0.135 A  
HETATM   21  C   UNL     1      -5.667  18.535  70.191  1.00  0.00    -0.229 A  
HETATM   22  C   UNL     1      -5.533  17.329  69.498  1.00  0.00    -0.188 A  
ENDBRANCH  13  16
ENDBRANCH  10  13
ENDBRANCH   5   9
BRANCH   6  23
HETATM   23  C   UNL     1     -11.449  10.531  66.272  1.00  0.00     0.878 C  
BRANCH  23  24
HETATM   24  C   UNL     1     -10.206   9.745  65.930  1.00  0.00    -0.245 A  
HETATM   25  N   UNL     1      -8.432   9.026  64.768  1.00  0.00    -0.173 NA 
HETATM   26  C   UNL     1      -8.744   7.993  65.626  1.00  0.00    -0.125 A  
HETATM   27  C   UNL     1      -9.845   8.423  66.368  1.00  0.00    -0.310 A  
HETATM   28  C   UNL     1      -9.237  10.110  65.010  1.00  0.00    -0.217 A  
HETATM   29  C   UNL     1      -7.469   8.939  63.693  1.00  0.00    -0.105 C  
HETATM   30  C   UNL     1     -10.384   7.526  67.309  1.00  0.00    -0.366 A  
HETATM   31  C   UNL     1      -9.800   6.280  67.564  1.00  0.00    -0.120 A  
HETATM   32  C   UNL     1      -8.723   5.871  66.779  1.00  0.00    -0.117 A  
HETATM   33  C   UNL     1      -8.187   6.712  65.788  1.00  0.00    -0.135 A  
BRANCH  31  34
HETATM   34  N   UNL     1     -10.250   5.431  68.603  1.00  0.00    -0.184 N  
HETATM   35  H   UNL     1     -10.945   4.726  68.359  1.00  0.00     0.000 HD 
HETATM   36  C   UNL     1      -9.835   5.472  69.908  1.00  0.00    -0.194 C  
HETATM   37  O   UNL     1      -9.049   6.264  70.403  1.00  0.00    -0.152 OA 
BRANCH  36  38
HETATM   38  O   UNL     1     -10.417   4.472  70.634  1.00  0.00    -0.069 OA 
BRANCH  38  39
HETATM   39  C   UNL     1      -9.477   3.782  71.461  1.00  0.00    -0.151 C  
HETATM   40  C   UNL     1     -10.152   3.185  72.694  1.00  0.00    -0.230 C  
HETATM   41  C   UNL     1      -9.157   2.137  73.148  1.00  0.00    -0.083 C  
HETATM   42  C   UNL     1      -8.646   1.522  71.849  1.00  0.00    -0.066 C  
HETATM   43  C   UNL     1      -8.870   2.572  70.756  1.00  0.00    -0.137 C  
ENDBRANCH  38  39
ENDBRANCH  36  38
ENDBRANCH  31  34
ENDBRANCH  23  24
ENDBRANCH   6  23
ENDBRANCH   2   3
TORSDOF 9
ENDMDL
MODEL      115
REMARK 921   NORMALIZED FREE ENERGY PREDICTED BY IDOCK:   -4.77 KCAL/MOL
REMARK 922        TOTAL FREE ENERGY PREDICTED BY IDOCK:   -9.05 KCAL/MOL
REMARK 923 INTER-LIGAND FREE ENERGY PREDICTED BY IDOCK:   -8.78 KCAL/MOL
REMARK 924 INTRA-LIGAND FREE ENERGY PREDICTED BY IDOCK:   -0.26 KCAL/MOL
REMARK 927      BINDING AFFINITY PREDICTED BY RF-SCORE:    0.00 PKD
ROOT
HETATM    1  C   UNL     1     -11.334  11.818  63.219  1.00  0.00    -0.253 C  
HETATM    2  O   UNL     1     -11.519  11.725  64.625  1.00  0.00    -0.304 OA 
ENDROOT
BRANCH   2   3
HETATM    3  C   UNL     1     -10.416  11.873  65.424  1.00  0.00    -0.270 A  
HETATM    4  C   UNL     1      -9.520  10.840  65.734  1.00  0.00    -0.244 A  
HETATM    5  C   UNL     1      -8.389  11.084  66.529  1.00  0.00    -0.163 A  
HETATM    6  C   UNL     1     -10.181  13.172  65.917  1.00  0.00    -0.294 A  
HETATM    7  C   UNL     1      -8.108  12.385  66.946  1.00  0.00    -0.064 A  
HETATM    8  C   UNL     1      -8.992  13.416  66.627  1.00  0.00    -0.135 A  
BRANCH   5   9
HETATM    9  C   UNL     1      -7.539   9.932  66.928  1.00  0.00    -0.095 C  
HETATM   10  N   UNL     1      -8.228   8.789  67.355  1.00  0.00    -0.109 N  
HETATM   11  H   UNL     1      -9.244   8.848  67.422  1.00  0.00     0.000 HD 
HETATM   12  O   UNL     1      -6.322  10.009  66.885  1.00  0.00    -0.063 OA 
BRANCH  10  13
HETATM   13  S   UNL     1      -7.514   7.343  67.759  1.00  0.00    -0.103 S  
HETATM   14  O   UNL     1      -7.812   7.075  69.151  1.00  0.00    -0.110 OA 
HETATM   15  O   UNL     1      -6.138   7.450  67.315  1.00  0.00    -0.043 OA 
BRANCH  13  16
HETATM   16  C   UNL     1      -8.314   6.121  66.737  1.00  0.00    -0.110 A  
HETATM   17  C   UNL     1      -9.351   5.373  67.316  1.00  0.00    -0.118 A  
HETATM   18  C   UNL     1      -6.799   6.627  64.730  1.00  0.00    -0.050 C  
HETATM   19  C   UNL     1     -10.007   4.392  66.575  1.00  0.00    -0.245 A  
HETATM   20  C   UNL     1      -7.915   5.885  65.406  1.00  0.00    -0.120 A  
HETATM   21  C   UNL     1      -9.631   4.153  65.258  1.00  0.00    -0.186 A  
HETATM   22  C   UNL     1      -8.596   4.892  64.678  1.00  0.00    -0.149 A  
ENDBRANCH  13  16
ENDBRANCH  10  13
ENDBRANCH   5   9
BRANCH   6  23
HETATM   23  C   UNL     1     -11.139  14.317  65.667  1.00  0.00    -0.316 C  
BRANCH  23  24
HETATM   24  C   UNL     1     -11.083  15.302  66.809  1.00  0.00    -0.278 A  
HETATM   25  N   UNL     1     -10.544  17.139  67.970  1.00  0.00    -0.363 NA 
HETATM   26  C   UNL     1     -10.842  16.187  68.920  1.00  0.00    -0.305 A  
HETATM   27  C   UNL     1     -11.190  15.032  68.218  1.00  0.00    -0.309 A  
HETATM   28  C   UNL     1     -10.777  16.650  66.711  1.00  0.00    -0.133 A  
HETATM   29  C   UNL     1      -9.961  18.431  68.257  1.00  0.00    -0.369 C  
HETATM   30  C   UNL     1     -11.515  13.887  68.969  1.00  0.00    -0.341 A  
HETATM   31  C   UNL     1     -11.575  13.911  70.368  1.00  0.00    -0.108 A  
HETATM   32  C   UNL     1     -11.187  15.072  71.035  1.00  0.00    -0.268 A  
HETATM   33  C   UNL     1     -10.801  16.222  70.327  1.00  0.00    -0.257 A  
BRANCH  31  34
HETATM   34  N   UNL     1     -12.034  12.808  71.125  1.00  0.00    -0.186 N  
HETATM   35  H   UNL     1     -11.497  11.944  71.060  1.00  0.00     0.000 HD 
HETATM   36  C   UNL     1     -13.137  12.797  71.939  1.00  0.00    -0.371 C  
HETATM   37  O   UNL     1     -13.926  13.711  72.116  1.00  0.00    -0.492 OA 
BRANCH  36  38
HETATM   38  O   UNL     1     -13.259  11.595  72.575  1.00  0.00    -0.136 OA 
BRANCH  38  39
HETATM   39  C   UNL     1     -13.218  10.492  71.665  1.00  0.00    -0.391 C  
HETATM   40  C   UNL     1     -11.991   9.616  71.906  1.00  0.00    -0.330 C  
HETATM   41  C   UNL     1     -12.370   8.313  71.231  1.00  0.00    -0.285 C  
HETATM   42  C   UNL     1     -13.848   8.137  71.566  1.00  0.00    -0.389 C  
HETATM   43  C   UNL     1     -14.393   9.538  71.866  1.00  0.00     0.070 C  
ENDBRANCH  38  39
ENDBRANCH  36  38
ENDBRANCH  31  34
ENDBRANCH  23  24
ENDBRANCH   6  23
ENDBRANCH   2   3
TORSDOF 9
ENDMDL
MODEL      116
REMARK 921   NORMALIZED FREE ENERGY PREDICTED BY IDOCK:   -4.75 KCAL/MOL
REMARK 922        TOTAL FREE ENERGY PREDICTED BY IDOCK:   -9.01 KCAL/MOL
REMARK 923 INTER-LIGAND FREE ENERGY PREDICTED BY IDOCK:   -8.66 KCAL/MOL
REMARK 924 INTRA-LIGAND FREE ENERGY PREDICTED BY IDOCK:   -0.35 KCAL/MOL
REMARK 927      BINDING AFFINITY PREDICTED BY RF-SCORE:    0.00 PKD
ROOT
HETATM    1  C   UNL     1      -6.073   7.609  66.076  1.00  0.00    -0.038 C  
HETATM    2  O   UNL     1      -7.328   7.851  66.699  1.00  0.00    -0.085 OA 
ENDROOT
BRANCH   2   3
HETATM    3  C   UNL     1      -7.329   8.543  67.882  1.00  0.00    -0.093 A  
HETATM    4  C   UNL     1      -7.599   7.969  69.133  1.00  0.00    -0.097 A  
HETATM    5  C   UNL     1      -7.540   8.740  70.305  1.00  0.00    -0.073 A  
HETATM    6  C   UNL     1      -6.995   9.909  67.798  1.00  0.00    -0.085 A  
HETATM    7  C   UNL     1      -7.126  10.070  70.234  1.00  0.00    -0.156 A  
HETATM    8  C   UNL     1      -6.845  10.638  68.992  1.00  0.00    -0.071 A  
BRANCH   5   9
HETATM    9  C   UNL     1      -7.953   8.115  71.588  1.00  0.00    -0.121 C  
HETATM   10  N   UNL     1      -7.194   7.009  71.996  1.00  0.00    -0.080 N  
HETATM   11  H   UNL     1      -6.466   6.677  71.363  1.00  0.00     0.000 HD 
HETATM   12  O   UNL     1      -8.900   8.552  72.220  1.00  0.00    -0.210 OA 
BRANCH  10  13
HETATM   13  S   UNL     1      -7.391   6.198  73.433  1.00  0.00    -0.088 S  
HETATM   14  O   UNL     1      -7.794   7.164  74.436  1.00  0.00    -0.118 OA 
HETATM   15  O   UNL     1      -6.179   5.422  73.613  1.00  0.00    -0.053 OA 
BRANCH  13  16
HETATM   16  C   UNL     1      -8.725   5.051  73.148  1.00  0.00    -0.112 A  
HETATM   17  C   UNL     1      -9.727   4.968  74.128  1.00  0.00    -0.157 A  
HETATM   18  C   UNL     1      -7.726   4.251  70.925  1.00  0.00    -0.059 C  
HETATM   19  C   UNL     1     -10.790   4.080  73.972  1.00  0.00    -0.284 A  
HETATM   20  C   UNL     1      -8.774   4.233  72.000  1.00  0.00    -0.122 A  
HETATM   21  C   UNL     1     -10.856   3.273  72.841  1.00  0.00    -0.123 A  
HETATM   22  C   UNL     1      -9.859   3.349  71.864  1.00  0.00    -0.238 A  
ENDBRANCH  13  16
ENDBRANCH  10  13
ENDBRANCH   5   9
BRANCH   6  23
HETATM   23  C   UNL     1      -6.748  10.601  66.475  1.00  0.00    -0.116 C  
BRANCH  23  24
HETATM   24  C   UNL     1      -8.042  10.737  65.710  1.00  0.00    -0.135 A  
HETATM   25  N   UNL     1      -9.438  11.006  63.979  1.00  0.00    -0.238 NA 
HETATM   26  C   UNL     1     -10.148  11.425  65.083  1.00  0.00    -0.271 A  
HETATM   27  C   UNL     1      -9.299  11.258  66.178  1.00  0.00    -0.230 A  
HETATM   28  C   UNL     1      -8.218  10.505  64.355  1.00  0.00    -0.068 A  
HETATM   29  C   UNL     1      -9.872  11.176  62.610  1.00  0.00    -0.125 C  
HETATM   30  C   UNL     1      -9.783  11.646  67.441  1.00  0.00    -0.186 A  
HETATM   31  C   UNL     1     -11.093  12.104  67.624  1.00  0.00    -0.268 A  
HETATM   32  C   UNL     1     -11.900  12.290  66.502  1.00  0.00    -0.378 A  
HETATM   33  C   UNL     1     -11.439  11.969  65.214  1.00  0.00    -0.358 A  
BRANCH  31  34
HETATM   34  N   UNL     1     -11.633  12.363  68.905  1.00  0.00    -0.293 N  
HETATM   35  H   UNL     1     -11.790  11.561  69.515  1.00  0.00     0.000 HD 
HETATM   36  C   UNL     1     -11.964  13.598  69.401  1.00  0.00    -0.342 C  
HETATM   37  O   UNL     1     -11.891  14.666  68.816  1.00  0.00    -0.315 OA 
BRANCH  36  38
HETATM   38  O   UNL     1     -12.396  13.501  70.693  1.00  0.00    -0.345 OA 
BRANCH  38  39
HETATM   39  C   UNL     1     -12.639  14.781  71.283  1.00  0.00    -0.334 C  
HETATM   40  C   UNL     1     -13.693  14.696  72.384  1.00  0.00    -0.575 C  
HETATM   41  C   UNL     1     -13.456  15.967  73.175  1.00  0.00    -0.650 C  
HETATM   42  C   UNL     1     -11.938  16.108  73.205  1.00  0.00    -0.544 C  
HETATM   43  C   UNL     1     -11.407  15.328  71.998  1.00  0.00    -0.431 C  
ENDBRANCH  38  39
ENDBRANCH  36  38
ENDBRANCH  31  34
ENDBRANCH  23  24
ENDBRANCH   6  23
ENDBRANCH   2   3
TORSDOF 9
ENDMDL
MODEL      117
REMARK 921   NORMALIZED FREE ENERGY PREDICTED BY IDOCK:   -4.66 KCAL/MOL
REMARK 922        TOTAL FREE ENERGY PREDICTED BY IDOCK:   -8.87 KCAL/MOL
REMARK 923 INTER-LIGAND FREE ENERGY PREDICTED BY IDOCK:   -8.56 KCAL/MOL
REMARK 924 INTRA-LIGAND FREE ENERGY PREDICTED BY IDOCK:   -0.31 KCAL/MOL
REMARK 927      BINDING AFFINITY PREDICTED BY RF-SCORE:    0.00 PKD
ROOT
HETATM    1  C   UNL     1     -10.379   7.908  67.437  1.00  0.00    -0.279 C  
HETATM    2  O   UNL     1     -10.501   7.892  68.853  1.00  0.00    -0.214 OA 
ENDROOT
BRANCH   2   3
HETATM    3  C   UNL     1     -11.036   8.999  69.458  1.00  0.00    -0.106 A  
HETATM    4  C   UNL     1     -11.091  10.272  68.872  1.00  0.00    -0.278 A  
HETATM    5  C   UNL     1     -11.694  11.348  69.544  1.00  0.00    -0.417 A  
HETATM    6  C   UNL     1     -11.591   8.795  70.737  1.00  0.00    -0.288 A  
HETATM    7  C   UNL     1     -12.319  11.129  70.771  1.00  0.00    -0.504 A  
HETATM    8  C   UNL     1     -12.277   9.860  71.349  1.00  0.00    -0.499 A  
BRANCH   5   9
HETATM    9  C   UNL     1     -11.618  12.700  68.933  1.00  0.00    -0.317 C  
HETATM   10  N   UNL     1     -10.907  12.781  67.727  1.00  0.00    -0.220 N  
HETATM   11  H   UNL     1     -10.446  11.935  67.393  1.00  0.00     0.000 HD 
HETATM   12  O   UNL     1     -12.141  13.660  69.473  1.00  0.00    -0.318 OA 
BRANCH  10  13
HETATM   13  S   UNL     1     -10.761  14.154  66.800  1.00  0.00    -0.288 S  
HETATM   14  O   UNL     1     -12.044  14.826  66.798  1.00  0.00    -0.291 OA 
HETATM   15  O   UNL     1     -10.162  13.720  65.553  1.00  0.00    -0.302 OA 
BRANCH  13  16
HETATM   16  C   UNL     1      -9.563  15.167  67.646  1.00  0.00    -0.206 A  
HETATM   17  C   UNL     1      -8.804  14.562  68.660  1.00  0.00    -0.180 A  
HETATM   18  C   UNL     1     -10.182  17.252  66.285  1.00  0.00    -0.347 C  
HETATM   19  C   UNL     1      -7.861  15.303  69.369  1.00  0.00    -0.227 A  
HETATM   20  C   UNL     1      -9.390  16.532  67.338  1.00  0.00    -0.223 A  
HETATM   21  C   UNL     1      -7.673  16.649  69.071  1.00  0.00    -0.221 A  
HETATM   22  C   UNL     1      -8.429  17.257  68.065  1.00  0.00    -0.229 A  
ENDBRANCH  13  16
ENDBRANCH  10  13
ENDBRANCH   5   9
BRANCH   6  23
HETATM   23  C   UNL     1     -11.514   7.461  71.448  1.00  0.00    -0.290 C  
BRANCH  23  24
HETATM   24  C   UNL     1     -10.183   7.318  72.144  1.00  0.00    -0.216 A  
HETATM   25  N   UNL     1      -8.475   7.774  73.519  1.00  0.00    -0.182 NA 
HETATM   26  C   UNL     1      -7.932   7.007  72.511  1.00  0.00    -0.097 A  
HETATM   27  C   UNL     1      -8.982   6.703  71.645  1.00  0.00    -0.141 A  
HETATM   28  C   UNL     1      -9.832   7.884  73.359  1.00  0.00    -0.230 A  
HETATM   29  C   UNL     1      -7.707   8.459  74.535  1.00  0.00    -0.219 C  
HETATM   30  C   UNL     1      -8.681   5.941  70.500  1.00  0.00    -0.140 A  
HETATM   31  C   UNL     1      -7.400   5.428  70.268  1.00  0.00    -0.067 A  
HETATM   32  C   UNL     1      -6.369   5.782  71.137  1.00  0.00    -0.039 A  
HETATM   33  C   UNL     1      -6.612   6.587  72.262  1.00  0.00    -0.059 A  
BRANCH  31  34
HETATM   34  N   UNL     1      -7.119   4.547  69.196  1.00  0.00    -0.051 N  
HETATM   35  H   UNL     1      -6.229   4.670  68.715  1.00  0.00     0.000 HD 
HETATM   36  C   UNL     1      -7.938   3.544  68.748  1.00  0.00    -0.061 C  
HETATM   37  O   UNL     1      -9.052   3.267  69.161  1.00  0.00    -0.115 OA 
BRANCH  36  38
HETATM   38  O   UNL     1      -7.337   2.841  67.743  1.00  0.00    -0.052 OA 
BRANCH  38  39
HETATM   39  C   UNL     1      -7.752   3.280  66.447  1.00  0.00    -0.077 C  
HETATM   40  C   UNL     1      -8.768   2.320  65.833  1.00  0.00    -0.119 C  
HETATM   41  C   UNL     1      -9.422   3.165  64.758  1.00  0.00    -0.150 C  
HETATM   42  C   UNL     1      -9.557   4.542  65.400  1.00  0.00    -0.185 C  
HETATM   43  C   UNL     1      -8.495   4.612  66.502  1.00  0.00    -0.109 C  
ENDBRANCH  38  39
ENDBRANCH  36  38
ENDBRANCH  31  34
ENDBRANCH  23  24
ENDBRANCH   6  23
ENDBRANCH   2   3
TORSDOF 9
ENDMDL
MODEL      118
REMARK 921   NORMALIZED FREE ENERGY PREDICTED BY IDOCK:   -4.55 KCAL/MOL
REMARK 922        TOTAL FREE ENERGY PREDICTED BY IDOCK:   -8.71 KCAL/MOL
REMARK 923 INTER-LIGAND FREE ENERGY PREDICTED BY IDOCK:   -8.55 KCAL/MOL
REMARK 924 INTRA-LIGAND FREE ENERGY PREDICTED BY IDOCK:   -0.16 KCAL/MOL
REMARK 927      BINDING AFFINITY PREDICTED BY RF-SCORE:    0.00 PKD
ROOT
HETATM    1  C   UNL     1      -9.555  10.529  62.628  1.00  0.00    -0.249 C  
HETATM    2  O   UNL     1      -9.115   9.901  63.825  1.00  0.00    -0.236 OA 
ENDROOT
BRANCH   2   3
HETATM    3  C   UNL     1      -8.962  10.685  64.938  1.00  0.00    -0.199 A  
HETATM    4  C   UNL     1      -9.835  11.721  65.301  1.00  0.00    -0.267 A  
HETATM    5  C   UNL     1      -9.630  12.453  66.482  1.00  0.00    -0.242 A  
HETATM    6  C   UNL     1      -7.865  10.375  65.765  1.00  0.00    -0.150 A  
HETATM    7  C   UNL     1      -8.596  12.091  67.345  1.00  0.00    -0.171 A  
HETATM    8  C   UNL     1      -7.735  11.053  66.991  1.00  0.00    -0.134 A  
BRANCH   5   9
HETATM    9  C   UNL     1     -10.511  13.617  66.759  1.00  0.00    -0.270 C  
HETATM   10  N   UNL     1      -9.864  14.854  66.873  1.00  0.00    -0.235 N  
HETATM   11  H   UNL     1      -8.845  14.860  66.823  1.00  0.00     0.000 HD 
HETATM   12  O   UNL     1     -11.716  13.473  66.883  1.00  0.00    -0.343 OA 
BRANCH  10  13
HETATM   13  S   UNL     1     -10.631  16.314  67.082  1.00  0.00    -0.253 S  
HETATM   14  O   UNL     1     -11.540  16.181  68.203  1.00  0.00    -0.285 OA 
HETATM   15  O   UNL     1     -11.137  16.681  65.773  1.00  0.00    -0.038 OA 
BRANCH  13  16
HETATM   16  C   UNL     1      -9.341  17.470  67.501  1.00  0.00    -0.246 A  
HETATM   17  C   UNL     1      -9.282  18.666  66.769  1.00  0.00    -0.308 A  
HETATM   18  C   UNL     1      -8.380  15.929  69.313  1.00  0.00    -0.238 C  
HETATM   19  C   UNL     1      -8.287  19.605  67.038  1.00  0.00    -0.328 A  
HETATM   20  C   UNL     1      -8.393  17.196  68.509  1.00  0.00    -0.262 A  
HETATM   21  C   UNL     1      -7.350  19.354  68.035  1.00  0.00    -0.309 A  
HETATM   22  C   UNL     1      -7.402  18.162  68.763  1.00  0.00    -0.286 A  
ENDBRANCH  13  16
ENDBRANCH  10  13
ENDBRANCH   5   9
BRANCH   6  23
HETATM   23  C   UNL     1      -6.854   9.308  65.402  1.00  0.00    -0.074 C  
BRANCH  23  24
HETATM   24  C   UNL     1      -7.480   7.940  65.513  1.00  0.00    -0.079 A  
HETATM   25  N   UNL     1      -8.341   5.969  64.888  1.00  0.00    -0.131 NA 
HETATM   26  C   UNL     1      -8.888   6.224  66.127  1.00  0.00    -0.153 A  
HETATM   27  C   UNL     1      -8.358   7.447  66.541  1.00  0.00    -0.124 A  
HETATM   28  C   UNL     1      -7.429   6.937  64.558  1.00  0.00    -0.099 A  
HETATM   29  C   UNL     1      -8.754   4.894  64.013  1.00  0.00    -0.119 C  
HETATM   30  C   UNL     1      -8.787   7.954  67.782  1.00  0.00    -0.122 A  
HETATM   31  C   UNL     1      -9.647   7.233  68.620  1.00  0.00    -0.141 A  
HETATM   32  C   UNL     1     -10.183   6.033  68.157  1.00  0.00    -0.214 A  
HETATM   33  C   UNL     1      -9.826   5.515  66.900  1.00  0.00    -0.181 A  
BRANCH  31  34
HETATM   34  N   UNL     1      -9.973   7.669  69.926  1.00  0.00    -0.188 N  
HETATM   35  H   UNL     1     -10.917   8.026  70.074  1.00  0.00     0.000 HD 
HETATM   36  C   UNL     1      -9.133   7.656  71.009  1.00  0.00    -0.147 C  
HETATM   37  O   UNL     1      -7.964   7.310  71.025  1.00  0.00    -0.096 OA 
BRANCH  36  38
HETATM   38  O   UNL     1      -9.784   8.082  72.131  1.00  0.00    -0.184 OA 
BRANCH  38  39
HETATM   39  C   UNL     1     -10.649   7.080  72.673  1.00  0.00    -0.245 C  
HETATM   40  C   UNL     1     -10.452   5.737  71.975  1.00  0.00    -0.267 C  
HETATM   41  C   UNL     1     -11.049   4.754  72.962  1.00  0.00    -0.352 C  
HETATM   42  C   UNL     1     -10.614   5.285  74.324  1.00  0.00    -0.262 C  
HETATM   43  C   UNL     1     -10.336   6.780  74.137  1.00  0.00    -0.322 C  
ENDBRANCH  38  39
ENDBRANCH  36  38
ENDBRANCH  31  34
ENDBRANCH  23  24
ENDBRANCH   6  23
ENDBRANCH   2   3
TORSDOF 9
ENDMDL
MODEL      119
REMARK 921   NORMALIZED FREE ENERGY PREDICTED BY IDOCK:   -4.53 KCAL/MOL
REMARK 922        TOTAL FREE ENERGY PREDICTED BY IDOCK:   -8.67 KCAL/MOL
REMARK 923 INTER-LIGAND FREE ENERGY PREDICTED BY IDOCK:   -9.33 KCAL/MOL
REMARK 924 INTRA-LIGAND FREE ENERGY PREDICTED BY IDOCK:    0.66 KCAL/MOL
REMARK 927      BINDING AFFINITY PREDICTED BY RF-SCORE:    0.00 PKD
ROOT
HETATM    1  C   UNL     1      -7.045  13.612  68.094  1.00  0.00    -0.118 C  
HETATM    2  O   UNL     1      -8.316  12.991  67.956  1.00  0.00    -0.149 OA 
ENDROOT
BRANCH   2   3
HETATM    3  C   UNL     1      -9.236  13.596  67.140  1.00  0.00    -0.244 A  
HETATM    4  C   UNL     1      -9.269  14.972  66.870  1.00  0.00    -0.265 A  
HETATM    5  C   UNL     1     -10.221  15.510  65.989  1.00  0.00    -0.349 A  
HETATM    6  C   UNL     1     -10.170  12.741  66.522  1.00  0.00    -0.261 A  
HETATM    7  C   UNL     1     -11.090  14.655  65.310  1.00  0.00    -0.363 A  
HETATM    8  C   UNL     1     -11.049  13.286  65.568  1.00  0.00    -0.299 A  
BRANCH   5   9
HETATM    9  C   UNL     1     -10.290  16.985  65.832  1.00  0.00    -0.298 C  
HETATM   10  N   UNL     1      -9.523  17.729  66.739  1.00  0.00    -0.276 N  
HETATM   11  H   UNL     1      -9.030  17.216  67.471  1.00  0.00     0.000 HD 
HETATM   12  O   UNL     1     -10.986  17.490  64.967  1.00  0.00    -0.754 OA 
BRANCH  10  13
HETATM   13  S   UNL     1      -9.354  19.382  66.712  1.00  0.00    -0.353 S  
HETATM   14  O   UNL     1     -10.493  19.955  67.401  1.00  0.00    -0.421 OA 
HETATM   15  O   UNL     1      -9.092  19.725  65.328  1.00  0.00     0.057 OA 
BRANCH  13  16
HETATM   16  C   UNL     1      -7.870  19.720  67.639  1.00  0.00    -0.291 A  
HETATM   17  C   UNL     1      -7.846  19.326  68.986  1.00  0.00    -0.314 A  
HETATM   18  C   UNL     1      -6.730  20.851  65.639  1.00  0.00    -0.092 C  
HETATM   19  C   UNL     1      -6.721  19.574  69.770  1.00  0.00    -0.265 A  
HETATM   20  C   UNL     1      -6.765  20.379  67.064  1.00  0.00    -0.302 A  
HETATM   21  C   UNL     1      -5.619  20.216  69.215  1.00  0.00    -0.293 A  
HETATM   22  C   UNL     1      -5.640  20.614  67.875  1.00  0.00    -0.287 A  
ENDBRANCH  13  16
ENDBRANCH  10  13
ENDBRANCH   5   9
BRANCH   6  23
HETATM   23  C   UNL     1     -10.224  11.257  66.814  1.00  0.00    -0.263 C  
BRANCH  23  24
HETATM   24  C   UNL     1     -10.852  11.015  68.164  1.00  0.00    -0.274 A  
HETATM   25  N   UNL     1     -11.984  11.418  70.054  1.00  0.00    -0.338 NA 
HETATM   26  C   UNL     1     -11.140  10.372  70.356  1.00  0.00    -0.296 A  
HETATM   27  C   UNL     1     -10.428  10.097  69.188  1.00  0.00    -0.242 A  
HETATM   28  C   UNL     1     -11.888  11.744  68.726  1.00  0.00    -0.320 A  
HETATM   29  C   UNL     1     -12.774  12.142  71.025  1.00  0.00    -0.228 C  
HETATM   30  C   UNL     1      -9.464   9.073  69.240  1.00  0.00    -0.157 A  
HETATM   31  C   UNL     1      -9.273   8.292  70.386  1.00  0.00    -0.151 A  
HETATM   32  C   UNL     1      -9.978   8.619  71.544  1.00  0.00    -0.344 A  
HETATM   33  C   UNL     1     -10.910   9.670  71.554  1.00  0.00    -0.205 A  
BRANCH  31  34
HETATM   34  N   UNL     1      -8.408   7.173  70.405  1.00  0.00    -0.127 N  
HETATM   35  H   UNL     1      -8.642   6.416  71.046  1.00  0.00     0.000 HD 
HETATM   36  C   UNL     1      -7.283   7.016  69.638  1.00  0.00    -0.080 C  
HETATM   37  O   UNL     1      -6.816   7.820  68.849  1.00  0.00    -0.055 OA 
BRANCH  36  38
HETATM   38  O   UNL     1      -6.716   5.793  69.854  1.00  0.00    -0.047 OA 
BRANCH  38  39
HETATM   39  C   UNL     1      -6.894   5.339  71.199  1.00  0.00    -0.045 C  
HETATM   40  C   UNL     1      -8.252   4.666  71.385  1.00  0.00    -0.102 C  
HETATM   41  C   UNL     1      -8.057   3.860  72.652  1.00  0.00    -0.089 C  
HETATM   42  C   UNL     1      -6.640   3.311  72.529  1.00  0.00    -0.018 C  
HETATM   43  C   UNL     1      -5.893   4.251  71.577  1.00  0.00    -0.016 C  
ENDBRANCH  38  39
ENDBRANCH  36  38
ENDBRANCH  31  34
ENDBRANCH  23  24
ENDBRANCH   6  23
ENDBRANCH   2   3
TORSDOF 9
ENDMDL
MODEL      120
REMARK 921   NORMALIZED FREE ENERGY PREDICTED BY IDOCK:   -4.53 KCAL/MOL
REMARK 922        TOTAL FREE ENERGY PREDICTED BY IDOCK:   -8.67 KCAL/MOL
REMARK 923 INTER-LIGAND FREE ENERGY PREDICTED BY IDOCK:   -8.38 KCAL/MOL
REMARK 924 INTRA-LIGAND FREE ENERGY PREDICTED BY IDOCK:   -0.29 KCAL/MOL
REMARK 927      BINDING AFFINITY PREDICTED BY RF-SCORE:    0.00 PKD
ROOT
HETATM    1  C   UNL     1     -13.922  15.586  73.020  1.00  0.00    -0.191 C  
HETATM    2  O   UNL     1     -12.602  15.081  72.877  1.00  0.00    -0.355 OA 
ENDROOT
BRANCH   2   3
HETATM    3  C   UNL     1     -12.350  14.244  71.822  1.00  0.00    -0.281 A  
HETATM    4  C   UNL     1     -12.727  12.895  71.775  1.00  0.00    -0.250 A  
HETATM    5  C   UNL     1     -12.467  12.114  70.637  1.00  0.00    -0.330 A  
HETATM    6  C   UNL     1     -11.700  14.826  70.715  1.00  0.00    -0.355 A  
HETATM    7  C   UNL     1     -11.903  12.709  69.509  1.00  0.00    -0.376 A  
HETATM    8  C   UNL     1     -11.539  14.054  69.549  1.00  0.00    -0.350 A  
BRANCH   5   9
HETATM    9  C   UNL     1     -12.778  10.662  70.685  1.00  0.00    -0.359 C  
HETATM   10  N   UNL     1     -11.951   9.892  71.515  1.00  0.00    -0.396 N  
HETATM   11  H   UNL     1     -11.169  10.364  71.970  1.00  0.00     0.000 HD 
HETATM   12  O   UNL     1     -13.692  10.196  70.026  1.00  0.00     0.330 OA 
BRANCH  10  13
HETATM   13  S   UNL     1     -12.151   8.269  71.816  1.00  0.00    -0.340 S  
HETATM   14  O   UNL     1     -13.501   7.910  71.432  1.00  0.00    -0.312 OA 
HETATM   15  O   UNL     1     -11.701   8.067  73.179  1.00  0.00    -0.268 OA 
BRANCH  13  16
HETATM   16  C   UNL     1     -10.992   7.445  70.741  1.00  0.00    -0.255 A  
HETATM   17  C   UNL     1     -10.664   8.083  69.534  1.00  0.00    -0.185 A  
HETATM   18  C   UNL     1     -10.760   5.440  72.323  1.00  0.00    -0.287 C  
HETATM   19  C   UNL     1      -9.776   7.485  68.642  1.00  0.00    -0.154 A  
HETATM   20  C   UNL     1     -10.437   6.191  71.064  1.00  0.00    -0.281 A  
HETATM   21  C   UNL     1      -9.213   6.250  68.951  1.00  0.00    -0.123 A  
HETATM   22  C   UNL     1      -9.539   5.610  70.150  1.00  0.00    -0.215 A  
ENDBRANCH  13  16
ENDBRANCH  10  13
ENDBRANCH   5   9
BRANCH   6  23
HETATM   23  C   UNL     1     -11.217  16.260  70.724  1.00  0.00    -0.293 C  
BRANCH  23  24
HETATM   24  C   UNL     1     -10.481  16.569  69.443  1.00  0.00    -0.320 A  
HETATM   25  N   UNL     1     -10.081  17.391  67.399  1.00  0.00    -0.310 NA 
HETATM   26  C   UNL     1      -9.227  16.316  67.528  1.00  0.00    -0.205 A  
HETATM   27  C   UNL     1      -9.453  15.792  68.801  1.00  0.00    -0.219 A  
HETATM   28  C   UNL     1     -10.761  17.606  68.569  1.00  0.00    -0.190 A  
HETATM   29  C   UNL     1     -10.308  18.115  66.168  1.00  0.00    -0.385 C  
HETATM   30  C   UNL     1      -8.716  14.653  69.175  1.00  0.00    -0.029 A  
HETATM   31  C   UNL     1      -7.729  14.105  68.348  1.00  0.00    -0.140 A  
HETATM   32  C   UNL     1      -7.556  14.634  67.070  1.00  0.00     0.070 A  
HETATM   33  C   UNL     1      -8.310  15.737  66.633  1.00  0.00    -0.319 A  
BRANCH  31  34
HETATM   34  N   UNL     1      -6.887  13.048  68.770  1.00  0.00    -0.098 N  
HETATM   35  H   UNL     1      -6.025  13.304  69.249  1.00  0.00     0.000 HD 
HETATM   36  C   UNL     1      -7.129  11.711  68.591  1.00  0.00    -0.099 C  
HETATM   37  O   UNL     1      -8.076  11.209  68.008  1.00  0.00    -0.114 OA 
BRANCH  36  38
HETATM   38  O   UNL     1      -6.150  10.960  69.176  1.00  0.00    -0.041 OA 
BRANCH  38  39
HETATM   39  C   UNL     1      -6.477  10.588  70.518  1.00  0.00    -0.067 C  
HETATM   40  C   UNL     1      -7.524   9.477  70.549  1.00  0.00    -0.159 C  
HETATM   41  C   UNL     1      -7.372   8.911  71.946  1.00  0.00     0.020 C  
HETATM   42  C   UNL     1      -5.866   8.921  72.189  1.00  0.00    -0.076 C  
HETATM   43  C   UNL     1      -5.284   9.987  71.255  1.00  0.00    -0.074 C  
ENDBRANCH  38  39
ENDBRANCH  36  38
ENDBRANCH  31  34
ENDBRANCH  23  24
ENDBRANCH   6  23
ENDBRANCH   2   3
TORSDOF 9
ENDMDL
MODEL      121
REMARK 921   NORMALIZED FREE ENERGY PREDICTED BY IDOCK:   -4.52 KCAL/MOL
REMARK 922        TOTAL FREE ENERGY PREDICTED BY IDOCK:   -8.65 KCAL/MOL
REMARK 923 INTER-LIGAND FREE ENERGY PREDICTED BY IDOCK:   -9.02 KCAL/MOL
REMARK 924 INTRA-LIGAND FREE ENERGY PREDICTED BY IDOCK:    0.37 KCAL/MOL
REMARK 927      BINDING AFFINITY PREDICTED BY RF-SCORE:    0.00 PKD
ROOT
HETATM    1  C   UNL     1      -5.263   9.975  67.668  1.00  0.00    -0.034 C  
HETATM    2  O   UNL     1      -6.439  10.754  67.844  1.00  0.00    -0.061 OA 
ENDROOT
BRANCH   2   3
HETATM    3  C   UNL     1      -7.580  10.107  68.241  1.00  0.00    -0.087 A  
HETATM    4  C   UNL     1      -7.774   9.559  69.517  1.00  0.00    -0.100 A  
HETATM    5  C   UNL     1      -8.991   8.947  69.859  1.00  0.00    -0.160 A  
HETATM    6  C   UNL     1      -8.615  10.043  67.288  1.00  0.00    -0.125 A  
HETATM    7  C   UNL     1     -10.047   8.958  68.947  1.00  0.00    -0.209 A  
HETATM    8  C   UNL     1      -9.858   9.515  67.683  1.00  0.00    -0.206 A  
BRANCH   5   9
HETATM    9  C   UNL     1      -9.102   8.275  71.179  1.00  0.00    -0.162 C  
HETATM   10  N   UNL     1      -8.850   6.897  71.182  1.00  0.00    -0.142 N  
HETATM   11  H   UNL     1      -8.675   6.447  70.283  1.00  0.00     0.000 HD 
HETATM   12  O   UNL     1      -9.405   8.907  72.178  1.00  0.00    -0.348 OA 
BRANCH  10  13
HETATM   13  S   UNL     1      -8.815   5.938  72.541  1.00  0.00    -0.132 S  
HETATM   14  O   UNL     1      -9.871   6.387  73.426  1.00  0.00    -0.161 OA 
HETATM   15  O   UNL     1      -7.436   5.945  72.988  1.00  0.00    -0.093 OA 
BRANCH  13  16
HETATM   16  C   UNL     1      -9.185   4.292  71.966  1.00  0.00    -0.124 A  
HETATM   17  C   UNL     1      -9.687   3.377  72.904  1.00  0.00    -0.185 A  
HETATM   18  C   UNL     1      -8.407   4.818  69.579  1.00  0.00    -0.086 C  
HETATM   19  C   UNL     1      -9.983   2.070  72.522  1.00  0.00    -0.205 A  
HETATM   20  C   UNL     1      -8.964   3.901  70.629  1.00  0.00    -0.155 A  
HETATM   21  C   UNL     1      -9.778   1.672  71.205  1.00  0.00    -0.204 A  
HETATM   22  C   UNL     1      -9.275   2.578  70.268  1.00  0.00    -0.199 A  
ENDBRANCH  13  16
ENDBRANCH  10  13
ENDBRANCH   5   9
BRANCH   6  23
HETATM   23  C   UNL     1      -8.449  10.564  65.877  1.00  0.00    -0.164 C  
BRANCH  23  24
HETATM   24  C   UNL     1      -9.687  11.315  65.451  1.00  0.00    -0.271 A  
HETATM   25  N   UNL     1     -11.458  11.912  64.217  1.00  0.00    -0.355 NA 
HETATM   26  C   UNL     1     -11.138  13.032  64.954  1.00  0.00    -0.301 A  
HETATM   27  C   UNL     1     -10.040  12.680  65.739  1.00  0.00    -0.284 A  
HETATM   28  C   UNL     1     -10.660  10.857  64.577  1.00  0.00    -0.265 A  
HETATM   29  C   UNL     1     -12.421  11.886  63.139  1.00  0.00    -0.237 C  
HETATM   30  C   UNL     1      -9.494  13.672  66.575  1.00  0.00    -0.270 A  
HETATM   31  C   UNL     1     -10.070  14.942  66.691  1.00  0.00    -0.258 A  
HETATM   32  C   UNL     1     -11.145  15.269  65.865  1.00  0.00    -0.287 A  
HETATM   33  C   UNL     1     -11.687  14.327  64.974  1.00  0.00    -0.383 A  
BRANCH  31  34
HETATM   34  N   UNL     1      -9.613  15.899  67.629  1.00  0.00    -0.220 N  
HETATM   35  H   UNL     1     -10.228  16.108  68.415  1.00  0.00     0.000 HD 
HETATM   36  C   UNL     1      -8.419  16.569  67.574  1.00  0.00    -0.176 C  
HETATM   37  O   UNL     1      -7.574  16.490  66.698  1.00  0.00    -0.230 OA 
BRANCH  36  38
HETATM   38  O   UNL     1      -8.262  17.369  68.670  1.00  0.00    -0.267 OA 
BRANCH  38  39
HETATM   39  C   UNL     1      -8.273  18.759  68.335  1.00  0.00    -0.341 C  
HETATM   40  C   UNL     1      -8.106  18.972  66.832  1.00  0.00    -0.277 C  
HETATM   41  C   UNL     1      -8.619  20.384  66.634  1.00  0.00    -0.236 C  
HETATM   42  C   UNL     1      -9.824  20.476  67.564  1.00  0.00    -0.534 C  
HETATM   43  C   UNL     1      -9.614  19.416  68.650  1.00  0.00    -0.490 C  
ENDBRANCH  38  39
ENDBRANCH  36  38
ENDBRANCH  31  34
ENDBRANCH  23  24
ENDBRANCH   6  23
ENDBRANCH   2   3
TORSDOF 9
ENDMDL
MODEL      122
REMARK 921   NORMALIZED FREE ENERGY PREDICTED BY IDOCK:   -4.46 KCAL/MOL
REMARK 922        TOTAL FREE ENERGY PREDICTED BY IDOCK:   -8.57 KCAL/MOL
REMARK 923 INTER-LIGAND FREE ENERGY PREDICTED BY IDOCK:   -8.89 KCAL/MOL
REMARK 924 INTRA-LIGAND FREE ENERGY PREDICTED BY IDOCK:    0.31 KCAL/MOL
REMARK 927      BINDING AFFINITY PREDICTED BY RF-SCORE:    0.00 PKD
ROOT
HETATM    1  C   UNL     1     -10.618   9.504  69.319  1.00  0.00    -0.220 C  
HETATM    2  O   UNL     1      -9.340   9.692  68.725  1.00  0.00    -0.143 OA 
ENDROOT
BRANCH   2   3
HETATM    3  C   UNL     1      -8.981   8.850  67.705  1.00  0.00    -0.135 A  
HETATM    4  C   UNL     1      -9.135   7.457  67.739  1.00  0.00    -0.129 A  
HETATM    5  C   UNL     1      -8.779   6.667  66.634  1.00  0.00    -0.126 A  
HETATM    6  C   UNL     1      -8.462   9.467  66.550  1.00  0.00    -0.130 A  
HETATM    7  C   UNL     1      -8.347   7.282  65.459  1.00  0.00    -0.137 A  
HETATM    8  C   UNL     1      -8.206   8.669  65.420  1.00  0.00    -0.137 A  
BRANCH   5   9
HETATM    9  C   UNL     1      -8.848   5.189  66.765  1.00  0.00    -0.110 C  
HETATM   10  N   UNL     1      -8.560   4.679  68.039  1.00  0.00    -0.102 N  
HETATM   11  H   UNL     1      -8.266   5.341  68.756  1.00  0.00     0.000 HD 
HETATM   12  O   UNL     1      -9.130   4.489  65.807  1.00  0.00    -0.125 OA 
BRANCH  10  13
HETATM   13  S   UNL     1      -8.663   3.076  68.467  1.00  0.00    -0.114 S  
HETATM   14  O   UNL     1      -7.370   2.469  68.224  1.00  0.00    -0.048 OA 
HETATM   15  O   UNL     1      -9.844   2.568  67.798  1.00  0.00     0.059 OA 
BRANCH  13  16
HETATM   16  C   UNL     1      -8.996   3.077  70.218  1.00  0.00    -0.098 A  
HETATM   17  C   UNL     1      -8.400   2.067  70.990  1.00  0.00    -0.072 A  
HETATM   18  C   UNL     1     -10.532   5.124  70.051  1.00  0.00    -0.305 C  
HETATM   19  C   UNL     1      -8.632   2.003  72.363  1.00  0.00    -0.069 A  
HETATM   20  C   UNL     1      -9.843   4.032  70.816  1.00  0.00    -0.233 A  
HETATM   21  C   UNL     1      -9.459   2.944  72.969  1.00  0.00    -0.130 A  
HETATM   22  C   UNL     1     -10.057   3.949  72.204  1.00  0.00    -0.225 A  
ENDBRANCH  13  16
ENDBRANCH  10  13
ENDBRANCH   5   9
BRANCH   6  23
HETATM   23  C   UNL     1      -8.218  10.959  66.471  1.00  0.00    -0.157 C  
BRANCH  23  24
HETATM   24  C   UNL     1      -9.434  11.656  65.911  1.00  0.00    -0.246 A  
HETATM   25  N   UNL     1     -11.174  12.084  64.569  1.00  0.00    -0.321 NA 
HETATM   26  C   UNL     1     -10.842  13.299  65.127  1.00  0.00    -0.310 A  
HETATM   27  C   UNL     1      -9.762  13.055  65.976  1.00  0.00    -0.223 A  
HETATM   28  C   UNL     1     -10.403  11.084  65.103  1.00  0.00    -0.283 A  
HETATM   29  C   UNL     1     -12.123  11.906  63.492  1.00  0.00    -0.470 C  
HETATM   30  C   UNL     1      -9.208  14.156  66.655  1.00  0.00    -0.272 A  
HETATM   31  C   UNL     1      -9.758  15.439  66.560  1.00  0.00    -0.272 A  
HETATM   32  C   UNL     1     -10.815  15.651  65.675  1.00  0.00    -0.336 A  
HETATM   33  C   UNL     1     -11.364  14.592  64.934  1.00  0.00    -0.394 A  
BRANCH  31  34
HETATM   34  N   UNL     1      -9.296  16.522  67.344  1.00  0.00    -0.220 N  
HETATM   35  H   UNL     1      -9.954  16.932  68.006  1.00  0.00     0.000 HD 
HETATM   36  C   UNL     1      -8.040  17.070  67.294  1.00  0.00    -0.181 C  
HETATM   37  O   UNL     1      -7.131  16.752  66.545  1.00  0.00    -0.231 OA 
BRANCH  36  38
HETATM   38  O   UNL     1      -7.904  18.056  68.229  1.00  0.00    -0.268 OA 
BRANCH  38  39
HETATM   39  C   UNL     1      -8.685  19.213  67.919  1.00  0.00    -0.305 C  
HETATM   40  C   UNL     1      -8.883  19.365  66.413  1.00  0.00    -0.385 C  
HETATM   41  C   UNL     1     -10.077  20.293  66.322  1.00  0.00    -0.460 C  
HETATM   42  C   UNL     1     -10.998  19.824  67.444  1.00  0.00    -0.325 C  
HETATM   43  C   UNL     1     -10.107  19.110  68.465  1.00  0.00    -0.499 C  
ENDBRANCH  38  39
ENDBRANCH  36  38
ENDBRANCH  31  34
ENDBRANCH  23  24
ENDBRANCH   6  23
ENDBRANCH   2   3
TORSDOF 9
ENDMDL
MODEL      123
REMARK 921   NORMALIZED FREE ENERGY PREDICTED BY IDOCK:   -4.46 KCAL/MOL
REMARK 922        TOTAL FREE ENERGY PREDICTED BY IDOCK:   -8.56 KCAL/MOL
REMARK 923 INTER-LIGAND FREE ENERGY PREDICTED BY IDOCK:   -7.92 KCAL/MOL
REMARK 924 INTRA-LIGAND FREE ENERGY PREDICTED BY IDOCK:   -0.64 KCAL/MOL
REMARK 927      BINDING AFFINITY PREDICTED BY RF-SCORE:    0.00 PKD
ROOT
HETATM    1  C   UNL     1      -9.936  11.470  63.333  1.00  0.00    -0.417 C  
HETATM    2  O   UNL     1     -10.416  12.239  64.428  1.00  0.00    -0.289 OA 
ENDROOT
BRANCH   2   3
HETATM    3  C   UNL     1     -10.620  11.593  65.619  1.00  0.00    -0.275 A  
HETATM    4  C   UNL     1     -10.234  10.270  65.878  1.00  0.00    -0.293 A  
HETATM    5  C   UNL     1     -10.442   9.694  67.141  1.00  0.00    -0.317 A  
HETATM    6  C   UNL     1     -11.225  12.355  66.638  1.00  0.00    -0.366 A  
HETATM    7  C   UNL     1     -10.961  10.473  68.175  1.00  0.00    -0.330 A  
HETATM    8  C   UNL     1     -11.333  11.792  67.923  1.00  0.00    -0.362 A  
BRANCH   5   9
HETATM    9  C   UNL     1     -10.126   8.254  67.326  1.00  0.00    -0.247 C  
HETATM   10  N   UNL     1      -8.772   7.950  67.519  1.00  0.00    -0.125 N  
HETATM   11  H   UNL     1      -8.102   8.716  67.455  1.00  0.00     0.000 HD 
HETATM   12  O   UNL     1     -11.009   7.412  67.298  1.00  0.00    -0.280 OA 
BRANCH  10  13
HETATM   13  S   UNL     1      -8.174   6.432  67.843  1.00  0.00    -0.115 S  
HETATM   14  O   UNL     1      -8.985   5.853  68.896  1.00  0.00    -0.118 OA 
HETATM   15  O   UNL     1      -6.748   6.607  68.034  1.00  0.00    -0.065 OA 
BRANCH  13  16
HETATM   16  C   UNL     1      -8.406   5.503  66.340  1.00  0.00    -0.111 A  
HETATM   17  C   UNL     1      -8.026   6.117  65.136  1.00  0.00    -0.117 A  
HETATM   18  C   UNL     1      -9.419   3.503  67.586  1.00  0.00    -0.233 C  
HETATM   19  C   UNL     1      -8.195   5.450  63.924  1.00  0.00    -0.127 A  
HETATM   20  C   UNL     1      -8.969   4.211  66.341  1.00  0.00    -0.124 A  
HETATM   21  C   UNL     1      -8.741   4.171  63.909  1.00  0.00    -0.119 A  
HETATM   22  C   UNL     1      -9.124   3.557  65.105  1.00  0.00    -0.142 A  
ENDBRANCH  13  16
ENDBRANCH  10  13
ENDBRANCH   5   9
BRANCH   6  23
HETATM   23  C   UNL     1     -11.716  13.768  66.408  1.00  0.00    -0.404 C  
BRANCH  23  24
HETATM   24  C   UNL     1     -10.602  14.754  66.664  1.00  0.00    -0.299 A  
HETATM   25  N   UNL     1      -9.378  16.623  66.512  1.00  0.00    -0.250 NA 
HETATM   26  C   UNL     1      -8.501  15.652  66.945  1.00  0.00    -0.251 A  
HETATM   27  C   UNL     1      -9.246  14.478  67.055  1.00  0.00    -0.253 A  
HETATM   28  C   UNL     1     -10.651  16.119  66.435  1.00  0.00    -0.269 A  
HETATM   29  C   UNL     1      -8.991  17.951  66.091  1.00  0.00    -0.095 C  
HETATM   30  C   UNL     1      -8.565  13.313  67.459  1.00  0.00    -0.200 A  
HETATM   31  C   UNL     1      -7.213  13.332  67.820  1.00  0.00    -0.151 A  
HETATM   32  C   UNL     1      -6.495  14.516  67.663  1.00  0.00    -0.153 A  
HETATM   33  C   UNL     1      -7.120  15.690  67.210  1.00  0.00    -0.242 A  
BRANCH  31  34
HETATM   34  N   UNL     1      -6.557  12.200  68.358  1.00  0.00    -0.055 N  
HETATM   35  H   UNL     1      -6.439  11.395  67.744  1.00  0.00     0.000 HD 
HETATM   36  C   UNL     1      -6.066  12.088  69.633  1.00  0.00    -0.129 C  
HETATM   37  O   UNL     1      -6.146  12.917  70.524  1.00  0.00    -0.131 OA 
BRANCH  36  38
HETATM   38  O   UNL     1      -5.433  10.890  69.805  1.00  0.00    -0.038 OA 
BRANCH  38  39
HETATM   39  C   UNL     1      -6.076  10.071  70.786  1.00  0.00    -0.092 C  
HETATM   40  C   UNL     1      -7.460   9.627  70.320  1.00  0.00    -0.165 C  
HETATM   41  C   UNL     1      -7.749   8.436  71.212  1.00  0.00    -0.110 C  
HETATM   42  C   UNL     1      -6.410   7.713  71.311  1.00  0.00    -0.035 C  
HETATM   43  C   UNL     1      -5.330   8.760  71.017  1.00  0.00    -0.029 C  
ENDBRANCH  38  39
ENDBRANCH  36  38
ENDBRANCH  31  34
ENDBRANCH  23  24
ENDBRANCH   6  23
ENDBRANCH   2   3
TORSDOF 9
ENDMDL
MODEL      124
REMARK 921   NORMALIZED FREE ENERGY PREDICTED BY IDOCK:   -4.44 KCAL/MOL
REMARK 922        TOTAL FREE ENERGY PREDICTED BY IDOCK:   -8.53 KCAL/MOL
REMARK 923 INTER-LIGAND FREE ENERGY PREDICTED BY IDOCK:   -7.20 KCAL/MOL
REMARK 924 INTRA-LIGAND FREE ENERGY PREDICTED BY IDOCK:   -1.33 KCAL/MOL
REMARK 927      BINDING AFFINITY PREDICTED BY RF-SCORE:    0.00 PKD
ROOT
HETATM    1  C   UNL     1     -12.520  10.519  70.820  1.00  0.00    -0.378 C  
HETATM    2  O   UNL     1     -11.906   9.395  70.204  1.00  0.00    -0.109 OA 
ENDROOT
BRANCH   2   3
HETATM    3  C   UNL     1     -10.565   9.205  70.416  1.00  0.00    -0.230 A  
HETATM    4  C   UNL     1      -9.557  10.022  69.886  1.00  0.00    -0.233 A  
HETATM    5  C   UNL     1      -8.206   9.784  70.185  1.00  0.00    -0.202 A  
HETATM    6  C   UNL     1     -10.221   8.130  71.259  1.00  0.00    -0.240 A  
HETATM    7  C   UNL     1      -7.869   8.774  71.087  1.00  0.00    -0.161 A  
HETATM    8  C   UNL     1      -8.872   7.970  71.626  1.00  0.00    -0.179 A  
BRANCH   5   9
HETATM    9  C   UNL     1      -7.171  10.602  69.502  1.00  0.00    -0.140 C  
HETATM   10  N   UNL     1      -7.605  11.840  69.008  1.00  0.00    -0.299 N  
HETATM   11  H   UNL     1      -8.598  12.060  69.094  1.00  0.00     0.000 HD 
HETATM   12  O   UNL     1      -6.028  10.193  69.384  1.00  0.00    -0.037 OA 
BRANCH  10  13
HETATM   13  S   UNL     1      -6.625  12.976  68.294  1.00  0.00    -0.109 S  
HETATM   14  O   UNL     1      -6.231  12.468  66.995  1.00  0.00    -0.227 OA 
HETATM   15  O   UNL     1      -5.618  13.302  69.285  1.00  0.00    -0.074 OA 
BRANCH  13  16
HETATM   16  C   UNL     1      -7.652  14.417  68.078  1.00  0.00    -0.137 A  
HETATM   17  C   UNL     1      -7.288  15.580  68.774  1.00  0.00    -0.141 A  
HETATM   18  C   UNL     1      -9.266  13.184  66.512  1.00  0.00    -0.185 C  
HETATM   19  C   UNL     1      -8.057  16.737  68.660  1.00  0.00    -0.251 A  
HETATM   20  C   UNL     1      -8.803  14.398  67.264  1.00  0.00    -0.225 A  
HETATM   21  C   UNL     1      -9.191  16.736  67.854  1.00  0.00    -0.225 A  
HETATM   22  C   UNL     1      -9.560  15.579  67.162  1.00  0.00    -0.228 A  
ENDBRANCH  13  16
ENDBRANCH  10  13
ENDBRANCH   5   9
BRANCH   6  23
HETATM   23  C   UNL     1     -11.256   7.177  71.818  1.00  0.00    -0.278 C  
BRANCH  23  24
HETATM   24  C   UNL     1     -10.793   5.751  71.652  1.00  0.00    -0.316 A  
HETATM   25  N   UNL     1     -10.022   3.719  72.192  1.00  0.00    -0.167 NA 
HETATM   26  C   UNL     1      -9.690   3.889  70.866  1.00  0.00    -0.183 A  
HETATM   27  C   UNL     1     -10.169   5.149  70.504  1.00  0.00    -0.330 A  
HETATM   28  C   UNL     1     -10.763   4.781  72.641  1.00  0.00    -0.199 A  
HETATM   29  C   UNL     1      -9.559   2.628  73.021  1.00  0.00    -0.096 C  
HETATM   30  C   UNL     1      -9.929   5.581  69.186  1.00  0.00    -0.256 A  
HETATM   31  C   UNL     1      -9.310   4.759  68.238  1.00  0.00    -0.135 A  
HETATM   32  C   UNL     1      -8.814   3.522  68.645  1.00  0.00    -0.159 A  
HETATM   33  C   UNL     1      -8.981   3.072  69.966  1.00  0.00    -0.170 A  
BRANCH  31  34
HETATM   34  N   UNL     1      -9.189   5.130  66.877  1.00  0.00    -0.116 N  
HETATM   35  H   UNL     1     -10.053   5.302  66.364  1.00  0.00     0.000 HD 
HETATM   36  C   UNL     1      -8.014   5.279  66.189  1.00  0.00    -0.104 C  
HETATM   37  O   UNL     1      -6.886   5.080  66.611  1.00  0.00    -0.059 OA 
BRANCH  36  38
HETATM   38  O   UNL     1      -8.250   5.709  64.914  1.00  0.00    -0.125 OA 
BRANCH  38  39
HETATM   39  C   UNL     1      -7.524   6.900  64.598  1.00  0.00    -0.098 C  
HETATM   40  C   UNL     1      -7.986   7.499  63.271  1.00  0.00    -0.093 C  
HETATM   41  C   UNL     1      -7.491   8.928  63.357  1.00  0.00    -0.105 C  
HETATM   42  C   UNL     1      -7.737   9.320  64.810  1.00  0.00    -0.111 C  
HETATM   43  C   UNL     1      -7.779   8.014  65.609  1.00  0.00    -0.094 C  
ENDBRANCH  38  39
ENDBRANCH  36  38
ENDBRANCH  31  34
ENDBRANCH  23  24
ENDBRANCH   6  23
ENDBRANCH   2   3
TORSDOF 9
ENDMDL
MODEL      125
REMARK 921   NORMALIZED FREE ENERGY PREDICTED BY IDOCK:   -4.31 KCAL/MOL
REMARK 922        TOTAL FREE ENERGY PREDICTED BY IDOCK:   -8.35 KCAL/MOL
REMARK 923 INTER-LIGAND FREE ENERGY PREDICTED BY IDOCK:   -7.80 KCAL/MOL
REMARK 924 INTRA-LIGAND FREE ENERGY PREDICTED BY IDOCK:   -0.54 KCAL/MOL
REMARK 927      BINDING AFFINITY PREDICTED BY RF-SCORE:    0.00 PKD
ROOT
HETATM    1  C   UNL     1      -9.751   7.687  68.456  1.00  0.00    -0.158 C  
HETATM    2  O   UNL     1      -8.656   7.417  67.590  1.00  0.00    -0.119 OA 
ENDROOT
BRANCH   2   3
HETATM    3  C   UNL     1      -8.601   8.096  66.401  1.00  0.00    -0.139 A  
HETATM    4  C   UNL     1      -9.418   9.189  66.077  1.00  0.00    -0.321 A  
HETATM    5  C   UNL     1      -9.271   9.857  64.850  1.00  0.00    -0.301 A  
HETATM    6  C   UNL     1      -7.621   7.662  65.487  1.00  0.00    -0.092 A  
HETATM    7  C   UNL     1      -8.246   9.484  63.982  1.00  0.00    -0.160 A  
HETATM    8  C   UNL     1      -7.425   8.406  64.310  1.00  0.00    -0.109 A  
BRANCH   5   9
HETATM    9  C   UNL     1     -10.240  10.929  64.505  1.00  0.00    -0.356 C  
HETATM   10  N   UNL     1     -10.629  11.760  65.564  1.00  0.00    -0.267 N  
HETATM   11  H   UNL     1     -10.276  11.535  66.494  1.00  0.00     0.000 HD 
HETATM   12  O   UNL     1     -10.661  11.048  63.366  1.00  0.00    -0.338 OA 
BRANCH  10  13
HETATM   13  S   UNL     1     -11.622  13.085  65.419  1.00  0.00    -0.360 S  
HETATM   14  O   UNL     1     -12.946  12.611  65.070  1.00  0.00    -0.812 OA 
HETATM   15  O   UNL     1     -10.922  14.004  64.543  1.00  0.00    -0.389 OA 
BRANCH  13  16
HETATM   16  C   UNL     1     -11.667  13.821  67.042  1.00  0.00    -0.390 A  
HETATM   17  C   UNL     1     -11.517  15.214  67.125  1.00  0.00    -0.254 A  
HETATM   18  C   UNL     1     -11.962  11.550  68.198  1.00  0.00    -0.206 C  
HETATM   19  C   UNL     1     -11.529  15.849  68.365  1.00  0.00    -0.348 A  
HETATM   20  C   UNL     1     -11.821  13.045  68.209  1.00  0.00    -0.381 A  
HETATM   21  C   UNL     1     -11.688  15.098  69.525  1.00  0.00    -0.351 A  
HETATM   22  C   UNL     1     -11.834  13.710  69.448  1.00  0.00    -0.392 A  
ENDBRANCH  13  16
ENDBRANCH  10  13
ENDBRANCH   5   9
BRANCH   6  23
HETATM   23  C   UNL     1      -6.747   6.455  65.753  1.00  0.00    -0.048 C  
BRANCH  23  24
HETATM   24  C   UNL     1      -7.535   5.185  65.544  1.00  0.00    -0.077 A  
HETATM   25  N   UNL     1      -8.978   3.738  64.629  1.00  0.00    -0.120 NA 
HETATM   26  C   UNL     1      -8.861   3.347  65.945  1.00  0.00    -0.135 A  
HETATM   27  C   UNL     1      -7.958   4.232  66.535  1.00  0.00    -0.098 A  
HETATM   28  C   UNL     1      -8.119   4.772  64.358  1.00  0.00    -0.110 A  
HETATM   29  C   UNL     1      -9.949   3.208  63.697  1.00  0.00    -0.157 C  
HETATM   30  C   UNL     1      -7.685   4.063  67.905  1.00  0.00    -0.067 A  
HETATM   31  C   UNL     1      -8.223   3.002  68.643  1.00  0.00    -0.064 A  
HETATM   32  C   UNL     1      -9.148   2.160  68.029  1.00  0.00    -0.220 A  
HETATM   33  C   UNL     1      -9.494   2.325  66.677  1.00  0.00     0.164 A  
BRANCH  31  34
HETATM   34  N   UNL     1      -7.846   2.743  69.982  1.00  0.00    -0.043 N  
HETATM   35  H   UNL     1      -6.930   2.323  70.134  1.00  0.00     0.000 HD 
HETATM   36  C   UNL     1      -8.604   3.007  71.094  1.00  0.00    -0.067 C  
HETATM   37  O   UNL     1      -9.734   3.464  71.119  1.00  0.00    -0.165 OA 
BRANCH  36  38
HETATM   38  O   UNL     1      -7.917   2.697  72.233  1.00  0.00    -0.053 OA 
BRANCH  38  39
HETATM   39  C   UNL     1      -7.300   3.843  72.826  1.00  0.00    -0.063 C  
HETATM   40  C   UNL     1      -6.069   4.283  72.037  1.00  0.00    -0.017 C  
HETATM   41  C   UNL     1      -5.868   5.712  72.498  1.00  0.00    -0.027 C  
HETATM   42  C   UNL     1      -7.283   6.272  72.603  1.00  0.00    -0.084 C  
HETATM   43  C   UNL     1      -8.211   5.067  72.794  1.00  0.00    -0.109 C  
ENDBRANCH  38  39
ENDBRANCH  36  38
ENDBRANCH  31  34
ENDBRANCH  23  24
ENDBRANCH   6  23
ENDBRANCH   2   3
TORSDOF 9
ENDMDL
MODEL      126
REMARK 921   NORMALIZED FREE ENERGY PREDICTED BY IDOCK:   -4.30 KCAL/MOL
REMARK 922        TOTAL FREE ENERGY PREDICTED BY IDOCK:   -8.32 KCAL/MOL
REMARK 923 INTER-LIGAND FREE ENERGY PREDICTED BY IDOCK:   -7.05 KCAL/MOL
REMARK 924 INTRA-LIGAND FREE ENERGY PREDICTED BY IDOCK:   -1.27 KCAL/MOL
REMARK 927      BINDING AFFINITY PREDICTED BY RF-SCORE:    0.00 PKD
ROOT
HETATM    1  C   UNL     1      -5.128   7.144  65.812  1.00  0.00    -0.024 C  
HETATM    2  O   UNL     1      -5.776   7.854  64.765  1.00  0.00    -0.043 OA 
ENDROOT
BRANCH   2   3
HETATM    3  C   UNL     1      -6.686   8.816  65.116  1.00  0.00    -0.064 A  
HETATM    4  C   UNL     1      -6.369   9.979  65.834  1.00  0.00    -0.091 A  
HETATM    5  C   UNL     1      -7.354  10.939  66.119  1.00  0.00    -0.103 A  
HETATM    6  C   UNL     1      -8.008   8.606  64.677  1.00  0.00    -0.141 A  
HETATM    7  C   UNL     1      -8.643  10.774  65.611  1.00  0.00    -0.185 A  
HETATM    8  C   UNL     1      -8.955   9.625  64.887  1.00  0.00    -0.260 A  
BRANCH   5   9
HETATM    9  C   UNL     1      -6.994  12.091  66.985  1.00  0.00    -0.095 C  
HETATM   10  N   UNL     1      -7.835  13.208  66.889  1.00  0.00    -0.392 N  
HETATM   11  H   UNL     1      -8.584  13.177  66.197  1.00  0.00     0.000 HD 
HETATM   12  O   UNL     1      -6.018  12.043  67.715  1.00  0.00    -0.059 OA 
BRANCH  10  13
HETATM   13  S   UNL     1      -7.704  14.580  67.818  1.00  0.00    -0.173 S  
HETATM   14  O   UNL     1      -7.191  15.640  66.974  1.00  0.00    -0.210 OA 
HETATM   15  O   UNL     1      -6.977  14.179  69.007  1.00  0.00    -0.104 OA 
BRANCH  13  16
HETATM   16  C   UNL     1      -9.370  14.974  68.315  1.00  0.00    -0.192 A  
HETATM   17  C   UNL     1      -9.590  15.255  69.672  1.00  0.00    -0.188 A  
HETATM   18  C   UNL     1     -10.283  14.668  65.937  1.00  0.00    -0.344 C  
HETATM   19  C   UNL     1     -10.872  15.556  70.128  1.00  0.00    -0.346 A  
HETATM   20  C   UNL     1     -10.440  14.982  67.397  1.00  0.00    -0.257 A  
HETATM   21  C   UNL     1     -11.937  15.576  69.233  1.00  0.00    -0.338 A  
HETATM   22  C   UNL     1     -11.723  15.293  67.881  1.00  0.00    -0.233 A  
ENDBRANCH  13  16
ENDBRANCH  10  13
ENDBRANCH   5   9
BRANCH   6  23
HETATM   23  C   UNL     1      -8.427   7.347  63.948  1.00  0.00     0.302 C  
BRANCH  23  24
HETATM   24  C   UNL     1      -8.508   6.190  64.913  1.00  0.00    -0.038 A  
HETATM   25  N   UNL     1      -8.575   4.079  65.657  1.00  0.00    -0.109 NA 
HETATM   26  C   UNL     1      -9.196   4.825  66.635  1.00  0.00    -0.128 A  
HETATM   27  C   UNL     1      -9.158   6.149  66.196  1.00  0.00    -0.158 A  
HETATM   28  C   UNL     1      -8.077   4.895  64.674  1.00  0.00    -0.111 A  
HETATM   29  C   UNL     1      -8.551   2.633  65.617  1.00  0.00    -0.109 C  
HETATM   30  C   UNL     1      -9.762   7.122  67.014  1.00  0.00    -0.222 A  
HETATM   31  C   UNL     1     -10.309   6.804  68.263  1.00  0.00    -0.187 A  
HETATM   32  C   UNL     1     -10.360   5.466  68.651  1.00  0.00    -0.229 A  
HETATM   33  C   UNL     1      -9.819   4.454  67.841  1.00  0.00    -0.141 A  
BRANCH  31  34
HETATM   34  N   UNL     1     -10.793   7.793  69.152  1.00  0.00    -0.410 N  
HETATM   35  H   UNL     1     -11.740   8.136  68.995  1.00  0.00     0.000 HD 
HETATM   36  C   UNL     1     -10.101   8.332  70.205  1.00  0.00    -0.192 C  
HETATM   37  O   UNL     1      -8.950   8.086  70.529  1.00  0.00    -0.148 OA 
BRANCH  36  38
HETATM   38  O   UNL     1     -10.882   9.211  70.900  1.00  0.00    -0.234 OA 
BRANCH  38  39
HETATM   39  C   UNL     1     -11.023  10.464  70.225  1.00  0.00    -0.284 C  
HETATM   40  C   UNL     1      -9.882  10.697  69.237  1.00  0.00    -0.201 C  
HETATM   41  C   UNL     1     -10.444  11.764  68.320  1.00  0.00    -0.224 C  
HETATM   42  C   UNL     1     -11.905  11.364  68.137  1.00  0.00    -0.288 C  
HETATM   43  C   UNL     1     -12.275  10.510  69.353  1.00  0.00    -0.094 C  
ENDBRANCH  38  39
ENDBRANCH  36  38
ENDBRANCH  31  34
ENDBRANCH  23  24
ENDBRANCH   6  23
ENDBRANCH   2   3
TORSDOF 9
ENDMDL
MODEL      127
REMARK 921   NORMALIZED FREE ENERGY PREDICTED BY IDOCK:   -4.29 KCAL/MOL
REMARK 922        TOTAL FREE ENERGY PREDICTED BY IDOCK:   -8.30 KCAL/MOL
REMARK 923 INTER-LIGAND FREE ENERGY PREDICTED BY IDOCK:   -8.21 KCAL/MOL
REMARK 924 INTRA-LIGAND FREE ENERGY PREDICTED BY IDOCK:   -0.09 KCAL/MOL
REMARK 927      BINDING AFFINITY PREDICTED BY RF-SCORE:    0.00 PKD
ROOT
HETATM    1  C   UNL     1     -10.943  11.776  66.406  1.00  0.00    -0.294 C  
HETATM    2  O   UNL     1     -11.918  11.463  67.391  1.00  0.00    -0.606 OA 
ENDROOT
BRANCH   2   3
HETATM    3  C   UNL     1     -11.905  12.187  68.555  1.00  0.00    -0.310 A  
HETATM    4  C   UNL     1     -11.624  13.559  68.628  1.00  0.00    -0.365 A  
HETATM    5  C   UNL     1     -11.671  14.238  69.857  1.00  0.00    -0.373 A  
HETATM    6  C   UNL     1     -12.237  11.479  69.726  1.00  0.00    -0.310 A  
HETATM    7  C   UNL     1     -12.083  13.558  71.003  1.00  0.00    -0.233 A  
HETATM    8  C   UNL     1     -12.376  12.197  70.928  1.00  0.00    -0.370 A  
BRANCH   5   9
HETATM    9  C   UNL     1     -11.247  15.661  69.899  1.00  0.00    -0.331 C  
HETATM   10  N   UNL     1     -10.613  16.140  68.743  1.00  0.00    -0.262 N  
HETATM   11  H   UNL     1     -10.433  15.472  67.994  1.00  0.00     0.000 HD 
HETATM   12  O   UNL     1     -11.443  16.343  70.891  1.00  0.00    -0.380 OA 
BRANCH  10  13
HETATM   13  S   UNL     1     -10.134  17.713  68.504  1.00  0.00    -0.392 S  
HETATM   14  O   UNL     1      -9.911  18.312  69.804  1.00  0.00     0.236 OA 
HETATM   15  O   UNL     1     -11.110  18.284  67.595  1.00  0.00    -0.230 OA 
BRANCH  13  16
HETATM   16  C   UNL     1      -8.585  17.606  67.629  1.00  0.00    -0.224 A  
HETATM   17  C   UNL     1      -7.781  16.482  67.874  1.00  0.00    -0.162 A  
HETATM   18  C   UNL     1      -8.953  19.854  66.449  1.00  0.00    -0.434 C  
HETATM   19  C   UNL     1      -6.551  16.345  67.233  1.00  0.00    -0.222 A  
HETATM   20  C   UNL     1      -8.158  18.615  66.741  1.00  0.00    -0.275 A  
HETATM   21  C   UNL     1      -6.120  17.328  66.348  1.00  0.00    -0.241 A  
HETATM   22  C   UNL     1      -6.915  18.451  66.103  1.00  0.00    -0.299 A  
ENDBRANCH  13  16
ENDBRANCH  10  13
ENDBRANCH   5   9
BRANCH   6  23
HETATM   23  C   UNL     1     -12.495   9.988  69.724  1.00  0.00     0.277 C  
BRANCH  23  24
HETATM   24  C   UNL     1     -11.337   9.258  70.358  1.00  0.00    -0.283 A  
HETATM   25  N   UNL     1      -9.756   8.730  71.854  1.00  0.00    -0.309 NA 
HETATM   26  C   UNL     1      -9.293   8.240  70.652  1.00  0.00    -0.156 A  
HETATM   27  C   UNL     1     -10.269   8.551  69.704  1.00  0.00    -0.209 A  
HETATM   28  C   UNL     1     -11.015   9.252  71.706  1.00  0.00    -0.313 A  
HETATM   29  C   UNL     1      -8.978   8.787  73.072  1.00  0.00     0.351 C  
HETATM   30  C   UNL     1     -10.020   8.178  68.370  1.00  0.00    -0.210 A  
HETATM   31  C   UNL     1      -8.882   7.449  68.004  1.00  0.00    -0.126 A  
HETATM   32  C   UNL     1      -7.914   7.188  68.972  1.00  0.00    -0.120 A  
HETATM   33  C   UNL     1      -8.094   7.590  70.306  1.00  0.00    -0.112 A  
BRANCH  31  34
HETATM   34  N   UNL     1      -8.691   6.951  66.693  1.00  0.00    -0.123 N  
HETATM   35  H   UNL     1      -7.937   7.363  66.145  1.00  0.00     0.000 HD 
HETATM   36  C   UNL     1      -9.430   5.963  66.095  1.00  0.00    -0.106 C  
HETATM   37  O   UNL     1     -10.393   5.381  66.567  1.00  0.00    -0.223 OA 
BRANCH  36  38
HETATM   38  O   UNL     1      -8.941   5.676  64.853  1.00  0.00    -0.046 OA 
BRANCH  38  39
HETATM   39  C   UNL     1      -8.003   4.597  64.874  1.00  0.00    -0.099 C  
HETATM   40  C   UNL     1      -8.351   3.577  65.955  1.00  0.00    -0.106 C  
HETATM   41  C   UNL     1      -7.590   2.344  65.511  1.00  0.00    -0.072 C  
HETATM   42  C   UNL     1      -7.747   2.336  63.994  1.00  0.00    -0.064 C  
HETATM   43  C   UNL     1      -8.033   3.784  63.582  1.00  0.00    -0.087 C  
ENDBRANCH  38  39
ENDBRANCH  36  38
ENDBRANCH  31  34
ENDBRANCH  23  24
ENDBRANCH   6  23
ENDBRANCH   2   3
TORSDOF 9
ENDMDL
MODEL      128
REMARK 921   NORMALIZED FREE ENERGY PREDICTED BY IDOCK:   -4.27 KCAL/MOL
REMARK 922        TOTAL FREE ENERGY PREDICTED BY IDOCK:   -8.27 KCAL/MOL
REMARK 923 INTER-LIGAND FREE ENERGY PREDICTED BY IDOCK:   -9.97 KCAL/MOL
REMARK 924 INTRA-LIGAND FREE ENERGY PREDICTED BY IDOCK:    1.69 KCAL/MOL
REMARK 927      BINDING AFFINITY PREDICTED BY RF-SCORE:    0.00 PKD
ROOT
HETATM    1  C   UNL     1     -12.016  12.965  63.968  1.00  0.00    -0.451 C  
HETATM    2  O   UNL     1     -11.777  11.743  64.653  1.00  0.00    -0.267 OA 
ENDROOT
BRANCH   2   3
HETATM    3  C   UNL     1     -10.812  11.735  65.626  1.00  0.00    -0.292 A  
HETATM    4  C   UNL     1     -10.493  10.620  66.413  1.00  0.00    -0.276 A  
HETATM    5  C   UNL     1      -9.459  10.682  67.363  1.00  0.00    -0.172 A  
HETATM    6  C   UNL     1     -10.089  12.933  65.787  1.00  0.00    -0.294 A  
HETATM    7  C   UNL     1      -8.687  11.839  67.464  1.00  0.00    -0.159 A  
HETATM    8  C   UNL     1      -8.994  12.943  66.671  1.00  0.00    -0.141 A  
BRANCH   5   9
HETATM    9  C   UNL     1      -9.242   9.514  68.254  1.00  0.00    -0.130 C  
HETATM   10  N   UNL     1     -10.194   8.489  68.154  1.00  0.00    -0.201 N  
HETATM   11  H   UNL     1     -10.989   8.643  67.534  1.00  0.00     0.000 HD 
HETATM   12  O   UNL     1      -8.294   9.480  69.021  1.00  0.00    -0.117 OA 
BRANCH  10  13
HETATM   13  S   UNL     1     -10.123   7.042  68.969  1.00  0.00    -0.186 S  
HETATM   14  O   UNL     1     -11.478   6.659  69.311  1.00  0.00    -0.280 OA 
HETATM   15  O   UNL     1      -9.133   7.229  70.012  1.00  0.00    -0.148 OA 
BRANCH  13  16
HETATM   16  C   UNL     1      -9.456   5.874  67.799  1.00  0.00    -0.113 A  
HETATM   17  C   UNL     1      -9.099   6.361  66.532  1.00  0.00    -0.162 A  
HETATM   18  C   UNL     1      -9.694   3.912  69.434  1.00  0.00    -0.172 C  
HETATM   19  C   UNL     1      -8.585   5.497  65.567  1.00  0.00    -0.150 A  
HETATM   20  C   UNL     1      -9.310   4.507  68.110  1.00  0.00    -0.186 A  
HETATM   21  C   UNL     1      -8.427   4.147  65.862  1.00  0.00    -0.109 A  
HETATM   22  C   UNL     1      -8.786   3.657  67.121  1.00  0.00    -0.126 A  
ENDBRANCH  13  16
ENDBRANCH  10  13
ENDBRANCH   5   9
BRANCH   6  23
HETATM   23  C   UNL     1     -10.420  14.188  65.008  1.00  0.00    -0.447 C  
BRANCH  23  24
HETATM   24  C   UNL     1     -10.520  15.369  65.943  1.00  0.00    -0.354 A  
HETATM   25  N   UNL     1     -10.040  17.341  66.890  1.00  0.00    -0.294 NA 
HETATM   26  C   UNL     1     -10.708  16.626  67.862  1.00  0.00    -0.344 A  
HETATM   27  C   UNL     1     -11.025  15.394  67.289  1.00  0.00    -0.317 A  
HETATM   28  C   UNL     1     -10.009  16.636  65.715  1.00  0.00    -0.243 A  
HETATM   29  C   UNL     1      -9.371  18.603  67.113  1.00  0.00    -0.290 C  
HETATM   30  C   UNL     1     -11.694  14.456  68.097  1.00  0.00    -0.377 A  
HETATM   31  C   UNL     1     -12.109  14.760  69.399  1.00  0.00    -0.270 A  
HETATM   32  C   UNL     1     -11.743  15.988  69.948  1.00  0.00    -0.276 A  
HETATM   33  C   UNL     1     -11.026  16.935  69.197  1.00  0.00    -0.151 A  
BRANCH  31  34
HETATM   34  N   UNL     1     -12.902  13.876  70.168  1.00  0.00    -0.258 N  
HETATM   35  H   UNL     1     -13.495  13.222  69.658  1.00  0.00     0.000 HD 
HETATM   36  C   UNL     1     -12.944  13.821  71.536  1.00  0.00    -0.363 C  
HETATM   37  O   UNL     1     -12.347  14.543  72.318  1.00  0.00    -0.310 OA 
BRANCH  36  38
HETATM   38  O   UNL     1     -13.762  12.811  71.956  1.00  0.00    -0.413 OA 
BRANCH  38  39
HETATM   39  C   UNL     1     -13.058  11.579  72.135  1.00  0.00    -0.181 C  
HETATM   40  C   UNL     1     -14.013  10.388  72.151  1.00  0.00     0.238 C  
HETATM   41  C   UNL     1     -13.095   9.218  71.859  1.00  0.00    -0.490 C  
HETATM   42  C   UNL     1     -12.129   9.756  70.808  1.00  0.00    -0.364 C  
HETATM   43  C   UNL     1     -12.118  11.279  70.970  1.00  0.00    -0.335 C  
ENDBRANCH  38  39
ENDBRANCH  36  38
ENDBRANCH  31  34
ENDBRANCH  23  24
ENDBRANCH   6  23
ENDBRANCH   2   3
TORSDOF 9
ENDMDL
MODEL      129
REMARK 921   NORMALIZED FREE ENERGY PREDICTED BY IDOCK:   -4.22 KCAL/MOL
REMARK 922        TOTAL FREE ENERGY PREDICTED BY IDOCK:   -8.20 KCAL/MOL
REMARK 923 INTER-LIGAND FREE ENERGY PREDICTED BY IDOCK:   -8.02 KCAL/MOL
REMARK 924 INTRA-LIGAND FREE ENERGY PREDICTED BY IDOCK:   -0.18 KCAL/MOL
REMARK 927      BINDING AFFINITY PREDICTED BY RF-SCORE:    0.00 PKD
ROOT
HETATM    1  C   UNL     1      -8.254  10.758  65.252  1.00  0.00    -0.052 C  
HETATM    2  O   UNL     1      -8.537  10.756  66.645  1.00  0.00    -0.135 OA 
ENDROOT
BRANCH   2   3
HETATM    3  C   UNL     1      -7.867  11.655  67.433  1.00  0.00    -0.147 A  
HETATM    4  C   UNL     1      -7.850  13.040  67.213  1.00  0.00    -0.132 A  
HETATM    5  C   UNL     1      -7.171  13.899  68.092  1.00  0.00    -0.120 A  
HETATM    6  C   UNL     1      -7.194  11.117  68.548  1.00  0.00    -0.088 A  
HETATM    7  C   UNL     1      -6.578  13.378  69.242  1.00  0.00    -0.097 A  
HETATM    8  C   UNL     1      -6.606  12.003  69.469  1.00  0.00    -0.079 A  
BRANCH   5   9
HETATM    9  C   UNL     1      -7.081  15.342  67.748  1.00  0.00    -0.160 C  
HETATM   10  N   UNL     1      -6.932  16.216  68.834  1.00  0.00    -0.149 N  
HETATM   11  H   UNL     1      -6.960  15.814  69.771  1.00  0.00     0.000 HD 
HETATM   12  O   UNL     1      -7.146  15.713  66.589  1.00  0.00    -0.144 OA 
BRANCH  10  13
HETATM   13  S   UNL     1      -6.713  17.859  68.709  1.00  0.00    -0.248 S  
HETATM   14  O   UNL     1      -5.693  18.095  67.707  1.00  0.00    -0.152 OA 
HETATM   15  O   UNL     1      -6.524  18.332  70.067  1.00  0.00    -0.071 OA 
BRANCH  13  16
HETATM   16  C   UNL     1      -8.272  18.500  68.130  1.00  0.00    -0.295 A  
HETATM   17  C   UNL     1      -9.408  17.695  68.308  1.00  0.00    -0.290 A  
HETATM   18  C   UNL     1      -7.199  20.656  67.246  1.00  0.00    -0.388 C  
HETATM   19  C   UNL     1     -10.654  18.131  67.864  1.00  0.00    -0.389 A  
HETATM   20  C   UNL     1      -8.373  19.754  67.493  1.00  0.00    -0.351 A  
HETATM   21  C   UNL     1     -10.772  19.370  67.241  1.00  0.00    -0.603 A  
HETATM   22  C   UNL     1      -9.643  20.173  67.058  1.00  0.00    -0.558 A  
ENDBRANCH  13  16
ENDBRANCH  10  13
ENDBRANCH   5   9
BRANCH   6  23
HETATM   23  C   UNL     1      -7.127   9.628  68.809  1.00  0.00    -0.067 C  
BRANCH  23  24
HETATM   24  C   UNL     1      -8.495   9.100  69.165  1.00  0.00    -0.132 A  
HETATM   25  N   UNL     1     -10.279   8.561  70.407  1.00  0.00    -0.191 NA 
HETATM   26  C   UNL     1     -10.334   7.723  69.315  1.00  0.00    -0.219 A  
HETATM   27  C   UNL     1      -9.234   8.046  68.520  1.00  0.00    -0.135 A  
HETATM   28  C   UNL     1      -9.242   9.449  70.278  1.00  0.00    -0.245 A  
HETATM   29  C   UNL     1     -11.125   8.447  71.574  1.00  0.00    -0.266 C  
HETATM   30  C   UNL     1      -9.043   7.302  67.341  1.00  0.00    -0.127 A  
HETATM   31  C   UNL     1      -9.957   6.329  66.923  1.00  0.00    -0.169 A  
HETATM   32  C   UNL     1     -11.025   6.009  67.760  1.00  0.00    -0.333 A  
HETATM   33  C   UNL     1     -11.224   6.687  68.974  1.00  0.00    -0.289 A  
BRANCH  31  34
HETATM   34  N   UNL     1      -9.849   5.674  65.673  1.00  0.00    -0.369 N  
HETATM   35  H   UNL     1     -10.012   6.236  64.838  1.00  0.00     0.000 HD 
HETATM   36  C   UNL     1      -9.543   4.352  65.484  1.00  0.00    -0.186 C  
HETATM   37  O   UNL     1      -9.356   3.512  66.349  1.00  0.00    -0.171 OA 
BRANCH  36  38
HETATM   38  O   UNL     1      -9.453   4.060  64.153  1.00  0.00    -0.149 OA 
BRANCH  38  39
HETATM   39  C   UNL     1      -8.155   4.337  63.621  1.00  0.00    -0.092 C  
HETATM   40  C   UNL     1      -8.191   5.513  62.648  1.00  0.00    -0.106 C  
HETATM   41  C   UNL     1      -6.740   5.944  62.589  1.00  0.00    -0.039 C  
HETATM   42  C   UNL     1      -6.252   5.808  64.027  1.00  0.00    -0.025 C  
HETATM   43  C   UNL     1      -7.175   4.787  64.701  1.00  0.00    -0.062 C  
ENDBRANCH  38  39
ENDBRANCH  36  38
ENDBRANCH  31  34
ENDBRANCH  23  24
ENDBRANCH   6  23
ENDBRANCH   2   3
TORSDOF 9
ENDMDL
MODEL      130
REMARK 921   NORMALIZED FREE ENERGY PREDICTED BY IDOCK:   -4.19 KCAL/MOL
REMARK 922        TOTAL FREE ENERGY PREDICTED BY IDOCK:   -8.16 KCAL/MOL
REMARK 923 INTER-LIGAND FREE ENERGY PREDICTED BY IDOCK:   -6.95 KCAL/MOL
REMARK 924 INTRA-LIGAND FREE ENERGY PREDICTED BY IDOCK:   -1.22 KCAL/MOL
REMARK 927      BINDING AFFINITY PREDICTED BY RF-SCORE:    0.00 PKD
ROOT
HETATM    1  C   UNL     1      -6.124  13.999  70.470  1.00  0.00    -0.160 C  
HETATM    2  O   UNL     1      -5.977  12.702  69.908  1.00  0.00    -0.121 OA 
ENDROOT
BRANCH   2   3
HETATM    3  C   UNL     1      -6.763  12.380  68.833  1.00  0.00    -0.098 A  
HETATM    4  C   UNL     1      -7.776  13.203  68.319  1.00  0.00    -0.141 A  
HETATM    5  C   UNL     1      -8.511  12.818  67.187  1.00  0.00    -0.181 A  
HETATM    6  C   UNL     1      -6.479  11.150  68.207  1.00  0.00    -0.057 A  
HETATM    7  C   UNL     1      -8.175  11.642  66.516  1.00  0.00    -0.101 A  
HETATM    8  C   UNL     1      -7.159  10.830  67.017  1.00  0.00    -0.104 A  
BRANCH   5   9
HETATM    9  C   UNL     1      -9.652  13.667  66.757  1.00  0.00    -0.275 C  
HETATM   10  N   UNL     1      -9.444  15.050  66.844  1.00  0.00    -0.227 N  
HETATM   11  H   UNL     1      -8.565  15.371  67.249  1.00  0.00     0.000 HD 
HETATM   12  O   UNL     1     -10.693  13.165  66.367  1.00  0.00    -0.280 OA 
BRANCH  10  13
HETATM   13  S   UNL     1     -10.524  16.208  66.335  1.00  0.00    -0.279 S  
HETATM   14  O   UNL     1     -11.756  16.021  67.074  1.00  0.00     0.301 OA 
HETATM   15  O   UNL     1     -10.523  16.133  64.887  1.00  0.00    -0.605 OA 
BRANCH  13  16
HETATM   16  C   UNL     1      -9.792  17.768  66.792  1.00  0.00    -0.320 A  
HETATM   17  C   UNL     1     -10.649  18.766  67.281  1.00  0.00    -0.504 A  
HETATM   18  C   UNL     1      -7.440  17.005  66.110  1.00  0.00    -0.255 C  
HETATM   19  C   UNL     1     -10.142  20.012  67.642  1.00  0.00    -0.562 A  
HETATM   20  C   UNL     1      -8.411  18.014  66.649  1.00  0.00    -0.283 A  
HETATM   21  C   UNL     1      -8.780  20.268  67.515  1.00  0.00    -0.401 A  
HETATM   22  C   UNL     1      -7.923  19.279  67.024  1.00  0.00    -0.277 A  
ENDBRANCH  13  16
ENDBRANCH  10  13
ENDBRANCH   5   9
BRANCH   6  23
HETATM   23  C   UNL     1      -5.439  10.191  68.744  1.00  0.00    -0.038 C  
BRANCH  23  24
HETATM   24  C   UNL     1      -6.103   9.098  69.544  1.00  0.00    -0.036 A  
HETATM   25  N   UNL     1      -6.623   7.797  71.291  1.00  0.00    -0.041 NA 
HETATM   26  C   UNL     1      -6.910   7.037  70.178  1.00  0.00    -0.060 A  
HETATM   27  C   UNL     1      -6.601   7.833  69.074  1.00  0.00    -0.048 A  
HETATM   28  C   UNL     1      -6.234   9.059  70.923  1.00  0.00    -0.053 A  
HETATM   29  C   UNL     1      -6.625   7.299  72.649  1.00  0.00    -0.059 C  
HETATM   30  C   UNL     1      -6.780   7.269  67.797  1.00  0.00    -0.065 A  
HETATM   31  C   UNL     1      -7.326   5.993  67.620  1.00  0.00    -0.077 A  
HETATM   32  C   UNL     1      -7.590   5.215  68.746  1.00  0.00    -0.078 A  
HETATM   33  C   UNL     1      -7.374   5.716  70.041  1.00  0.00    -0.069 A  
BRANCH  31  34
HETATM   34  N   UNL     1      -7.639   5.473  66.341  1.00  0.00    -0.090 N  
HETATM   35  H   UNL     1      -6.896   4.983  65.845  1.00  0.00     0.000 HD 
HETATM   36  C   UNL     1      -8.853   5.570  65.712  1.00  0.00    -0.153 C  
HETATM   37  O   UNL     1      -9.846   6.149  66.120  1.00  0.00    -0.086 OA 
BRANCH  36  38
HETATM   38  O   UNL     1      -8.835   4.904  64.520  1.00  0.00    -0.152 OA 
BRANCH  38  39
HETATM   39  C   UNL     1      -9.716   3.778  64.512  1.00  0.00    -0.182 C  
HETATM   40  C   UNL     1     -10.509   3.699  63.210  1.00  0.00    -0.237 C  
HETATM   41  C   UNL     1     -10.976   2.258  63.187  1.00  0.00    -0.245 C  
HETATM   42  C   UNL     1      -9.783   1.472  63.721  1.00  0.00    -0.129 C  
HETATM   43  C   UNL     1      -8.958   2.454  64.559  1.00  0.00    -0.117 C  
ENDBRANCH  38  39
ENDBRANCH  36  38
ENDBRANCH  31  34
ENDBRANCH  23  24
ENDBRANCH   6  23
ENDBRANCH   2   3
TORSDOF 9
ENDMDL
MODEL      131
REMARK 921   NORMALIZED FREE ENERGY PREDICTED BY IDOCK:   -4.16 KCAL/MOL
REMARK 922        TOTAL FREE ENERGY PREDICTED BY IDOCK:   -8.12 KCAL/MOL
REMARK 923 INTER-LIGAND FREE ENERGY PREDICTED BY IDOCK:   -7.88 KCAL/MOL
REMARK 924 INTRA-LIGAND FREE ENERGY PREDICTED BY IDOCK:   -0.23 KCAL/MOL
REMARK 927      BINDING AFFINITY PREDICTED BY RF-SCORE:    0.00 PKD
ROOT
HETATM    1  C   UNL     1     -12.680  16.120  73.080  1.00  0.00    -0.441 C  
HETATM    2  O   UNL     1     -11.582  15.301  72.700  1.00  0.00    -0.449 OA 
ENDROOT
BRANCH   2   3
HETATM    3  C   UNL     1     -11.659  14.650  71.497  1.00  0.00    -0.119 A  
HETATM    4  C   UNL     1     -11.933  13.282  71.355  1.00  0.00     0.467 A  
HETATM    5  C   UNL     1     -12.036  12.697  70.083  1.00  0.00    -0.375 A  
HETATM    6  C   UNL     1     -11.483  15.449  70.350  1.00  0.00    -0.355 A  
HETATM    7  C   UNL     1     -11.947  13.501  68.947  1.00  0.00    -0.378 A  
HETATM    8  C   UNL     1     -11.688  14.864  69.087  1.00  0.00    -0.338 A  
BRANCH   5   9
HETATM    9  C   UNL     1     -12.206  11.224  69.989  1.00  0.00    -0.314 C  
HETATM   10  N   UNL     1     -11.960  10.509  71.169  1.00  0.00    -0.353 N  
HETATM   11  H   UNL     1     -11.624  11.033  71.977  1.00  0.00     0.000 HD 
HETATM   12  O   UNL     1     -12.531  10.698  68.938  1.00  0.00    -0.297 OA 
BRANCH  10  13
HETATM   13  S   UNL     1     -12.174   8.870  71.351  1.00  0.00    -0.324 S  
HETATM   14  O   UNL     1     -12.272   8.287  70.028  1.00  0.00     0.533 OA 
HETATM   15  O   UNL     1     -13.262   8.721  72.297  1.00  0.00    -0.378 OA 
BRANCH  13  16
HETATM   16  C   UNL     1     -10.689   8.286  72.146  1.00  0.00    -0.319 A  
HETATM   17  C   UNL     1     -10.839   7.514  73.308  1.00  0.00    -0.409 A  
HETATM   18  C   UNL     1      -9.169   9.440  70.432  1.00  0.00    -0.305 C  
HETATM   19  C   UNL     1      -9.718   7.039  73.985  1.00  0.00    -0.332 A  
HETATM   20  C   UNL     1      -9.406   8.600  71.653  1.00  0.00    -0.333 A  
HETATM   21  C   UNL     1      -8.445   7.333  73.507  1.00  0.00    -0.170 A  
HETATM   22  C   UNL     1      -8.290   8.105  72.352  1.00  0.00    -0.227 A  
ENDBRANCH  13  16
ENDBRANCH  10  13
ENDBRANCH   5   9
BRANCH   6  23
HETATM   23  C   UNL     1     -11.129  16.918  70.435  1.00  0.00     0.336 C  
BRANCH  23  24
HETATM   24  C   UNL     1     -10.176  17.288  69.325  1.00  0.00    -0.218 A  
HETATM   25  N   UNL     1      -9.384  18.294  67.487  1.00  0.00    -0.260 NA 
HETATM   26  C   UNL     1      -8.669  17.121  67.593  1.00  0.00    -0.213 A  
HETATM   27  C   UNL     1      -9.140  16.480  68.739  1.00  0.00    -0.256 A  
HETATM   28  C   UNL     1     -10.215  18.447  68.567  1.00  0.00    -0.364 A  
HETATM   29  C   UNL     1      -9.346  19.180  66.345  1.00  0.00    -0.348 C  
HETATM   30  C   UNL     1      -8.583  15.227  69.059  1.00  0.00    -0.226 A  
HETATM   31  C   UNL     1      -7.536  14.671  68.315  1.00  0.00    -0.117 A  
HETATM   32  C   UNL     1      -7.115  15.323  67.157  1.00  0.00    -0.090 A  
HETATM   33  C   UNL     1      -7.682  16.549  66.768  1.00  0.00    -0.294 A  
BRANCH  31  34
HETATM   34  N   UNL     1      -6.876  13.482  68.708  1.00  0.00    -0.103 N  
HETATM   35  H   UNL     1      -5.961  13.581  69.145  1.00  0.00     0.000 HD 
HETATM   36  C   UNL     1      -7.358  12.208  68.551  1.00  0.00    -0.105 C  
HETATM   37  O   UNL     1      -8.405  11.881  68.017  1.00  0.00    -0.143 OA 
BRANCH  36  38
HETATM   38  O   UNL     1      -6.502  11.296  69.098  1.00  0.00    -0.065 OA 
BRANCH  38  39
HETATM   39  C   UNL     1      -6.458  10.076  68.353  1.00  0.00    -0.054 C  
HETATM   40  C   UNL     1      -5.370  10.114  67.284  1.00  0.00    -0.041 C  
HETATM   41  C   UNL     1      -5.159   8.648  66.966  1.00  0.00    -0.032 C  
HETATM   42  C   UNL     1      -5.252   7.956  68.322  1.00  0.00    -0.031 C  
HETATM   43  C   UNL     1      -6.072   8.883  69.224  1.00  0.00    -0.041 C  
ENDBRANCH  38  39
ENDBRANCH  36  38
ENDBRANCH  31  34
ENDBRANCH  23  24
ENDBRANCH   6  23
ENDBRANCH   2   3
TORSDOF 9
ENDMDL
MODEL      132
REMARK 921   NORMALIZED FREE ENERGY PREDICTED BY IDOCK:   -4.07 KCAL/MOL
REMARK 922        TOTAL FREE ENERGY PREDICTED BY IDOCK:   -7.98 KCAL/MOL
REMARK 923 INTER-LIGAND FREE ENERGY PREDICTED BY IDOCK:   -7.28 KCAL/MOL
REMARK 924 INTRA-LIGAND FREE ENERGY PREDICTED BY IDOCK:   -0.70 KCAL/MOL
REMARK 927      BINDING AFFINITY PREDICTED BY RF-SCORE:    0.00 PKD
ROOT
HETATM    1  C   UNL     1      -5.343  12.223  67.880  1.00  0.00    -0.074 C  
HETATM    2  O   UNL     1      -6.575  12.925  67.978  1.00  0.00    -0.080 OA 
ENDROOT
BRANCH   2   3
HETATM    3  C   UNL     1      -7.667  12.236  68.439  1.00  0.00    -0.141 A  
HETATM    4  C   UNL     1      -7.613  10.949  68.991  1.00  0.00    -0.135 A  
HETATM    5  C   UNL     1      -8.774  10.326  69.479  1.00  0.00    -0.155 A  
HETATM    6  C   UNL     1      -8.899  12.915  68.370  1.00  0.00    -0.120 A  
HETATM    7  C   UNL     1      -9.978  11.029  69.491  1.00  0.00     0.074 A  
HETATM    8  C   UNL     1     -10.030  12.315  68.954  1.00  0.00     0.046 A  
BRANCH   5   9
HETATM    9  C   UNL     1      -8.683   8.917  69.942  1.00  0.00    -0.139 C  
HETATM   10  N   UNL     1      -7.457   8.542  70.507  1.00  0.00    -0.057 N  
HETATM   11  H   UNL     1      -6.705   9.231  70.502  1.00  0.00     0.000 HD 
HETATM   12  O   UNL     1      -9.629   8.157  69.817  1.00  0.00    -0.170 OA 
BRANCH  10  13
HETATM   13  S   UNL     1      -7.136   7.058  71.185  1.00  0.00    -0.075 S  
HETATM   14  O   UNL     1      -6.235   7.266  72.300  1.00  0.00    -0.043 OA 
HETATM   15  O   UNL     1      -6.747   6.201  70.082  1.00  0.00    -0.046 OA 
BRANCH  13  16
HETATM   16  C   UNL     1      -8.705   6.469  71.794  1.00  0.00    -0.131 A  
HETATM   17  C   UNL     1      -9.321   5.425  71.088  1.00  0.00    -0.186 A  
HETATM   18  C   UNL     1      -8.739   8.171  73.713  1.00  0.00    -0.292 C  
HETATM   19  C   UNL     1     -10.555   4.929  71.503  1.00  0.00    -0.121 A  
HETATM   20  C   UNL     1      -9.327   7.037  72.924  1.00  0.00    -0.165 A  
HETATM   21  C   UNL     1     -11.178   5.473  72.622  1.00  0.00    -0.348 A  
HETATM   22  C   UNL     1     -10.570   6.516  73.326  1.00  0.00    -0.301 A  
ENDBRANCH  13  16
ENDBRANCH  10  13
ENDBRANCH   5   9
BRANCH   6  23
HETATM   23  C   UNL     1      -9.034  14.282  67.735  1.00  0.00    -0.188 C  
BRANCH  23  24
HETATM   24  C   UNL     1      -9.732  14.170  66.402  1.00  0.00    -0.313 A  
HETATM   25  N   UNL     1     -11.135  14.642  64.721  1.00  0.00    -0.391 NA 
HETATM   26  C   UNL     1     -10.855  13.299  64.590  1.00  0.00    -0.382 A  
HETATM   27  C   UNL     1      -9.974  12.983  65.624  1.00  0.00    -0.239 A  
HETATM   28  C   UNL     1     -10.396  15.189  65.738  1.00  0.00    -0.339 A  
HETATM   29  C   UNL     1     -12.148  15.347  63.967  1.00  0.00     0.036 C  
HETATM   30  C   UNL     1      -9.551  11.645  65.732  1.00  0.00    -0.255 A  
HETATM   31  C   UNL     1      -9.923  10.673  64.796  1.00  0.00    -0.327 A  
HETATM   32  C   UNL     1     -10.832  11.018  63.797  1.00  0.00    -0.201 A  
HETATM   33  C   UNL     1     -11.325  12.329  63.685  1.00  0.00    -0.547 A  
BRANCH  31  34
HETATM   34  N   UNL     1      -9.393   9.361  64.815  1.00  0.00    -0.431 N  
HETATM   35  H   UNL     1      -8.790   9.092  64.038  1.00  0.00     0.000 HD 
HETATM   36  C   UNL     1      -9.619   8.419  65.784  1.00  0.00     0.063 C  
HETATM   37  O   UNL     1     -10.339   8.532  66.762  1.00  0.00    -0.295 OA 
BRANCH  36  38
HETATM   38  O   UNL     1      -8.905   7.283  65.532  1.00  0.00    -0.087 OA 
BRANCH  38  39
HETATM   39  C   UNL     1      -9.126   6.270  66.517  1.00  0.00    -0.153 C  
HETATM   40  C   UNL     1      -9.941   5.110  65.951  1.00  0.00    -0.145 C  
HETATM   41  C   UNL     1      -9.654   3.989  66.928  1.00  0.00    -0.232 C  
HETATM   42  C   UNL     1      -8.173   4.150  67.254  1.00  0.00    -0.099 C  
HETATM   43  C   UNL     1      -7.825   5.615  66.971  1.00  0.00    -0.101 C  
ENDBRANCH  38  39
ENDBRANCH  36  38
ENDBRANCH  31  34
ENDBRANCH  23  24
ENDBRANCH   6  23
ENDBRANCH   2   3
TORSDOF 9
ENDMDL
MODEL      133
REMARK 921   NORMALIZED FREE ENERGY PREDICTED BY IDOCK:   -4.02 KCAL/MOL
REMARK 922        TOTAL FREE ENERGY PREDICTED BY IDOCK:   -7.89 KCAL/MOL
REMARK 923 INTER-LIGAND FREE ENERGY PREDICTED BY IDOCK:   -5.89 KCAL/MOL
REMARK 924 INTRA-LIGAND FREE ENERGY PREDICTED BY IDOCK:   -2.00 KCAL/MOL
REMARK 927      BINDING AFFINITY PREDICTED BY RF-SCORE:    0.00 PKD
ROOT
HETATM    1  C   UNL     1      -8.095   8.622  64.396  1.00  0.00    -0.156 C  
HETATM    2  O   UNL     1      -8.958   9.156  65.391  1.00  0.00    -0.187 OA 
ENDROOT
BRANCH   2   3
HETATM    3  C   UNL     1      -9.504   8.284  66.296  1.00  0.00    -0.203 A  
HETATM    4  C   UNL     1      -9.192   6.918  66.364  1.00  0.00    -0.186 A  
HETATM    5  C   UNL     1      -9.766   6.098  67.350  1.00  0.00    -0.133 A  
HETATM    6  C   UNL     1     -10.403   8.842  67.226  1.00  0.00    -0.350 A  
HETATM    7  C   UNL     1     -10.588   6.665  68.323  1.00  0.00    -0.291 A  
HETATM    8  C   UNL     1     -10.888   8.026  68.264  1.00  0.00     0.026 A  
BRANCH   5   9
HETATM    9  C   UNL     1      -9.498   4.638  67.304  1.00  0.00    -0.154 C  
HETATM   10  N   UNL     1      -8.847   4.105  68.425  1.00  0.00    -0.099 N  
HETATM   11  H   UNL     1      -8.551   4.756  69.152  1.00  0.00     0.000 HD 
HETATM   12  O   UNL     1      -9.825   3.973  66.335  1.00  0.00    -0.209 OA 
BRANCH  10  13
HETATM   13  S   UNL     1      -8.522   2.491  68.659  1.00  0.00    -0.074 S  
HETATM   14  O   UNL     1      -7.355   2.155  67.869  1.00  0.00    -0.053 OA 
HETATM   15  O   UNL     1      -9.778   1.803  68.432  1.00  0.00    -0.178 OA 
BRANCH  13  16
HETATM   16  C   UNL     1      -8.130   2.335  70.390  1.00  0.00    -0.041 A  
HETATM   17  C   UNL     1      -9.068   1.688  71.210  1.00  0.00    -0.135 A  
HETATM   18  C   UNL     1      -5.904   3.582  70.125  1.00  0.00    -0.018 C  
HETATM   19  C   UNL     1      -8.828   1.547  72.576  1.00  0.00    -0.073 A  
HETATM   20  C   UNL     1      -6.939   2.858  70.936  1.00  0.00    -0.033 A  
HETATM   21  C   UNL     1      -7.654   2.050  73.127  1.00  0.00    -0.041 A  
HETATM   22  C   UNL     1      -6.718   2.698  72.315  1.00  0.00    -0.015 A  
ENDBRANCH  13  16
ENDBRANCH  10  13
ENDBRANCH   5   9
BRANCH   6  23
HETATM   23  C   UNL     1     -10.824  10.295  67.171  1.00  0.00    -0.278 C  
BRANCH  23  24
HETATM   24  C   UNL     1      -9.720  11.176  67.702  1.00  0.00    -0.184 A  
HETATM   25  N   UNL     1      -8.207  12.825  67.782  1.00  0.00    -0.162 NA 
HETATM   26  C   UNL     1      -7.738  11.863  68.650  1.00  0.00    -0.113 A  
HETATM   27  C   UNL     1      -8.672  10.827  68.623  1.00  0.00    -0.152 A  
HETATM   28  C   UNL     1      -9.434  12.467  67.287  1.00  0.00    -0.191 A  
HETATM   29  C   UNL     1      -7.460  13.992  67.367  1.00  0.00    -0.127 C  
HETATM   30  C   UNL     1      -8.407   9.693  69.414  1.00  0.00    -0.145 A  
HETATM   31  C   UNL     1      -7.298   9.627  70.266  1.00  0.00    -0.149 A  
HETATM   32  C   UNL     1      -6.370  10.666  70.240  1.00  0.00    -0.141 A  
HETATM   33  C   UNL     1      -6.564  11.793  69.423  1.00  0.00    -0.113 A  
BRANCH  31  34
HETATM   34  N   UNL     1      -7.098   8.554  71.167  1.00  0.00    -0.065 N  
HETATM   35  H   UNL     1      -6.275   7.971  71.020  1.00  0.00     0.000 HD 
HETATM   36  C   UNL     1      -7.914   8.227  72.219  1.00  0.00    -0.139 C  
HETATM   37  O   UNL     1      -8.960   8.772  72.532  1.00  0.00    -0.386 OA 
BRANCH  36  38
HETATM   38  O   UNL     1      -7.397   7.180  72.926  1.00  0.00    -0.073 OA 
BRANCH  38  39
HETATM   39  C   UNL     1      -8.168   5.986  72.773  1.00  0.00    -0.118 C  
HETATM   40  C   UNL     1      -9.310   5.926  73.785  1.00  0.00    -0.131 C  
HETATM   41  C   UNL     1     -10.250   4.908  73.171  1.00  0.00    -0.210 C  
HETATM   42  C   UNL     1     -10.207   5.215  71.678  1.00  0.00    -0.276 C  
HETATM   43  C   UNL     1      -8.875   5.927  71.421  1.00  0.00    -0.137 C  
ENDBRANCH  38  39
ENDBRANCH  36  38
ENDBRANCH  31  34
ENDBRANCH  23  24
ENDBRANCH   6  23
ENDBRANCH   2   3
TORSDOF 9
ENDMDL
MODEL      134
REMARK 921   NORMALIZED FREE ENERGY PREDICTED BY IDOCK:   -3.97 KCAL/MOL
REMARK 922        TOTAL FREE ENERGY PREDICTED BY IDOCK:   -7.82 KCAL/MOL
REMARK 923 INTER-LIGAND FREE ENERGY PREDICTED BY IDOCK:   -6.94 KCAL/MOL
REMARK 924 INTRA-LIGAND FREE ENERGY PREDICTED BY IDOCK:   -0.88 KCAL/MOL
REMARK 927      BINDING AFFINITY PREDICTED BY RF-SCORE:    0.00 PKD
ROOT
HETATM    1  C   UNL     1     -12.794  13.011  64.740  1.00  0.00    -0.265 C  
HETATM    2  O   UNL     1     -12.145  12.407  65.851  1.00  0.00    -0.580 OA 
ENDROOT
BRANCH   2   3
HETATM    3  C   UNL     1     -10.883  12.839  66.164  1.00  0.00    -0.279 A  
HETATM    4  C   UNL     1     -10.604  13.999  66.901  1.00  0.00    -0.280 A  
HETATM    5  C   UNL     1      -9.281  14.351  67.215  1.00  0.00    -0.214 A  
HETATM    6  C   UNL     1      -9.824  12.016  65.731  1.00  0.00    -0.263 A  
HETATM    7  C   UNL     1      -8.239  13.493  66.863  1.00  0.00     0.046 A  
HETATM    8  C   UNL     1      -8.516  12.333  66.142  1.00  0.00     0.307 A  
BRANCH   5   9
HETATM    9  C   UNL     1      -9.033  15.650  67.891  1.00  0.00    -0.180 C  
HETATM   10  N   UNL     1      -8.303  16.590  67.150  1.00  0.00    -0.170 N  
HETATM   11  H   UNL     1      -7.945  16.298  66.240  1.00  0.00     0.000 HD 
HETATM   12  O   UNL     1      -9.442  15.855  69.022  1.00  0.00    -0.217 OA 
BRANCH  10  13
HETATM   13  S   UNL     1      -7.979  18.145  67.641  1.00  0.00    -0.235 S  
HETATM   14  O   UNL     1      -7.086  18.072  68.780  1.00  0.00    -0.260 OA 
HETATM   15  O   UNL     1      -9.270  18.792  67.766  1.00  0.00    -0.283 OA 
BRANCH  13  16
HETATM   16  C   UNL     1      -7.128  18.904  66.271  1.00  0.00    -0.243 A  
HETATM   17  C   UNL     1      -7.725  20.031  65.684  1.00  0.00    -0.175 A  
HETATM   18  C   UNL     1      -5.234  17.176  66.328  1.00  0.00    -0.066 C  
HETATM   19  C   UNL     1      -7.119  20.663  64.600  1.00  0.00     0.170 A  
HETATM   20  C   UNL     1      -5.916  18.390  65.768  1.00  0.00    -0.253 A  
HETATM   21  C   UNL     1      -5.918  20.172  64.098  1.00  0.00    -0.315 A  
HETATM   22  C   UNL     1      -5.322  19.048  64.676  1.00  0.00    -0.249 A  
ENDBRANCH  13  16
ENDBRANCH  10  13
ENDBRANCH   5   9
BRANCH   6  23
HETATM   23  C   UNL     1     -10.054  10.782  64.885  1.00  0.00    -0.387 C  
BRANCH  23  24
HETATM   24  C   UNL     1      -8.747  10.067  64.642  1.00  0.00    -0.210 A  
HETATM   25  N   UNL     1      -7.082   9.057  63.537  1.00  0.00    -0.089 NA 
HETATM   26  C   UNL     1      -7.014   8.562  64.821  1.00  0.00    -0.073 A  
HETATM   27  C   UNL     1      -8.040   9.185  65.532  1.00  0.00    -0.115 A  
HETATM   28  C   UNL     1      -8.049  10.025  63.446  1.00  0.00    -0.158 A  
HETATM   29  C   UNL     1      -6.319   8.549  62.419  1.00  0.00    -0.095 C  
HETATM   30  C   UNL     1      -8.206   8.825  66.883  1.00  0.00    -0.108 A  
HETATM   31  C   UNL     1      -7.332   7.941  67.527  1.00  0.00    -0.092 A  
HETATM   32  C   UNL     1      -6.341   7.312  66.775  1.00  0.00    -0.047 A  
HETATM   33  C   UNL     1      -6.174   7.599  65.409  1.00  0.00    -0.038 A  
BRANCH  31  34
HETATM   34  N   UNL     1      -7.406   7.680  68.915  1.00  0.00    -0.088 N  
HETATM   35  H   UNL     1      -7.063   8.406  69.543  1.00  0.00     0.000 HD 
HETATM   36  C   UNL     1      -7.897   6.537  69.491  1.00  0.00    -0.105 C  
HETATM   37  O   UNL     1      -8.311   5.545  68.915  1.00  0.00    -0.101 OA 
BRANCH  36  38
HETATM   38  O   UNL     1      -7.885   6.637  70.853  1.00  0.00    -0.102 OA 
BRANCH  38  39
HETATM   39  C   UNL     1      -9.012   7.359  71.356  1.00  0.00    -0.137 C  
HETATM   40  C   UNL     1     -10.184   6.427  71.654  1.00  0.00    -0.221 C  
HETATM   41  C   UNL     1     -11.042   7.253  72.590  1.00  0.00    -0.355 C  
HETATM   42  C   UNL     1     -10.035   7.966  73.486  1.00  0.00    -0.170 C  
HETATM   43  C   UNL     1      -8.719   8.019  72.701  1.00  0.00    -0.250 C  
ENDBRANCH  38  39
ENDBRANCH  36  38
ENDBRANCH  31  34
ENDBRANCH  23  24
ENDBRANCH   6  23
ENDBRANCH   2   3
TORSDOF 9
ENDMDL
MODEL      135
REMARK 921   NORMALIZED FREE ENERGY PREDICTED BY IDOCK:   -3.80 KCAL/MOL
REMARK 922        TOTAL FREE ENERGY PREDICTED BY IDOCK:   -7.56 KCAL/MOL
REMARK 923 INTER-LIGAND FREE ENERGY PREDICTED BY IDOCK:   -7.38 KCAL/MOL
REMARK 924 INTRA-LIGAND FREE ENERGY PREDICTED BY IDOCK:   -0.18 KCAL/MOL
REMARK 927      BINDING AFFINITY PREDICTED BY RF-SCORE:    0.00 PKD
ROOT
HETATM    1  C   UNL     1      -9.301   9.629  62.331  1.00  0.00    -0.110 C  
HETATM    2  O   UNL     1      -8.562   9.103  63.425  1.00  0.00    -0.201 OA 
ENDROOT
BRANCH   2   3
HETATM    3  C   UNL     1      -8.623   9.775  64.618  1.00  0.00    -0.184 A  
HETATM    4  C   UNL     1      -9.711  10.558  65.029  1.00  0.00    -0.351 A  
HETATM    5  C   UNL     1      -9.713  11.183  66.286  1.00  0.00    -0.244 A  
HETATM    6  C   UNL     1      -7.517   9.612  65.475  1.00  0.00    -0.106 A  
HETATM    7  C   UNL     1      -8.658  10.954  67.170  1.00  0.00    -0.130 A  
HETATM    8  C   UNL     1      -7.583  10.164  66.768  1.00  0.00    -0.105 A  
BRANCH   5   9
HETATM    9  C   UNL     1     -10.833  12.099  66.623  1.00  0.00    -0.268 C  
HETATM   10  N   UNL     1     -10.503  13.183  67.449  1.00  0.00    -0.241 N  
HETATM   11  H   UNL     1      -9.549  13.230  67.806  1.00  0.00     0.000 HD 
HETATM   12  O   UNL     1     -11.959  11.891  66.202  1.00  0.00    -0.537 OA 
BRANCH  10  13
HETATM   13  S   UNL     1     -11.550  14.398  67.888  1.00  0.00    -0.359 S  
HETATM   14  O   UNL     1     -11.873  14.219  69.289  1.00  0.00    -0.291 OA 
HETATM   15  O   UNL     1     -12.602  14.386  66.890  1.00  0.00    -0.173 OA 
BRANCH  13  16
HETATM   16  C   UNL     1     -10.630  15.910  67.681  1.00  0.00    -0.307 A  
HETATM   17  C   UNL     1     -10.607  16.806  68.761  1.00  0.00    -0.348 A  
HETATM   18  C   UNL     1      -9.970  15.324  65.272  1.00  0.00    -0.322 C  
HETATM   19  C   UNL     1      -9.918  18.013  68.658  1.00  0.00    -0.396 A  
HETATM   20  C   UNL     1      -9.968  16.221  66.476  1.00  0.00    -0.290 A  
HETATM   21  C   UNL     1      -9.252  18.330  67.479  1.00  0.00    -0.256 A  
HETATM   22  C   UNL     1      -9.276  17.444  66.399  1.00  0.00    -0.272 A  
ENDBRANCH  13  16
ENDBRANCH  10  13
ENDBRANCH   5   9
BRANCH   6  23
HETATM   23  C   UNL     1      -6.288   8.827  65.069  1.00  0.00    -0.064 C  
BRANCH  23  24
HETATM   24  C   UNL     1      -6.576   7.347  65.122  1.00  0.00    -0.044 A  
HETATM   25  N   UNL     1      -7.030   5.271  64.414  1.00  0.00    -0.048 NA 
HETATM   26  C   UNL     1      -7.494   5.319  65.711  1.00  0.00    -0.082 A  
HETATM   27  C   UNL     1      -7.214   6.604  66.176  1.00  0.00    -0.071 A  
HETATM   28  C   UNL     1      -6.396   6.442  64.088  1.00  0.00    -0.030 A  
HETATM   29  C   UNL     1      -7.276   4.183  63.494  1.00  0.00    -0.050 C  
HETATM   30  C   UNL     1      -7.620   6.924  67.486  1.00  0.00    -0.109 A  
HETATM   31  C   UNL     1      -8.208   5.976  68.332  1.00  0.00    -0.110 A  
HETATM   32  C   UNL     1      -8.504   4.714  67.820  1.00  0.00    -0.103 A  
HETATM   33  C   UNL     1      -8.167   4.368  66.500  1.00  0.00    -0.102 A  
BRANCH  31  34
HETATM   34  N   UNL     1      -8.492   6.247  69.691  1.00  0.00    -0.127 N  
HETATM   35  H   UNL     1      -9.469   6.402  69.939  1.00  0.00     0.000 HD 
HETATM   36  C   UNL     1      -7.572   6.320  70.704  1.00  0.00    -0.096 C  
HETATM   37  O   UNL     1      -6.361   6.207  70.603  1.00  0.00    -0.037 OA 
BRANCH  36  38
HETATM   38  O   UNL     1      -8.188   6.531  71.904  1.00  0.00    -0.108 OA 
BRANCH  38  39
HETATM   39  C   UNL     1      -8.298   5.333  72.678  1.00  0.00    -0.114 C  
HETATM   40  C   UNL     1      -9.338   5.480  73.786  1.00  0.00    -0.137 C  
HETATM   41  C   UNL     1      -9.650   4.041  74.146  1.00  0.00    -0.132 C  
HETATM   42  C   UNL     1      -9.665   3.317  72.803  1.00  0.00    -0.187 C  
HETATM   43  C   UNL     1      -8.810   4.158  71.850  1.00  0.00    -0.141 C  
ENDBRANCH  38  39
ENDBRANCH  36  38
ENDBRANCH  31  34
ENDBRANCH  23  24
ENDBRANCH   6  23
ENDBRANCH   2   3
TORSDOF 9
ENDMDL
MODEL      136
REMARK 921   NORMALIZED FREE ENERGY PREDICTED BY IDOCK:   -3.79 KCAL/MOL
REMARK 922        TOTAL FREE ENERGY PREDICTED BY IDOCK:   -7.54 KCAL/MOL
REMARK 923 INTER-LIGAND FREE ENERGY PREDICTED BY IDOCK:   -7.17 KCAL/MOL
REMARK 924 INTRA-LIGAND FREE ENERGY PREDICTED BY IDOCK:   -0.37 KCAL/MOL
REMARK 927      BINDING AFFINITY PREDICTED BY RF-SCORE:    0.00 PKD
ROOT
HETATM    1  C   UNL     1      -6.058  15.266  70.234  1.00  0.00    -0.111 C  
HETATM    2  O   UNL     1      -7.057  15.429  69.235  1.00  0.00    -0.149 OA 
ENDROOT
BRANCH   2   3
HETATM    3  C   UNL     1      -7.803  14.331  68.894  1.00  0.00    -0.097 A  
HETATM    4  C   UNL     1      -7.269  13.140  68.382  1.00  0.00    -0.107 A  
HETATM    5  C   UNL     1      -8.100  12.045  68.095  1.00  0.00    -0.160 A  
HETATM    6  C   UNL     1      -9.189  14.432  69.125  1.00  0.00     0.076 A  
HETATM    7  C   UNL     1      -9.458  12.112  68.404  1.00  0.00    -0.179 A  
HETATM    8  C   UNL     1      -9.988  13.291  68.926  1.00  0.00     0.053 A  
BRANCH   5   9
HETATM    9  C   UNL     1      -7.502  10.852  67.441  1.00  0.00    -0.100 C  
HETATM   10  N   UNL     1      -7.138   9.807  68.301  1.00  0.00    -0.076 N  
HETATM   11  H   UNL     1      -7.247   9.961  69.303  1.00  0.00     0.000 HD 
HETATM   12  O   UNL     1      -7.342  10.817  66.232  1.00  0.00    -0.131 OA 
BRANCH  10  13
HETATM   13  S   UNL     1      -6.542   8.334  67.810  1.00  0.00    -0.062 S  
HETATM   14  O   UNL     1      -5.212   8.550  67.278  1.00  0.00    -0.032 OA 
HETATM   15  O   UNL     1      -7.576   7.754  66.975  1.00  0.00    -0.096 OA 
BRANCH  13  16
HETATM   16  C   UNL     1      -6.435   7.351  69.293  1.00  0.00    -0.036 A  
HETATM   17  C   UNL     1      -6.415   8.033  70.520  1.00  0.00    -0.037 A  
HETATM   18  C   UNL     1      -6.339   5.152  67.976  1.00  0.00    -0.040 C  
HETATM   19  C   UNL     1      -6.317   7.323  71.716  1.00  0.00    -0.040 A  
HETATM   20  C   UNL     1      -6.348   5.945  69.251  1.00  0.00    -0.041 A  
HETATM   21  C   UNL     1      -6.239   5.935  71.691  1.00  0.00    -0.043 A  
HETATM   22  C   UNL     1      -6.255   5.252  70.472  1.00  0.00    -0.023 A  
ENDBRANCH  13  16
ENDBRANCH  10  13
ENDBRANCH   5   9
BRANCH   6  23
HETATM   23  C   UNL     1      -9.835  15.707  69.624  1.00  0.00    -0.280 C  
BRANCH  23  24
HETATM   24  C   UNL     1      -9.761  16.777  68.562  1.00  0.00    -0.248 A  
HETATM   25  N   UNL     1      -9.704  18.816  67.639  1.00  0.00    -0.302 NA 
HETATM   26  C   UNL     1     -10.171  17.984  66.645  1.00  0.00    -0.373 A  
HETATM   27  C   UNL     1     -10.208  16.703  67.196  1.00  0.00    -0.290 A  
HETATM   28  C   UNL     1      -9.367  18.091  68.752  1.00  0.00    -0.241 A  
HETATM   29  C   UNL     1      -9.680  20.260  67.557  1.00  0.00    -0.435 C  
HETATM   30  C   UNL     1     -10.684  15.658  66.381  1.00  0.00    -0.291 A  
HETATM   31  C   UNL     1     -11.031  15.863  65.041  1.00  0.00    -0.412 A  
HETATM   32  C   UNL     1     -11.015  17.162  64.536  1.00  0.00     0.883 A  
HETATM   33  C   UNL     1     -10.601  18.245  65.330  1.00  0.00     0.210 A  
BRANCH  31  34
HETATM   34  N   UNL     1     -11.377  14.798  64.177  1.00  0.00    -0.604 N  
HETATM   35  H   UNL     1     -10.772  14.637  63.372  1.00  0.00     0.000 HD 
HETATM   36  C   UNL     1     -12.454  13.963  64.324  1.00  0.00    -0.259 C  
HETATM   37  O   UNL     1     -13.312  14.019  65.190  1.00  0.00    -0.703 OA 
BRANCH  36  38
HETATM   38  O   UNL     1     -12.458  13.002  63.354  1.00  0.00    -0.710 OA 
BRANCH  38  39
HETATM   39  C   UNL     1     -11.781  11.811  63.764  1.00  0.00    -0.400 C  
HETATM   40  C   UNL     1     -10.451  11.647  63.034  1.00  0.00    -0.256 C  
HETATM   41  C   UNL     1      -9.703  10.666  63.914  1.00  0.00    -0.378 C  
HETATM   42  C   UNL     1     -10.057  11.097  65.334  1.00  0.00    -0.317 C  
HETATM   43  C   UNL     1     -11.387  11.852  65.238  1.00  0.00    -0.333 C  
ENDBRANCH  38  39
ENDBRANCH  36  38
ENDBRANCH  31  34
ENDBRANCH  23  24
ENDBRANCH   6  23
ENDBRANCH   2   3
TORSDOF 9
ENDMDL
MODEL      137
REMARK 921   NORMALIZED FREE ENERGY PREDICTED BY IDOCK:   -3.74 KCAL/MOL
REMARK 922        TOTAL FREE ENERGY PREDICTED BY IDOCK:   -7.47 KCAL/MOL
REMARK 923 INTER-LIGAND FREE ENERGY PREDICTED BY IDOCK:   -7.15 KCAL/MOL
REMARK 924 INTRA-LIGAND FREE ENERGY PREDICTED BY IDOCK:   -0.32 KCAL/MOL
REMARK 927      BINDING AFFINITY PREDICTED BY RF-SCORE:    0.00 PKD
ROOT
HETATM    1  C   UNL     1     -12.982  12.609  64.875  1.00  0.00    -0.033 C  
HETATM    2  O   UNL     1     -12.173  12.307  66.004  1.00  0.00    -0.646 OA 
ENDROOT
BRANCH   2   3
HETATM    3  C   UNL     1     -11.150  11.412  65.834  1.00  0.00    -0.162 A  
HETATM    4  C   UNL     1     -11.115  10.133  66.407  1.00  0.00     0.289 A  
HETATM    5  C   UNL     1     -10.047   9.258  66.150  1.00  0.00    -0.304 A  
HETATM    6  C   UNL     1     -10.101  11.827  64.990  1.00  0.00    -0.302 A  
HETATM    7  C   UNL     1      -9.051   9.634  65.248  1.00  0.00    -0.269 A  
HETATM    8  C   UNL     1      -9.092  10.901  64.667  1.00  0.00    -0.189 A  
BRANCH   5   9
HETATM    9  C   UNL     1      -9.998   7.963  66.877  1.00  0.00    -0.262 C  
HETATM   10  N   UNL     1      -8.733   7.576  67.341  1.00  0.00    -0.124 N  
HETATM   11  H   UNL     1      -7.939   8.167  67.096  1.00  0.00     0.000 HD 
HETATM   12  O   UNL     1     -11.007   7.298  67.037  1.00  0.00    -0.358 OA 
BRANCH  10  13
HETATM   13  S   UNL     1      -8.430   6.225  68.262  1.00  0.00    -0.114 S  
HETATM   14  O   UNL     1      -9.440   6.161  69.300  1.00  0.00    -0.133 OA 
HETATM   15  O   UNL     1      -7.026   6.300  68.615  1.00  0.00    -0.074 OA 
BRANCH  13  16
HETATM   16  C   UNL     1      -8.632   4.844  67.153  1.00  0.00    -0.104 A  
HETATM   17  C   UNL     1      -9.320   3.721  67.639  1.00  0.00    -0.240 A  
HETATM   18  C   UNL     1      -7.339   6.009  65.269  1.00  0.00    -0.076 C  
HETATM   19  C   UNL     1      -9.499   2.603  66.827  1.00  0.00     0.052 A  
HETATM   20  C   UNL     1      -8.106   4.854  65.846  1.00  0.00    -0.108 A  
HETATM   21  C   UNL     1      -8.993   2.601  65.531  1.00  0.00    -0.135 A  
HETATM   22  C   UNL     1      -8.304   3.715  65.045  1.00  0.00    -0.097 A  
ENDBRANCH  13  16
ENDBRANCH  10  13
ENDBRANCH   5   9
BRANCH   6  23
HETATM   23  C   UNL     1     -10.050  13.214  64.386  1.00  0.00    -0.224 C  
BRANCH  23  24
HETATM   24  C   UNL     1     -10.028  14.256  65.477  1.00  0.00    -0.341 A  
HETATM   25  N   UNL     1     -10.129  16.265  66.463  1.00  0.00    -0.278 NA 
HETATM   26  C   UNL     1      -9.379  15.483  67.314  1.00  0.00    -0.212 A  
HETATM   27  C   UNL     1      -9.309  14.221  66.723  1.00  0.00    -0.290 A  
HETATM   28  C   UNL     1     -10.600  15.517  65.415  1.00  0.00    -0.408 A  
HETATM   29  C   UNL     1     -10.301  17.695  66.597  1.00  0.00    -0.333 C  
HETATM   30  C   UNL     1      -8.562  13.232  67.390  1.00  0.00    -0.204 A  
HETATM   31  C   UNL     1      -7.976  13.463  68.640  1.00  0.00    -0.056 A  
HETATM   32  C   UNL     1      -8.037  14.745  69.182  1.00  0.00    -0.119 A  
HETATM   33  C   UNL     1      -8.725  15.779  68.524  1.00  0.00    -0.184 A  
BRANCH  31  34
HETATM   34  N   UNL     1      -7.342  12.437  69.380  1.00  0.00    -0.315 N  
HETATM   35  H   UNL     1      -6.580  12.713  69.998  1.00  0.00     0.000 HD 
HETATM   36  C   UNL     1      -7.663  11.105  69.342  1.00  0.00     0.034 C  
HETATM   37  O   UNL     1      -8.510  10.575  68.641  1.00  0.00    -0.122 OA 
BRANCH  36  38
HETATM   38  O   UNL     1      -6.902  10.397  70.228  1.00  0.00    -0.152 OA 
BRANCH  38  39
HETATM   39  C   UNL     1      -7.455   9.109  70.512  1.00  0.00    -0.116 C  
HETATM   40  C   UNL     1      -6.510   8.276  71.376  1.00  0.00    -0.046 C  
HETATM   41  C   UNL     1      -7.428   7.217  71.952  1.00  0.00    -0.085 C  
HETATM   42  C   UNL     1      -8.717   7.970  72.261  1.00  0.00    -0.220 C  
HETATM   43  C   UNL     1      -8.728   9.201  71.349  1.00  0.00    -0.089 C  
ENDBRANCH  38  39
ENDBRANCH  36  38
ENDBRANCH  31  34
ENDBRANCH  23  24
ENDBRANCH   6  23
ENDBRANCH   2   3
TORSDOF 9
ENDMDL
MODEL      138
REMARK 921   NORMALIZED FREE ENERGY PREDICTED BY IDOCK:   -3.69 KCAL/MOL
REMARK 922        TOTAL FREE ENERGY PREDICTED BY IDOCK:   -7.39 KCAL/MOL
REMARK 923 INTER-LIGAND FREE ENERGY PREDICTED BY IDOCK:   -6.00 KCAL/MOL
REMARK 924 INTRA-LIGAND FREE ENERGY PREDICTED BY IDOCK:   -1.39 KCAL/MOL
REMARK 927      BINDING AFFINITY PREDICTED BY RF-SCORE:    0.00 PKD
ROOT
HETATM    1  C   UNL     1      -8.583  15.394  70.124  1.00  0.00     0.614 C  
HETATM    2  O   UNL     1      -7.186  15.160  70.005  1.00  0.00    -0.156 OA 
ENDROOT
BRANCH   2   3
HETATM    3  C   UNL     1      -6.783  13.960  69.479  1.00  0.00    -0.062 A  
HETATM    4  C   UNL     1      -6.737  12.757  70.199  1.00  0.00     0.499 A  
HETATM    5  C   UNL     1      -6.351  11.560  69.574  1.00  0.00    -0.116 A  
HETATM    6  C   UNL     1      -6.438  13.971  68.114  1.00  0.00    -0.126 A  
HETATM    7  C   UNL     1      -6.091  11.552  68.204  1.00  0.00    -0.045 A  
HETATM    8  C   UNL     1      -6.150  12.745  67.485  1.00  0.00    -0.152 A  
BRANCH   5   9
HETATM    9  C   UNL     1      -6.201  10.340  70.408  1.00  0.00    -0.120 C  
HETATM   10  N   UNL     1      -7.299   9.468  70.410  1.00  0.00    -0.126 N  
HETATM   11  H   UNL     1      -8.133   9.759  69.900  1.00  0.00     0.000 HD 
HETATM   12  O   UNL     1      -5.181  10.140  71.046  1.00  0.00    -0.060 OA 
BRANCH  10  13
HETATM   13  S   UNL     1      -7.343   7.996  71.181  1.00  0.00    -0.069 S  
HETATM   14  O   UNL     1      -6.881   8.193  72.540  1.00  0.00    -0.076 OA 
HETATM   15  O   UNL     1      -6.651   7.074  70.302  1.00  0.00    -0.045 OA 
BRANCH  13  16
HETATM   16  C   UNL     1      -9.063   7.527  71.203  1.00  0.00    -0.147 A  
HETATM   17  C   UNL     1      -9.362   6.176  71.439  1.00  0.00    -0.163 A  
HETATM   18  C   UNL     1      -9.848   9.914  70.685  1.00  0.00    -0.039 C  
HETATM   19  C   UNL     1     -10.686   5.742  71.455  1.00  0.00    -0.319 A  
HETATM   20  C   UNL     1     -10.093   8.460  70.969  1.00  0.00    -0.242 A  
HETATM   21  C   UNL     1     -11.714   6.653  71.234  1.00  0.00    -0.386 A  
HETATM   22  C   UNL     1     -11.422   7.998  70.994  1.00  0.00    -0.300 A  
ENDBRANCH  13  16
ENDBRANCH  10  13
ENDBRANCH   5   9
BRANCH   6  23
HETATM   23  C   UNL     1      -6.413  15.244  67.296  1.00  0.00     0.044 C  
BRANCH  23  24
HETATM   24  C   UNL     1      -7.807  15.596  66.839  1.00  0.00    -0.258 A  
HETATM   25  N   UNL     1      -9.689  16.778  66.565  1.00  0.00    -0.268 NA 
HETATM   26  C   UNL     1     -10.065  15.461  66.410  1.00  0.00    -0.279 A  
HETATM   27  C   UNL     1      -8.903  14.704  66.568  1.00  0.00    -0.190 A  
HETATM   28  C   UNL     1      -8.331  16.873  66.724  1.00  0.00    -0.235 A  
HETATM   29  C   UNL     1     -10.610  17.889  66.658  1.00  0.00    -0.238 C  
HETATM   30  C   UNL     1      -9.023  13.305  66.484  1.00  0.00    -0.069 A  
HETATM   31  C   UNL     1     -10.237  12.682  66.169  1.00  0.00    -0.258 A  
HETATM   32  C   UNL     1     -11.382  13.468  66.053  1.00  0.00    -0.327 A  
HETATM   33  C   UNL     1     -11.320  14.866  66.185  1.00  0.00    -0.307 A  
BRANCH  31  34
HETATM   34  N   UNL     1     -10.338  11.289  65.945  1.00  0.00    -0.246 N  
HETATM   35  H   UNL     1     -10.211  10.962  64.988  1.00  0.00     0.000 HD 
HETATM   36  C   UNL     1     -10.593  10.340  66.901  1.00  0.00    -0.217 C  
HETATM   37  O   UNL     1     -10.815  10.533  68.085  1.00  0.00    -0.214 OA 
BRANCH  36  38
HETATM   38  O   UNL     1     -10.558   9.086  66.360  1.00  0.00    -0.148 OA 
BRANCH  38  39
HETATM   39  C   UNL     1     -10.343   8.073  67.346  1.00  0.00    -0.284 C  
HETATM   40  C   UNL     1     -11.052   6.774  66.975  1.00  0.00    -0.369 C  
HETATM   41  C   UNL     1     -10.335   5.744  67.824  1.00  0.00    -0.266 C  
HETATM   42  C   UNL     1      -8.873   6.175  67.774  1.00  0.00    -0.110 C  
HETATM   43  C   UNL     1      -8.874   7.672  67.447  1.00  0.00    -0.124 C  
ENDBRANCH  38  39
ENDBRANCH  36  38
ENDBRANCH  31  34
ENDBRANCH  23  24
ENDBRANCH   6  23
ENDBRANCH   2   3
TORSDOF 9
ENDMDL
MODEL      139
REMARK 921   NORMALIZED FREE ENERGY PREDICTED BY IDOCK:   -3.66 KCAL/MOL
REMARK 922        TOTAL FREE ENERGY PREDICTED BY IDOCK:   -7.35 KCAL/MOL
REMARK 923 INTER-LIGAND FREE ENERGY PREDICTED BY IDOCK:   -7.26 KCAL/MOL
REMARK 924 INTRA-LIGAND FREE ENERGY PREDICTED BY IDOCK:   -0.08 KCAL/MOL
REMARK 927      BINDING AFFINITY PREDICTED BY RF-SCORE:    0.00 PKD
ROOT
HETATM    1  C   UNL     1      -5.614   7.084  67.381  1.00  0.00    -0.024 C  
HETATM    2  O   UNL     1      -7.020   7.024  67.176  1.00  0.00    -0.072 OA 
ENDROOT
BRANCH   2   3
HETATM    3  C   UNL     1      -7.824   7.660  68.085  1.00  0.00    -0.121 A  
HETATM    4  C   UNL     1      -8.498   7.015  69.132  1.00  0.00    -0.129 A  
HETATM    5  C   UNL     1      -9.272   7.746  70.048  1.00  0.00    -0.153 A  
HETATM    6  C   UNL     1      -7.924   9.059  67.947  1.00  0.00    -0.102 A  
HETATM    7  C   UNL     1      -9.303   9.138  69.965  1.00  0.00    -0.218 A  
HETATM    8  C   UNL     1      -8.622   9.782  68.932  1.00  0.00    -0.134 A  
BRANCH   5   9
HETATM    9  C   UNL     1     -10.062   7.004  71.063  1.00  0.00    -0.195 C  
HETATM   10  N   UNL     1      -9.405   5.926  71.673  1.00  0.00    -0.149 N  
HETATM   11  H   UNL     1      -8.471   5.691  71.337  1.00  0.00     0.000 HD 
HETATM   12  O   UNL     1     -11.209   7.327  71.322  1.00  0.00    -0.248 OA 
BRANCH  10  13
HETATM   13  S   UNL     1     -10.034   5.001  72.903  1.00  0.00    -0.165 S  
HETATM   14  O   UNL     1     -10.994   4.084  72.323  1.00  0.00     0.112 OA 
HETATM   15  O   UNL     1     -10.450   5.942  73.925  1.00  0.00    -0.252 OA 
BRANCH  13  16
HETATM   16  C   UNL     1      -8.654   4.079  73.553  1.00  0.00    -0.092 A  
HETATM   17  C   UNL     1      -7.432   4.756  73.691  1.00  0.00    -0.090 A  
HETATM   18  C   UNL     1     -10.028   1.923  73.751  1.00  0.00    -0.134 C  
HETATM   19  C   UNL     1      -6.310   4.089  74.179  1.00  0.00    -0.041 A  
HETATM   20  C   UNL     1      -8.762   2.716  73.896  1.00  0.00    -0.072 A  
HETATM   21  C   UNL     1      -6.404   2.745  74.530  1.00  0.00    -0.016 A  
HETATM   22  C   UNL     1      -7.617   2.066  74.390  1.00  0.00    -0.033 A  
ENDBRANCH  13  16
ENDBRANCH  10  13
ENDBRANCH   5   9
BRANCH   6  23
HETATM   23  C   UNL     1      -7.268   9.808  66.807  1.00  0.00    -0.090 C  
BRANCH  23  24
HETATM   24  C   UNL     1      -8.301  10.193  65.777  1.00  0.00    -0.147 A  
HETATM   25  N   UNL     1      -9.397  10.251  63.825  1.00  0.00    -0.276 NA 
HETATM   26  C   UNL     1      -9.683  11.453  64.434  1.00  0.00    -0.232 A  
HETATM   27  C   UNL     1      -9.015  11.437  65.659  1.00  0.00    -0.131 A  
HETATM   28  C   UNL     1      -8.654   9.456  64.658  1.00  0.00    -0.187 A  
HETATM   29  C   UNL     1      -9.737   9.921  62.458  1.00  0.00     0.226 C  
HETATM   30  C   UNL     1      -9.123  12.580  66.473  1.00  0.00    -0.177 A  
HETATM   31  C   UNL     1      -9.933  13.666  66.122  1.00  0.00    -0.306 A  
HETATM   32  C   UNL     1     -10.556  13.661  64.875  1.00  0.00    -0.421 A  
HETATM   33  C   UNL     1     -10.431  12.565  64.005  1.00  0.00    -0.449 A  
BRANCH  31  34
HETATM   34  N   UNL     1     -10.158  14.757  66.995  1.00  0.00    -0.243 N  
HETATM   35  H   UNL     1      -9.940  14.615  67.981  1.00  0.00     0.000 HD 
HETATM   36  C   UNL     1     -10.643  15.986  66.633  1.00  0.00    -0.297 C  
HETATM   37  O   UNL     1     -10.999  16.335  65.520  1.00  0.00    -0.258 OA 
BRANCH  36  38
HETATM   38  O   UNL     1     -10.675  16.830  67.707  1.00  0.00    -0.337 OA 
BRANCH  38  39
HETATM   39  C   UNL     1      -9.810  17.956  67.542  1.00  0.00    -0.309 C  
HETATM   40  C   UNL     1     -10.219  19.112  68.451  1.00  0.00    -0.473 C  
HETATM   41  C   UNL     1      -8.966  19.963  68.498  1.00  0.00    -0.210 C  
HETATM   42  C   UNL     1      -7.830  18.948  68.563  1.00  0.00    -0.373 C  
HETATM   43  C   UNL     1      -8.377  17.647  67.965  1.00  0.00    -0.246 C  
ENDBRANCH  38  39
ENDBRANCH  36  38
ENDBRANCH  31  34
ENDBRANCH  23  24
ENDBRANCH   6  23
ENDBRANCH   2   3
TORSDOF 9
ENDMDL
MODEL      140
REMARK 921   NORMALIZED FREE ENERGY PREDICTED BY IDOCK:   -3.60 KCAL/MOL
REMARK 922        TOTAL FREE ENERGY PREDICTED BY IDOCK:   -7.26 KCAL/MOL
REMARK 923 INTER-LIGAND FREE ENERGY PREDICTED BY IDOCK:   -7.27 KCAL/MOL
REMARK 924 INTRA-LIGAND FREE ENERGY PREDICTED BY IDOCK:    0.02 KCAL/MOL
REMARK 927      BINDING AFFINITY PREDICTED BY RF-SCORE:    0.00 PKD
ROOT
HETATM    1  C   UNL     1     -11.830  12.183  66.549  1.00  0.00    -0.246 C  
HETATM    2  O   UNL     1     -11.048  11.317  67.360  1.00  0.00    -0.262 OA 
ENDROOT
BRANCH   2   3
HETATM    3  C   UNL     1      -9.961  10.713  66.784  1.00  0.00    -0.209 A  
HETATM    4  C   UNL     1      -9.791   9.325  66.679  1.00  0.00    -0.311 A  
HETATM    5  C   UNL     1      -8.665   8.785  66.036  1.00  0.00    -0.193 A  
HETATM    6  C   UNL     1      -8.992  11.578  66.239  1.00  0.00    -0.199 A  
HETATM    7  C   UNL     1      -7.749   9.637  65.422  1.00  0.00    -0.117 A  
HETATM    8  C   UNL     1      -7.924  11.018  65.513  1.00  0.00     0.086 A  
BRANCH   5   9
HETATM    9  C   UNL     1      -8.473   7.312  66.060  1.00  0.00    -0.145 C  
HETATM   10  N   UNL     1      -9.646   6.546  66.019  1.00  0.00    -0.390 N  
HETATM   11  H   UNL     1     -10.535   7.044  66.041  1.00  0.00     0.000 HD 
HETATM   12  O   UNL     1      -7.354   6.829  66.120  1.00  0.00    -0.070 OA 
BRANCH  10  13
HETATM   13  S   UNL     1      -9.696   4.886  65.937  1.00  0.00    -0.182 S  
HETATM   14  O   UNL     1      -8.499   4.440  65.253  1.00  0.00    -0.116 OA 
HETATM   15  O   UNL     1     -11.004   4.561  65.403  1.00  0.00    -0.256 OA 
BRANCH  13  16
HETATM   16  C   UNL     1      -9.653   4.329  67.629  1.00  0.00    -0.165 A  
HETATM   17  C   UNL     1      -9.890   5.284  68.630  1.00  0.00    -0.216 A  
HETATM   18  C   UNL     1      -9.082   1.922  66.953  1.00  0.00    -0.092 C  
HETATM   19  C   UNL     1      -9.856   4.916  69.974  1.00  0.00    -0.304 A  
HETATM   20  C   UNL     1      -9.369   2.990  67.967  1.00  0.00    -0.255 A  
HETATM   21  C   UNL     1      -9.586   3.597  70.323  1.00  0.00    -0.246 A  
HETATM   22  C   UNL     1      -9.345   2.643  69.330  1.00  0.00    -0.183 A  
ENDBRANCH  13  16
ENDBRANCH  10  13
ENDBRANCH   5   9
BRANCH   6  23
HETATM   23  C   UNL     1      -9.087  13.083  66.368  1.00  0.00    -0.073 C  
BRANCH  23  24
HETATM   24  C   UNL     1      -8.038  13.591  67.326  1.00  0.00    -0.141 A  
HETATM   25  N   UNL     1      -6.339  14.813  68.121  1.00  0.00    -0.124 NA 
HETATM   26  C   UNL     1      -6.312  13.643  68.849  1.00  0.00    -0.097 A  
HETATM   27  C   UNL     1      -7.370  12.867  68.375  1.00  0.00    -0.119 A  
HETATM   28  C   UNL     1      -7.421  14.830  67.280  1.00  0.00    -0.141 A  
HETATM   29  C   UNL     1      -5.309  15.828  68.160  1.00  0.00    -0.114 C  
HETATM   30  C   UNL     1      -7.546  11.591  68.943  1.00  0.00    -0.102 A  
HETATM   31  C   UNL     1      -6.751  11.136  70.002  1.00  0.00    -0.055 A  
HETATM   32  C   UNL     1      -5.682  11.925  70.425  1.00  0.00    -0.163 A  
HETATM   33  C   UNL     1      -5.435  13.182  69.848  1.00  0.00    -0.102 A  
BRANCH  31  34
HETATM   34  N   UNL     1      -7.007   9.916  70.671  1.00  0.00    -0.106 N  
HETATM   35  H   UNL     1      -6.249   9.523  71.227  1.00  0.00     0.000 HD 
HETATM   36  C   UNL     1      -8.185   9.216  70.639  1.00  0.00    -0.190 C  
HETATM   37  O   UNL     1      -9.188   9.497  70.004  1.00  0.00    -0.200 OA 
BRANCH  36  38
HETATM   38  O   UNL     1      -8.118   8.117  71.447  1.00  0.00    -0.098 OA 
BRANCH  38  39
HETATM   39  C   UNL     1      -9.099   8.145  72.487  1.00  0.00    -0.235 C  
HETATM   40  C   UNL     1     -10.496   7.854  71.943  1.00  0.00    -0.284 C  
HETATM   41  C   UNL     1     -11.264   7.453  73.186  1.00  0.00    -0.294 C  
HETATM   42  C   UNL     1     -10.270   6.615  73.983  1.00  0.00    -0.395 C  
HETATM   43  C   UNL     1      -8.873   7.044  73.520  1.00  0.00    -0.171 C  
ENDBRANCH  38  39
ENDBRANCH  36  38
ENDBRANCH  31  34
ENDBRANCH  23  24
ENDBRANCH   6  23
ENDBRANCH   2   3
TORSDOF 9
ENDMDL
MODEL      141
REMARK 921   NORMALIZED FREE ENERGY PREDICTED BY IDOCK:   -3.55 KCAL/MOL
REMARK 922        TOTAL FREE ENERGY PREDICTED BY IDOCK:   -7.17 KCAL/MOL
REMARK 923 INTER-LIGAND FREE ENERGY PREDICTED BY IDOCK:   -6.77 KCAL/MOL
REMARK 924 INTRA-LIGAND FREE ENERGY PREDICTED BY IDOCK:   -0.40 KCAL/MOL
REMARK 927      BINDING AFFINITY PREDICTED BY RF-SCORE:    0.00 PKD
ROOT
HETATM    1  C   UNL     1      -9.562  10.581  63.809  1.00  0.00    -0.311 C  
HETATM    2  O   UNL     1     -10.016  11.108  65.049  1.00  0.00    -0.239 OA 
ENDROOT
BRANCH   2   3
HETATM    3  C   UNL     1     -10.279  10.222  66.060  1.00  0.00    -0.228 A  
HETATM    4  C   UNL     1      -9.969   8.855  66.013  1.00  0.00    -0.199 A  
HETATM    5  C   UNL     1     -10.234   8.019  67.111  1.00  0.00    -0.362 A  
HETATM    6  C   UNL     1     -10.864  10.765  67.221  1.00  0.00    -0.344 A  
HETATM    7  C   UNL     1     -10.733   8.571  68.291  1.00  0.00    -0.092 A  
HETATM    8  C   UNL     1     -11.029   9.933  68.343  1.00  0.00    -0.235 A  
BRANCH   5   9
HETATM    9  C   UNL     1     -10.000   6.559  66.965  1.00  0.00    -0.166 C  
HETATM   10  N   UNL     1      -8.662   6.149  67.044  1.00  0.00    -0.107 N  
HETATM   11  H   UNL     1      -7.951   6.875  67.129  1.00  0.00     0.000 HD 
HETATM   12  O   UNL     1     -10.931   5.793  66.781  1.00  0.00    -0.280 OA 
BRANCH  10  13
HETATM   13  S   UNL     1      -8.149   4.568  67.009  1.00  0.00    -0.102 S  
HETATM   14  O   UNL     1      -8.839   3.855  68.065  1.00  0.00    -0.098 OA 
HETATM   15  O   UNL     1      -6.700   4.629  66.995  1.00  0.00    -0.049 OA 
BRANCH  13  16
HETATM   16  C   UNL     1      -8.674   3.937  65.427  1.00  0.00    -0.116 A  
HETATM   17  C   UNL     1      -9.354   2.709  65.415  1.00  0.00    -0.060 A  
HETATM   18  C   UNL     1      -7.660   5.922  64.158  1.00  0.00    -0.085 C  
HETATM   19  C   UNL     1      -9.779   2.153  64.210  1.00  0.00    -0.098 A  
HETATM   20  C   UNL     1      -8.403   4.619  64.224  1.00  0.00    -0.119 A  
HETATM   21  C   UNL     1      -9.527   2.819  63.014  1.00  0.00    -0.093 A  
HETATM   22  C   UNL     1      -8.846   4.040  63.021  1.00  0.00    -0.109 A  
ENDBRANCH  13  16
ENDBRANCH  10  13
ENDBRANCH   5   9
BRANCH   6  23
HETATM   23  C   UNL     1     -11.273  12.220  67.314  1.00  0.00    -0.358 C  
BRANCH  23  24
HETATM   24  C   UNL     1     -10.052  13.097  67.436  1.00  0.00    -0.229 A  
HETATM   25  N   UNL     1      -8.638  14.790  67.050  1.00  0.00    -0.228 NA 
HETATM   26  C   UNL     1      -7.858  13.781  67.573  1.00  0.00    -0.179 A  
HETATM   27  C   UNL     1      -8.722  12.716  67.830  1.00  0.00    -0.181 A  
HETATM   28  C   UNL     1      -9.959  14.426  67.055  1.00  0.00    -0.257 A  
HETATM   29  C   UNL     1      -8.122  16.012  66.475  1.00  0.00    -0.269 C  
HETATM   30  C   UNL     1      -8.160  11.534  68.349  1.00  0.00    -0.149 A  
HETATM   31  C   UNL     1      -6.803  11.442  68.680  1.00  0.00    -0.078 A  
HETATM   32  C   UNL     1      -5.965  12.514  68.377  1.00  0.00    -0.057 A  
HETATM   33  C   UNL     1      -6.473  13.694  67.806  1.00  0.00    -0.178 A  
BRANCH  31  34
HETATM   34  N   UNL     1      -6.257  10.310  69.330  1.00  0.00    -0.044 N  
HETATM   35  H   UNL     1      -6.192   9.450  68.788  1.00  0.00     0.000 HD 
HETATM   36  C   UNL     1      -5.807  10.268  70.624  1.00  0.00    -0.102 C  
HETATM   37  O   UNL     1      -5.838  11.173  71.441  1.00  0.00    -0.355 OA 
BRANCH  36  38
HETATM   38  O   UNL     1      -5.281   9.041  70.914  1.00  0.00    -0.027 OA 
BRANCH  38  39
HETATM   39  C   UNL     1      -6.253   8.148  71.464  1.00  0.00    -0.038 C  
HETATM   40  C   UNL     1      -6.459   8.399  72.956  1.00  0.00    -0.109 C  
HETATM   41  C   UNL     1      -7.798   7.743  73.225  1.00  0.00    -0.168 C  
HETATM   42  C   UNL     1      -8.633   8.084  71.994  1.00  0.00    -0.193 C  
HETATM   43  C   UNL     1      -7.639   8.365  70.863  1.00  0.00    -0.079 C  
ENDBRANCH  38  39
ENDBRANCH  36  38
ENDBRANCH  31  34
ENDBRANCH  23  24
ENDBRANCH   6  23
ENDBRANCH   2   3
TORSDOF 9
ENDMDL
MODEL      142
REMARK 921   NORMALIZED FREE ENERGY PREDICTED BY IDOCK:   -3.54 KCAL/MOL
REMARK 922        TOTAL FREE ENERGY PREDICTED BY IDOCK:   -7.16 KCAL/MOL
REMARK 923 INTER-LIGAND FREE ENERGY PREDICTED BY IDOCK:   -6.83 KCAL/MOL
REMARK 924 INTRA-LIGAND FREE ENERGY PREDICTED BY IDOCK:   -0.33 KCAL/MOL
REMARK 927      BINDING AFFINITY PREDICTED BY RF-SCORE:    0.00 PKD
ROOT
HETATM    1  C   UNL     1     -11.637  12.023  65.405  1.00  0.00    -0.286 C  
HETATM    2  O   UNL     1     -10.229  12.202  65.331  1.00  0.00    -0.258 OA 
ENDROOT
BRANCH   2   3
HETATM    3  C   UNL     1      -9.437  11.095  65.487  1.00  0.00    -0.221 A  
HETATM    4  C   UNL     1      -9.184  10.155  64.477  1.00  0.00    -0.305 A  
HETATM    5  C   UNL     1      -8.325   9.067  64.706  1.00  0.00    -0.181 A  
HETATM    6  C   UNL     1      -8.824  10.947  66.747  1.00  0.00    -0.149 A  
HETATM    7  C   UNL     1      -7.651   8.967  65.923  1.00  0.00    -0.093 A  
HETATM    8  C   UNL     1      -7.892   9.908  66.922  1.00  0.00    -0.102 A  
BRANCH   5   9
HETATM    9  C   UNL     1      -8.186   8.036  63.645  1.00  0.00    -0.039 C  
HETATM   10  N   UNL     1      -7.986   6.725  64.097  1.00  0.00    -0.213 N  
HETATM   11  H   UNL     1      -7.887   6.582  65.102  1.00  0.00     0.000 HD 
HETATM   12  O   UNL     1      -8.238   8.342  62.465  1.00  0.00    -0.171 OA 
BRANCH  10  13
HETATM   13  S   UNL     1      -7.899   5.384  63.117  1.00  0.00    -0.094 S  
HETATM   14  O   UNL     1      -6.607   5.398  62.461  1.00  0.00    -0.025 OA 
HETATM   15  O   UNL     1      -9.117   5.395  62.331  1.00  0.00    -0.032 OA 
BRANCH  13  16
HETATM   16  C   UNL     1      -7.986   3.987  64.222  1.00  0.00    -0.086 A  
HETATM   17  C   UNL     1      -8.320   4.242  65.561  1.00  0.00    -0.110 A  
HETATM   18  C   UNL     1      -7.323   2.331  62.379  1.00  0.00    -0.036 C  
HETATM   19  C   UNL     1      -8.390   3.196  66.479  1.00  0.00    -0.100 A  
HETATM   20  C   UNL     1      -7.710   2.675  63.788  1.00  0.00    -0.068 A  
HETATM   21  C   UNL     1      -8.128   1.894  66.064  1.00  0.00    -0.081 A  
HETATM   22  C   UNL     1      -7.792   1.636  64.732  1.00  0.00    -0.068 A  
ENDBRANCH  13  16
ENDBRANCH  10  13
ENDBRANCH   5   9
BRANCH   6  23
HETATM   23  C   UNL     1      -9.100  11.894  67.895  1.00  0.00    -0.183 C  
BRANCH  23  24
HETATM   24  C   UNL     1      -7.803  12.430  68.450  1.00  0.00    -0.142 A  
HETATM   25  N   UNL     1      -6.060  12.688  69.832  1.00  0.00    -0.137 NA 
HETATM   26  C   UNL     1      -6.165  13.885  69.156  1.00  0.00    -0.098 A  
HETATM   27  C   UNL     1      -7.242  13.744  68.281  1.00  0.00    -0.114 A  
HETATM   28  C   UNL     1      -6.970  11.784  69.349  1.00  0.00    -0.026 A  
HETATM   29  C   UNL     1      -5.190  12.457  70.964  1.00  0.00    -0.155 C  
HETATM   30  C   UNL     1      -7.581  14.853  67.484  1.00  0.00    -0.218 A  
HETATM   31  C   UNL     1      -6.825  16.032  67.495  1.00  0.00    -0.176 A  
HETATM   32  C   UNL     1      -5.778  16.148  68.407  1.00  0.00    -0.108 A  
HETATM   33  C   UNL     1      -5.439  15.085  69.262  1.00  0.00    -0.094 A  
BRANCH  31  34
HETATM   34  N   UNL     1      -7.074  17.099  66.599  1.00  0.00    -0.221 N  
HETATM   35  H   UNL     1      -6.399  17.241  65.848  1.00  0.00     0.000 HD 
HETATM   36  C   UNL     1      -8.140  17.958  66.651  1.00  0.00    -0.253 C  
HETATM   37  O   UNL     1      -9.025  17.977  67.491  1.00  0.00    -0.247 OA 
BRANCH  36  38
HETATM   38  O   UNL     1      -8.113  18.829  65.599  1.00  0.00    -0.426 OA 
BRANCH  38  39
HETATM   39  C   UNL     1      -7.478  20.066  65.934  1.00  0.00    -0.304 C  
HETATM   40  C   UNL     1      -7.264  20.193  67.440  1.00  0.00    -0.311 C  
HETATM   41  C   UNL     1      -6.197  21.265  67.538  1.00  0.00    -0.429 C  
HETATM   42  C   UNL     1      -5.252  20.955  66.382  1.00  0.00    -0.225 C  
HETATM   43  C   UNL     1      -6.070  20.165  65.355  1.00  0.00    -0.247 C  
ENDBRANCH  38  39
ENDBRANCH  36  38
ENDBRANCH  31  34
ENDBRANCH  23  24
ENDBRANCH   6  23
ENDBRANCH   2   3
TORSDOF 9
ENDMDL
MODEL      143
REMARK 921   NORMALIZED FREE ENERGY PREDICTED BY IDOCK:   -3.49 KCAL/MOL
REMARK 922        TOTAL FREE ENERGY PREDICTED BY IDOCK:   -7.08 KCAL/MOL
REMARK 923 INTER-LIGAND FREE ENERGY PREDICTED BY IDOCK:   -7.03 KCAL/MOL
REMARK 924 INTRA-LIGAND FREE ENERGY PREDICTED BY IDOCK:   -0.05 KCAL/MOL
REMARK 927      BINDING AFFINITY PREDICTED BY RF-SCORE:    0.00 PKD
ROOT
HETATM    1  C   UNL     1      -8.443   9.021  64.726  1.00  0.00    -0.180 C  
HETATM    2  O   UNL     1      -9.409   9.840  65.370  1.00  0.00    -0.212 OA 
ENDROOT
BRANCH   2   3
HETATM    3  C   UNL     1      -9.005  10.564  66.461  1.00  0.00    -0.157 A  
HETATM    4  C   UNL     1      -8.148  11.672  66.402  1.00  0.00    -0.023 A  
HETATM    5  C   UNL     1      -7.814  12.387  67.564  1.00  0.00    -0.169 A  
HETATM    6  C   UNL     1      -9.539  10.160  67.701  1.00  0.00    -0.170 A  
HETATM    7  C   UNL     1      -8.409  12.042  68.777  1.00  0.00     0.048 A  
HETATM    8  C   UNL     1      -9.272  10.949  68.835  1.00  0.00    -0.168 A  
BRANCH   5   9
HETATM    9  C   UNL     1      -6.808  13.475  67.464  1.00  0.00    -0.143 C  
HETATM   10  N   UNL     1      -7.267  14.758  67.796  1.00  0.00    -0.158 N  
HETATM   11  H   UNL     1      -8.258  14.862  68.015  1.00  0.00     0.000 HD 
HETATM   12  O   UNL     1      -5.666  13.240  67.106  1.00  0.00    -0.323 OA 
BRANCH  10  13
HETATM   13  S   UNL     1      -6.318  16.121  67.858  1.00  0.00    -0.153 S  
HETATM   14  O   UNL     1      -5.494  16.143  66.666  1.00  0.00    -0.243 OA 
HETATM   15  O   UNL     1      -5.702  16.108  69.171  1.00  0.00    -0.111 OA 
BRANCH  13  16
HETATM   16  C   UNL     1      -7.458  17.491  67.814  1.00  0.00    -0.191 A  
HETATM   17  C   UNL     1      -7.292  18.501  68.775  1.00  0.00    -0.312 A  
HETATM   18  C   UNL     1      -8.757  16.506  65.833  1.00  0.00    -0.118 C  
HETATM   19  C   UNL     1      -8.159  19.592  68.803  1.00  0.00    -0.357 A  
HETATM   20  C   UNL     1      -8.505  17.560  66.873  1.00  0.00    -0.261 A  
HETATM   21  C   UNL     1      -9.192  19.678  67.876  1.00  0.00    -0.410 A  
HETATM   22  C   UNL     1      -9.364  18.673  66.920  1.00  0.00    -0.308 A  
ENDBRANCH  13  16
ENDBRANCH  10  13
ENDBRANCH   5   9
BRANCH   6  23
HETATM   23  C   UNL     1     -10.424   8.941  67.841  1.00  0.00    -0.281 C  
BRANCH  23  24
HETATM   24  C   UNL     1     -11.132   8.962  69.174  1.00  0.00     0.111 A  
HETATM   25  N   UNL     1     -12.272   9.753  70.932  1.00  0.00    -0.304 NA 
HETATM   26  C   UNL     1     -11.591   8.654  71.409  1.00  0.00    -0.293 A  
HETATM   27  C   UNL     1     -10.878   8.138  70.326  1.00  0.00    -0.244 A  
HETATM   28  C   UNL     1     -12.080   9.886  69.581  1.00  0.00     0.286 A  
HETATM   29  C   UNL     1     -12.994  10.695  71.758  1.00  0.00    -0.472 C  
HETATM   30  C   UNL     1     -10.065   7.013  70.560  1.00  0.00    -0.202 A  
HETATM   31  C   UNL     1     -10.028   6.372  71.804  1.00  0.00    -0.177 A  
HETATM   32  C   UNL     1     -10.726   6.936  72.870  1.00  0.00    -0.308 A  
HETATM   33  C   UNL     1     -11.506   8.092  72.696  1.00  0.00    -0.454 A  
BRANCH  31  34
HETATM   34  N   UNL     1      -9.324   5.162  72.011  1.00  0.00    -0.136 N  
HETATM   35  H   UNL     1      -9.797   4.298  71.744  1.00  0.00     0.000 HD 
HETATM   36  C   UNL     1      -8.065   5.047  72.539  1.00  0.00    -0.109 C  
HETATM   37  O   UNL     1      -7.359   5.951  72.954  1.00  0.00    -0.089 OA 
BRANCH  36  38
HETATM   38  O   UNL     1      -7.657   3.743  72.539  1.00  0.00    -0.057 OA 
BRANCH  38  39
HETATM   39  C   UNL     1      -7.028   3.369  71.311  1.00  0.00    -0.032 C  
HETATM   40  C   UNL     1      -8.059   3.012  70.243  1.00  0.00    -0.056 C  
HETATM   41  C   UNL     1      -7.266   3.128  68.957  1.00  0.00    -0.049 C  
HETATM   42  C   UNL     1      -6.383   4.353  69.174  1.00  0.00    -0.032 C  
HETATM   43  C   UNL     1      -6.245   4.523  70.691  1.00  0.00    -0.022 C  
ENDBRANCH  38  39
ENDBRANCH  36  38
ENDBRANCH  31  34
ENDBRANCH  23  24
ENDBRANCH   6  23
ENDBRANCH   2   3
TORSDOF 9
ENDMDL
MODEL      144
REMARK 921   NORMALIZED FREE ENERGY PREDICTED BY IDOCK:   -3.48 KCAL/MOL
REMARK 922        TOTAL FREE ENERGY PREDICTED BY IDOCK:   -7.07 KCAL/MOL
REMARK 923 INTER-LIGAND FREE ENERGY PREDICTED BY IDOCK:   -7.44 KCAL/MOL
REMARK 924 INTRA-LIGAND FREE ENERGY PREDICTED BY IDOCK:    0.37 KCAL/MOL
REMARK 927      BINDING AFFINITY PREDICTED BY RF-SCORE:    0.00 PKD
ROOT
HETATM    1  C   UNL     1     -13.139   8.381  72.479  1.00  0.00    -0.170 C  
HETATM    2  O   UNL     1     -12.441   7.898  71.340  1.00  0.00    -0.313 OA 
ENDROOT
BRANCH   2   3
HETATM    3  C   UNL     1     -11.545   8.741  70.736  1.00  0.00    -0.251 A  
HETATM    4  C   UNL     1     -11.889   9.960  70.135  1.00  0.00    -0.191 A  
HETATM    5  C   UNL     1     -10.903  10.788  69.572  1.00  0.00    -0.288 A  
HETATM    6  C   UNL     1     -10.195   8.339  70.777  1.00  0.00    -0.219 A  
HETATM    7  C   UNL     1      -9.559  10.433  69.688  1.00  0.00    -0.142 A  
HETATM    8  C   UNL     1      -9.215   9.227  70.298  1.00  0.00    -0.273 A  
BRANCH   5   9
HETATM    9  C   UNL     1     -11.332  12.008  68.841  1.00  0.00    -0.278 C  
HETATM   10  N   UNL     1     -10.584  12.325  67.699  1.00  0.00    -0.211 N  
HETATM   11  H   UNL     1      -9.772  11.743  67.491  1.00  0.00     0.000 HD 
HETATM   12  O   UNL     1     -12.272  12.676  69.238  1.00  0.00    -0.197 OA 
BRANCH  10  13
HETATM   13  S   UNL     1     -10.920  13.578  66.659  1.00  0.00    -0.290 S  
HETATM   14  O   UNL     1     -12.316  13.480  66.284  1.00  0.00    -0.417 OA 
HETATM   15  O   UNL     1      -9.886  13.530  65.643  1.00  0.00    -0.251 OA 
BRANCH  13  16
HETATM   16  C   UNL     1     -10.666  15.062  67.612  1.00  0.00    -0.274 A  
HETATM   17  C   UNL     1     -11.671  15.425  68.523  1.00  0.00    -0.355 A  
HETATM   18  C   UNL     1      -8.417  15.553  66.481  1.00  0.00    -0.283 C  
HETATM   19  C   UNL     1     -11.540  16.582  69.289  1.00  0.00     0.051 A  
HETATM   20  C   UNL     1      -9.519  15.865  67.452  1.00  0.00    -0.220 A  
HETATM   21  C   UNL     1     -10.410  17.381  69.147  1.00  0.00    -0.271 A  
HETATM   22  C   UNL     1      -9.408  17.026  68.239  1.00  0.00    -0.255 A  
ENDBRANCH  13  16
ENDBRANCH  10  13
ENDBRANCH   5   9
BRANCH   6  23
HETATM   23  C   UNL     1      -9.765   7.010  71.360  1.00  0.00    -0.169 C  
BRANCH  23  24
HETATM   24  C   UNL     1      -9.600   5.989  70.262  1.00  0.00    -0.194 A  
HETATM   25  N   UNL     1      -9.443   3.992  69.260  1.00  0.00    -0.179 NA 
HETATM   26  C   UNL     1      -8.777   4.866  68.428  1.00  0.00    -0.101 A  
HETATM   27  C   UNL     1      -8.869   6.122  69.030  1.00  0.00    -0.123 A  
HETATM   28  C   UNL     1     -10.018   4.668  70.305  1.00  0.00    -0.239 A  
HETATM   29  C   UNL     1      -9.439   2.553  69.112  1.00  0.00    -0.073 C  
HETATM   30  C   UNL     1      -8.235   7.200  68.384  1.00  0.00    -0.125 A  
HETATM   31  C   UNL     1      -7.604   7.053  67.143  1.00  0.00    -0.107 A  
HETATM   32  C   UNL     1      -7.502   5.777  66.590  1.00  0.00    -0.084 A  
HETATM   33  C   UNL     1      -8.072   4.662  67.228  1.00  0.00    -0.102 A  
BRANCH  31  34
HETATM   34  N   UNL     1      -7.087   8.154  66.422  1.00  0.00    -0.073 N  
HETATM   35  H   UNL     1      -6.097   8.126  66.178  1.00  0.00     0.000 HD 
HETATM   36  C   UNL     1      -7.797   9.256  66.021  1.00  0.00    -0.102 C  
HETATM   37  O   UNL     1      -8.971   9.494  66.250  1.00  0.00    -0.146 OA 
BRANCH  36  38
HETATM   38  O   UNL     1      -7.011  10.099  65.288  1.00  0.00    -0.126 OA 
BRANCH  38  39
HETATM   39  C   UNL     1      -6.185  10.926  66.111  1.00  0.00    -0.130 C  
HETATM   40  C   UNL     1      -7.021  11.772  67.069  1.00  0.00    -0.135 C  
HETATM   41  C   UNL     1      -6.015  12.173  68.129  1.00  0.00    -0.055 C  
HETATM   42  C   UNL     1      -5.165  10.922  68.326  1.00  0.00    -0.040 C  
HETATM   43  C   UNL     1      -5.289  10.107  67.035  1.00  0.00    -0.041 C  
ENDBRANCH  38  39
ENDBRANCH  36  38
ENDBRANCH  31  34
ENDBRANCH  23  24
ENDBRANCH   6  23
ENDBRANCH   2   3
TORSDOF 9
ENDMDL
MODEL      145
REMARK 921   NORMALIZED FREE ENERGY PREDICTED BY IDOCK:   -3.45 KCAL/MOL
REMARK 922        TOTAL FREE ENERGY PREDICTED BY IDOCK:   -7.02 KCAL/MOL
REMARK 923 INTER-LIGAND FREE ENERGY PREDICTED BY IDOCK:   -7.16 KCAL/MOL
REMARK 924 INTRA-LIGAND FREE ENERGY PREDICTED BY IDOCK:    0.14 KCAL/MOL
REMARK 927      BINDING AFFINITY PREDICTED BY RF-SCORE:    0.00 PKD
ROOT
HETATM    1  C   UNL     1      -8.189  10.062  65.144  1.00  0.00    -0.146 C  
HETATM    2  O   UNL     1      -9.066  10.394  66.212  1.00  0.00    -0.153 OA 
ENDROOT
BRANCH   2   3
HETATM    3  C   UNL     1      -8.635  11.319  67.127  1.00  0.00    -0.147 A  
HETATM    4  C   UNL     1      -9.064  12.653  67.163  1.00  0.00    -0.210 A  
HETATM    5  C   UNL     1      -8.604  13.529  68.160  1.00  0.00    -0.173 A  
HETATM    6  C   UNL     1      -7.733  10.848  68.101  1.00  0.00    -0.103 A  
HETATM    7  C   UNL     1      -7.779  13.044  69.175  1.00  0.00     0.315 A  
HETATM    8  C   UNL     1      -7.364  11.714  69.148  1.00  0.00    -0.032 A  
BRANCH   5   9
HETATM    9  C   UNL     1      -8.992  14.961  68.082  1.00  0.00    -0.176 C  
HETATM   10  N   UNL     1      -9.572  15.367  66.872  1.00  0.00    -0.220 N  
HETATM   11  H   UNL     1      -9.627  14.679  66.121  1.00  0.00     0.000 HD 
HETATM   12  O   UNL     1      -8.799  15.713  69.022  1.00  0.00    -0.205 OA 
BRANCH  10  13
HETATM   13  S   UNL     1     -10.178  16.886  66.570  1.00  0.00    -0.311 S  
HETATM   14  O   UNL     1     -10.885  17.325  67.756  1.00  0.00    -0.351 OA 
HETATM   15  O   UNL     1     -10.873  16.783  65.302  1.00  0.00    -0.497 OA 
BRANCH  13  16
HETATM   16  C   UNL     1      -8.749  17.921  66.316  1.00  0.00    -0.169 A  
HETATM   17  C   UNL     1      -7.525  17.282  66.064  1.00  0.00    -0.232 A  
HETATM   18  C   UNL     1     -10.092  20.076  66.677  1.00  0.00    -0.607 C  
HETATM   19  C   UNL     1      -6.367  18.034  65.871  1.00  0.00    -0.294 A  
HETATM   20  C   UNL     1      -8.824  19.327  66.387  1.00  0.00    -0.365 A  
HETATM   21  C   UNL     1      -6.427  19.422  65.930  1.00  0.00    -0.240 A  
HETATM   22  C   UNL     1      -7.643  20.063  66.185  1.00  0.00    -0.327 A  
ENDBRANCH  13  16
ENDBRANCH  10  13
ENDBRANCH   5   9
BRANCH   6  23
HETATM   23  C   UNL     1      -7.189   9.436  68.085  1.00  0.00    -0.078 C  
BRANCH  23  24
HETATM   24  C   UNL     1      -8.271   8.457  68.470  1.00  0.00    -0.124 A  
HETATM   25  N   UNL     1      -9.683   7.291  69.759  1.00  0.00    -0.166 NA 
HETATM   26  C   UNL     1      -9.520   6.529  68.622  1.00  0.00    -0.123 A  
HETATM   27  C   UNL     1      -8.648   7.242  67.798  1.00  0.00    -0.120 A  
HETATM   28  C   UNL     1      -9.020   8.484  69.635  1.00  0.00    -0.145 A  
HETATM   29  C   UNL     1     -10.364   6.846  70.955  1.00  0.00    -0.198 C  
HETATM   30  C   UNL     1      -8.291   6.657  66.569  1.00  0.00    -0.117 A  
HETATM   31  C   UNL     1      -8.846   5.447  66.135  1.00  0.00    -0.139 A  
HETATM   32  C   UNL     1      -9.686   4.747  67.000  1.00  0.00    -0.205 A  
HETATM   33  C   UNL     1     -10.025   5.267  68.261  1.00  0.00    -0.214 A  
BRANCH  31  34
HETATM   34  N   UNL     1      -8.601   4.921  64.844  1.00  0.00    -0.143 N  
HETATM   35  H   UNL     1      -9.022   5.411  64.056  1.00  0.00     0.000 HD 
HETATM   36  C   UNL     1      -7.849   3.812  64.560  1.00  0.00    -0.085 C  
HETATM   37  O   UNL     1      -7.303   3.072  65.362  1.00  0.00    -0.069 OA 
BRANCH  36  38
HETATM   38  O   UNL     1      -7.761   3.618  63.211  1.00  0.00    -0.065 OA 
BRANCH  38  39
HETATM   39  C   UNL     1      -8.844   2.836  62.701  1.00  0.00    -0.077 C  
HETATM   40  C   UNL     1      -9.378   1.869  63.756  1.00  0.00    -0.107 C  
HETATM   41  C   UNL     1     -10.752   1.518  63.223  1.00  0.00    -0.161 C  
HETATM   42  C   UNL     1     -11.282   2.834  62.664  1.00  0.00    -0.039 C  
HETATM   43  C   UNL     1     -10.055   3.693  62.345  1.00  0.00    -0.143 C  
ENDBRANCH  38  39
ENDBRANCH  36  38
ENDBRANCH  31  34
ENDBRANCH  23  24
ENDBRANCH   6  23
ENDBRANCH   2   3
TORSDOF 9
ENDMDL
MODEL      146
REMARK 921   NORMALIZED FREE ENERGY PREDICTED BY IDOCK:   -3.43 KCAL/MOL
REMARK 922        TOTAL FREE ENERGY PREDICTED BY IDOCK:   -7.00 KCAL/MOL
REMARK 923 INTER-LIGAND FREE ENERGY PREDICTED BY IDOCK:   -7.37 KCAL/MOL
REMARK 924 INTRA-LIGAND FREE ENERGY PREDICTED BY IDOCK:    0.38 KCAL/MOL
REMARK 927      BINDING AFFINITY PREDICTED BY RF-SCORE:    0.00 PKD
ROOT
HETATM    1  C   UNL     1      -6.921   6.724  66.638  1.00  0.00    -0.066 C  
HETATM    2  O   UNL     1      -6.623   6.932  68.012  1.00  0.00    -0.054 OA 
ENDROOT
BRANCH   2   3
HETATM    3  C   UNL     1      -6.881   8.170  68.540  1.00  0.00    -0.068 A  
HETATM    4  C   UNL     1      -7.622   9.167  67.890  1.00  0.00    -0.085 A  
HETATM    5  C   UNL     1      -7.878  10.397  68.518  1.00  0.00    -0.107 A  
HETATM    6  C   UNL     1      -6.386   8.402  69.839  1.00  0.00    -0.035 A  
HETATM    7  C   UNL     1      -7.463  10.597  69.835  1.00  0.00    -0.024 A  
HETATM    8  C   UNL     1      -6.738   9.601  70.487  1.00  0.00    -0.119 A  
BRANCH   5   9
HETATM    9  C   UNL     1      -8.561  11.463  67.741  1.00  0.00    -0.129 C  
HETATM   10  N   UNL     1      -8.118  12.770  67.984  1.00  0.00    -0.151 N  
HETATM   11  H   UNL     1      -7.415  12.902  68.711  1.00  0.00     0.000 HD 
HETATM   12  O   UNL     1      -9.454  11.190  66.956  1.00  0.00    -0.174 OA 
BRANCH  10  13
HETATM   13  S   UNL     1      -8.651  14.122  67.176  1.00  0.00    -0.190 S  
HETATM   14  O   UNL     1      -9.420  13.679  66.031  1.00  0.00    -0.209 OA 
HETATM   15  O   UNL     1      -7.478  14.953  66.990  1.00  0.00    -0.145 OA 
BRANCH  13  16
HETATM   16  C   UNL     1      -9.727  14.962  68.322  1.00  0.00    -0.215 A  
HETATM   17  C   UNL     1     -10.665  14.183  69.018  1.00  0.00    -0.249 A  
HETATM   18  C   UNL     1      -8.709  17.255  67.789  1.00  0.00    -0.226 C  
HETATM   19  C   UNL     1     -11.545  14.781  69.918  1.00  0.00    -0.330 A  
HETATM   20  C   UNL     1      -9.668  16.357  68.515  1.00  0.00    -0.228 A  
HETATM   21  C   UNL     1     -11.494  16.156  70.125  1.00  0.00    -0.309 A  
HETATM   22  C   UNL     1     -10.564  16.936  69.432  1.00  0.00    -0.292 A  
ENDBRANCH  13  16
ENDBRANCH  10  13
ENDBRANCH   5   9
BRANCH   6  23
HETATM   23  C   UNL     1      -5.533   7.390  70.572  1.00  0.00    -0.024 C  
BRANCH  23  24
HETATM   24  C   UNL     1      -6.346   6.160  70.893  1.00  0.00    -0.040 A  
HETATM   25  N   UNL     1      -7.011   4.021  70.880  1.00  0.00    -0.032 NA 
HETATM   26  C   UNL     1      -8.134   4.746  71.215  1.00  0.00    -0.101 A  
HETATM   27  C   UNL     1      -7.741   6.084  71.238  1.00  0.00    -0.110 A  
HETATM   28  C   UNL     1      -5.920   4.846  70.781  1.00  0.00    -0.018 A  
HETATM   29  C   UNL     1      -7.007   2.609  70.567  1.00  0.00    -0.033 C  
HETATM   30  C   UNL     1      -8.727   7.046  71.530  1.00  0.00    -0.121 A  
HETATM   31  C   UNL     1     -10.036   6.685  71.871  1.00  0.00    -0.177 A  
HETATM   32  C   UNL     1     -10.400   5.342  71.803  1.00  0.00    -0.277 A  
HETATM   33  C   UNL     1      -9.462   4.352  71.461  1.00  0.00    -0.215 A  
BRANCH  31  34
HETATM   34  N   UNL     1     -10.995   7.633  72.300  1.00  0.00    -0.258 N  
HETATM   35  H   UNL     1     -10.652   8.433  72.830  1.00  0.00     0.000 HD 
HETATM   36  C   UNL     1     -12.344   7.570  72.067  1.00  0.00    -0.271 C  
HETATM   37  O   UNL     1     -12.948   6.679  71.494  1.00  0.00    -0.274 OA 
BRANCH  36  38
HETATM   38  O   UNL     1     -12.973   8.677  72.561  1.00  0.00    -0.371 OA 
BRANCH  38  39
HETATM   39  C   UNL     1     -13.142   9.695  71.570  1.00  0.00    -0.400 C  
HETATM   40  C   UNL     1     -13.002  11.090  72.174  1.00  0.00    -0.244 C  
HETATM   41  C   UNL     1     -12.726  11.955  70.961  1.00  0.00    -0.354 C  
HETATM   42  C   UNL     1     -11.799  11.103  70.100  1.00  0.00    -0.449 C  
HETATM   43  C   UNL     1     -12.051   9.647  70.505  1.00  0.00    -0.198 C  
ENDBRANCH  38  39
ENDBRANCH  36  38
ENDBRANCH  31  34
ENDBRANCH  23  24
ENDBRANCH   6  23
ENDBRANCH   2   3
TORSDOF 9
ENDMDL
MODEL      147
REMARK 921   NORMALIZED FREE ENERGY PREDICTED BY IDOCK:   -3.41 KCAL/MOL
REMARK 922        TOTAL FREE ENERGY PREDICTED BY IDOCK:   -6.97 KCAL/MOL
REMARK 923 INTER-LIGAND FREE ENERGY PREDICTED BY IDOCK:   -7.00 KCAL/MOL
REMARK 924 INTRA-LIGAND FREE ENERGY PREDICTED BY IDOCK:    0.03 KCAL/MOL
REMARK 927      BINDING AFFINITY PREDICTED BY RF-SCORE:    0.00 PKD
ROOT
HETATM    1  C   UNL     1      -5.672  15.462  69.983  1.00  0.00    -0.137 C  
HETATM    2  O   UNL     1      -6.520  15.448  68.843  1.00  0.00    -0.103 OA 
ENDROOT
BRANCH   2   3
HETATM    3  C   UNL     1      -7.249  14.313  68.604  1.00  0.00    -0.125 A  
HETATM    4  C   UNL     1      -6.692  13.077  68.244  1.00  0.00    -0.096 A  
HETATM    5  C   UNL     1      -7.506  11.949  68.056  1.00  0.00    -0.107 A  
HETATM    6  C   UNL     1      -8.642  14.426  68.779  1.00  0.00    -0.125 A  
HETATM    7  C   UNL     1      -8.874  12.037  68.312  1.00  0.00    -0.182 A  
HETATM    8  C   UNL     1      -9.427  13.262  68.683  1.00  0.00    -0.020 A  
BRANCH   5   9
HETATM    9  C   UNL     1      -6.881  10.696  67.558  1.00  0.00    -0.078 C  
HETATM   10  N   UNL     1      -7.404   9.507  68.082  1.00  0.00    -0.078 N  
HETATM   11  H   UNL     1      -8.120   9.584  68.804  1.00  0.00     0.000 HD 
HETATM   12  O   UNL     1      -5.966  10.732  66.751  1.00  0.00    -0.061 OA 
BRANCH  10  13
HETATM   13  S   UNL     1      -6.945   7.978  67.615  1.00  0.00    -0.076 S  
HETATM   14  O   UNL     1      -5.840   7.570  68.458  1.00  0.00    -0.025 OA 
HETATM   15  O   UNL     1      -6.780   8.043  66.176  1.00  0.00    -0.052 OA 
BRANCH  13  16
HETATM   16  C   UNL     1      -8.356   6.941  67.948  1.00  0.00    -0.121 A  
HETATM   17  C   UNL     1      -9.420   7.508  68.667  1.00  0.00    -0.146 A  
HETATM   18  C   UNL     1      -7.298   4.916  66.783  1.00  0.00    -0.086 C  
HETATM   19  C   UNL     1     -10.546   6.746  68.972  1.00  0.00    -0.258 A  
HETATM   20  C   UNL     1      -8.407   5.594  67.533  1.00  0.00    -0.100 A  
HETATM   21  C   UNL     1     -10.614   5.418  68.563  1.00  0.00    -0.153 A  
HETATM   22  C   UNL     1      -9.556   4.848  67.850  1.00  0.00    -0.186 A  
ENDBRANCH  13  16
ENDBRANCH  10  13
ENDBRANCH   5   9
BRANCH   6  23
HETATM   23  C   UNL     1      -9.311  15.742  69.111  1.00  0.00    -0.258 C  
BRANCH  23  24
HETATM   24  C   UNL     1      -9.655  16.485  67.844  1.00  0.00    -0.233 A  
HETATM   25  N   UNL     1     -10.240  18.175  66.495  1.00  0.00    -0.373 NA 
HETATM   26  C   UNL     1     -10.613  17.032  65.823  1.00  0.00    -0.211 A  
HETATM   27  C   UNL     1     -10.250  15.963  66.642  1.00  0.00    -0.293 A  
HETATM   28  C   UNL     1      -9.582  17.856  67.655  1.00  0.00    -0.270 A  
HETATM   29  C   UNL     1     -10.592  19.518  66.091  1.00  0.00    -0.487 C  
HETATM   30  C   UNL     1     -10.554  14.665  66.190  1.00  0.00    -0.314 A  
HETATM   31  C   UNL     1     -11.121  14.432  64.932  1.00  0.00    -0.398 A  
HETATM   32  C   UNL     1     -11.502  15.526  64.156  1.00  0.00    -0.063 A  
HETATM   33  C   UNL     1     -11.269  16.842  64.593  1.00  0.00     0.098 A  
BRANCH  31  34
HETATM   34  N   UNL     1     -11.301  13.129  64.411  1.00  0.00    -0.347 N  
HETATM   35  H   UNL     1     -12.126  12.969  63.834  1.00  0.00     0.000 HD 
HETATM   36  C   UNL     1     -10.466  12.062  64.614  1.00  0.00    -0.297 C  
HETATM   37  O   UNL     1      -9.459  12.040  65.303  1.00  0.00    -0.160 OA 
BRANCH  36  38
HETATM   38  O   UNL     1     -10.896  10.970  63.916  1.00  0.00    -0.356 OA 
BRANCH  38  39
HETATM   39  C   UNL     1      -9.851  10.368  63.147  1.00  0.00    -0.158 C  
HETATM   40  C   UNL     1      -8.821  11.403  62.702  1.00  0.00    -0.163 C  
HETATM   41  C   UNL     1      -7.615  10.551  62.360  1.00  0.00    -0.173 C  
HETATM   42  C   UNL     1      -7.601   9.476  63.442  1.00  0.00    -0.116 C  
HETATM   43  C   UNL     1      -9.037   9.370  63.965  1.00  0.00    -0.110 C  
ENDBRANCH  38  39
ENDBRANCH  36  38
ENDBRANCH  31  34
ENDBRANCH  23  24
ENDBRANCH   6  23
ENDBRANCH   2   3
TORSDOF 9
ENDMDL
MODEL      148
REMARK 921   NORMALIZED FREE ENERGY PREDICTED BY IDOCK:   -3.41 KCAL/MOL
REMARK 922        TOTAL FREE ENERGY PREDICTED BY IDOCK:   -6.96 KCAL/MOL
REMARK 923 INTER-LIGAND FREE ENERGY PREDICTED BY IDOCK:   -8.45 KCAL/MOL
REMARK 924 INTRA-LIGAND FREE ENERGY PREDICTED BY IDOCK:    1.49 KCAL/MOL
REMARK 927      BINDING AFFINITY PREDICTED BY RF-SCORE:    0.00 PKD
ROOT
HETATM    1  C   UNL     1     -12.227  14.763  64.480  1.00  0.00    -0.428 C  
HETATM    2  O   UNL     1     -11.894  13.509  65.062  1.00  0.00    -0.328 OA 
ENDROOT
BRANCH   2   3
HETATM    3  C   UNL     1     -10.695  13.409  65.718  1.00  0.00    -0.274 A  
HETATM    4  C   UNL     1     -10.124  12.200  66.140  1.00  0.00    -0.251 A  
HETATM    5  C   UNL     1      -8.869  12.180  66.771  1.00  0.00    -0.198 A  
HETATM    6  C   UNL     1     -10.005  14.619  65.929  1.00  0.00    -0.352 A  
HETATM    7  C   UNL     1      -8.146  13.365  66.904  1.00  0.00     0.097 A  
HETATM    8  C   UNL     1      -8.708  14.566  66.472  1.00  0.00    -0.079 A  
BRANCH   5   9
HETATM    9  C   UNL     1      -8.364  10.889  67.306  1.00  0.00    -0.123 C  
HETATM   10  N   UNL     1      -8.752  10.584  68.618  1.00  0.00    -0.135 N  
HETATM   11  H   UNL     1      -9.290  11.286  69.127  1.00  0.00     0.000 HD 
HETATM   12  O   UNL     1      -7.653  10.167  66.629  1.00  0.00    -0.102 OA 
BRANCH  10  13
HETATM   13  S   UNL     1      -8.402   9.164  69.408  1.00  0.00    -0.130 S  
HETATM   14  O   UNL     1      -9.115   9.170  70.670  1.00  0.00    -0.216 OA 
HETATM   15  O   UNL     1      -6.956   9.052  69.388  1.00  0.00    -0.051 OA 
BRANCH  13  16
HETATM   16  C   UNL     1      -9.054   7.872  68.367  1.00  0.00    -0.135 A  
HETATM   17  C   UNL     1     -10.420   7.925  68.050  1.00  0.00    -0.245 A  
HETATM   18  C   UNL     1      -6.786   6.684  68.210  1.00  0.00    -0.068 C  
HETATM   19  C   UNL     1     -10.995   6.938  67.253  1.00  0.00    -0.406 A  
HETATM   20  C   UNL     1      -8.247   6.818  67.892  1.00  0.00    -0.117 A  
HETATM   21  C   UNL     1     -10.210   5.896  66.769  1.00  0.00    -0.269 A  
HETATM   22  C   UNL     1      -8.850   5.837  67.085  1.00  0.00    -0.107 A  
ENDBRANCH  13  16
ENDBRANCH  10  13
ENDBRANCH   5   9
BRANCH   6  23
HETATM   23  C   UNL     1     -10.591  15.962  65.549  1.00  0.00    -0.419 C  
BRANCH  23  24
HETATM   24  C   UNL     1     -10.571  16.893  66.736  1.00  0.00    -0.201 A  
HETATM   25  N   UNL     1     -10.040  18.655  68.011  1.00  0.00    -0.356 NA 
HETATM   26  C   UNL     1     -10.434  17.676  68.896  1.00  0.00    -0.256 A  
HETATM   27  C   UNL     1     -10.779  16.568  68.122  1.00  0.00    -0.343 A  
HETATM   28  C   UNL     1     -10.210  18.230  66.719  1.00  0.00    -0.378 A  
HETATM   29  C   UNL     1      -9.428  19.909  68.392  1.00  0.00    -0.272 C  
HETATM   30  C   UNL     1     -11.195  15.406  68.799  1.00  0.00    -0.305 A  
HETATM   31  C   UNL     1     -11.343  15.372  70.190  1.00  0.00    -0.303 A  
HETATM   32  C   UNL     1     -10.956  16.486  70.933  1.00  0.00     0.176 A  
HETATM   33  C   UNL     1     -10.482  17.649  70.303  1.00  0.00     1.114 A  
BRANCH  31  34
HETATM   34  N   UNL     1     -11.891  14.256  70.866  1.00  0.00    -0.460 N  
HETATM   35  H   UNL     1     -11.265  13.475  71.058  1.00  0.00     0.000 HD 
HETATM   36  C   UNL     1     -13.190  14.132  71.286  1.00  0.00    -0.329 C  
HETATM   37  O   UNL     1     -14.095  14.932  71.115  1.00  0.00    -0.401 OA 
BRANCH  36  38
HETATM   38  O   UNL     1     -13.370  12.960  71.964  1.00  0.00    -0.479 OA 
BRANCH  38  39
HETATM   39  C   UNL     1     -12.491  11.928  71.510  1.00  0.00    -0.080 C  
HETATM   40  C   UNL     1     -13.010  10.544  71.895  1.00  0.00    -0.553 C  
HETATM   41  C   UNL     1     -12.259   9.628  70.951  1.00  0.00    -0.368 C  
HETATM   42  C   UNL     1     -12.236  10.393  69.631  1.00  0.00    -0.118 C  
HETATM   43  C   UNL     1     -12.405  11.874  69.987  1.00  0.00    -0.202 C  
ENDBRANCH  38  39
ENDBRANCH  36  38
ENDBRANCH  31  34
ENDBRANCH  23  24
ENDBRANCH   6  23
ENDBRANCH   2   3
TORSDOF 9
ENDMDL
MODEL      149
REMARK 921   NORMALIZED FREE ENERGY PREDICTED BY IDOCK:   -3.39 KCAL/MOL
REMARK 922        TOTAL FREE ENERGY PREDICTED BY IDOCK:   -6.94 KCAL/MOL
REMARK 923 INTER-LIGAND FREE ENERGY PREDICTED BY IDOCK:   -7.35 KCAL/MOL
REMARK 924 INTRA-LIGAND FREE ENERGY PREDICTED BY IDOCK:    0.41 KCAL/MOL
REMARK 927      BINDING AFFINITY PREDICTED BY RF-SCORE:    0.00 PKD
ROOT
HETATM    1  C   UNL     1      -5.129   6.235  65.304  1.00  0.00    -0.013 C  
HETATM    2  O   UNL     1      -5.407   7.182  64.281  1.00  0.00    -0.028 OA 
ENDROOT
BRANCH   2   3
HETATM    3  C   UNL     1      -6.297   8.184  64.565  1.00  0.00    -0.064 A  
HETATM    4  C   UNL     1      -5.991   9.320  65.329  1.00  0.00    -0.062 A  
HETATM    5  C   UNL     1      -6.950  10.324  65.540  1.00  0.00    -0.138 A  
HETATM    6  C   UNL     1      -7.582   8.046  64.003  1.00  0.00    -0.124 A  
HETATM    7  C   UNL     1      -8.193  10.231  64.914  1.00  0.00    -0.157 A  
HETATM    8  C   UNL     1      -8.494   9.108  64.144  1.00  0.00    -0.198 A  
BRANCH   5   9
HETATM    9  C   UNL     1      -6.615  11.445  66.456  1.00  0.00    -0.071 C  
HETATM   10  N   UNL     1      -7.684  12.279  66.810  1.00  0.00    -0.377 N  
HETATM   11  H   UNL     1      -8.588  12.100  66.371  1.00  0.00     0.000 HD 
HETATM   12  O   UNL     1      -5.473  11.610  66.850  1.00  0.00    -0.105 OA 
BRANCH  10  13
HETATM   13  S   UNL     1      -7.591  13.538  67.891  1.00  0.00    -0.171 S  
HETATM   14  O   UNL     1      -6.748  14.562  67.307  1.00  0.00    -0.274 OA 
HETATM   15  O   UNL     1      -7.234  12.936  69.161  1.00  0.00    -0.037 OA 
BRANCH  13  16
HETATM   16  C   UNL     1      -9.256  14.156  68.040  1.00  0.00    -0.195 A  
HETATM   17  C   UNL     1      -9.421  15.452  68.554  1.00  0.00    -0.202 A  
HETATM   18  C   UNL     1     -10.276  11.978  67.150  1.00  0.00    -0.221 C  
HETATM   19  C   UNL     1     -10.698  15.989  68.709  1.00  0.00    -0.282 A  
HETATM   20  C   UNL     1     -10.376  13.378  67.683  1.00  0.00    -0.238 A  
HETATM   21  C   UNL     1     -11.812  15.236  68.353  1.00  0.00    -0.283 A  
HETATM   22  C   UNL     1     -11.653  13.944  67.844  1.00  0.00    -0.377 A  
ENDBRANCH  13  16
ENDBRANCH  10  13
ENDBRANCH   5   9
BRANCH   6  23
HETATM   23  C   UNL     1      -7.993   6.820  63.217  1.00  0.00    -0.074 C  
BRANCH  23  24
HETATM   24  C   UNL     1      -8.262   5.668  64.153  1.00  0.00    -0.111 A  
HETATM   25  N   UNL     1      -8.715   3.586  64.842  1.00  0.00    -0.112 NA 
HETATM   26  C   UNL     1      -9.136   4.404  65.868  1.00  0.00    -0.133 A  
HETATM   27  C   UNL     1      -8.855   5.710  65.464  1.00  0.00    -0.135 A  
HETATM   28  C   UNL     1      -8.106   4.323  63.860  1.00  0.00    -0.093 A  
HETATM   29  C   UNL     1      -8.980   2.166  64.763  1.00  0.00    -0.123 C  
HETATM   30  C   UNL     1      -9.221   6.753  66.335  1.00  0.00    -0.185 A  
HETATM   31  C   UNL     1      -9.769   6.505  67.599  1.00  0.00    -0.123 A  
HETATM   32  C   UNL     1     -10.068   5.190  67.953  1.00  0.00    -0.193 A  
HETATM   33  C   UNL     1      -9.771   4.121  67.091  1.00  0.00    -0.224 A  
BRANCH  31  34
HETATM   34  N   UNL     1     -10.011   7.537  68.536  1.00  0.00    -0.163 N  
HETATM   35  H   UNL     1      -9.592   8.447  68.343  1.00  0.00     0.000 HD 
HETATM   36  C   UNL     1     -10.757   7.424  69.679  1.00  0.00    -0.235 C  
HETATM   37  O   UNL     1     -11.300   6.417  70.103  1.00  0.00    -0.361 OA 
BRANCH  36  38
HETATM   38  O   UNL     1     -10.844   8.625  70.323  1.00  0.00    -0.230 OA 
BRANCH  38  39
HETATM   39  C   UNL     1     -10.044   8.668  71.508  1.00  0.00    -0.274 C  
HETATM   40  C   UNL     1     -10.785   8.070  72.702  1.00  0.00    -0.426 C  
HETATM   41  C   UNL     1      -9.664   7.764  73.673  1.00  0.00    -0.248 C  
HETATM   42  C   UNL     1      -8.537   7.240  72.788  1.00  0.00    -0.141 C  
HETATM   43  C   UNL     1      -8.791   7.805  71.387  1.00  0.00    -0.149 C  
ENDBRANCH  38  39
ENDBRANCH  36  38
ENDBRANCH  31  34
ENDBRANCH  23  24
ENDBRANCH   6  23
ENDBRANCH   2   3
TORSDOF 9
ENDMDL
MODEL      150
REMARK 921   NORMALIZED FREE ENERGY PREDICTED BY IDOCK:   -3.13 KCAL/MOL
REMARK 922        TOTAL FREE ENERGY PREDICTED BY IDOCK:   -6.54 KCAL/MOL
REMARK 923 INTER-LIGAND FREE ENERGY PREDICTED BY IDOCK:   -7.65 KCAL/MOL
REMARK 924 INTRA-LIGAND FREE ENERGY PREDICTED BY IDOCK:    1.11 KCAL/MOL
REMARK 927      BINDING AFFINITY PREDICTED BY RF-SCORE:    0.00 PKD
ROOT
HETATM    1  C   UNL     1     -11.608  12.078  65.008  1.00  0.00    -0.263 C  
HETATM    2  O   UNL     1     -10.204  12.215  64.833  1.00  0.00    -0.270 OA 
ENDROOT
BRANCH   2   3
HETATM    3  C   UNL     1      -9.398  11.234  65.350  1.00  0.00    -0.210 A  
HETATM    4  C   UNL     1      -9.220   9.971  64.768  1.00  0.00    -0.301 A  
HETATM    5  C   UNL     1      -8.343   9.034  65.338  1.00  0.00    -0.151 A  
HETATM    6  C   UNL     1      -8.691  11.570  66.521  1.00  0.00    -0.183 A  
HETATM    7  C   UNL     1      -7.578   9.394  66.448  1.00  0.00    -0.097 A  
HETATM    8  C   UNL     1      -7.745  10.655  67.019  1.00  0.00    -0.117 A  
BRANCH   5   9
HETATM    9  C   UNL     1      -8.282   7.670  64.754  1.00  0.00    -0.078 C  
HETATM   10  N   UNL     1      -8.309   6.613  65.675  1.00  0.00    -0.141 N  
HETATM   11  H   UNL     1      -8.303   6.852  66.667  1.00  0.00     0.000 HD 
HETATM   12  O   UNL     1      -8.205   7.510  63.547  1.00  0.00    -0.066 OA 
BRANCH  10  13
HETATM   13  S   UNL     1      -8.350   5.001  65.272  1.00  0.00    -0.141 S  
HETATM   14  O   UNL     1      -7.128   4.691  64.557  1.00  0.00    -0.049 OA 
HETATM   15  O   UNL     1      -9.638   4.789  64.642  1.00  0.00    -0.075 OA 
BRANCH  13  16
HETATM   16  C   UNL     1      -8.362   4.127  66.826  1.00  0.00    -0.101 A  
HETATM   17  C   UNL     1      -9.397   3.203  67.040  1.00  0.00    -0.180 A  
HETATM   18  C   UNL     1      -6.273   5.352  67.673  1.00  0.00    -0.034 C  
HETATM   19  C   UNL     1      -9.472   2.498  68.239  1.00  0.00    -0.222 A  
HETATM   20  C   UNL     1      -7.392   4.362  67.822  1.00  0.00    -0.069 A  
HETATM   21  C   UNL     1      -8.518   2.713  69.228  1.00  0.00    -0.099 A  
HETATM   22  C   UNL     1      -7.488   3.635  69.022  1.00  0.00    -0.053 A  
ENDBRANCH  13  16
ENDBRANCH  10  13
ENDBRANCH   5   9
BRANCH   6  23
HETATM   23  C   UNL     1      -8.882  12.894  67.229  1.00  0.00    -0.206 C  
BRANCH  23  24
HETATM   24  C   UNL     1      -7.733  13.149  68.173  1.00  0.00    -0.143 A  
HETATM   25  N   UNL     1      -6.217  12.782  69.781  1.00  0.00    -0.127 NA 
HETATM   26  C   UNL     1      -6.368  14.151  69.733  1.00  0.00    -0.141 A  
HETATM   27  C   UNL     1      -7.304  14.404  68.730  1.00  0.00    -0.131 A  
HETATM   28  C   UNL     1      -6.954  12.184  68.791  1.00  0.00    -0.101 A  
HETATM   29  C   UNL     1      -5.477  12.072  70.800  1.00  0.00    -0.146 C  
HETATM   30  C   UNL     1      -7.660  15.746  68.497  1.00  0.00    -0.138 A  
HETATM   31  C   UNL     1      -7.047  16.804  69.178  1.00  0.00    -0.222 A  
HETATM   32  C   UNL     1      -6.143  16.511  70.197  1.00  0.00    -0.075 A  
HETATM   33  C   UNL     1      -5.798  15.183  70.502  1.00  0.00    -0.105 A  
BRANCH  31  34
HETATM   34  N   UNL     1      -7.297  18.159  68.855  1.00  0.00    -0.268 N  
HETATM   35  H   UNL     1      -7.808  18.714  69.541  1.00  0.00     0.000 HD 
HETATM   36  C   UNL     1      -6.914  18.792  67.702  1.00  0.00    -0.206 C  
HETATM   37  O   UNL     1      -6.336  18.294  66.750  1.00  0.00    -0.171 OA 
BRANCH  36  38
HETATM   38  O   UNL     1      -7.255  20.114  67.738  1.00  0.00    -0.275 OA 
BRANCH  38  39
HETATM   39  C   UNL     1      -8.626  20.333  67.398  1.00  0.00    -0.343 C  
HETATM   40  C   UNL     1      -8.966  19.727  66.038  1.00  0.00    -0.302 C  
HETATM   41  C   UNL     1     -10.478  19.625  66.084  1.00  0.00    -0.624 C  
HETATM   42  C   UNL     1     -10.778  19.190  67.515  1.00  0.00    -0.555 C  
HETATM   43  C   UNL     1      -9.577  19.627  68.361  1.00  0.00    -0.468 C  
ENDBRANCH  38  39
ENDBRANCH  36  38
ENDBRANCH  31  34
ENDBRANCH  23  24
ENDBRANCH   6  23
ENDBRANCH   2   3
TORSDOF 9
ENDMDL
MODEL      151
REMARK 921   NORMALIZED FREE ENERGY PREDICTED BY IDOCK:   -3.05 KCAL/MOL
REMARK 922        TOTAL FREE ENERGY PREDICTED BY IDOCK:   -6.42 KCAL/MOL
REMARK 923 INTER-LIGAND FREE ENERGY PREDICTED BY IDOCK:   -6.85 KCAL/MOL
REMARK 924 INTRA-LIGAND FREE ENERGY PREDICTED BY IDOCK:    0.43 KCAL/MOL
REMARK 927      BINDING AFFINITY PREDICTED BY RF-SCORE:    0.00 PKD
ROOT
HETATM    1  C   UNL     1     -11.623  11.510  67.058  1.00  0.00    -0.122 C  
HETATM    2  O   UNL     1     -12.197  11.618  68.353  1.00  0.00    -0.498 OA 
ENDROOT
BRANCH   2   3
HETATM    3  C   UNL     1     -11.939  12.756  69.072  1.00  0.00    -0.242 A  
HETATM    4  C   UNL     1     -11.487  13.959  68.512  1.00  0.00    -0.346 A  
HETATM    5  C   UNL     1     -11.285  15.095  69.314  1.00  0.00    -0.287 A  
HETATM    6  C   UNL     1     -12.193  12.682  70.456  1.00  0.00    -0.383 A  
HETATM    7  C   UNL     1     -11.618  15.049  70.667  1.00  0.00    -0.358 A  
HETATM    8  C   UNL     1     -12.080  13.857  71.223  1.00  0.00    -0.254 A  
BRANCH   5   9
HETATM    9  C   UNL     1     -10.691  16.307  68.693  1.00  0.00    -0.309 C  
HETATM   10  N   UNL     1     -11.062  16.551  67.363  1.00  0.00    -0.113 N  
HETATM   11  H   UNL     1     -11.652  15.857  66.903  1.00  0.00     0.000 HD 
HETATM   12  O   UNL     1      -9.925  17.019  69.320  1.00  0.00    -0.247 OA 
BRANCH  10  13
HETATM   13  S   UNL     1     -10.613  17.886  66.480  1.00  0.00    -0.155 S  
HETATM   14  O   UNL     1     -11.030  19.064  67.214  1.00  0.00    -0.459 OA 
HETATM   15  O   UNL     1     -11.106  17.650  65.137  1.00  0.00    -0.548 OA 
BRANCH  13  16
HETATM   16  C   UNL     1      -8.832  17.830  66.414  1.00  0.00    -0.231 A  
HETATM   17  C   UNL     1      -8.145  19.054  66.458  1.00  0.00    -0.300 A  
HETATM   18  C   UNL     1      -8.796  15.273  66.220  1.00  0.00    -0.262 C  
HETATM   19  C   UNL     1      -6.753  19.080  66.396  1.00  0.00    -0.223 A  
HETATM   20  C   UNL     1      -8.127  16.615  66.297  1.00  0.00    -0.361 A  
HETATM   21  C   UNL     1      -6.043  17.888  66.289  1.00  0.00    -0.241 A  
HETATM   22  C   UNL     1      -6.723  16.668  66.241  1.00  0.00     0.254 A  
ENDBRANCH  13  16
ENDBRANCH  10  13
ENDBRANCH   5   9
BRANCH   6  23
HETATM   23  C   UNL     1     -12.628  11.399  71.131  1.00  0.00    -0.490 C  
BRANCH  23  24
HETATM   24  C   UNL     1     -11.954  10.216  70.481  1.00  0.00    -0.400 A  
HETATM   25  N   UNL     1     -11.530   8.089  69.922  1.00  0.00     0.057 NA 
HETATM   26  C   UNL     1     -10.331   8.750  69.761  1.00  0.00    -0.211 A  
HETATM   27  C   UNL     1     -10.574  10.082  70.097  1.00  0.00    -0.350 A  
HETATM   28  C   UNL     1     -12.523   8.973  70.257  1.00  0.00     0.595 A  
HETATM   29  C   UNL     1     -11.692   6.654  69.856  1.00  0.00    -0.270 C  
HETATM   30  C   UNL     1      -9.486  10.974  70.043  1.00  0.00     1.152 A  
HETATM   31  C   UNL     1      -8.223  10.576  69.590  1.00  0.00    -0.015 A  
HETATM   32  C   UNL     1      -8.010   9.230  69.297  1.00  0.00    -0.098 A  
HETATM   33  C   UNL     1      -9.053   8.293  69.391  1.00  0.00    -0.154 A  
BRANCH  31  34
HETATM   34  N   UNL     1      -7.162  11.493  69.400  1.00  0.00    -0.316 N  
HETATM   35  H   UNL     1      -6.573  11.695  70.207  1.00  0.00     0.000 HD 
HETATM   36  C   UNL     1      -6.858  12.135  68.228  1.00  0.00    -0.069 C  
HETATM   37  O   UNL     1      -7.464  12.060  67.172  1.00  0.00    -0.142 OA 
BRANCH  36  38
HETATM   38  O   UNL     1      -5.735  12.899  68.372  1.00  0.00    -0.060 OA 
BRANCH  38  39
HETATM   39  C   UNL     1      -5.905  13.940  69.337  1.00  0.00    -0.093 C  
HETATM   40  C   UNL     1      -5.156  15.206  68.928  1.00  0.00    -0.096 C  
HETATM   41  C   UNL     1      -5.828  16.279  69.762  1.00  0.00    -0.182 C  
HETATM   42  C   UNL     1      -7.305  15.897  69.737  1.00  0.00     0.036 C  
HETATM   43  C   UNL     1      -7.358  14.394  69.443  1.00  0.00    -0.060 C  
ENDBRANCH  38  39
ENDBRANCH  36  38
ENDBRANCH  31  34
ENDBRANCH  23  24
ENDBRANCH   6  23
ENDBRANCH   2   3
TORSDOF 9
ENDMDL
MODEL      152
REMARK 921   NORMALIZED FREE ENERGY PREDICTED BY IDOCK:   -3.03 KCAL/MOL
REMARK 922        TOTAL FREE ENERGY PREDICTED BY IDOCK:   -6.39 KCAL/MOL
REMARK 923 INTER-LIGAND FREE ENERGY PREDICTED BY IDOCK:   -7.48 KCAL/MOL
REMARK 924 INTRA-LIGAND FREE ENERGY PREDICTED BY IDOCK:    1.09 KCAL/MOL
REMARK 927      BINDING AFFINITY PREDICTED BY RF-SCORE:    0.00 PKD
ROOT
HETATM    1  C   UNL     1     -12.220  12.326  66.066  1.00  0.00     0.031 C  
HETATM    2  O   UNL     1     -10.875  11.892  65.915  1.00  0.00    -0.277 OA 
ENDROOT
BRANCH   2   3
HETATM    3  C   UNL     1     -10.430  10.896  66.745  1.00  0.00    -0.251 A  
HETATM    4  C   UNL     1     -10.619   9.527  66.508  1.00  0.00    -0.133 A  
HETATM    5  C   UNL     1     -10.095   8.566  67.389  1.00  0.00    -0.298 A  
HETATM    6  C   UNL     1      -9.708  11.315  67.879  1.00  0.00    -0.185 A  
HETATM    7  C   UNL     1      -9.307   8.976  68.464  1.00  0.00    -0.141 A  
HETATM    8  C   UNL     1      -9.108  10.337  68.693  1.00  0.00    -0.152 A  
BRANCH   5   9
HETATM    9  C   UNL     1     -10.426   7.136  67.159  1.00  0.00    -0.319 C  
HETATM   10  N   UNL     1      -9.477   6.403  66.434  1.00  0.00    -0.236 N  
HETATM   11  H   UNL     1      -8.671   6.908  66.066  1.00  0.00     0.000 HD 
HETATM   12  O   UNL     1     -11.468   6.661  67.578  1.00  0.00    -0.161 OA 
BRANCH  10  13
HETATM   13  S   UNL     1      -9.566   4.771  66.129  1.00  0.00    -0.199 S  
HETATM   14  O   UNL     1     -10.607   4.560  65.143  1.00  0.00    -0.206 OA 
HETATM   15  O   UNL     1      -9.653   4.135  67.429  1.00  0.00    -0.176 OA 
BRANCH  13  16
HETATM   16  C   UNL     1      -7.987   4.337  65.424  1.00  0.00    -0.097 A  
HETATM   17  C   UNL     1      -7.072   5.377  65.198  1.00  0.00    -0.065 A  
HETATM   18  C   UNL     1      -8.601   1.851  65.267  1.00  0.00    -0.110 C  
HETATM   19  C   UNL     1      -5.826   5.106  64.635  1.00  0.00    -0.017 A  
HETATM   20  C   UNL     1      -7.664   3.009  65.078  1.00  0.00    -0.081 A  
HETATM   21  C   UNL     1      -5.490   3.799  64.296  1.00  0.00    -0.009 A  
HETATM   22  C   UNL     1      -6.399   2.761  64.516  1.00  0.00    -0.023 A  
ENDBRANCH  13  16
ENDBRANCH  10  13
ENDBRANCH   5   9
BRANCH   6  23
HETATM   23  C   UNL     1      -9.518  12.777  68.222  1.00  0.00    -0.203 C  
BRANCH  23  24
HETATM   24  C   UNL     1      -8.107  13.021  68.699  1.00  0.00    -0.011 A  
HETATM   25  N   UNL     1      -6.146  12.662  69.718  1.00  0.00    -0.133 NA 
HETATM   26  C   UNL     1      -6.258  14.032  69.625  1.00  0.00    -0.127 A  
HETATM   27  C   UNL     1      -7.472  14.280  68.984  1.00  0.00    -0.102 A  
HETATM   28  C   UNL     1      -7.196  12.051  69.083  1.00  0.00     0.002 A  
HETATM   29  C   UNL     1      -5.125  11.971  70.475  1.00  0.00    -0.111 C  
HETATM   30  C   UNL     1      -7.842  15.624  68.790  1.00  0.00    -0.169 A  
HETATM   31  C   UNL     1      -6.998  16.683  69.144  1.00  0.00    -0.227 A  
HETATM   32  C   UNL     1      -5.810  16.398  69.814  1.00  0.00    -0.191 A  
HETATM   33  C   UNL     1      -5.426  15.072  70.079  1.00  0.00    -0.116 A  
BRANCH  31  34
HETATM   34  N   UNL     1      -7.299  18.030  68.828  1.00  0.00    -0.277 N  
HETATM   35  H   UNL     1      -7.898  18.537  69.479  1.00  0.00     0.000 HD 
HETATM   36  C   UNL     1      -6.857  18.712  67.725  1.00  0.00    -0.214 C  
HETATM   37  O   UNL     1      -6.172  18.272  66.816  1.00  0.00    -0.166 OA 
BRANCH  36  38
HETATM   38  O   UNL     1      -7.276  20.011  67.759  1.00  0.00    -0.273 OA 
BRANCH  38  39
HETATM   39  C   UNL     1      -8.699  20.127  67.673  1.00  0.00    -0.303 C  
HETATM   40  C   UNL     1      -9.212  19.683  66.305  1.00  0.00    -0.437 C  
HETATM   41  C   UNL     1     -10.680  19.415  66.568  1.00  0.00    -0.516 C  
HETATM   42  C   UNL     1     -10.697  18.755  67.943  1.00  0.00    -0.347 C  
HETATM   43  C   UNL     1      -9.411  19.195  68.650  1.00  0.00    -0.460 C  
ENDBRANCH  38  39
ENDBRANCH  36  38
ENDBRANCH  31  34
ENDBRANCH  23  24
ENDBRANCH   6  23
ENDBRANCH   2   3
TORSDOF 9
ENDMDL
MODEL      153
REMARK 921   NORMALIZED FREE ENERGY PREDICTED BY IDOCK:   -2.96 KCAL/MOL
REMARK 922        TOTAL FREE ENERGY PREDICTED BY IDOCK:   -6.28 KCAL/MOL
REMARK 923 INTER-LIGAND FREE ENERGY PREDICTED BY IDOCK:   -6.15 KCAL/MOL
REMARK 924 INTRA-LIGAND FREE ENERGY PREDICTED BY IDOCK:   -0.13 KCAL/MOL
REMARK 927      BINDING AFFINITY PREDICTED BY RF-SCORE:    0.00 PKD
ROOT
HETATM    1  C   UNL     1      -6.024   7.084  66.537  1.00  0.00    -0.034 C  
HETATM    2  O   UNL     1      -7.419   7.349  66.606  1.00  0.00    -0.085 OA 
ENDROOT
BRANCH   2   3
HETATM    3  C   UNL     1      -7.878   8.068  67.678  1.00  0.00    -0.122 A  
HETATM    4  C   UNL     1      -8.403   7.497  68.847  1.00  0.00    -0.129 A  
HETATM    5  C   UNL     1      -8.816   8.304  69.919  1.00  0.00    -0.138 A  
HETATM    6  C   UNL     1      -7.764   9.469  67.577  1.00  0.00    -0.095 A  
HETATM    7  C   UNL     1      -8.624   9.684  69.855  1.00  0.00    -0.218 A  
HETATM    8  C   UNL     1      -8.090  10.252  68.699  1.00  0.00    -0.114 A  
BRANCH   5   9
HETATM    9  C   UNL     1      -9.476   7.657  71.082  1.00  0.00    -0.154 C  
HETATM   10  N   UNL     1      -8.930   6.430  71.484  1.00  0.00    -0.144 N  
HETATM   11  H   UNL     1      -8.173   6.043  70.921  1.00  0.00     0.000 HD 
HETATM   12  O   UNL     1     -10.435   8.179  71.627  1.00  0.00    -0.209 OA 
BRANCH  10  13
HETATM   13  S   UNL     1      -9.423   5.559  72.811  1.00  0.00    -0.148 S  
HETATM   14  O   UNL     1     -10.859   5.385  72.719  1.00  0.00    -0.228 OA 
HETATM   15  O   UNL     1      -8.843   6.230  73.957  1.00  0.00    -0.122 OA 
BRANCH  13  16
HETATM   16  C   UNL     1      -8.624   3.973  72.657  1.00  0.00    -0.100 A  
HETATM   17  C   UNL     1      -7.419   3.924  71.940  1.00  0.00    -0.060 A  
HETATM   18  C   UNL     1     -10.478   2.773  73.963  1.00  0.00    -0.233 C  
HETATM   19  C   UNL     1      -6.751   2.712  71.770  1.00  0.00    -0.022 A  
HETATM   20  C   UNL     1      -9.181   2.800  73.206  1.00  0.00    -0.103 A  
HETATM   21  C   UNL     1      -7.284   1.547  72.314  1.00  0.00    -0.030 A  
HETATM   22  C   UNL     1      -8.486   1.591  73.025  1.00  0.00    -0.057 A  
ENDBRANCH  13  16
ENDBRANCH  10  13
ENDBRANCH   5   9
BRANCH   6  23
HETATM   23  C   UNL     1      -7.260  10.150  66.323  1.00  0.00    -0.111 C  
BRANCH  23  24
HETATM   24  C   UNL     1      -8.421  10.583  65.463  1.00  0.00    -0.177 A  
HETATM   25  N   UNL     1      -9.766  10.745  63.679  1.00  0.00    -0.298 NA 
HETATM   26  C   UNL     1      -9.977  11.902  64.396  1.00  0.00    -0.234 A  
HETATM   27  C   UNL     1      -9.154  11.820  65.519  1.00  0.00     0.013 A  
HETATM   28  C   UNL     1      -8.914   9.911  64.356  1.00  0.00    -0.239 A  
HETATM   29  C   UNL     1     -10.281  10.495  62.351  1.00  0.00     0.639 C  
HETATM   30  C   UNL     1      -9.162  12.908  66.412  1.00  0.00    -0.144 A  
HETATM   31  C   UNL     1     -10.019  14.001  66.240  1.00  0.00    -0.307 A  
HETATM   32  C   UNL     1     -10.801  14.065  65.088  1.00  0.00    -0.376 A  
HETATM   33  C   UNL     1     -10.784  13.027  64.140  1.00  0.00    -0.429 A  
BRANCH  31  34
HETATM   34  N   UNL     1     -10.135  15.032  67.203  1.00  0.00    -0.238 N  
HETATM   35  H   UNL     1     -10.650  15.868  66.929  1.00  0.00     0.000 HD 
HETATM   36  C   UNL     1      -9.616  15.007  68.470  1.00  0.00    -0.210 C  
HETATM   37  O   UNL     1      -8.938  14.123  68.967  1.00  0.00    -0.046 OA 
BRANCH  36  38
HETATM   38  O   UNL     1      -9.967  16.132  69.160  1.00  0.00    -0.225 OA 
BRANCH  38  39
HETATM   39  C   UNL     1     -11.186  15.966  69.889  1.00  0.00    -0.348 C  
HETATM   40  C   UNL     1     -11.383  14.515  70.323  1.00  0.00    -0.225 C  
HETATM   41  C   UNL     1     -12.402  14.634  71.438  1.00  0.00    -0.411 C  
HETATM   42  C   UNL     1     -11.983  15.891  72.192  1.00  0.00    -0.612 C  
HETATM   43  C   UNL     1     -11.182  16.743  71.202  1.00  0.00     0.373 C  
ENDBRANCH  38  39
ENDBRANCH  36  38
ENDBRANCH  31  34
ENDBRANCH  23  24
ENDBRANCH   6  23
ENDBRANCH   2   3
TORSDOF 9
ENDMDL
MODEL      154
REMARK 921   NORMALIZED FREE ENERGY PREDICTED BY IDOCK:   -2.83 KCAL/MOL
REMARK 922        TOTAL FREE ENERGY PREDICTED BY IDOCK:   -6.09 KCAL/MOL
REMARK 923 INTER-LIGAND FREE ENERGY PREDICTED BY IDOCK:   -5.86 KCAL/MOL
REMARK 924 INTRA-LIGAND FREE ENERGY PREDICTED BY IDOCK:   -0.23 KCAL/MOL
REMARK 927      BINDING AFFINITY PREDICTED BY RF-SCORE:    0.00 PKD
ROOT
HETATM    1  C   UNL     1     -10.427   9.006  71.814  1.00  0.00    -0.348 C  
HETATM    2  O   UNL     1      -9.314   9.491  71.075  1.00  0.00    -0.201 OA 
ENDROOT
BRANCH   2   3
HETATM    3  C   UNL     1      -8.677   8.617  70.233  1.00  0.00    -0.147 A  
HETATM    4  C   UNL     1      -8.840   7.225  70.270  1.00  0.00    -0.147 A  
HETATM    5  C   UNL     1      -8.182   6.399  69.344  1.00  0.00    -0.118 A  
HETATM    6  C   UNL     1      -7.843   9.197  69.258  1.00  0.00    -0.095 A  
HETATM    7  C   UNL     1      -7.424   6.976  68.325  1.00  0.00    -0.099 A  
HETATM    8  C   UNL     1      -7.273   8.361  68.280  1.00  0.00    -0.086 A  
BRANCH   5   9
HETATM    9  C   UNL     1      -8.291   4.926  69.502  1.00  0.00    -0.084 C  
HETATM   10  N   UNL     1      -7.610   4.381  70.599  1.00  0.00    -0.052 N  
HETATM   11  H   UNL     1      -7.044   5.014  71.164  1.00  0.00     0.000 HD 
HETATM   12  O   UNL     1      -8.932   4.258  68.707  1.00  0.00    -0.099 OA 
BRANCH  10  13
HETATM   13  S   UNL     1      -7.655   2.781  71.048  1.00  0.00    -0.036 S  
HETATM   14  O   UNL     1      -6.451   2.499  71.804  1.00  0.00    -0.014 OA 
HETATM   15  O   UNL     1      -7.943   2.043  69.833  1.00  0.00    -0.042 OA 
BRANCH  13  16
HETATM   16  C   UNL     1      -9.074   2.631  72.116  1.00  0.00    -0.086 A  
HETATM   17  C   UNL     1     -10.012   1.633  71.808  1.00  0.00    -0.218 A  
HETATM   18  C   UNL     1      -8.326   4.593  73.590  1.00  0.00    -0.105 C  
HETATM   19  C   UNL     1     -11.151   1.473  72.595  1.00  0.00    -0.129 A  
HETATM   20  C   UNL     1      -9.273   3.490  73.216  1.00  0.00    -0.115 A  
HETATM   21  C   UNL     1     -11.357   2.308  73.690  1.00  0.00    -0.318 A  
HETATM   22  C   UNL     1     -10.428   3.305  73.998  1.00  0.00    -0.251 A  
ENDBRANCH  13  16
ENDBRANCH  10  13
ENDBRANCH   5   9
BRANCH   6  23
HETATM   23  C   UNL     1      -7.581  10.686  69.200  1.00  0.00    -0.131 C  
BRANCH  23  24
HETATM   24  C   UNL     1      -8.558  11.351  68.262  1.00  0.00    -0.156 A  
HETATM   25  N   UNL     1     -10.305  12.569  67.570  1.00  0.00    -0.218 NA 
HETATM   26  C   UNL     1     -10.051  11.687  66.542  1.00  0.00    -0.207 A  
HETATM   27  C   UNL     1      -8.958  10.921  66.948  1.00  0.00    -0.158 A  
HETATM   28  C   UNL     1      -9.362  12.440  68.556  1.00  0.00    -0.088 A  
HETATM   29  C   UNL     1     -11.466  13.428  67.648  1.00  0.00    -0.319 C  
HETATM   30  C   UNL     1      -8.511   9.912  66.074  1.00  0.00    -0.135 A  
HETATM   31  C   UNL     1      -9.076   9.726  64.807  1.00  0.00    -0.241 A  
HETATM   32  C   UNL     1     -10.188  10.487  64.451  1.00  0.00    -0.337 A  
HETATM   33  C   UNL     1     -10.704  11.468  65.315  1.00  0.00    -0.337 A  
BRANCH  31  34
HETATM   34  N   UNL     1      -8.545   8.810  63.869  1.00  0.00    -0.390 N  
HETATM   35  H   UNL     1      -8.388   9.153  62.922  1.00  0.00     0.000 HD 
HETATM   36  C   UNL     1      -8.223   7.501  64.119  1.00  0.00     0.026 C  
HETATM   37  O   UNL     1      -8.375   6.897  65.168  1.00  0.00    -0.134 OA 
BRANCH  36  38
HETATM   38  O   UNL     1      -7.673   6.917  63.014  1.00  0.00    -0.099 OA 
BRANCH  38  39
HETATM   39  C   UNL     1      -7.058   5.661  63.312  1.00  0.00    -0.046 C  
HETATM   40  C   UNL     1      -7.599   4.549  62.416  1.00  0.00    -0.055 C  
HETATM   41  C   UNL     1      -6.534   3.478  62.529  1.00  0.00    -0.022 C  
HETATM   42  C   UNL     1      -5.223   4.256  62.532  1.00  0.00    -0.009 C  
HETATM   43  C   UNL     1      -5.560   5.670  63.017  1.00  0.00    -0.014 C  
ENDBRANCH  38  39
ENDBRANCH  36  38
ENDBRANCH  31  34
ENDBRANCH  23  24
ENDBRANCH   6  23
ENDBRANCH   2   3
TORSDOF 9
ENDMDL
MODEL      155
REMARK 921   NORMALIZED FREE ENERGY PREDICTED BY IDOCK:   -2.82 KCAL/MOL
REMARK 922        TOTAL FREE ENERGY PREDICTED BY IDOCK:   -6.07 KCAL/MOL
REMARK 923 INTER-LIGAND FREE ENERGY PREDICTED BY IDOCK:   -7.15 KCAL/MOL
REMARK 924 INTRA-LIGAND FREE ENERGY PREDICTED BY IDOCK:    1.08 KCAL/MOL
REMARK 927      BINDING AFFINITY PREDICTED BY RF-SCORE:    0.00 PKD
ROOT
HETATM    1  C   UNL     1     -12.670  10.180  71.291  1.00  0.00    -0.407 C  
HETATM    2  O   UNL     1     -12.399   9.433  70.112  1.00  0.00     0.169 OA 
ENDROOT
BRANCH   2   3
HETATM    3  C   UNL     1     -11.219   9.679  69.459  1.00  0.00    -0.109 A  
HETATM    4  C   UNL     1     -10.133   8.793  69.431  1.00  0.00    -0.203 A  
HETATM    5  C   UNL     1      -8.972   9.103  68.703  1.00  0.00    -0.136 A  
HETATM    6  C   UNL     1     -11.148  10.895  68.751  1.00  0.00    -0.310 A  
HETATM    7  C   UNL     1      -8.932  10.264  67.932  1.00  0.00    -0.131 A  
HETATM    8  C   UNL     1     -10.018  11.139  67.949  1.00  0.00    -0.189 A  
BRANCH   5   9
HETATM    9  C   UNL     1      -7.805   8.189  68.804  1.00  0.00    -0.113 C  
HETATM   10  N   UNL     1      -7.743   7.175  67.838  1.00  0.00    -0.111 N  
HETATM   11  H   UNL     1      -8.523   7.098  67.184  1.00  0.00     0.000 HD 
HETATM   12  O   UNL     1      -6.976   8.329  69.687  1.00  0.00    -0.044 OA 
BRANCH  10  13
HETATM   13  S   UNL     1      -6.494   6.090  67.676  1.00  0.00    -0.048 S  
HETATM   14  O   UNL     1      -6.205   5.548  68.989  1.00  0.00    -0.027 OA 
HETATM   15  O   UNL     1      -5.464   6.788  66.932  1.00  0.00    -0.016 OA 
BRANCH  13  16
HETATM   16  C   UNL     1      -7.128   4.794  66.629  1.00  0.00    -0.072 A  
HETATM   17  C   UNL     1      -8.363   5.018  66.000  1.00  0.00    -0.114 A  
HETATM   18  C   UNL     1      -5.130   3.259  67.108  1.00  0.00    -0.008 C  
HETATM   19  C   UNL     1      -8.920   4.039  65.179  1.00  0.00    -0.133 A  
HETATM   20  C   UNL     1      -6.440   3.577  66.449  1.00  0.00    -0.037 A  
HETATM   21  C   UNL     1      -8.250   2.836  64.985  1.00  0.00    -0.087 A  
HETATM   22  C   UNL     1      -7.022   2.607  65.613  1.00  0.00    -0.052 A  
ENDBRANCH  13  16
ENDBRANCH  10  13
ENDBRANCH   5   9
BRANCH   6  23
HETATM   23  C   UNL     1     -12.263  11.918  68.787  1.00  0.00    -0.007 C  
BRANCH  23  24
HETATM   24  C   UNL     1     -11.977  12.961  69.839  1.00  0.00    -0.377 A  
HETATM   25  N   UNL     1     -12.185  14.152  71.725  1.00  0.00    -0.238 NA 
HETATM   26  C   UNL     1     -11.522  14.981  70.846  1.00  0.00    -0.288 A  
HETATM   27  C   UNL     1     -11.374  14.256  69.664  1.00  0.00    -0.292 A  
HETATM   28  C   UNL     1     -12.373  12.914  71.166  1.00  0.00    -0.165 A  
HETATM   29  C   UNL     1     -12.705  14.563  73.009  1.00  0.00    -0.396 C  
HETATM   30  C   UNL     1     -10.744  14.899  68.581  1.00  0.00    -0.250 A  
HETATM   31  C   UNL     1     -10.206  16.186  68.696  1.00  0.00    -0.244 A  
HETATM   32  C   UNL     1     -10.405  16.893  69.881  1.00  0.00     0.094 A  
HETATM   33  C   UNL     1     -11.077  16.310  70.969  1.00  0.00    -0.105 A  
BRANCH  31  34
HETATM   34  N   UNL     1      -9.451  16.787  67.660  1.00  0.00    -0.232 N  
HETATM   35  H   UNL     1      -8.688  17.403  67.939  1.00  0.00     0.000 HD 
HETATM   36  C   UNL     1      -9.655  16.614  66.316  1.00  0.00    -0.299 C  
HETATM   37  O   UNL     1     -10.535  15.956  65.787  1.00  0.00    -0.331 OA 
BRANCH  36  38
HETATM   38  O   UNL     1      -8.709  17.283  65.593  1.00  0.00    -0.473 OA 
BRANCH  38  39
HETATM   39  C   UNL     1      -7.807  18.018  66.424  1.00  0.00    -0.269 C  
HETATM   40  C   UNL     1      -6.545  18.415  65.663  1.00  0.00    -0.313 C  
HETATM   41  C   UNL     1      -5.984  19.543  66.505  1.00  0.00    -0.168 C  
HETATM   42  C   UNL     1      -7.217  20.327  66.944  1.00  0.00    -0.316 C  
HETATM   43  C   UNL     1      -8.397  19.352  66.874  1.00  0.00    -0.308 C  
ENDBRANCH  38  39
ENDBRANCH  36  38
ENDBRANCH  31  34
ENDBRANCH  23  24
ENDBRANCH   6  23
ENDBRANCH   2   3
TORSDOF 9
ENDMDL
MODEL      156
REMARK 921   NORMALIZED FREE ENERGY PREDICTED BY IDOCK:   -2.58 KCAL/MOL
REMARK 922        TOTAL FREE ENERGY PREDICTED BY IDOCK:   -5.70 KCAL/MOL
REMARK 923 INTER-LIGAND FREE ENERGY PREDICTED BY IDOCK:   -7.11 KCAL/MOL
REMARK 924 INTRA-LIGAND FREE ENERGY PREDICTED BY IDOCK:    1.41 KCAL/MOL
REMARK 927      BINDING AFFINITY PREDICTED BY RF-SCORE:    0.00 PKD
ROOT
HETATM    1  C   UNL     1     -11.676  12.416  65.897  1.00  0.00    -0.419 C  
HETATM    2  O   UNL     1     -10.407  11.792  65.748  1.00  0.00    -0.236 OA 
ENDROOT
BRANCH   2   3
HETATM    3  C   UNL     1     -10.132  10.710  66.543  1.00  0.00    -0.223 A  
HETATM    4  C   UNL     1     -10.177   9.378  66.108  1.00  0.00    -0.264 A  
HETATM    5  C   UNL     1      -9.841   8.326  66.975  1.00  0.00    -0.298 A  
HETATM    6  C   UNL     1      -9.746  10.999  67.867  1.00  0.00    -0.183 A  
HETATM    7  C   UNL     1      -9.376   8.615  68.259  1.00  0.00    -0.143 A  
HETATM    8  C   UNL     1      -9.319   9.940  68.688  1.00  0.00    -0.149 A  
BRANCH   5   9
HETATM    9  C   UNL     1     -10.021   6.929  66.503  1.00  0.00    -0.081 C  
HETATM   10  N   UNL     1      -8.958   6.398  65.759  1.00  0.00    -0.311 N  
HETATM   11  H   UNL     1      -8.177   7.018  65.544  1.00  0.00     0.000 HD 
HETATM   12  O   UNL     1     -11.043   6.312  66.752  1.00  0.00    -0.343 OA 
BRANCH  10  13
HETATM   13  S   UNL     1      -8.875   4.834  65.202  1.00  0.00    -0.153 S  
HETATM   14  O   UNL     1      -8.311   4.868  63.868  1.00  0.00    -0.116 OA 
HETATM   15  O   UNL     1     -10.192   4.270  65.423  1.00  0.00    -0.233 OA 
BRANCH  13  16
HETATM   16  C   UNL     1      -7.744   4.003  66.301  1.00  0.00    -0.090 A  
HETATM   17  C   UNL     1      -6.560   3.492  65.745  1.00  0.00    -0.040 A  
HETATM   18  C   UNL     1      -9.279   4.331  68.329  1.00  0.00    -0.190 C  
HETATM   19  C   UNL     1      -5.641   2.819  66.548  1.00  0.00    -0.021 A  
HETATM   20  C   UNL     1      -8.025   3.834  67.672  1.00  0.00    -0.085 A  
HETATM   21  C   UNL     1      -5.900   2.652  67.905  1.00  0.00    -0.023 A  
HETATM   22  C   UNL     1      -7.079   3.155  68.462  1.00  0.00    -0.049 A  
ENDBRANCH  13  16
ENDBRANCH  10  13
ENDBRANCH   5   9
BRANCH   6  23
HETATM   23  C   UNL     1      -9.732  12.410  68.415  1.00  0.00    -0.189 C  
BRANCH  23  24
HETATM   24  C   UNL     1      -8.311  12.872  68.626  1.00  0.00     0.032 A  
HETATM   25  N   UNL     1      -6.270  13.031  69.532  1.00  0.00    -0.113 NA 
HETATM   26  C   UNL     1      -6.472  14.232  68.886  1.00  0.00    -0.092 A  
HETATM   27  C   UNL     1      -7.738  14.152  68.305  1.00  0.00    -0.139 A  
HETATM   28  C   UNL     1      -7.319  12.180  69.302  1.00  0.00     0.157 A  
HETATM   29  C   UNL     1      -5.162  12.752  70.419  1.00  0.00    -0.119 C  
HETATM   30  C   UNL     1      -8.202  15.278  67.600  1.00  0.00    -0.175 A  
HETATM   31  C   UNL     1      -7.403  16.412  67.407  1.00  0.00    -0.155 A  
HETATM   32  C   UNL     1      -6.159  16.469  68.032  1.00  0.00    -0.132 A  
HETATM   33  C   UNL     1      -5.678  15.389  68.792  1.00  0.00    -0.092 A  
BRANCH  31  34
HETATM   34  N   UNL     1      -7.806  17.491  66.585  1.00  0.00    -0.230 N  
HETATM   35  H   UNL     1      -7.185  17.748  65.818  1.00  0.00     0.000 HD 
HETATM   36  C   UNL     1      -8.956  18.222  66.728  1.00  0.00    -0.284 C  
HETATM   37  O   UNL     1      -9.800  18.099  67.600  1.00  0.00    -0.293 OA 
BRANCH  36  38
HETATM   38  O   UNL     1      -9.071  19.145  65.728  1.00  0.00    -0.385 OA 
BRANCH  38  39
HETATM   39  C   UNL     1      -8.250  20.295  65.951  1.00  0.00    -0.007 C  
HETATM   40  C   UNL     1      -7.670  20.299  67.364  1.00  0.00    -0.352 C  
HETATM   41  C   UNL     1      -6.505  21.261  67.246  1.00  0.00    -0.414 C  
HETATM   42  C   UNL     1      -5.901  20.946  65.881  1.00  0.00    -0.276 C  
HETATM   43  C   UNL     1      -7.017  20.305  65.051  1.00  0.00    -0.202 C  
ENDBRANCH  38  39
ENDBRANCH  36  38
ENDBRANCH  31  34
ENDBRANCH  23  24
ENDBRANCH   6  23
ENDBRANCH   2   3
TORSDOF 9
ENDMDL
MODEL      157
REMARK 921   NORMALIZED FREE ENERGY PREDICTED BY IDOCK:   -2.56 KCAL/MOL
REMARK 922        TOTAL FREE ENERGY PREDICTED BY IDOCK:   -5.67 KCAL/MOL
REMARK 923 INTER-LIGAND FREE ENERGY PREDICTED BY IDOCK:   -7.37 KCAL/MOL
REMARK 924 INTRA-LIGAND FREE ENERGY PREDICTED BY IDOCK:    1.70 KCAL/MOL
REMARK 927      BINDING AFFINITY PREDICTED BY RF-SCORE:    0.00 PKD
ROOT
HETATM    1  C   UNL     1      -5.893   7.339  66.306  1.00  0.00    -0.036 C  
HETATM    2  O   UNL     1      -7.187   7.739  66.737  1.00  0.00    -0.084 OA 
ENDROOT
BRANCH   2   3
HETATM    3  C   UNL     1      -7.270   8.540  67.846  1.00  0.00    -0.088 A  
HETATM    4  C   UNL     1      -7.571   8.076  69.135  1.00  0.00    -0.097 A  
HETATM    5  C   UNL     1      -7.596   8.958  70.229  1.00  0.00    -0.077 A  
HETATM    6  C   UNL     1      -6.989   9.905  67.643  1.00  0.00    -0.086 A  
HETATM    7  C   UNL     1      -7.235  10.292  70.045  1.00  0.00    -0.164 A  
HETATM    8  C   UNL     1      -6.921  10.751  68.766  1.00  0.00    -0.075 A  
BRANCH   5   9
HETATM    9  C   UNL     1      -8.040   8.440  71.548  1.00  0.00    -0.137 C  
HETATM   10  N   UNL     1      -7.425   7.254  71.973  1.00  0.00    -0.080 N  
HETATM   11  H   UNL     1      -6.775   6.803  71.329  1.00  0.00     0.000 HD 
HETATM   12  O   UNL     1      -8.893   9.025  72.195  1.00  0.00    -0.376 OA 
BRANCH  10  13
HETATM   13  S   UNL     1      -7.674   6.527  73.447  1.00  0.00    -0.091 S  
HETATM   14  O   UNL     1      -8.434   7.446  74.271  1.00  0.00    -0.179 OA 
HETATM   15  O   UNL     1      -6.370   6.066  73.881  1.00  0.00    -0.067 OA 
BRANCH  13  16
HETATM   16  C   UNL     1      -8.665   5.086  73.100  1.00  0.00    -0.112 A  
HETATM   17  C   UNL     1      -7.990   3.910  72.739  1.00  0.00    -0.082 A  
HETATM   18  C   UNL     1     -10.862   6.345  73.513  1.00  0.00    -0.198 C  
HETATM   19  C   UNL     1      -8.707   2.752  72.441  1.00  0.00    -0.093 A  
HETATM   20  C   UNL     1     -10.073   5.117  73.159  1.00  0.00    -0.191 A  
HETATM   21  C   UNL     1     -10.097   2.765  72.502  1.00  0.00    -0.235 A  
HETATM   22  C   UNL     1     -10.773   3.935  72.858  1.00  0.00    -0.208 A  
ENDBRANCH  13  16
ENDBRANCH  10  13
ENDBRANCH   5   9
BRANCH   6  23
HETATM   23  C   UNL     1      -6.711  10.478  66.270  1.00  0.00    -0.123 C  
BRANCH  23  24
HETATM   24  C   UNL     1      -7.984  10.531  65.462  1.00  0.00    -0.145 A  
HETATM   25  N   UNL     1      -9.360  10.375  63.702  1.00  0.00    -0.267 NA 
HETATM   26  C   UNL     1      -9.969  11.268  64.557  1.00  0.00    -0.284 A  
HETATM   27  C   UNL     1      -9.131  11.375  65.668  1.00  0.00    -0.173 A  
HETATM   28  C   UNL     1      -8.227   9.859  64.275  1.00  0.00    -0.161 A  
HETATM   29  C   UNL     1      -9.794  10.108  62.348  1.00  0.00     0.229 C  
HETATM   30  C   UNL     1      -9.518  12.261  66.690  1.00  0.00    -0.227 A  
HETATM   31  C   UNL     1     -10.734  12.953  66.650  1.00  0.00    -0.265 A  
HETATM   32  C   UNL     1     -11.527  12.849  65.509  1.00  0.00    -0.361 A  
HETATM   33  C   UNL     1     -11.153  12.018  64.439  1.00  0.00    -0.399 A  
BRANCH  31  34
HETATM   34  N   UNL     1     -11.196  13.737  67.734  1.00  0.00    -0.278 N  
HETATM   35  H   UNL     1     -11.106  14.749  67.647  1.00  0.00     0.000 HD 
HETATM   36  C   UNL     1     -11.752  13.258  68.891  1.00  0.00    -0.327 C  
HETATM   37  O   UNL     1     -11.905  12.087  69.200  1.00  0.00    -0.300 OA 
BRANCH  36  38
HETATM   38  O   UNL     1     -12.150  14.284  69.699  1.00  0.00    -0.317 OA 
BRANCH  38  39
HETATM   39  C   UNL     1     -11.323  15.442  69.555  1.00  0.00    -0.301 C  
HETATM   40  C   UNL     1      -9.845  15.095  69.716  1.00  0.00    -0.119 C  
HETATM   41  C   UNL     1      -9.151  16.277  69.069  1.00  0.00    -0.255 C  
HETATM   42  C   UNL     1     -10.013  16.593  67.851  1.00  0.00    -0.254 C  
HETATM   43  C   UNL     1     -11.409  16.039  68.153  1.00  0.00    -0.289 C  
ENDBRANCH  38  39
ENDBRANCH  36  38
ENDBRANCH  31  34
ENDBRANCH  23  24
ENDBRANCH   6  23
ENDBRANCH   2   3
TORSDOF 9
ENDMDL
MODEL      158
REMARK 921   NORMALIZED FREE ENERGY PREDICTED BY IDOCK:   -2.51 KCAL/MOL
REMARK 922        TOTAL FREE ENERGY PREDICTED BY IDOCK:   -5.60 KCAL/MOL
REMARK 923 INTER-LIGAND FREE ENERGY PREDICTED BY IDOCK:   -5.55 KCAL/MOL
REMARK 924 INTRA-LIGAND FREE ENERGY PREDICTED BY IDOCK:   -0.05 KCAL/MOL
REMARK 927      BINDING AFFINITY PREDICTED BY RF-SCORE:    0.00 PKD
ROOT
HETATM    1  C   UNL     1      -6.270  11.326  68.769  1.00  0.00    -0.045 C  
HETATM    2  O   UNL     1      -6.895  10.060  68.928  1.00  0.00    -0.052 OA 
ENDROOT
BRANCH   2   3
HETATM    3  C   UNL     1      -7.385   9.445  67.805  1.00  0.00    -0.083 A  
HETATM    4  C   UNL     1      -7.898  10.126  66.692  1.00  0.00    -0.110 A  
HETATM    5  C   UNL     1      -8.343   9.423  65.561  1.00  0.00    -0.139 A  
HETATM    6  C   UNL     1      -7.314   8.038  67.791  1.00  0.00    -0.093 A  
HETATM    7  C   UNL     1      -8.195   8.037  65.510  1.00  0.00    -0.138 A  
HETATM    8  C   UNL     1      -7.672   7.360  66.611  1.00  0.00    -0.101 A  
BRANCH   5   9
HETATM    9  C   UNL     1      -8.990  10.182  64.460  1.00  0.00    -0.221 C  
HETATM   10  N   UNL     1     -10.298  10.619  64.711  1.00  0.00    -0.327 N  
HETATM   11  H   UNL     1     -10.730  10.334  65.590  1.00  0.00     0.000 HD 
HETATM   12  O   UNL     1      -8.400  10.390  63.413  1.00  0.00    -0.164 OA 
BRANCH  10  13
HETATM   13  S   UNL     1     -11.199  11.566  63.684  1.00  0.00    -0.258 S  
HETATM   14  O   UNL     1     -12.415  10.845  63.367  1.00  0.00     1.105 OA 
HETATM   15  O   UNL     1     -10.291  11.966  62.626  1.00  0.00     0.131 OA 
BRANCH  13  16
HETATM   16  C   UNL     1     -11.605  13.026  64.623  1.00  0.00    -0.346 A  
HETATM   17  C   UNL     1     -11.668  14.244  63.929  1.00  0.00    -0.061 A  
HETATM   18  C   UNL     1     -11.756  11.718  66.824  1.00  0.00    -0.197 C  
HETATM   19  C   UNL     1     -11.966  15.424  64.608  1.00  0.00    -0.176 A  
HETATM   20  C   UNL     1     -11.831  12.979  66.014  1.00  0.00    -0.471 A  
HETATM   21  C   UNL     1     -12.200  15.393  65.979  1.00  0.00     0.742 A  
HETATM   22  C   UNL     1     -12.134  14.183  66.675  1.00  0.00    -0.480 A  
ENDBRANCH  13  16
ENDBRANCH  10  13
ENDBRANCH   5   9
BRANCH   6  23
HETATM   23  C   UNL     1      -6.823   7.242  68.981  1.00  0.00    -0.064 C  
BRANCH  23  24
HETATM   24  C   UNL     1      -7.952   6.426  69.562  1.00  0.00    -0.113 A  
HETATM   25  N   UNL     1      -9.195   4.638  70.086  1.00  0.00    -0.115 NA 
HETATM   26  C   UNL     1     -10.068   5.705  70.113  1.00  0.00    -0.227 A  
HETATM   27  C   UNL     1      -9.312   6.834  69.797  1.00  0.00    -0.145 A  
HETATM   28  C   UNL     1      -7.915   5.072  69.853  1.00  0.00    -0.074 A  
HETATM   29  C   UNL     1      -9.591   3.251  70.178  1.00  0.00    -0.121 C  
HETATM   30  C   UNL     1      -9.985   8.068  69.728  1.00  0.00    -0.191 A  
HETATM   31  C   UNL     1     -11.342   8.190  70.046  1.00  0.00     0.000 A  
HETATM   32  C   UNL     1     -12.072   7.035  70.323  1.00  0.00    -0.135 A  
HETATM   33  C   UNL     1     -11.453   5.774  70.347  1.00  0.00     0.081 A  
BRANCH  31  34
HETATM   34  N   UNL     1     -11.994   9.444  70.115  1.00  0.00    -0.460 N  
HETATM   35  H   UNL     1     -12.043   9.991  69.256  1.00  0.00     0.000 HD 
HETATM   36  C   UNL     1     -12.566   9.990  71.235  1.00  0.00    -0.393 C  
HETATM   37  O   UNL     1     -12.575   9.515  72.358  1.00  0.00    -0.305 OA 
BRANCH  36  38
HETATM   38  O   UNL     1     -13.168  11.180  70.941  1.00  0.00    -0.149 OA 
BRANCH  38  39
HETATM   39  C   UNL     1     -12.245  12.272  70.944  1.00  0.00    -0.197 C  
HETATM   40  C   UNL     1     -11.903  12.717  69.524  1.00  0.00    -0.379 C  
HETATM   41  C   UNL     1     -11.350  14.112  69.732  1.00  0.00    -0.260 C  
HETATM   42  C   UNL     1     -12.243  14.708  70.816  1.00  0.00    -0.394 C  
HETATM   43  C   UNL     1     -12.837  13.524  71.586  1.00  0.00    -0.419 C  
ENDBRANCH  38  39
ENDBRANCH  36  38
ENDBRANCH  31  34
ENDBRANCH  23  24
ENDBRANCH   6  23
ENDBRANCH   2   3
TORSDOF 9
ENDMDL
MODEL      159
REMARK 921   NORMALIZED FREE ENERGY PREDICTED BY IDOCK:   -2.42 KCAL/MOL
REMARK 922        TOTAL FREE ENERGY PREDICTED BY IDOCK:   -5.45 KCAL/MOL
REMARK 923 INTER-LIGAND FREE ENERGY PREDICTED BY IDOCK:   -4.40 KCAL/MOL
REMARK 924 INTRA-LIGAND FREE ENERGY PREDICTED BY IDOCK:   -1.05 KCAL/MOL
REMARK 927      BINDING AFFINITY PREDICTED BY RF-SCORE:    0.00 PKD
ROOT
HETATM    1  C   UNL     1     -11.828  11.874  66.456  1.00  0.00    -0.049 C  
HETATM    2  O   UNL     1     -11.232  11.701  65.177  1.00  0.00    -0.275 OA 
ENDROOT
BRANCH   2   3
HETATM    3  C   UNL     1      -9.960  11.193  65.129  1.00  0.00    -0.272 A  
HETATM    4  C   UNL     1      -9.588  10.060  64.392  1.00  0.00    -0.325 A  
HETATM    5  C   UNL     1      -8.253   9.627  64.362  1.00  0.00    -0.157 A  
HETATM    6  C   UNL     1      -8.983  11.907  65.852  1.00  0.00    -0.009 A  
HETATM    7  C   UNL     1      -7.271  10.380  65.006  1.00  0.00    -0.062 A  
HETATM    8  C   UNL     1      -7.638  11.515  65.729  1.00  0.00     0.504 A  
BRANCH   5   9
HETATM    9  C   UNL     1      -7.934   8.354  63.667  1.00  0.00    -0.159 C  
HETATM   10  N   UNL     1      -7.842   7.221  64.487  1.00  0.00    -0.119 N  
HETATM   11  H   UNL     1      -7.935   7.358  65.493  1.00  0.00     0.000 HD 
HETATM   12  O   UNL     1      -7.759   8.328  62.460  1.00  0.00    -0.114 OA 
BRANCH  10  13
HETATM   13  S   UNL     1      -7.593   5.670  63.942  1.00  0.00    -0.080 S  
HETATM   14  O   UNL     1      -6.215   5.569  63.505  1.00  0.00    -0.021 OA 
HETATM   15  O   UNL     1      -8.675   5.404  63.013  1.00  0.00    -0.082 OA 
BRANCH  13  16
HETATM   16  C   UNL     1      -7.840   4.626  65.365  1.00  0.00    -0.090 A  
HETATM   17  C   UNL     1      -8.962   3.782  65.361  1.00  0.00    -0.134 A  
HETATM   18  C   UNL     1      -5.762   5.546  66.555  1.00  0.00    -0.017 C  
HETATM   19  C   UNL     1      -9.219   2.951  66.450  1.00  0.00    -0.113 A  
HETATM   20  C   UNL     1      -6.965   4.652  66.471  1.00  0.00    -0.066 A  
HETATM   21  C   UNL     1      -8.361   2.960  67.545  1.00  0.00    -0.093 A  
HETATM   22  C   UNL     1      -7.245   3.801  67.555  1.00  0.00    -0.063 A  
ENDBRANCH  13  16
ENDBRANCH  10  13
ENDBRANCH   5   9
BRANCH   6  23
HETATM   23  C   UNL     1      -9.328  13.104  66.712  1.00  0.00    -0.244 C  
BRANCH  23  24
HETATM   24  C   UNL     1      -8.167  13.449  67.612  1.00  0.00    -0.177 A  
HETATM   25  N   UNL     1      -6.295  14.443  68.333  1.00  0.00    -0.092 NA 
HETATM   26  C   UNL     1      -6.347  13.241  69.006  1.00  0.00    -0.098 A  
HETATM   27  C   UNL     1      -7.513  12.606  68.578  1.00  0.00    -0.121 A  
HETATM   28  C   UNL     1      -7.423  14.617  67.575  1.00  0.00    -0.195 A  
HETATM   29  C   UNL     1      -5.161  15.340  68.340  1.00  0.00    -0.103 C  
HETATM   30  C   UNL     1      -7.787  11.329  69.102  1.00  0.00    -0.020 A  
HETATM   31  C   UNL     1      -6.977  10.740  70.080  1.00  0.00    -0.084 A  
HETATM   32  C   UNL     1      -5.802  11.389  70.457  1.00  0.00    -0.131 A  
HETATM   33  C   UNL     1      -5.459  12.640  69.918  1.00  0.00    -0.104 A  
BRANCH  31  34
HETATM   34  N   UNL     1      -7.318   9.521  70.713  1.00  0.00    -0.117 N  
HETATM   35  H   UNL     1      -8.002   9.565  71.468  1.00  0.00     0.000 HD 
HETATM   36  C   UNL     1      -6.811   8.286  70.401  1.00  0.00    -0.036 C  
HETATM   37  O   UNL     1      -5.960   8.033  69.565  1.00  0.00    -0.032 OA 
BRANCH  36  38
HETATM   38  O   UNL     1      -7.402   7.315  71.159  1.00  0.00    -0.072 OA 
BRANCH  38  39
HETATM   39  C   UNL     1      -8.014   6.299  70.360  1.00  0.00    -0.111 C  
HETATM   40  C   UNL     1      -8.549   5.159  71.223  1.00  0.00    -0.132 C  
HETATM   41  C   UNL     1      -9.540   4.477  70.303  1.00  0.00    -0.263 C  
HETATM   42  C   UNL     1     -10.223   5.629  69.573  1.00  0.00    -0.320 C  
HETATM   43  C   UNL     1      -9.250   6.811  69.626  1.00  0.00    -0.145 C  
ENDBRANCH  38  39
ENDBRANCH  36  38
ENDBRANCH  31  34
ENDBRANCH  23  24
ENDBRANCH   6  23
ENDBRANCH   2   3
TORSDOF 9
ENDMDL
MODEL      160
REMARK 921   NORMALIZED FREE ENERGY PREDICTED BY IDOCK:   -2.34 KCAL/MOL
REMARK 922        TOTAL FREE ENERGY PREDICTED BY IDOCK:   -5.33 KCAL/MOL
REMARK 923 INTER-LIGAND FREE ENERGY PREDICTED BY IDOCK:   -6.93 KCAL/MOL
REMARK 924 INTRA-LIGAND FREE ENERGY PREDICTED BY IDOCK:    1.60 KCAL/MOL
REMARK 927      BINDING AFFINITY PREDICTED BY RF-SCORE:    0.00 PKD
ROOT
HETATM    1  C   UNL     1     -12.429   9.682  69.873  1.00  0.00     0.602 C  
HETATM    2  O   UNL     1     -11.774  10.859  70.326  1.00  0.00    -0.294 OA 
ENDROOT
BRANCH   2   3
HETATM    3  C   UNL     1     -11.105  11.614  69.397  1.00  0.00    -0.206 A  
HETATM    4  C   UNL     1     -11.355  12.972  69.155  1.00  0.00    -0.328 A  
HETATM    5  C   UNL     1     -10.597  13.686  68.214  1.00  0.00    -0.261 A  
HETATM    6  C   UNL     1     -10.082  10.955  68.688  1.00  0.00    -0.200 A  
HETATM    7  C   UNL     1      -9.528  13.059  67.573  1.00  0.00    -0.198 A  
HETATM    8  C   UNL     1      -9.271  11.712  67.823  1.00  0.00    -0.178 A  
BRANCH   5   9
HETATM    9  C   UNL     1     -10.981  15.088  67.907  1.00  0.00    -0.291 C  
HETATM   10  N   UNL     1     -10.025  15.841  67.211  1.00  0.00    -0.235 N  
HETATM   11  H   UNL     1      -9.125  15.401  67.023  1.00  0.00     0.000 HD 
HETATM   12  O   UNL     1     -12.061  15.532  68.260  1.00  0.00    -0.163 OA 
BRANCH  10  13
HETATM   13  S   UNL     1     -10.251  17.396  66.667  1.00  0.00    -0.314 S  
HETATM   14  O   UNL     1     -11.258  18.016  67.503  1.00  0.00    -0.072 OA 
HETATM   15  O   UNL     1     -10.458  17.283  65.237  1.00  0.00    -0.661 OA 
BRANCH  13  16
HETATM   16  C   UNL     1      -8.687  18.214  66.919  1.00  0.00    -0.259 A  
HETATM   17  C   UNL     1      -7.523  17.488  66.625  1.00  0.00    -0.280 A  
HETATM   18  C   UNL     1      -9.807  20.357  67.777  1.00  0.00    -0.494 C  
HETATM   19  C   UNL     1      -6.269  18.065  66.814  1.00  0.00    -0.201 A  
HETATM   20  C   UNL     1      -8.606  19.530  67.418  1.00  0.00    -0.346 A  
HETATM   21  C   UNL     1      -6.172  19.366  67.298  1.00  0.00    -0.195 A  
HETATM   22  C   UNL     1      -7.329  20.092  67.596  1.00  0.00    -0.323 A  
ENDBRANCH  13  16
ENDBRANCH  10  13
ENDBRANCH   5   9
BRANCH   6  23
HETATM   23  C   UNL     1      -9.800   9.478  68.861  1.00  0.00    -0.179 C  
BRANCH  23  24
HETATM   24  C   UNL     1      -8.500   9.280  69.602  1.00  0.00    -0.140 A  
HETATM   25  N   UNL     1      -6.405   9.653  70.299  1.00  0.00    -0.066 NA 
HETATM   26  C   UNL     1      -6.604   8.300  70.463  1.00  0.00    -0.036 A  
HETATM   27  C   UNL     1      -7.909   8.045  70.042  1.00  0.00    -0.104 A  
HETATM   28  C   UNL     1      -7.560  10.260  69.877  1.00  0.00    -0.143 A  
HETATM   29  C   UNL     1      -5.129  10.320  70.442  1.00  0.00    -0.042 C  
HETATM   30  C   UNL     1      -8.356   6.711  70.082  1.00  0.00    -0.135 A  
HETATM   31  C   UNL     1      -7.565   5.679  70.602  1.00  0.00    -0.090 A  
HETATM   32  C   UNL     1      -6.254   5.966  70.980  1.00  0.00    -0.039 A  
HETATM   33  C   UNL     1      -5.747   7.275  70.904  1.00  0.00    -0.027 A  
BRANCH  31  34
HETATM   34  N   UNL     1      -8.054   4.363  70.776  1.00  0.00    -0.070 N  
HETATM   35  H   UNL     1      -8.505   3.926  69.973  1.00  0.00     0.000 HD 
HETATM   36  C   UNL     1      -7.975   3.624  71.927  1.00  0.00    -0.063 C  
HETATM   37  O   UNL     1      -7.514   3.982  72.998  1.00  0.00    -0.070 OA 
BRANCH  36  38
HETATM   38  O   UNL     1      -8.484   2.371  71.734  1.00  0.00    -0.059 OA 
BRANCH  38  39
HETATM   39  C   UNL     1      -9.850   2.269  72.144  1.00  0.00    -0.150 C  
HETATM   40  C   UNL     1      -9.982   1.505  73.460  1.00  0.00    -0.125 C  
HETATM   41  C   UNL     1     -11.354   1.917  73.951  1.00  0.00    -0.255 C  
HETATM   42  C   UNL     1     -11.445   3.399  73.603  1.00  0.00    -0.124 C  
HETATM   43  C   UNL     1     -10.462   3.633  72.451  1.00  0.00    -0.114 C  
ENDBRANCH  38  39
ENDBRANCH  36  38
ENDBRANCH  31  34
ENDBRANCH  23  24
ENDBRANCH   6  23
ENDBRANCH   2   3
TORSDOF 9
ENDMDL
MODEL      161
REMARK 921   NORMALIZED FREE ENERGY PREDICTED BY IDOCK:   -1.90 KCAL/MOL
REMARK 922        TOTAL FREE ENERGY PREDICTED BY IDOCK:   -4.66 KCAL/MOL
REMARK 923 INTER-LIGAND FREE ENERGY PREDICTED BY IDOCK:   -5.37 KCAL/MOL
REMARK 924 INTRA-LIGAND FREE ENERGY PREDICTED BY IDOCK:    0.72 KCAL/MOL
REMARK 927      BINDING AFFINITY PREDICTED BY RF-SCORE:    0.00 PKD
ROOT
HETATM    1  C   UNL     1     -10.682  12.034  66.284  1.00  0.00    -0.267 C  
HETATM    2  O   UNL     1      -9.420  11.414  66.073  1.00  0.00    -0.210 OA 
ENDROOT
BRANCH   2   3
HETATM    3  C   UNL     1      -9.243  10.146  66.561  1.00  0.00    -0.153 A  
HETATM    4  C   UNL     1      -9.010   9.017  65.763  1.00  0.00    -0.242 A  
HETATM    5  C   UNL     1      -8.798   7.756  66.344  1.00  0.00    -0.180 A  
HETATM    6  C   UNL     1      -9.266  10.016  67.964  1.00  0.00    -0.139 A  
HETATM    7  C   UNL     1      -8.734   7.641  67.733  1.00  0.00    -0.127 A  
HETATM    8  C   UNL     1      -8.952   8.765  68.527  1.00  0.00    -0.138 A  
BRANCH   5   9
HETATM    9  C   UNL     1      -8.677   6.574  65.453  1.00  0.00    -0.008 C  
HETATM   10  N   UNL     1      -7.447   6.433  64.795  1.00  0.00    -0.080 N  
HETATM   11  H   UNL     1      -6.757   7.173  64.922  1.00  0.00     0.000 HD 
HETATM   12  O   UNL     1      -9.608   5.798  65.314  1.00  0.00     0.203 OA 
BRANCH  10  13
HETATM   13  S   UNL     1      -7.029   5.150  63.824  1.00  0.00    -0.048 S  
HETATM   14  O   UNL     1      -5.951   5.583  62.958  1.00  0.00    -0.017 OA 
HETATM   15  O   UNL     1      -8.273   4.668  63.257  1.00  0.00    -0.089 OA 
BRANCH  13  16
HETATM   16  C   UNL     1      -6.425   3.895  64.937  1.00  0.00    -0.038 A  
HETATM   17  C   UNL     1      -6.037   4.303  66.223  1.00  0.00    -0.031 A  
HETATM   18  C   UNL     1      -6.683   2.041  63.183  1.00  0.00    -0.022 C  
HETATM   19  C   UNL     1      -5.543   3.373  67.135  1.00  0.00    -0.022 A  
HETATM   20  C   UNL     1      -6.312   2.545  64.547  1.00  0.00    -0.019 A  
HETATM   21  C   UNL     1      -5.433   2.036  66.769  1.00  0.00    -0.017 A  
HETATM   22  C   UNL     1      -5.814   1.625  65.488  1.00  0.00    -0.017 A  
ENDBRANCH  13  16
ENDBRANCH  10  13
ENDBRANCH   5   9
BRANCH   6  23
HETATM   23  C   UNL     1      -9.568  11.183  68.879  1.00  0.00    -0.154 C  
BRANCH  23  24
HETATM   24  C   UNL     1      -8.369  12.095  68.972  1.00  0.00     0.319 A  
HETATM   25  N   UNL     1      -6.385  12.891  69.642  1.00  0.00    -0.114 NA 
HETATM   26  C   UNL     1      -7.074  13.988  69.170  1.00  0.00    -0.085 A  
HETATM   27  C   UNL     1      -8.313  13.513  68.739  1.00  0.00     0.067 A  
HETATM   28  C   UNL     1      -7.112  11.746  69.439  1.00  0.00     0.025 A  
HETATM   29  C   UNL     1      -5.126  12.953  70.350  1.00  0.00    -0.105 C  
HETATM   30  C   UNL     1      -9.228  14.455  68.233  1.00  0.00    -0.201 A  
HETATM   31  C   UNL     1      -8.895  15.806  68.081  1.00  0.00    -0.178 A  
HETATM   32  C   UNL     1      -7.661  16.248  68.556  1.00  0.00    -0.189 A  
HETATM   33  C   UNL     1      -6.737  15.353  69.120  1.00  0.00    -0.138 A  
BRANCH  31  34
HETATM   34  N   UNL     1      -9.756  16.732  67.446  1.00  0.00    -0.242 N  
HETATM   35  H   UNL     1     -10.326  17.324  68.048  1.00  0.00     0.000 HD 
HETATM   36  C   UNL     1      -9.891  16.904  66.093  1.00  0.00    -0.297 C  
HETATM   37  O   UNL     1      -9.332  16.268  65.214  1.00  0.00    -0.249 OA 
BRANCH  36  38
HETATM   38  O   UNL     1     -10.755  17.925  65.818  1.00  0.00    -0.434 OA 
BRANCH  38  39
HETATM   39  C   UNL     1     -10.190  19.207  66.103  1.00  0.00    -0.463 C  
HETATM   40  C   UNL     1     -10.854  19.851  67.319  1.00  0.00    -0.376 C  
HETATM   41  C   UNL     1      -9.844  20.900  67.737  1.00  0.00    -0.170 C  
HETATM   42  C   UNL     1      -8.494  20.218  67.535  1.00  0.00    -0.376 C  
HETATM   43  C   UNL     1      -8.719  19.114  66.497  1.00  0.00    -0.348 C  
ENDBRANCH  38  39
ENDBRANCH  36  38
ENDBRANCH  31  34
ENDBRANCH  23  24
ENDBRANCH   6  23
ENDBRANCH   2   3
TORSDOF 9
ENDMDL
MODEL      162
REMARK 921   NORMALIZED FREE ENERGY PREDICTED BY IDOCK:   -1.89 KCAL/MOL
REMARK 922        TOTAL FREE ENERGY PREDICTED BY IDOCK:   -4.65 KCAL/MOL
REMARK 923 INTER-LIGAND FREE ENERGY PREDICTED BY IDOCK:   -6.23 KCAL/MOL
REMARK 924 INTRA-LIGAND FREE ENERGY PREDICTED BY IDOCK:    1.57 KCAL/MOL
REMARK 927      BINDING AFFINITY PREDICTED BY RF-SCORE:    0.00 PKD
ROOT
HETATM    1  C   UNL     1      -8.155   9.034  64.478  1.00  0.00    -0.143 C  
HETATM    2  O   UNL     1      -9.132   9.240  65.489  1.00  0.00    -0.193 OA 
ENDROOT
BRANCH   2   3
HETATM    3  C   UNL     1      -8.845  10.145  66.478  1.00  0.00    -0.140 A  
HETATM    4  C   UNL     1      -9.587  11.310  66.723  1.00  0.00    -0.214 A  
HETATM    5  C   UNL     1      -9.251  12.167  67.784  1.00  0.00    -0.189 A  
HETATM    6  C   UNL     1      -7.749   9.830  67.304  1.00  0.00    -0.095 A  
HETATM    7  C   UNL     1      -8.221  11.812  68.654  1.00  0.00    -0.091 A  
HETATM    8  C   UNL     1      -7.491  10.648  68.419  1.00  0.00    -0.093 A  
BRANCH   5   9
HETATM    9  C   UNL     1      -9.992  13.447  67.925  1.00  0.00    -0.236 C  
HETATM   10  N   UNL     1     -10.012  14.265  66.787  1.00  0.00    -0.258 N  
HETATM   11  H   UNL     1      -9.473  13.959  65.977  1.00  0.00     0.000 HD 
HETATM   12  O   UNL     1     -10.530  13.744  68.978  1.00  0.00    -0.199 OA 
BRANCH  10  13
HETATM   13  S   UNL     1     -10.850  15.695  66.658  1.00  0.00    -0.214 S  
HETATM   14  O   UNL     1     -12.089  15.550  67.395  1.00  0.00     0.180 OA 
HETATM   15  O   UNL     1     -10.875  16.006  65.242  1.00  0.00    -0.384 OA 
BRANCH  13  16
HETATM   16  C   UNL     1      -9.825  16.915  67.458  1.00  0.00    -0.260 A  
HETATM   17  C   UNL     1     -10.473  17.931  68.178  1.00  0.00    -0.380 A  
HETATM   18  C   UNL     1      -7.661  15.848  66.587  1.00  0.00    -0.199 C  
HETATM   19  C   UNL     1      -9.730  18.924  68.814  1.00  0.00    -0.454 A  
HETATM   20  C   UNL     1      -8.419  16.889  67.359  1.00  0.00    -0.204 A  
HETATM   21  C   UNL     1      -8.341  18.906  68.733  1.00  0.00    -0.345 A  
HETATM   22  C   UNL     1      -7.692  17.899  68.014  1.00  0.00    -0.245 A  
ENDBRANCH  13  16
ENDBRANCH  10  13
ENDBRANCH   5   9
BRANCH   6  23
HETATM   23  C   UNL     1      -6.874   8.619  67.058  1.00  0.00    -0.067 C  
BRANCH  23  24
HETATM   24  C   UNL     1      -7.405   7.430  67.821  1.00  0.00    -0.092 A  
HETATM   25  N   UNL     1      -7.885   6.091  69.550  1.00  0.00    -0.097 NA 
HETATM   26  C   UNL     1      -7.855   5.262  68.450  1.00  0.00    -0.087 A  
HETATM   27  C   UNL     1      -7.566   6.078  67.356  1.00  0.00    -0.093 A  
HETATM   28  C   UNL     1      -7.713   7.397  69.171  1.00  0.00    -0.111 A  
HETATM   29  C   UNL     1      -7.972   5.635  70.920  1.00  0.00    -0.110 C  
HETATM   30  C   UNL     1      -7.449   5.460  66.097  1.00  0.00    -0.083 A  
HETATM   31  C   UNL     1      -7.695   4.094  65.916  1.00  0.00    -0.090 A  
HETATM   32  C   UNL     1      -7.947   3.305  67.038  1.00  0.00    -0.079 A  
HETATM   33  C   UNL     1      -8.017   3.870  68.322  1.00  0.00    -0.076 A  
BRANCH  31  34
HETATM   34  N   UNL     1      -7.717   3.490  64.637  1.00  0.00    -0.077 N  
HETATM   35  H   UNL     1      -8.239   3.972  63.905  1.00  0.00     0.000 HD 
HETATM   36  C   UNL     1      -7.099   2.317  64.293  1.00  0.00    -0.048 C  
HETATM   37  O   UNL     1      -6.467   1.578  65.030  1.00  0.00    -0.021 OA 
BRANCH  36  38
HETATM   38  O   UNL     1      -7.263   2.053  62.963  1.00  0.00    -0.037 OA 
BRANCH  38  39
HETATM   39  C   UNL     1      -8.633   2.125  62.559  1.00  0.00    -0.074 C  
HETATM   40  C   UNL     1      -9.563   1.583  63.643  1.00  0.00    -0.114 C  
HETATM   41  C   UNL     1     -10.905   2.174  63.261  1.00  0.00    -0.221 C  
HETATM   42  C   UNL     1     -10.570   3.588  62.798  1.00  0.00    -0.203 C  
HETATM   43  C   UNL     1      -9.101   3.565  62.364  1.00  0.00    -0.089 C  
ENDBRANCH  38  39
ENDBRANCH  36  38
ENDBRANCH  31  34
ENDBRANCH  23  24
ENDBRANCH   6  23
ENDBRANCH   2   3
TORSDOF 9
ENDMDL
MODEL      163
REMARK 921   NORMALIZED FREE ENERGY PREDICTED BY IDOCK:   -1.88 KCAL/MOL
REMARK 922        TOTAL FREE ENERGY PREDICTED BY IDOCK:   -4.62 KCAL/MOL
REMARK 923 INTER-LIGAND FREE ENERGY PREDICTED BY IDOCK:   -6.23 KCAL/MOL
REMARK 924 INTRA-LIGAND FREE ENERGY PREDICTED BY IDOCK:    1.60 KCAL/MOL
REMARK 927      BINDING AFFINITY PREDICTED BY RF-SCORE:    0.00 PKD
ROOT
HETATM    1  C   UNL     1     -12.350   9.888  69.955  1.00  0.00     0.177 C  
HETATM    2  O   UNL     1     -11.633  11.018  70.434  1.00  0.00    -0.308 OA 
ENDROOT
BRANCH   2   3
HETATM    3  C   UNL     1     -10.909  11.745  69.526  1.00  0.00     0.008 A  
HETATM    4  C   UNL     1     -11.196  13.069  69.164  1.00  0.00    -0.297 A  
HETATM    5  C   UNL     1     -10.379  13.759  68.254  1.00  0.00    -0.247 A  
HETATM    6  C   UNL     1      -9.787  11.098  68.971  1.00  0.00    -0.132 A  
HETATM    7  C   UNL     1      -9.222  13.150  67.769  1.00  0.00    -0.203 A  
HETATM    8  C   UNL     1      -8.927  11.839  68.140  1.00  0.00    -0.181 A  
BRANCH   5   9
HETATM    9  C   UNL     1     -10.796  15.115  67.811  1.00  0.00    -0.292 C  
HETATM   10  N   UNL     1      -9.774  15.927  67.301  1.00  0.00    -0.222 N  
HETATM   11  H   UNL     1      -8.822  15.561  67.329  1.00  0.00     0.000 HD 
HETATM   12  O   UNL     1     -11.958  15.474  67.907  1.00  0.00    -0.147 OA 
BRANCH  10  13
HETATM   13  S   UNL     1      -9.997  17.443  66.654  1.00  0.00    -0.320 S  
HETATM   14  O   UNL     1     -10.883  18.175  67.536  1.00  0.00    -0.389 OA 
HETATM   15  O   UNL     1     -10.363  17.225  65.268  1.00  0.00    -0.626 OA 
BRANCH  13  16
HETATM   16  C   UNL     1      -8.385  18.203  66.670  1.00  0.00    -0.263 A  
HETATM   17  C   UNL     1      -7.493  17.849  65.646  1.00  0.00     0.066 A  
HETATM   18  C   UNL     1      -8.888  19.514  68.817  1.00  0.00    -0.354 C  
HETATM   19  C   UNL     1      -6.212  18.397  65.609  1.00  0.00    -0.297 A  
HETATM   20  C   UNL     1      -7.997  19.108  67.679  1.00  0.00    -0.290 A  
HETATM   21  C   UNL     1      -5.817  19.298  66.593  1.00  0.00    -0.168 A  
HETATM   22  C   UNL     1      -6.700  19.651  67.617  1.00  0.00    -0.262 A  
ENDBRANCH  13  16
ENDBRANCH  10  13
ENDBRANCH   5   9
BRANCH   6  23
HETATM   23  C   UNL     1      -9.454   9.653  69.276  1.00  0.00    -0.184 C  
BRANCH  23  24
HETATM   24  C   UNL     1      -9.010   8.945  68.021  1.00  0.00    -0.140 A  
HETATM   25  N   UNL     1      -8.751   8.504  65.840  1.00  0.00    -0.165 NA 
HETATM   26  C   UNL     1      -8.605   7.289  66.473  1.00  0.00    -0.133 A  
HETATM   27  C   UNL     1      -8.754   7.541  67.837  1.00  0.00    -0.124 A  
HETATM   28  C   UNL     1      -8.897   9.509  66.760  1.00  0.00    -0.131 A  
HETATM   29  C   UNL     1      -8.850   8.677  64.408  1.00  0.00     0.138 C  
HETATM   30  C   UNL     1      -8.676   6.442  68.714  1.00  0.00    -0.122 A  
HETATM   31  C   UNL     1      -8.376   5.152  68.260  1.00  0.00    -0.096 A  
HETATM   32  C   UNL     1      -8.268   4.933  66.888  1.00  0.00    -0.107 A  
HETATM   33  C   UNL     1      -8.395   5.991  65.971  1.00  0.00    -0.134 A  
BRANCH  31  34
HETATM   34  N   UNL     1      -8.158   4.069  69.145  1.00  0.00    -0.062 N  
HETATM   35  H   UNL     1      -8.958   3.743  69.685  1.00  0.00     0.000 HD 
HETATM   36  C   UNL     1      -6.966   3.421  69.340  1.00  0.00    -0.041 C  
HETATM   37  O   UNL     1      -5.894   3.688  68.824  1.00  0.00    -0.021 OA 
BRANCH  36  38
HETATM   38  O   UNL     1      -7.118   2.380  70.211  1.00  0.00    -0.033 OA 
BRANCH  38  39
HETATM   39  C   UNL     1      -6.826   2.753  71.560  1.00  0.00    -0.031 C  
HETATM   40  C   UNL     1      -5.321   2.799  71.812  1.00  0.00    -0.004 C  
HETATM   41  C   UNL     1      -5.216   3.647  73.064  1.00  0.00     0.000 C  
HETATM   42  C   UNL     1      -6.264   4.736  72.864  1.00  0.00    -0.030 C  
HETATM   43  C   UNL     1      -7.293   4.170  71.880  1.00  0.00    -0.064 C  
ENDBRANCH  38  39
ENDBRANCH  36  38
ENDBRANCH  31  34
ENDBRANCH  23  24
ENDBRANCH   6  23
ENDBRANCH   2   3
TORSDOF 9
ENDMDL
MODEL      164
REMARK 921   NORMALIZED FREE ENERGY PREDICTED BY IDOCK:   -1.76 KCAL/MOL
REMARK 922        TOTAL FREE ENERGY PREDICTED BY IDOCK:   -4.44 KCAL/MOL
REMARK 923 INTER-LIGAND FREE ENERGY PREDICTED BY IDOCK:   -7.11 KCAL/MOL
REMARK 924 INTRA-LIGAND FREE ENERGY PREDICTED BY IDOCK:    2.67 KCAL/MOL
REMARK 927      BINDING AFFINITY PREDICTED BY RF-SCORE:    0.00 PKD
ROOT
HETATM    1  C   UNL     1     -12.902  13.545  64.921  1.00  0.00    -0.210 C  
HETATM    2  O   UNL     1     -12.778  12.226  65.436  1.00  0.00    -0.500 OA 
ENDROOT
BRANCH   2   3
HETATM    3  C   UNL     1     -11.515  11.756  65.686  1.00  0.00    -0.186 A  
HETATM    4  C   UNL     1     -11.237  10.522  66.291  1.00  0.00     0.328 A  
HETATM    5  C   UNL     1      -9.912  10.094  66.476  1.00  0.00    -0.283 A  
HETATM    6  C   UNL     1     -10.455  12.579  65.259  1.00  0.00    -0.313 A  
HETATM    7  C   UNL     1      -8.864  10.867  65.977  1.00  0.00    -0.198 A  
HETATM    8  C   UNL     1      -9.140  12.087  65.363  1.00  0.00     0.201 A  
BRANCH   5   9
HETATM    9  C   UNL     1      -9.670   8.837  67.230  1.00  0.00    -0.183 C  
HETATM   10  N   UNL     1      -9.951   7.651  66.538  1.00  0.00    -0.423 N  
HETATM   11  H   UNL     1     -10.355   7.733  65.605  1.00  0.00     0.000 HD 
HETATM   12  O   UNL     1      -9.262   8.866  68.379  1.00  0.00    -0.140 OA 
BRANCH  10  13
HETATM   13  S   UNL     1      -9.673   6.119  67.123  1.00  0.00    -0.144 S  
HETATM   14  O   UNL     1      -9.241   5.293  66.014  1.00  0.00    -0.150 OA 
HETATM   15  O   UNL     1     -10.862   5.768  67.875  1.00  0.00    -0.248 OA 
BRANCH  13  16
HETATM   16  C   UNL     1      -8.334   6.295  68.287  1.00  0.00    -0.115 A  
HETATM   17  C   UNL     1      -7.031   6.348  67.768  1.00  0.00    -0.075 A  
HETATM   18  C   UNL     1      -9.920   6.279  70.303  1.00  0.00    -0.210 C  
HETATM   19  C   UNL     1      -5.939   6.470  68.626  1.00  0.00    -0.021 A  
HETATM   20  C   UNL     1      -8.557   6.355  69.677  1.00  0.00    -0.134 A  
HETATM   21  C   UNL     1      -6.143   6.539  70.000  1.00  0.00    -0.030 A  
HETATM   22  C   UNL     1      -7.439   6.482  70.521  1.00  0.00    -0.090 A  
ENDBRANCH  13  16
ENDBRANCH  10  13
ENDBRANCH   5   9
BRANCH   6  23
HETATM   23  C   UNL     1     -10.686  13.945  64.651  1.00  0.00    -0.422 C  
BRANCH  23  24
HETATM   24  C   UNL     1     -10.307  15.023  65.636  1.00  0.00    -0.374 A  
HETATM   25  N   UNL     1      -9.247  16.796  66.502  1.00  0.00    -0.252 NA 
HETATM   26  C   UNL     1      -9.710  16.087  67.589  1.00  0.00    -0.224 A  
HETATM   27  C   UNL     1     -10.384  14.980  67.072  1.00  0.00    -0.269 A  
HETATM   28  C   UNL     1      -9.680  16.221  65.335  1.00  0.00     0.125 A  
HETATM   29  C   UNL     1      -8.339  17.919  66.580  1.00  0.00    -0.261 C  
HETATM   30  C   UNL     1     -10.935  14.067  67.992  1.00  0.00    -0.266 A  
HETATM   31  C   UNL     1     -10.892  14.290  69.373  1.00  0.00    -0.168 A  
HETATM   32  C   UNL     1     -10.181  15.388  69.853  1.00  0.00    -0.279 A  
HETATM   33  C   UNL     1      -9.567  16.296  68.973  1.00  0.00    -0.257 A  
BRANCH  31  34
HETATM   34  N   UNL     1     -11.562  13.453  70.296  1.00  0.00    -0.526 N  
HETATM   35  H   UNL     1     -11.007  12.734  70.759  1.00  0.00     0.000 HD 
HETATM   36  C   UNL     1     -12.891  13.522  70.623  1.00  0.00    -0.118 C  
HETATM   37  O   UNL     1     -13.724  14.278  70.151  1.00  0.00     0.642 OA 
BRANCH  36  38
HETATM   38  O   UNL     1     -13.199  12.614  71.595  1.00  0.00    -0.396 OA 
BRANCH  38  39
HETATM   39  C   UNL     1     -12.463  11.395  71.455  1.00  0.00    -0.265 C  
HETATM   40  C   UNL     1     -13.202  10.221  72.094  1.00  0.00    -0.443 C  
HETATM   41  C   UNL     1     -12.551   9.019  71.440  1.00  0.00    -0.370 C  
HETATM   42  C   UNL     1     -12.349   9.448  69.991  1.00  0.00     0.518 C  
HETATM   43  C   UNL     1     -12.312  10.980  69.994  1.00  0.00    -0.377 C  
ENDBRANCH  38  39
ENDBRANCH  36  38
ENDBRANCH  31  34
ENDBRANCH  23  24
ENDBRANCH   6  23
ENDBRANCH   2   3
TORSDOF 9
ENDMDL
MODEL      165
REMARK 921   NORMALIZED FREE ENERGY PREDICTED BY IDOCK:   -1.70 KCAL/MOL
REMARK 922        TOTAL FREE ENERGY PREDICTED BY IDOCK:   -4.35 KCAL/MOL
REMARK 923 INTER-LIGAND FREE ENERGY PREDICTED BY IDOCK:   -8.84 KCAL/MOL
REMARK 924 INTRA-LIGAND FREE ENERGY PREDICTED BY IDOCK:    4.49 KCAL/MOL
REMARK 927      BINDING AFFINITY PREDICTED BY RF-SCORE:    0.00 PKD
ROOT
HETATM    1  C   UNL     1     -13.195  16.241  72.734  1.00  0.00    -0.059 C  
HETATM    2  O   UNL     1     -11.891  15.744  72.464  1.00  0.00    -0.423 OA 
ENDROOT
BRANCH   2   3
HETATM    3  C   UNL     1     -11.749  14.856  71.429  1.00  0.00    -0.332 A  
HETATM    4  C   UNL     1     -12.309  13.571  71.408  1.00  0.00    -0.263 A  
HETATM    5  C   UNL     1     -12.152  12.736  70.290  1.00  0.00    -0.373 A  
HETATM    6  C   UNL     1     -11.018  15.317  70.317  1.00  0.00    -0.313 A  
HETATM    7  C   UNL     1     -11.502  13.221  69.155  1.00  0.00    -0.357 A  
HETATM    8  C   UNL     1     -10.957  14.504  69.170  1.00  0.00    -0.286 A  
BRANCH   5   9
HETATM    9  C   UNL     1     -12.660  11.342  70.367  1.00  0.00    -0.210 C  
HETATM   10  N   UNL     1     -12.851  10.837  71.661  1.00  0.00    -0.449 N  
HETATM   11  H   UNL     1     -12.572  11.428  72.444  1.00  0.00     0.000 HD 
HETATM   12  O   UNL     1     -12.878  10.699  69.354  1.00  0.00    -0.144 OA 
BRANCH  10  13
HETATM   13  S   UNL     1     -13.499   9.347  72.014  1.00  0.00    -0.458 S  
HETATM   14  O   UNL     1     -14.386   8.980  70.928  1.00  0.00    -0.044 OA 
HETATM   15  O   UNL     1     -14.009   9.454  73.367  1.00  0.00     0.116 OA 
BRANCH  13  16
HETATM   16  C   UNL     1     -12.113   8.227  72.050  1.00  0.00    -0.348 A  
HETATM   17  C   UNL     1     -10.833   8.787  72.186  1.00  0.00    -0.400 A  
HETATM   18  C   UNL     1     -13.612   6.167  71.749  1.00  0.00     0.769 C  
HETATM   19  C   UNL     1      -9.707   7.967  72.206  1.00  0.00    -0.269 A  
HETATM   20  C   UNL     1     -12.277   6.832  71.923  1.00  0.00    -0.377 A  
HETATM   21  C   UNL     1      -9.853   6.588  72.090  1.00  0.00    -0.167 A  
HETATM   22  C   UNL     1     -11.125   6.026  71.951  1.00  0.00    -0.331 A  
ENDBRANCH  13  16
ENDBRANCH  10  13
ENDBRANCH   5   9
BRANCH   6  23
HETATM   23  C   UNL     1     -10.341  16.671  70.299  1.00  0.00     0.416 C  
BRANCH  23  24
HETATM   24  C   UNL     1     -10.302  17.214  68.892  1.00  0.00    -0.348 A  
HETATM   25  N   UNL     1     -10.643  18.604  67.169  1.00  0.00    -0.421 NA 
HETATM   26  C   UNL     1     -10.474  17.360  66.600  1.00  0.00    -0.253 A  
HETATM   27  C   UNL     1     -10.251  16.477  67.657  1.00  0.00    -0.279 A  
HETATM   28  C   UNL     1     -10.447  18.542  68.524  1.00  0.00    -0.168 A  
HETATM   29  C   UNL     1     -11.076  19.783  66.452  1.00  0.00     0.033 C  
HETATM   30  C   UNL     1     -10.074  15.117  67.341  1.00  0.00    -0.229 A  
HETATM   31  C   UNL     1     -10.036  14.662  66.018  1.00  0.00    -0.311 A  
HETATM   32  C   UNL     1     -10.298  15.568  64.991  1.00  0.00    -0.327 A  
HETATM   33  C   UNL     1     -10.535  16.926  65.263  1.00  0.00    -0.101 A  
BRANCH  31  34
HETATM   34  N   UNL     1      -9.722  13.324  65.685  1.00  0.00    -0.474 N  
HETATM   35  H   UNL     1      -8.743  13.109  65.498  1.00  0.00     0.000 HD 
HETATM   36  C   UNL     1     -10.616  12.289  65.591  1.00  0.00    -0.260 C  
HETATM   37  O   UNL     1     -11.826  12.351  65.735  1.00  0.00    -0.407 OA 
BRANCH  36  38
HETATM   38  O   UNL     1      -9.973  11.116  65.317  1.00  0.00    -0.231 OA 
BRANCH  38  39
HETATM   39  C   UNL     1      -8.867  10.883  66.194  1.00  0.00    -0.186 C  
HETATM   40  C   UNL     1      -8.608  12.088  67.095  1.00  0.00    -0.182 C  
HETATM   41  C   UNL     1      -7.784  11.494  68.220  1.00  0.00    -0.123 C  
HETATM   42  C   UNL     1      -8.424  10.133  68.472  1.00  0.00    -0.121 C  
HETATM   43  C   UNL     1      -9.140   9.745  67.174  1.00  0.00    -0.152 C  
ENDBRANCH  38  39
ENDBRANCH  36  38
ENDBRANCH  31  34
ENDBRANCH  23  24
ENDBRANCH   6  23
ENDBRANCH   2   3
TORSDOF 9
ENDMDL
MODEL      166
REMARK 921   NORMALIZED FREE ENERGY PREDICTED BY IDOCK:   -1.57 KCAL/MOL
REMARK 922        TOTAL FREE ENERGY PREDICTED BY IDOCK:   -4.15 KCAL/MOL
REMARK 923 INTER-LIGAND FREE ENERGY PREDICTED BY IDOCK:   -7.94 KCAL/MOL
REMARK 924 INTRA-LIGAND FREE ENERGY PREDICTED BY IDOCK:    3.79 KCAL/MOL
REMARK 927      BINDING AFFINITY PREDICTED BY RF-SCORE:    0.00 PKD
ROOT
HETATM    1  C   UNL     1      -9.782   9.642  70.356  1.00  0.00    -0.245 C  
HETATM    2  O   UNL     1      -8.835   9.841  69.315  1.00  0.00    -0.145 OA 
ENDROOT
BRANCH   2   3
HETATM    3  C   UNL     1      -8.964   9.079  68.183  1.00  0.00    -0.133 A  
HETATM    4  C   UNL     1      -9.111   7.685  68.180  1.00  0.00    -0.132 A  
HETATM    5  C   UNL     1      -9.279   6.982  66.976  1.00  0.00    -0.167 A  
HETATM    6  C   UNL     1      -8.984   9.786  66.964  1.00  0.00    -0.152 A  
HETATM    7  C   UNL     1      -9.385   7.686  65.777  1.00  0.00     0.094 A  
HETATM    8  C   UNL     1      -9.253   9.074  65.780  1.00  0.00    -0.293 A  
BRANCH   5   9
HETATM    9  C   UNL     1      -9.308   5.497  67.019  1.00  0.00    -0.118 C  
HETATM   10  N   UNL     1      -8.086   4.875  67.308  1.00  0.00    -0.106 N  
HETATM   11  H   UNL     1      -7.264   5.471  67.403  1.00  0.00     0.000 HD 
HETATM   12  O   UNL     1     -10.341   4.885  66.802  1.00  0.00    -0.237 OA 
BRANCH  10  13
HETATM   13  S   UNL     1      -7.875   3.237  67.508  1.00  0.00    -0.077 S  
HETATM   14  O   UNL     1      -6.874   2.800  66.556  1.00  0.00    -0.043 OA 
HETATM   15  O   UNL     1      -9.208   2.667  67.479  1.00  0.00    -0.170 OA 
BRANCH  13  16
HETATM   16  C   UNL     1      -7.243   3.042  69.163  1.00  0.00    -0.045 A  
HETATM   17  C   UNL     1      -5.876   2.758  69.303  1.00  0.00    -0.023 A  
HETATM   18  C   UNL     1      -9.550   3.417  70.221  1.00  0.00    -0.215 C  
HETATM   19  C   UNL     1      -5.322   2.580  70.569  1.00  0.00    -0.008 A  
HETATM   20  C   UNL     1      -8.076   3.141  70.296  1.00  0.00    -0.059 A  
HETATM   21  C   UNL     1      -6.129   2.682  71.697  1.00  0.00    -0.014 A  
HETATM   22  C   UNL     1      -7.492   2.960  71.563  1.00  0.00    -0.040 A  
ENDBRANCH  13  16
ENDBRANCH  10  13
ENDBRANCH   5   9
BRANCH   6  23
HETATM   23  C   UNL     1      -8.775  11.283  66.893  1.00  0.00    -0.157 C  
BRANCH  23  24
HETATM   24  C   UNL     1      -9.896  11.929  66.117  1.00  0.00    -0.254 A  
HETATM   25  N   UNL     1     -11.522  12.183  64.599  1.00  0.00    -0.327 NA 
HETATM   26  C   UNL     1     -11.115  13.463  64.909  1.00  0.00    -0.335 A  
HETATM   27  C   UNL     1     -10.106  13.330  65.862  1.00  0.00    -0.296 A  
HETATM   28  C   UNL     1     -10.868  11.269  65.384  1.00  0.00    -0.188 A  
HETATM   29  C   UNL     1     -12.426  11.847  63.521  1.00  0.00    -0.492 C  
HETATM   30  C   UNL     1      -9.494  14.508  66.329  1.00  0.00    -0.310 A  
HETATM   31  C   UNL     1      -9.926  15.777  65.928  1.00  0.00    -0.352 A  
HETATM   32  C   UNL     1     -10.914  15.869  64.948  1.00  0.00    -0.427 A  
HETATM   33  C   UNL     1     -11.514  14.718  64.412  1.00  0.00    -0.261 A  
BRANCH  31  34
HETATM   34  N   UNL     1      -9.413  16.967  66.496  1.00  0.00    -0.264 N  
HETATM   35  H   UNL     1      -8.557  16.889  67.043  1.00  0.00     0.000 HD 
HETATM   36  C   UNL     1      -9.964  18.216  66.375  1.00  0.00    -0.376 C  
HETATM   37  O   UNL     1     -11.001  18.507  65.801  1.00  0.00    -0.175 OA 
BRANCH  36  38
HETATM   38  O   UNL     1      -9.182  19.153  66.988  1.00  0.00    -0.283 OA 
BRANCH  38  39
HETATM   39  C   UNL     1      -8.116  18.565  67.739  1.00  0.00    -0.251 C  
HETATM   40  C   UNL     1      -8.621  17.432  68.629  1.00  0.00    -0.259 C  
HETATM   41  C   UNL     1      -7.355  16.658  68.937  1.00  0.00    -0.225 C  
HETATM   42  C   UNL     1      -6.580  16.675  67.624  1.00  0.00    -0.171 C  
HETATM   43  C   UNL     1      -7.082  17.892  66.841  1.00  0.00    -0.212 C  
ENDBRANCH  38  39
ENDBRANCH  36  38
ENDBRANCH  31  34
ENDBRANCH  23  24
ENDBRANCH   6  23
ENDBRANCH   2   3
TORSDOF 9
ENDMDL
MODEL      167
REMARK 921   NORMALIZED FREE ENERGY PREDICTED BY IDOCK:   -1.35 KCAL/MOL
REMARK 922        TOTAL FREE ENERGY PREDICTED BY IDOCK:   -3.82 KCAL/MOL
REMARK 923 INTER-LIGAND FREE ENERGY PREDICTED BY IDOCK:   -4.79 KCAL/MOL
REMARK 924 INTRA-LIGAND FREE ENERGY PREDICTED BY IDOCK:    0.97 KCAL/MOL
REMARK 927      BINDING AFFINITY PREDICTED BY RF-SCORE:    0.00 PKD
ROOT
HETATM    1  C   UNL     1     -10.781  12.333  66.572  1.00  0.00    -0.246 C  
HETATM    2  O   UNL     1     -10.550  11.004  67.020  1.00  0.00    -0.231 OA 
ENDROOT
BRANCH   2   3
HETATM    3  C   UNL     1      -9.390  10.391  66.625  1.00  0.00    -0.158 A  
HETATM    4  C   UNL     1      -9.284   9.029  66.308  1.00  0.00    -0.258 A  
HETATM    5  C   UNL     1      -8.065   8.485  65.872  1.00  0.00    -0.116 A  
HETATM    6  C   UNL     1      -8.261  11.225  66.506  1.00  0.00    -0.165 A  
HETATM    7  C   UNL     1      -6.970   9.325  65.670  1.00  0.00    -0.082 A  
HETATM    8  C   UNL     1      -7.078  10.681  65.972  1.00  0.00    -0.127 A  
BRANCH   5   9
HETATM    9  C   UNL     1      -7.976   7.016  65.666  1.00  0.00    -0.123 C  
HETATM   10  N   UNL     1      -9.035   6.438  64.954  1.00  0.00    -0.281 N  
HETATM   11  H   UNL     1      -9.811   7.044  64.688  1.00  0.00     0.000 HD 
HETATM   12  O   UNL     1      -7.034   6.380  66.108  1.00  0.00    -0.062 OA 
BRANCH  10  13
HETATM   13  S   UNL     1      -9.122   4.838  64.510  1.00  0.00    -0.045 S  
HETATM   14  O   UNL     1      -7.911   4.513  63.784  1.00  0.00    -0.085 OA 
HETATM   15  O   UNL     1     -10.417   4.678  63.878  1.00  0.00     0.270 OA 
BRANCH  13  16
HETATM   16  C   UNL     1      -9.157   3.926  66.041  1.00  0.00    -0.148 A  
HETATM   17  C   UNL     1      -8.436   2.722  66.093  1.00  0.00    -0.106 A  
HETATM   18  C   UNL     1     -10.707   5.631  67.166  1.00  0.00    -0.316 C  
HETATM   19  C   UNL     1      -8.434   1.954  67.256  1.00  0.00    -0.095 A  
HETATM   20  C   UNL     1      -9.895   4.369  67.158  1.00  0.00    -0.217 A  
HETATM   21  C   UNL     1      -9.151   2.383  68.369  1.00  0.00    -0.216 A  
HETATM   22  C   UNL     1      -9.873   3.579  68.321  1.00  0.00     0.088 A  
ENDBRANCH  13  16
ENDBRANCH  10  13
ENDBRANCH   5   9
BRANCH   6  23
HETATM   23  C   UNL     1      -8.294  12.690  66.885  1.00  0.00    -0.078 C  
BRANCH  23  24
HETATM   24  C   UNL     1      -7.580  12.904  68.197  1.00  0.00    -0.135 A  
HETATM   25  N   UNL     1      -6.334  13.898  69.770  1.00  0.00    -0.133 NA 
HETATM   26  C   UNL     1      -6.252  12.550  70.045  1.00  0.00    -0.066 A  
HETATM   27  C   UNL     1      -7.030  11.909  69.080  1.00  0.00    -0.098 A  
HETATM   28  C   UNL     1      -7.199  14.124  68.731  1.00  0.00    -0.120 A  
HETATM   29  C   UNL     1      -5.534  14.918  70.413  1.00  0.00    -0.132 C  
HETATM   30  C   UNL     1      -7.090  10.504  69.122  1.00  0.00    -0.089 A  
HETATM   31  C   UNL     1      -6.469   9.766  70.137  1.00  0.00    -0.083 A  
HETATM   32  C   UNL     1      -5.672  10.438  71.063  1.00  0.00    -0.057 A  
HETATM   33  C   UNL     1      -5.538  11.837  71.025  1.00  0.00    -0.013 A  
BRANCH  31  34
HETATM   34  N   UNL     1      -6.637   8.367  70.268  1.00  0.00    -0.035 N  
HETATM   35  H   UNL     1      -5.843   7.835  70.621  1.00  0.00     0.000 HD 
HETATM   36  C   UNL     1      -7.774   7.665  69.963  1.00  0.00    -0.092 C  
HETATM   37  O   UNL     1      -8.807   8.111  69.492  1.00  0.00    -0.141 OA 
BRANCH  36  38
HETATM   38  O   UNL     1      -7.623   6.342  70.270  1.00  0.00    -0.092 OA 
BRANCH  38  39
HETATM   39  C   UNL     1      -8.329   5.975  71.458  1.00  0.00    -0.127 C  
HETATM   40  C   UNL     1      -9.332   4.857  71.186  1.00  0.00    -0.204 C  
HETATM   41  C   UNL     1      -9.595   4.298  72.570  1.00  0.00    -0.187 C  
HETATM   42  C   UNL     1      -8.228   4.319  73.245  1.00  0.00    -0.091 C  
HETATM   43  C   UNL     1      -7.402   5.385  72.518  1.00  0.00    -0.095 C  
ENDBRANCH  38  39
ENDBRANCH  36  38
ENDBRANCH  31  34
ENDBRANCH  23  24
ENDBRANCH   6  23
ENDBRANCH   2   3
TORSDOF 9
ENDMDL
MODEL      168
REMARK 921   NORMALIZED FREE ENERGY PREDICTED BY IDOCK:   -1.11 KCAL/MOL
REMARK 922        TOTAL FREE ENERGY PREDICTED BY IDOCK:   -3.45 KCAL/MOL
REMARK 923 INTER-LIGAND FREE ENERGY PREDICTED BY IDOCK:   -4.97 KCAL/MOL
REMARK 924 INTRA-LIGAND FREE ENERGY PREDICTED BY IDOCK:    1.52 KCAL/MOL
REMARK 927      BINDING AFFINITY PREDICTED BY RF-SCORE:    0.00 PKD
ROOT
HETATM    1  C   UNL     1     -13.864   8.438  72.565  1.00  0.00    -0.143 C  
HETATM    2  O   UNL     1     -13.414   8.389  71.217  1.00  0.00    -0.242 OA 
ENDROOT
BRANCH   2   3
HETATM    3  C   UNL     1     -12.344   9.173  70.873  1.00  0.00    -0.142 A  
HETATM    4  C   UNL     1     -12.443  10.372  70.152  1.00  0.00    -0.247 A  
HETATM    5  C   UNL     1     -11.300  11.140  69.874  1.00  0.00    -0.348 A  
HETATM    6  C   UNL     1     -11.085   8.731  71.324  1.00  0.00    -0.348 A  
HETATM    7  C   UNL     1     -10.066  10.749  70.393  1.00  0.00     0.920 A  
HETATM    8  C   UNL     1      -9.969   9.564  71.122  1.00  0.00    -0.219 A  
BRANCH   5   9
HETATM    9  C   UNL     1     -11.442  12.336  69.005  1.00  0.00    -0.297 C  
HETATM   10  N   UNL     1     -10.416  12.532  68.071  1.00  0.00    -0.213 N  
HETATM   11  H   UNL     1      -9.625  11.887  68.097  1.00  0.00     0.000 HD 
HETATM   12  O   UNL     1     -12.396  13.086  69.125  1.00  0.00    -0.140 OA 
BRANCH  10  13
HETATM   13  S   UNL     1     -10.390  13.735  66.923  1.00  0.00    -0.268 S  
HETATM   14  O   UNL     1      -9.009  14.124  66.720  1.00  0.00    -0.242 OA 
HETATM   15  O   UNL     1     -11.367  14.712  67.361  1.00  0.00    -0.328 OA 
BRANCH  13  16
HETATM   16  C   UNL     1     -11.016  12.980  65.435  1.00  0.00    -0.275 A  
HETATM   17  C   UNL     1     -10.161  12.107  64.744  1.00  0.00    -0.310 A  
HETATM   18  C   UNL     1     -13.266  14.199  65.616  1.00  0.00     0.085 C  
HETATM   19  C   UNL     1     -10.585  11.495  63.566  1.00  0.00    -0.487 A  
HETATM   20  C   UNL     1     -12.308  13.258  64.944  1.00  0.00    -0.476 A  
HETATM   21  C   UNL     1     -11.861  11.753  63.073  1.00  0.00    -0.003 A  
HETATM   22  C   UNL     1     -12.714  12.625  63.755  1.00  0.00    -0.341 A  
ENDBRANCH  13  16
ENDBRANCH  10  13
ENDBRANCH   5   9
BRANCH   6  23
HETATM   23  C   UNL     1     -10.904   7.419  72.057  1.00  0.00    -0.263 C  
BRANCH  23  24
HETATM   24  C   UNL     1     -10.345   6.374  71.123  1.00  0.00    -0.244 A  
HETATM   25  N   UNL     1      -9.936   4.362  70.231  1.00  0.00    -0.213 NA 
HETATM   26  C   UNL     1      -8.874   5.150  69.844  1.00  0.00    -0.103 A  
HETATM   27  C   UNL     1      -9.112   6.415  70.383  1.00  0.00    -0.155 A  
HETATM   28  C   UNL     1     -10.863   5.107  70.912  1.00  0.00     0.033 A  
HETATM   29  C   UNL     1     -10.006   2.929  70.043  1.00  0.00     0.506 C  
HETATM   30  C   UNL     1      -8.145   7.412  70.153  1.00  0.00    -0.131 A  
HETATM   31  C   UNL     1      -7.024   7.185  69.346  1.00  0.00    -0.062 A  
HETATM   32  C   UNL     1      -6.802   5.900  68.854  1.00  0.00    -0.066 A  
HETATM   33  C   UNL     1      -7.712   4.859  69.105  1.00  0.00    -0.072 A  
BRANCH  31  34
HETATM   34  N   UNL     1      -6.121   8.217  68.996  1.00  0.00    -0.038 N  
HETATM   35  H   UNL     1      -5.127   8.016  69.093  1.00  0.00     0.000 HD 
HETATM   36  C   UNL     1      -6.465   9.462  68.539  1.00  0.00    -0.053 C  
HETATM   37  O   UNL     1      -7.593   9.905  68.397  1.00  0.00    -0.082 OA 
BRANCH  36  38
HETATM   38  O   UNL     1      -5.351  10.190  68.232  1.00  0.00    -0.036 OA 
BRANCH  38  39
HETATM   39  C   UNL     1      -5.492  11.572  68.573  1.00  0.00    -0.042 C  
HETATM   40  C   UNL     1      -6.769  12.164  67.982  1.00  0.00    -0.073 C  
HETATM   41  C   UNL     1      -6.981  13.409  68.820  1.00  0.00    -0.103 C  
HETATM   42  C   UNL     1      -6.600  12.975  70.232  1.00  0.00     0.407 C  
HETATM   43  C   UNL     1      -5.656  11.779  70.076  1.00  0.00    -0.121 C  
ENDBRANCH  38  39
ENDBRANCH  36  38
ENDBRANCH  31  34
ENDBRANCH  23  24
ENDBRANCH   6  23
ENDBRANCH   2   3
TORSDOF 9
ENDMDL
MODEL      169
REMARK 921   NORMALIZED FREE ENERGY PREDICTED BY IDOCK:   -1.10 KCAL/MOL
REMARK 922        TOTAL FREE ENERGY PREDICTED BY IDOCK:   -3.44 KCAL/MOL
REMARK 923 INTER-LIGAND FREE ENERGY PREDICTED BY IDOCK:   -5.14 KCAL/MOL
REMARK 924 INTRA-LIGAND FREE ENERGY PREDICTED BY IDOCK:    1.71 KCAL/MOL
REMARK 927      BINDING AFFINITY PREDICTED BY RF-SCORE:    0.00 PKD
ROOT
HETATM    1  C   UNL     1      -9.582  15.446  69.662  1.00  0.00    -0.229 C  
HETATM    2  O   UNL     1      -8.923  14.206  69.882  1.00  0.00     0.901 OA 
ENDROOT
BRANCH   2   3
HETATM    3  C   UNL     1      -7.848  13.905  69.086  1.00  0.00     0.151 A  
HETATM    4  C   UNL     1      -7.684  12.691  68.405  1.00  0.00    -0.133 A  
HETATM    5  C   UNL     1      -6.572  12.476  67.574  1.00  0.00    -0.150 A  
HETATM    6  C   UNL     1      -6.886  14.924  68.938  1.00  0.00    -0.104 A  
HETATM    7  C   UNL     1      -5.664  13.513  67.359  1.00  0.00     0.163 A  
HETATM    8  C   UNL     1      -5.834  14.726  68.026  1.00  0.00    -0.155 A  
BRANCH   5   9
HETATM    9  C   UNL     1      -6.383  11.131  66.973  1.00  0.00    -0.097 C  
HETATM   10  N   UNL     1      -7.555  10.478  66.568  1.00  0.00    -0.121 N  
HETATM   11  H   UNL     1      -8.444  10.936  66.769  1.00  0.00     0.000 HD 
HETATM   12  O   UNL     1      -5.269  10.647  66.861  1.00  0.00    -0.040 OA 
BRANCH  10  13
HETATM   13  S   UNL     1      -7.605   9.013  65.782  1.00  0.00    -0.091 S  
HETATM   14  O   UNL     1      -6.292   8.765  65.223  1.00  0.00    -0.059 OA 
HETATM   15  O   UNL     1      -8.767   9.073  64.918  1.00  0.00    -0.178 OA 
BRANCH  13  16
HETATM   16  C   UNL     1      -7.943   7.809  67.053  1.00  0.00    -0.116 A  
HETATM   17  C   UNL     1      -6.954   6.848  67.312  1.00  0.00    -0.078 A  
HETATM   18  C   UNL     1     -10.274   8.774  67.519  1.00  0.00    -0.309 C  
HETATM   19  C   UNL     1      -7.162   5.870  68.282  1.00  0.00    -0.079 A  
HETATM   20  C   UNL     1      -9.162   7.794  67.761  1.00  0.00    -0.143 A  
HETATM   21  C   UNL     1      -8.356   5.847  68.995  1.00  0.00    -0.106 A  
HETATM   22  C   UNL     1      -9.346   6.799  68.738  1.00  0.00    -0.132 A  
ENDBRANCH  13  16
ENDBRANCH  10  13
ENDBRANCH   5   9
BRANCH   6  23
HETATM   23  C   UNL     1      -6.975  16.235  69.689  1.00  0.00    -0.086 C  
BRANCH  23  24
HETATM   24  C   UNL     1      -7.252  17.366  68.730  1.00  0.00    -0.249 A  
HETATM   25  N   UNL     1      -7.472  19.457  67.959  1.00  0.00    -0.272 NA 
HETATM   26  C   UNL     1      -8.278  18.688  67.149  1.00  0.00    -0.252 A  
HETATM   27  C   UNL     1      -8.151  17.376  67.606  1.00  0.00    -0.203 A  
HETATM   28  C   UNL     1      -6.783  18.665  68.841  1.00  0.00    -0.272 A  
HETATM   29  C   UNL     1      -7.442  20.903  67.954  1.00  0.00    -0.017 C  
HETATM   30  C   UNL     1      -8.908  16.384  66.955  1.00  0.00    -0.232 A  
HETATM   31  C   UNL     1      -9.698  16.671  65.836  1.00  0.00    -0.237 A  
HETATM   32  C   UNL     1      -9.828  17.998  65.430  1.00  0.00     0.869 A  
HETATM   33  C   UNL     1      -9.135  19.029  66.086  1.00  0.00    -0.204 A  
BRANCH  31  34
HETATM   34  N   UNL     1     -10.351  15.661  65.091  1.00  0.00    -0.374 N  
HETATM   35  H   UNL     1     -10.028  14.703  65.223  1.00  0.00     0.000 HD 
HETATM   36  C   UNL     1     -11.380  15.856  64.206  1.00  0.00    -0.171 C  
HETATM   37  O   UNL     1     -11.875  16.922  63.880  1.00  0.00    -0.645 OA 
BRANCH  36  38
HETATM   38  O   UNL     1     -11.824  14.663  63.709  1.00  0.00    -0.217 OA 
BRANCH  38  39
HETATM   39  C   UNL     1     -11.203  13.543  64.346  1.00  0.00    -0.379 C  
HETATM   40  C   UNL     1     -12.232  12.661  65.048  1.00  0.00    -0.535 C  
HETATM   41  C   UNL     1     -11.491  11.349  65.216  1.00  0.00     0.013 C  
HETATM   42  C   UNL     1     -10.713  11.193  63.914  1.00  0.00    -0.407 C  
HETATM   43  C   UNL     1     -10.542  12.604  63.340  1.00  0.00    -0.169 C  
ENDBRANCH  38  39
ENDBRANCH  36  38
ENDBRANCH  31  34
ENDBRANCH  23  24
ENDBRANCH   6  23
ENDBRANCH   2   3
TORSDOF 9
ENDMDL
MODEL      170
REMARK 921   NORMALIZED FREE ENERGY PREDICTED BY IDOCK:   -0.50 KCAL/MOL
REMARK 922        TOTAL FREE ENERGY PREDICTED BY IDOCK:   -2.52 KCAL/MOL
REMARK 923 INTER-LIGAND FREE ENERGY PREDICTED BY IDOCK:   -5.95 KCAL/MOL
REMARK 924 INTRA-LIGAND FREE ENERGY PREDICTED BY IDOCK:    3.43 KCAL/MOL
REMARK 927      BINDING AFFINITY PREDICTED BY RF-SCORE:    0.00 PKD
ROOT
HETATM    1  C   UNL     1      -9.491   9.958  70.679  1.00  0.00     0.174 C  
HETATM    2  O   UNL     1      -8.653  10.331  69.593  1.00  0.00    -0.170 OA 
ENDROOT
BRANCH   2   3
HETATM    3  C   UNL     1      -8.909   9.771  68.369  1.00  0.00    -0.120 A  
HETATM    4  C   UNL     1      -8.868   8.394  68.105  1.00  0.00    -0.142 A  
HETATM    5  C   UNL     1      -9.184   7.896  66.830  1.00  0.00    -0.191 A  
HETATM    6  C   UNL     1      -9.270  10.668  67.344  1.00  0.00    -0.153 A  
HETATM    7  C   UNL     1      -9.624   8.773  65.839  1.00  0.00    -0.255 A  
HETATM    8  C   UNL     1      -9.678  10.141  66.104  1.00  0.00    -0.275 A  
BRANCH   5   9
HETATM    9  C   UNL     1      -9.008   6.444  66.571  1.00  0.00    -0.145 C  
HETATM   10  N   UNL     1      -7.681   6.003  66.468  1.00  0.00    -0.101 N  
HETATM   11  H   UNL     1      -6.945   6.708  66.513  1.00  0.00     0.000 HD 
HETATM   12  O   UNL     1      -9.974   5.709  66.451  1.00  0.00    -0.161 OA 
BRANCH  10  13
HETATM   13  S   UNL     1      -7.218   4.418  66.278  1.00  0.00    -0.077 S  
HETATM   14  O   UNL     1      -7.488   3.725  67.522  1.00  0.00    -0.066 OA 
HETATM   15  O   UNL     1      -5.869   4.467  65.748  1.00  0.00    -0.021 OA 
BRANCH  13  16
HETATM   16  C   UNL     1      -8.274   3.768  64.998  1.00  0.00    -0.097 A  
HETATM   17  C   UNL     1      -9.281   2.870  65.385  1.00  0.00    -0.131 A  
HETATM   18  C   UNL     1      -7.033   5.047  63.153  1.00  0.00    -0.042 C  
HETATM   19  C   UNL     1     -10.132   2.315  64.431  1.00  0.00     0.127 A  
HETATM   20  C   UNL     1      -8.103   4.114  63.642  1.00  0.00    -0.091 A  
HETATM   21  C   UNL     1      -9.980   2.652  63.089  1.00  0.00    -0.107 A  
HETATM   22  C   UNL     1      -8.976   3.543  62.699  1.00  0.00    -0.090 A  
ENDBRANCH  13  16
ENDBRANCH  10  13
ENDBRANCH   5   9
BRANCH   6  23
HETATM   23  C   UNL     1      -9.278  12.167  67.547  1.00  0.00    -0.182 C  
BRANCH  23  24
HETATM   24  C   UNL     1      -8.001  12.608  68.219  1.00  0.00    -0.153 A  
HETATM   25  N   UNL     1      -6.174  12.527  69.512  1.00  0.00    -0.114 NA 
HETATM   26  C   UNL     1      -6.471  13.867  69.391  1.00  0.00    -0.119 A  
HETATM   27  C   UNL     1      -7.604  13.943  68.580  1.00  0.00    -0.130 A  
HETATM   28  C   UNL     1      -7.022  11.777  68.739  1.00  0.00    -0.103 A  
HETATM   29  C   UNL     1      -5.182  11.983  70.412  1.00  0.00    -0.115 C  
HETATM   30  C   UNL     1      -8.134  15.221  68.323  1.00  0.00    -0.137 A  
HETATM   31  C   UNL     1      -7.513  16.388  68.784  1.00  0.00    -0.207 A  
HETATM   32  C   UNL     1      -6.404  16.271  69.620  1.00  0.00    -0.198 A  
HETATM   33  C   UNL     1      -5.873  15.012  69.949  1.00  0.00    -0.128 A  
BRANCH  31  34
HETATM   34  N   UNL     1      -7.959  17.679  68.416  1.00  0.00    -0.262 N  
HETATM   35  H   UNL     1      -8.611  17.741  67.635  1.00  0.00     0.000 HD 
HETATM   36  C   UNL     1      -7.591  18.855  69.015  1.00  0.00    -0.248 C  
HETATM   37  O   UNL     1      -6.795  18.995  69.930  1.00  0.00    -0.076 OA 
BRANCH  36  38
HETATM   38  O   UNL     1      -8.255  19.911  68.459  1.00  0.00    -0.272 OA 
BRANCH  38  39
HETATM   39  C   UNL     1      -7.511  20.527  67.404  1.00  0.00    -0.331 C  
HETATM   40  C   UNL     1      -6.043  20.109  67.439  1.00  0.00    -0.214 C  
HETATM   41  C   UNL     1      -5.566  20.440  66.040  1.00  0.00    -0.207 C  
HETATM   42  C   UNL     1      -6.734  20.041  65.144  1.00  0.00    -0.323 C  
HETATM   43  C   UNL     1      -7.986  20.077  66.026  1.00  0.00    -0.291 C  
ENDBRANCH  38  39
ENDBRANCH  36  38
ENDBRANCH  31  34
ENDBRANCH  23  24
ENDBRANCH   6  23
ENDBRANCH   2   3
TORSDOF 9
ENDMDL
MODEL      171
REMARK 921   NORMALIZED FREE ENERGY PREDICTED BY IDOCK:   -0.30 KCAL/MOL
REMARK 922        TOTAL FREE ENERGY PREDICTED BY IDOCK:   -2.22 KCAL/MOL
REMARK 923 INTER-LIGAND FREE ENERGY PREDICTED BY IDOCK:   -6.01 KCAL/MOL
REMARK 924 INTRA-LIGAND FREE ENERGY PREDICTED BY IDOCK:    3.80 KCAL/MOL
REMARK 927      BINDING AFFINITY PREDICTED BY RF-SCORE:    0.00 PKD
ROOT
HETATM    1  C   UNL     1      -9.492   9.956  70.676  1.00  0.00     0.174 C  
HETATM    2  O   UNL     1      -8.664  10.317  69.579  1.00  0.00    -0.175 OA 
ENDROOT
BRANCH   2   3
HETATM    3  C   UNL     1      -8.940   9.754  68.360  1.00  0.00    -0.123 A  
HETATM    4  C   UNL     1      -8.923   8.376  68.104  1.00  0.00    -0.139 A  
HETATM    5  C   UNL     1      -9.258   7.876  66.835  1.00  0.00    -0.191 A  
HETATM    6  C   UNL     1      -9.297  10.651  67.334  1.00  0.00    -0.157 A  
HETATM    7  C   UNL     1      -9.694   8.754  65.843  1.00  0.00    -0.211 A  
HETATM    8  C   UNL     1      -9.725  10.124  66.101  1.00  0.00    -0.275 A  
BRANCH   5   9
HETATM    9  C   UNL     1      -9.107   6.420  66.582  1.00  0.00    -0.146 C  
HETATM   10  N   UNL     1      -7.788   5.958  66.470  1.00  0.00    -0.100 N  
HETATM   11  H   UNL     1      -7.041   6.651  66.504  1.00  0.00     0.000 HD 
HETATM   12  O   UNL     1     -10.084   5.699  66.474  1.00  0.00    -0.167 OA 
BRANCH  10  13
HETATM   13  S   UNL     1      -7.351   4.365  66.284  1.00  0.00    -0.082 S  
HETATM   14  O   UNL     1      -6.139   4.327  65.490  1.00  0.00    -0.023 OA 
HETATM   15  O   UNL     1      -8.545   3.683  65.826  1.00  0.00    -0.109 OA 
BRANCH  13  16
HETATM   16  C   UNL     1      -6.997   3.779  67.930  1.00  0.00    -0.051 A  
HETATM   17  C   UNL     1      -5.651   3.557  68.262  1.00  0.00    -0.018 A  
HETATM   18  C   UNL     1      -9.479   3.710  68.573  1.00  0.00    -0.212 C  
HETATM   19  C   UNL     1      -5.309   3.085  69.528  1.00  0.00    -0.012 A  
HETATM   20  C   UNL     1      -8.019   3.520  68.866  1.00  0.00    -0.063 A  
HETATM   21  C   UNL     1      -6.306   2.833  70.465  1.00  0.00    -0.024 A  
HETATM   22  C   UNL     1      -7.647   3.048  70.138  1.00  0.00    -0.043 A  
ENDBRANCH  13  16
ENDBRANCH  10  13
ENDBRANCH   5   9
BRANCH   6  23
HETATM   23  C   UNL     1      -9.280  12.152  67.529  1.00  0.00    -0.182 C  
BRANCH  23  24
HETATM   24  C   UNL     1      -7.984  12.578  68.173  1.00  0.00    -0.157 A  
HETATM   25  N   UNL     1      -6.136  12.480  69.435  1.00  0.00    -0.099 NA 
HETATM   26  C   UNL     1      -6.412  13.823  69.304  1.00  0.00    -0.112 A  
HETATM   27  C   UNL     1      -7.558  13.910  68.513  1.00  0.00    -0.134 A  
HETATM   28  C   UNL     1      -7.010  11.736  68.686  1.00  0.00    -0.093 A  
HETATM   29  C   UNL     1      -5.138  11.929  70.325  1.00  0.00    -0.089 C  
HETATM   30  C   UNL     1      -8.072  15.194  68.251  1.00  0.00    -0.138 A  
HETATM   31  C   UNL     1      -7.423  16.355  68.688  1.00  0.00    -0.194 A  
HETATM   32  C   UNL     1      -6.301  16.228  69.506  1.00  0.00    -0.195 A  
HETATM   33  C   UNL     1      -5.785  14.964  69.840  1.00  0.00    -0.116 A  
BRANCH  31  34
HETATM   34  N   UNL     1      -7.853  17.650  68.313  1.00  0.00    -0.246 N  
HETATM   35  H   UNL     1      -8.519  17.713  67.544  1.00  0.00     0.000 HD 
HETATM   36  C   UNL     1      -7.454  18.826  68.892  1.00  0.00    -0.289 C  
HETATM   37  O   UNL     1      -6.639  18.961  69.790  1.00  0.00    -0.211 OA 
BRANCH  36  38
HETATM   38  O   UNL     1      -8.110  19.887  68.336  1.00  0.00    -0.296 OA 
BRANCH  38  39
HETATM   39  C   UNL     1      -7.375  20.479  67.262  1.00  0.00    -0.327 C  
HETATM   40  C   UNL     1      -5.914  20.036  67.276  1.00  0.00    -0.194 C  
HETATM   41  C   UNL     1      -5.456  20.344  65.864  1.00  0.00    -0.207 C  
HETATM   42  C   UNL     1      -6.646  19.954  64.994  1.00  0.00    -0.310 C  
HETATM   43  C   UNL     1      -7.882  20.020  65.897  1.00  0.00    -0.277 C  
ENDBRANCH  38  39
ENDBRANCH  36  38
ENDBRANCH  31  34
ENDBRANCH  23  24
ENDBRANCH   6  23
ENDBRANCH   2   3
TORSDOF 9
ENDMDL
MODEL      172
REMARK 921   NORMALIZED FREE ENERGY PREDICTED BY IDOCK:   -0.10 KCAL/MOL
REMARK 922        TOTAL FREE ENERGY PREDICTED BY IDOCK:   -1.91 KCAL/MOL
REMARK 923 INTER-LIGAND FREE ENERGY PREDICTED BY IDOCK:   -5.79 KCAL/MOL
REMARK 924 INTRA-LIGAND FREE ENERGY PREDICTED BY IDOCK:    3.88 KCAL/MOL
REMARK 927      BINDING AFFINITY PREDICTED BY RF-SCORE:    0.00 PKD
ROOT
HETATM    1  C   UNL     1     -11.534  13.035  69.075  1.00  0.00    -0.303 C  
HETATM    2  O   UNL     1     -11.303  11.691  69.475  1.00  0.00    -0.258 OA 
ENDROOT
BRANCH   2   3
HETATM    3  C   UNL     1     -10.080  11.142  69.190  1.00  0.00    -0.112 A  
HETATM    4  C   UNL     1      -9.627   9.915  69.696  1.00  0.00    -0.249 A  
HETATM    5  C   UNL     1      -8.375   9.401  69.321  1.00  0.00    -0.131 A  
HETATM    6  C   UNL     1      -9.271  11.869  68.295  1.00  0.00    -0.187 A  
HETATM    7  C   UNL     1      -7.610  10.077  68.371  1.00  0.00    -0.083 A  
HETATM    8  C   UNL     1      -8.066  11.290  67.857  1.00  0.00    -0.121 A  
BRANCH   5   9
HETATM    9  C   UNL     1      -7.891   8.160  69.979  1.00  0.00    -0.103 C  
HETATM   10  N   UNL     1      -8.548   6.979  69.604  1.00  0.00    -0.134 N  
HETATM   11  H   UNL     1      -9.340   7.062  68.968  1.00  0.00     0.000 HD 
HETATM   12  O   UNL     1      -6.985   8.197  70.794  1.00  0.00    -0.040 OA 
BRANCH  10  13
HETATM   13  S   UNL     1      -8.132   5.454  70.120  1.00  0.00    -0.090 S  
HETATM   14  O   UNL     1      -8.961   5.132  71.264  1.00  0.00    -0.135 OA 
HETATM   15  O   UNL     1      -6.687   5.465  70.246  1.00  0.00    -0.043 OA 
BRANCH  13  16
HETATM   16  C   UNL     1      -8.544   4.370  68.767  1.00  0.00    -0.085 A  
HETATM   17  C   UNL     1      -8.160   3.025  68.877  1.00  0.00    -0.069 A  
HETATM   18  C   UNL     1      -9.626   6.264  67.417  1.00  0.00    -0.129 C  
HETATM   19  C   UNL     1      -8.439   2.128  67.847  1.00  0.00    -0.090 A  
HETATM   20  C   UNL     1      -9.208   4.836  67.614  1.00  0.00    -0.144 A  
HETATM   21  C   UNL     1      -9.101   2.571  66.706  1.00  0.00    -0.133 A  
HETATM   22  C   UNL     1      -9.483   3.910  66.591  1.00  0.00    -0.217 A  
ENDBRANCH  13  16
ENDBRANCH  10  13
ENDBRANCH   5   9
BRANCH   6  23
HETATM   23  C   UNL     1      -9.677  13.225  67.758  1.00  0.00    -0.217 C  
BRANCH  23  24
HETATM   24  C   UNL     1     -10.067  13.113  66.305  1.00  0.00    -0.285 A  
HETATM   25  N   UNL     1     -11.281  13.329  64.435  1.00  0.00    -0.365 NA 
HETATM   26  C   UNL     1     -10.462  12.244  64.209  1.00  0.00    -0.346 A  
HETATM   27  C   UNL     1      -9.688  12.095  65.361  1.00  0.00    -0.178 A  
HETATM   28  C   UNL     1     -10.985  13.910  65.641  1.00  0.00    -0.290 A  
HETATM   29  C   UNL     1     -12.372  13.728  63.574  1.00  0.00    -0.111 C  
HETATM   30  C   UNL     1      -8.777  11.023  65.396  1.00  0.00    -0.122 A  
HETATM   31  C   UNL     1      -8.580  10.180  64.296  1.00  0.00    -0.193 A  
HETATM   32  C   UNL     1      -9.396  10.338  63.177  1.00  0.00    -0.343 A  
HETATM   33  C   UNL     1     -10.359  11.361  63.119  1.00  0.00    -0.357 A  
BRANCH  31  34
HETATM   34  N   UNL     1      -7.571   9.189  64.271  1.00  0.00    -0.111 N  
HETATM   35  H   UNL     1      -6.670   9.433  64.682  1.00  0.00     0.000 HD 
HETATM   36  C   UNL     1      -7.696   7.930  63.744  1.00  0.00    -0.135 C  
HETATM   37  O   UNL     1      -8.671   7.467  63.176  1.00  0.00     0.304 OA 
BRANCH  36  38
HETATM   38  O   UNL     1      -6.555   7.206  63.945  1.00  0.00    -0.043 OA 
BRANCH  38  39
HETATM   39  C   UNL     1      -6.553   5.979  63.209  1.00  0.00    -0.032 C  
HETATM   40  C   UNL     1      -5.155   5.370  63.145  1.00  0.00    -0.009 C  
HETATM   41  C   UNL     1      -5.434   3.924  62.789  1.00  0.00    -0.009 C  
HETATM   42  C   UNL     1      -6.678   3.575  63.599  1.00  0.00    -0.042 C  
HETATM   43  C   UNL     1      -7.391   4.900  63.889  1.00  0.00    -0.051 C  
ENDBRANCH  38  39
ENDBRANCH  36  38
ENDBRANCH  31  34
ENDBRANCH  23  24
ENDBRANCH   6  23
ENDBRANCH   2   3
TORSDOF 9
ENDMDL
MODEL      173
REMARK 921   NORMALIZED FREE ENERGY PREDICTED BY IDOCK:    0.07 KCAL/MOL
REMARK 922        TOTAL FREE ENERGY PREDICTED BY IDOCK:   -1.65 KCAL/MOL
REMARK 923 INTER-LIGAND FREE ENERGY PREDICTED BY IDOCK:   -4.38 KCAL/MOL
REMARK 924 INTRA-LIGAND FREE ENERGY PREDICTED BY IDOCK:    2.73 KCAL/MOL
REMARK 927      BINDING AFFINITY PREDICTED BY RF-SCORE:    0.00 PKD
ROOT
HETATM    1  C   UNL     1      -7.573  11.024  65.819  1.00  0.00     0.058 C  
HETATM    2  O   UNL     1      -8.265  11.690  66.868  1.00  0.00    -0.160 OA 
ENDROOT
BRANCH   2   3
HETATM    3  C   UNL     1      -9.232  10.989  67.539  1.00  0.00    -0.145 A  
HETATM    4  C   UNL     1      -9.069  10.445  68.821  1.00  0.00    -0.165 A  
HETATM    5  C   UNL     1     -10.126   9.775  69.458  1.00  0.00    -0.233 A  
HETATM    6  C   UNL     1     -10.471  10.861  66.879  1.00  0.00    -0.299 A  
HETATM    7  C   UNL     1     -11.377   9.722  68.843  1.00  0.00     0.006 A  
HETATM    8  C   UNL     1     -11.544  10.274  67.574  1.00  0.00     0.521 A  
BRANCH   5   9
HETATM    9  C   UNL     1      -9.865   9.113  70.762  1.00  0.00    -0.270 C  
HETATM   10  N   UNL     1      -9.060   7.966  70.709  1.00  0.00    -0.151 N  
HETATM   11  H   UNL     1      -8.769   7.636  69.789  1.00  0.00     0.000 HD 
HETATM   12  O   UNL     1     -10.340   9.555  71.794  1.00  0.00    -0.149 OA 
BRANCH  10  13
HETATM   13  S   UNL     1      -8.544   7.105  72.034  1.00  0.00    -0.110 S  
HETATM   14  O   UNL     1      -9.355   7.504  73.166  1.00  0.00    -0.165 OA 
HETATM   15  O   UNL     1      -7.104   7.273  72.073  1.00  0.00    -0.066 OA 
BRANCH  13  16
HETATM   16  C   UNL     1      -8.873   5.397  71.644  1.00  0.00    -0.135 A  
HETATM   17  C   UNL     1     -10.042   4.827  72.173  1.00  0.00    -0.252 A  
HETATM   18  C   UNL     1      -6.715   5.164  70.277  1.00  0.00    -0.040 C  
HETATM   19  C   UNL     1     -10.350   3.492  71.917  1.00  0.00     0.006 A  
HETATM   20  C   UNL     1      -7.993   4.628  70.856  1.00  0.00    -0.081 A  
HETATM   21  C   UNL     1      -9.495   2.723  71.135  1.00  0.00    -0.225 A  
HETATM   22  C   UNL     1      -8.329   3.285  70.608  1.00  0.00    -0.084 A  
ENDBRANCH  13  16
ENDBRANCH  10  13
ENDBRANCH   5   9
BRANCH   6  23
HETATM   23  C   UNL     1     -10.694  11.376  65.473  1.00  0.00    -0.313 C  
BRANCH  23  24
HETATM   24  C   UNL     1     -11.216  12.791  65.514  1.00  0.00    -0.329 A  
HETATM   25  N   UNL     1     -12.319  14.639  64.895  1.00  0.00    -0.372 NA 
HETATM   26  C   UNL     1     -11.302  15.083  65.711  1.00  0.00    -0.279 A  
HETATM   27  C   UNL     1     -10.604  13.945  66.117  1.00  0.00    -0.291 A  
HETATM   28  C   UNL     1     -12.334  13.269  64.849  1.00  0.00    -0.425 A  
HETATM   29  C   UNL     1     -13.177  15.499  64.110  1.00  0.00     1.862 C  
HETATM   30  C   UNL     1      -9.483  14.131  66.947  1.00  0.00    -0.275 A  
HETATM   31  C   UNL     1      -9.117  15.395  67.426  1.00  0.00    -0.197 A  
HETATM   32  C   UNL     1      -9.817  16.512  66.971  1.00  0.00    -0.259 A  
HETATM   33  C   UNL     1     -10.909  16.378  66.097  1.00  0.00    -0.075 A  
BRANCH  31  34
HETATM   34  N   UNL     1      -8.079  15.576  68.369  1.00  0.00    -0.132 N  
HETATM   35  H   UNL     1      -7.984  16.503  68.784  1.00  0.00     0.000 HD 
HETATM   36  C   UNL     1      -7.188  14.617  68.776  1.00  0.00    -0.124 C  
HETATM   37  O   UNL     1      -7.111  13.469  68.370  1.00  0.00    -0.089 OA 
BRANCH  36  38
HETATM   38  O   UNL     1      -6.359  15.105  69.745  1.00  0.00    -0.134 OA 
BRANCH  38  39
HETATM   39  C   UNL     1      -5.451  16.088  69.241  1.00  0.00    -0.113 C  
HETATM   40  C   UNL     1      -5.913  16.634  67.892  1.00  0.00    -0.139 C  
HETATM   41  C   UNL     1      -5.145  17.935  67.775  1.00  0.00    -0.137 C  
HETATM   42  C   UNL     1      -5.171  18.510  69.188  1.00  0.00    -0.193 C  
HETATM   43  C   UNL     1      -5.388  17.324  70.134  1.00  0.00    -0.226 C  
ENDBRANCH  38  39
ENDBRANCH  36  38
ENDBRANCH  31  34
ENDBRANCH  23  24
ENDBRANCH   6  23
ENDBRANCH   2   3
TORSDOF 9
ENDMDL
MODEL      174
REMARK 921   NORMALIZED FREE ENERGY PREDICTED BY IDOCK:    0.26 KCAL/MOL
REMARK 922        TOTAL FREE ENERGY PREDICTED BY IDOCK:   -1.36 KCAL/MOL
REMARK 923 INTER-LIGAND FREE ENERGY PREDICTED BY IDOCK:   -1.87 KCAL/MOL
REMARK 924 INTRA-LIGAND FREE ENERGY PREDICTED BY IDOCK:    0.51 KCAL/MOL
REMARK 927      BINDING AFFINITY PREDICTED BY RF-SCORE:    0.00 PKD
ROOT
HETATM    1  C   UNL     1      -5.571  15.688  70.586  1.00  0.00    -0.081 C  
HETATM    2  O   UNL     1      -6.507  15.776  69.520  1.00  0.00    -0.157 OA 
ENDROOT
BRANCH   2   3
HETATM    3  C   UNL     1      -7.233  14.654  69.215  1.00  0.00    -0.156 A  
HETATM    4  C   UNL     1      -6.674  13.448  68.769  1.00  0.00    -0.106 A  
HETATM    5  C   UNL     1      -7.485  12.329  68.516  1.00  0.00    -0.113 A  
HETATM    6  C   UNL     1      -8.625  14.747  69.413  1.00  0.00     0.023 A  
HETATM    7  C   UNL     1      -8.850  12.393  68.793  1.00  0.00     0.152 A  
HETATM    8  C   UNL     1      -9.405  13.588  69.250  1.00  0.00     0.676 A  
BRANCH   5   9
HETATM    9  C   UNL     1      -6.859  11.116  67.929  1.00  0.00    -0.068 C  
HETATM   10  N   UNL     1      -7.623   9.943  68.005  1.00  0.00    -0.085 N  
HETATM   11  H   UNL     1      -8.510   9.990  68.506  1.00  0.00     0.000 HD 
HETATM   12  O   UNL     1      -5.748  11.166  67.429  1.00  0.00    -0.045 OA 
BRANCH  10  13
HETATM   13  S   UNL     1      -7.191   8.482  67.339  1.00  0.00    -0.085 S  
HETATM   14  O   UNL     1      -5.989   8.028  68.010  1.00  0.00    -0.039 OA 
HETATM   15  O   UNL     1      -7.191   8.692  65.905  1.00  0.00    -0.075 OA 
BRANCH  13  16
HETATM   16  C   UNL     1      -8.535   7.375  67.720  1.00  0.00    -0.118 A  
HETATM   17  C   UNL     1      -8.243   6.252  68.509  1.00  0.00    -0.112 A  
HETATM   18  C   UNL     1     -10.220   8.757  66.367  1.00  0.00    -0.256 C  
HETATM   19  C   UNL     1      -9.246   5.339  68.830  1.00  0.00    -0.150 A  
HETATM   20  C   UNL     1      -9.841   7.592  67.234  1.00  0.00    -0.245 A  
HETATM   21  C   UNL     1     -10.542   5.544  68.365  1.00  0.00    -0.210 A  
HETATM   22  C   UNL     1     -10.836   6.660  67.576  1.00  0.00    -0.417 A  
ENDBRANCH  13  16
ENDBRANCH  10  13
ENDBRANCH   5   9
BRANCH   6  23
HETATM   23  C   UNL     1      -9.296  16.035  69.839  1.00  0.00     0.277 C  
BRANCH  23  24
HETATM   24  C   UNL     1      -9.530  16.921  68.641  1.00  0.00    -0.268 A  
HETATM   25  N   UNL     1     -10.092  18.730  67.447  1.00  0.00    -0.336 NA 
HETATM   26  C   UNL     1     -10.237  17.668  66.581  1.00  0.00    -0.341 A  
HETATM   27  C   UNL     1      -9.883  16.528  67.302  1.00  0.00    -0.254 A  
HETATM   28  C   UNL     1      -9.580  18.305  68.645  1.00  0.00    -0.335 A  
HETATM   29  C   UNL     1     -10.525  20.082  67.168  1.00  0.00    -0.377 C  
HETATM   30  C   UNL     1      -9.975  15.287  66.643  1.00  0.00    -0.264 A  
HETATM   31  C   UNL     1     -10.323  15.191  65.291  1.00  0.00    -0.396 A  
HETATM   32  C   UNL     1     -10.704  16.348  64.613  1.00  0.00     0.080 A  
HETATM   33  C   UNL     1     -10.682  17.601  65.247  1.00  0.00     0.151 A  
BRANCH  31  34
HETATM   34  N   UNL     1     -10.283  13.966  64.584  1.00  0.00    -0.635 N  
HETATM   35  H   UNL     1     -10.950  13.847  63.822  1.00  0.00     0.000 HD 
HETATM   36  C   UNL     1      -9.428  12.924  64.832  1.00  0.00     0.417 C  
HETATM   37  O   UNL     1      -8.594  12.856  65.720  1.00  0.00     0.693 OA 
BRANCH  36  38
HETATM   38  O   UNL     1      -9.610  11.920  63.924  1.00  0.00    -0.191 OA 
BRANCH  38  39
HETATM   39  C   UNL     1     -10.961  11.452  63.893  1.00  0.00    -0.366 C  
HETATM   40  C   UNL     1     -11.741  11.920  65.120  1.00  0.00    -0.244 C  
HETATM   41  C   UNL     1     -13.183  11.763  64.681  1.00  0.00     1.395 C  
HETATM   42  C   UNL     1     -13.180  12.213  63.224  1.00  0.00     0.280 C  
HETATM   43  C   UNL     1     -11.744  12.033  62.719  1.00  0.00     0.513 C  
ENDBRANCH  38  39
ENDBRANCH  36  38
ENDBRANCH  31  34
ENDBRANCH  23  24
ENDBRANCH   6  23
ENDBRANCH   2   3
TORSDOF 9
ENDMDL
MODEL      175
REMARK 921   NORMALIZED FREE ENERGY PREDICTED BY IDOCK:    0.50 KCAL/MOL
REMARK 922        TOTAL FREE ENERGY PREDICTED BY IDOCK:   -1.00 KCAL/MOL
REMARK 923 INTER-LIGAND FREE ENERGY PREDICTED BY IDOCK:   -3.48 KCAL/MOL
REMARK 924 INTRA-LIGAND FREE ENERGY PREDICTED BY IDOCK:    2.49 KCAL/MOL
REMARK 927      BINDING AFFINITY PREDICTED BY RF-SCORE:    0.00 PKD
ROOT
HETATM    1  C   UNL     1      -9.339  11.870  67.574  1.00  0.00    -0.177 C  
HETATM    2  O   UNL     1      -9.252  10.455  67.669  1.00  0.00    -0.147 OA 
ENDROOT
BRANCH   2   3
HETATM    3  C   UNL     1      -8.108   9.855  67.211  1.00  0.00    -0.113 A  
HETATM    4  C   UNL     1      -8.039   8.533  66.750  1.00  0.00    -0.098 A  
HETATM    5  C   UNL     1      -6.834   8.004  66.258  1.00  0.00    -0.058 A  
HETATM    6  C   UNL     1      -6.955  10.665  67.183  1.00  0.00    -0.088 A  
HETATM    7  C   UNL     1      -5.715   8.830  66.149  1.00  0.00    -0.046 A  
HETATM    8  C   UNL     1      -5.786  10.149  66.595  1.00  0.00    -0.055 A  
BRANCH   5   9
HETATM    9  C   UNL     1      -6.785   6.565  65.896  1.00  0.00    -0.048 C  
HETATM   10  N   UNL     1      -7.681   6.160  64.896  1.00  0.00    -0.094 N  
HETATM   11  H   UNL     1      -8.336   6.855  64.541  1.00  0.00     0.000 HD 
HETATM   12  O   UNL     1      -6.011   5.805  66.455  1.00  0.00    -0.020 OA 
BRANCH  10  13
HETATM   13  S   UNL     1      -7.755   4.631  64.248  1.00  0.00    -0.080 S  
HETATM   14  O   UNL     1      -6.413   4.249  63.857  1.00  0.00    -0.035 OA 
HETATM   15  O   UNL     1      -8.817   4.676  63.261  1.00  0.00    -0.132 OA 
BRANCH  13  16
HETATM   16  C   UNL     1      -8.305   3.580  65.579  1.00  0.00    -0.102 A  
HETATM   17  C   UNL     1      -9.175   4.141  66.527  1.00  0.00    -0.163 A  
HETATM   18  C   UNL     1      -6.925   1.587  64.742  1.00  0.00    -0.039 C  
HETATM   19  C   UNL     1      -9.630   3.377  67.601  1.00  0.00    -0.160 A  
HETATM   20  C   UNL     1      -7.872   2.244  65.703  1.00  0.00    -0.077 A  
HETATM   21  C   UNL     1      -9.218   2.055  67.732  1.00  0.00    -0.212 A  
HETATM   22  C   UNL     1      -8.349   1.493  66.792  1.00  0.00    -0.084 A  
ENDBRANCH  13  16
ENDBRANCH  10  13
ENDBRANCH   5   9
BRANCH   6  23
HETATM   23  C   UNL     1      -6.949  12.081  67.718  1.00  0.00    -0.103 C  
BRANCH  23  24
HETATM   24  C   UNL     1      -6.562  12.084  69.177  1.00  0.00    -0.107 A  
HETATM   25  N   UNL     1      -5.737  12.812  71.127  1.00  0.00    -0.349 NA 
HETATM   26  C   UNL     1      -5.691  11.437  71.207  1.00  0.00     0.221 A  
HETATM   27  C   UNL     1      -6.210  10.960  70.003  1.00  0.00    -0.133 A  
HETATM   28  C   UNL     1      -6.343  13.204  69.962  1.00  0.00    -0.006 A  
HETATM   29  C   UNL     1      -5.131  13.711  72.084  1.00  0.00    -0.176 C  
HETATM   30  C   UNL     1      -6.247   9.565  69.819  1.00  0.00    -0.040 A  
HETATM   31  C   UNL     1      -5.861   8.674  70.827  1.00  0.00    -0.033 A  
HETATM   32  C   UNL     1      -5.316   9.187  72.003  1.00  0.00    -0.061 A  
HETATM   33  C   UNL     1      -5.208  10.573  72.208  1.00  0.00     0.175 A  
BRANCH  31  34
HETATM   34  N   UNL     1      -6.025   7.274  70.704  1.00  0.00    -0.031 N  
HETATM   35  H   UNL     1      -5.955   6.879  69.767  1.00  0.00     0.000 HD 
HETATM   36  C   UNL     1      -6.269   6.401  71.732  1.00  0.00    -0.042 C  
HETATM   37  O   UNL     1      -6.428   6.682  72.909  1.00  0.00    -0.064 OA 
BRANCH  36  38
HETATM   38  O   UNL     1      -6.306   5.114  71.278  1.00  0.00    -0.028 OA 
BRANCH  38  39
HETATM   39  C   UNL     1      -7.353   4.352  71.885  1.00  0.00    -0.069 C  
HETATM   40  C   UNL     1      -8.372   5.256  72.576  1.00  0.00    -0.118 C  
HETATM   41  C   UNL     1      -9.583   4.355  72.710  1.00  0.00    -0.171 C  
HETATM   42  C   UNL     1      -9.613   3.575  71.399  1.00  0.00    -0.239 C  
HETATM   43  C   UNL     1      -8.181   3.588  70.855  1.00  0.00    -0.080 C  
ENDBRANCH  38  39
ENDBRANCH  36  38
ENDBRANCH  31  34
ENDBRANCH  23  24
ENDBRANCH   6  23
ENDBRANCH   2   3
TORSDOF 9
ENDMDL
MODEL      176
REMARK 921   NORMALIZED FREE ENERGY PREDICTED BY IDOCK:    1.18 KCAL/MOL
REMARK 922        TOTAL FREE ENERGY PREDICTED BY IDOCK:    0.04 KCAL/MOL
REMARK 923 INTER-LIGAND FREE ENERGY PREDICTED BY IDOCK:   -3.09 KCAL/MOL
REMARK 924 INTRA-LIGAND FREE ENERGY PREDICTED BY IDOCK:    3.13 KCAL/MOL
REMARK 927      BINDING AFFINITY PREDICTED BY RF-SCORE:    0.00 PKD
ROOT
HETATM    1  C   UNL     1     -11.449  13.264  69.313  1.00  0.00    -0.288 C  
HETATM    2  O   UNL     1     -10.799  12.142  69.896  1.00  0.00     0.205 OA 
ENDROOT
BRANCH   2   3
HETATM    3  C   UNL     1      -9.531  11.848  69.470  1.00  0.00     1.145 A  
HETATM    4  C   UNL     1      -8.742  10.812  69.991  1.00  0.00     0.855 A  
HETATM    5  C   UNL     1      -7.465  10.549  69.470  1.00  0.00    -0.146 A  
HETATM    6  C   UNL     1      -9.037  12.637  68.412  1.00  0.00    -0.128 A  
HETATM    7  C   UNL     1      -7.009  11.271  68.367  1.00  0.00    -0.070 A  
HETATM    8  C   UNL     1      -7.798  12.293  67.840  1.00  0.00    -0.146 A  
BRANCH   5   9
HETATM    9  C   UNL     1      -6.624   9.521  70.136  1.00  0.00    -0.073 C  
HETATM   10  N   UNL     1      -7.163   8.228  70.176  1.00  0.00    -0.054 N  
HETATM   11  H   UNL     1      -8.106   8.099  69.809  1.00  0.00     0.000 HD 
HETATM   12  O   UNL     1      -5.542   9.815  70.617  1.00  0.00    -0.045 OA 
BRANCH  10  13
HETATM   13  S   UNL     1      -6.381   6.889  70.777  1.00  0.00    -0.040 S  
HETATM   14  O   UNL     1      -6.345   7.008  72.220  1.00  0.00    -0.048 OA 
HETATM   15  O   UNL     1      -5.148   6.787  70.021  1.00  0.00    -0.014 OA 
BRANCH  13  16
HETATM   16  C   UNL     1      -7.406   5.503  70.323  1.00  0.00    -0.068 A  
HETATM   17  C   UNL     1      -8.265   5.667  69.225  1.00  0.00    -0.096 A  
HETATM   18  C   UNL     1      -6.508   4.054  72.239  1.00  0.00    -0.021 C  
HETATM   19  C   UNL     1      -9.103   4.626  68.828  1.00  0.00    -0.158 A  
HETATM   20  C   UNL     1      -7.383   4.291  71.043  1.00  0.00    -0.044 A  
HETATM   21  C   UNL     1      -9.086   3.421  69.523  1.00  0.00    -0.202 A  
HETATM   22  C   UNL     1      -8.234   3.255  70.619  1.00  0.00    -0.076 A  
ENDBRANCH  13  16
ENDBRANCH  10  13
ENDBRANCH   5   9
BRANCH   6  23
HETATM   23  C   UNL     1      -9.814  13.805  67.843  1.00  0.00    -0.232 C  
BRANCH  23  24
HETATM   24  C   UNL     1     -10.161  13.544  66.398  1.00  0.00    -0.291 A  
HETATM   25  N   UNL     1     -11.297  13.608  64.469  1.00  0.00    -0.364 NA 
HETATM   26  C   UNL     1     -10.540  12.458  64.404  1.00  0.00    -0.337 A  
HETATM   27  C   UNL     1      -9.816  12.402  65.595  1.00  0.00    -0.235 A  
HETATM   28  C   UNL     1     -11.005  14.310  65.610  1.00  0.00    -0.309 A  
HETATM   29  C   UNL     1     -12.331  13.966  63.524  1.00  0.00    -0.019 C  
HETATM   30  C   UNL     1      -8.975  11.290  65.792  1.00  0.00    -0.191 A  
HETATM   31  C   UNL     1      -8.795  10.313  64.806  1.00  0.00    -0.196 A  
HETATM   32  C   UNL     1      -9.562  10.385  63.644  1.00  0.00    -0.364 A  
HETATM   33  C   UNL     1     -10.456  11.448  63.429  1.00  0.00    -0.452 A  
BRANCH  31  34
HETATM   34  N   UNL     1      -7.849   9.269  64.937  1.00  0.00    -0.112 N  
HETATM   35  H   UNL     1      -7.989   8.609  65.701  1.00  0.00     0.000 HD 
HETATM   36  C   UNL     1      -6.762   9.066  64.129  1.00  0.00    -0.083 C  
HETATM   37  O   UNL     1      -6.402   9.764  63.195  1.00  0.00    -0.104 OA 
BRANCH  36  38
HETATM   38  O   UNL     1      -6.094   7.931  64.491  1.00  0.00    -0.047 OA 
BRANCH  38  39
HETATM   39  C   UNL     1      -6.273   6.870  63.549  1.00  0.00    -0.043 C  
HETATM   40  C   UNL     1      -5.554   5.600  63.998  1.00  0.00    -0.014 C  
HETATM   41  C   UNL     1      -6.238   4.521  63.182  1.00  0.00    -0.018 C  
HETATM   42  C   UNL     1      -7.707   4.931  63.180  1.00  0.00    -0.067 C  
HETATM   43  C   UNL     1      -7.734   6.442  63.436  1.00  0.00    -0.102 C  
ENDBRANCH  38  39
ENDBRANCH  36  38
ENDBRANCH  31  34
ENDBRANCH  23  24
ENDBRANCH   6  23
ENDBRANCH   2   3
TORSDOF 9
ENDMDL
MODEL      177
REMARK 921   NORMALIZED FREE ENERGY PREDICTED BY IDOCK:    1.20 KCAL/MOL
REMARK 922        TOTAL FREE ENERGY PREDICTED BY IDOCK:    0.08 KCAL/MOL
REMARK 923 INTER-LIGAND FREE ENERGY PREDICTED BY IDOCK:   -0.82 KCAL/MOL
REMARK 924 INTRA-LIGAND FREE ENERGY PREDICTED BY IDOCK:    0.89 KCAL/MOL
REMARK 927      BINDING AFFINITY PREDICTED BY RF-SCORE:    0.00 PKD
ROOT
HETATM    1  C   UNL     1      -9.889   9.541  72.434  1.00  0.00     2.032 C  
HETATM    2  O   UNL     1      -8.899  10.045  71.548  1.00  0.00     0.979 OA 
ENDROOT
BRANCH   2   3
HETATM    3  C   UNL     1      -8.565   9.278  70.463  1.00  0.00    -0.233 A  
HETATM    4  C   UNL     1      -8.771   7.893  70.380  1.00  0.00    -0.137 A  
HETATM    5  C   UNL     1      -8.437   7.185  69.215  1.00  0.00    -0.133 A  
HETATM    6  C   UNL     1      -8.016   9.969  69.364  1.00  0.00    -0.145 A  
HETATM    7  C   UNL     1      -7.974   7.879  68.097  1.00  0.00    -0.125 A  
HETATM    8  C   UNL     1      -7.782   9.257  68.173  1.00  0.00    -0.088 A  
BRANCH   5   9
HETATM    9  C   UNL     1      -8.561   5.704  69.223  1.00  0.00    -0.106 C  
HETATM   10  N   UNL     1      -7.381   4.995  68.955  1.00  0.00    -0.057 N  
HETATM   11  H   UNL     1      -6.551   5.536  68.714  1.00  0.00     0.000 HD 
HETATM   12  O   UNL     1      -9.634   5.168  69.442  1.00  0.00    -0.135 OA 
BRANCH  10  13
HETATM   13  S   UNL     1      -7.235   3.340  69.001  1.00  0.00    -0.049 S  
HETATM   14  O   UNL     1      -5.836   3.013  68.815  1.00  0.00    -0.022 OA 
HETATM   15  O   UNL     1      -8.231   2.834  68.077  1.00  0.00    -0.071 OA 
BRANCH  13  16
HETATM   16  C   UNL     1      -7.739   2.868  70.645  1.00  0.00    -0.043 A  
HETATM   17  C   UNL     1      -6.965   3.338  71.718  1.00  0.00    -0.031 A  
HETATM   18  C   UNL     1      -9.710   1.477  69.775  1.00  0.00    -0.003 C  
HETATM   19  C   UNL     1      -7.297   2.994  73.027  1.00  0.00    -0.046 A  
HETATM   20  C   UNL     1      -8.853   2.036  70.874  1.00  0.00    -0.126 A  
HETATM   21  C   UNL     1      -8.399   2.180  73.269  1.00  0.00    -0.062 A  
HETATM   22  C   UNL     1      -9.169   1.706  72.204  1.00  0.00    -0.124 A  
ENDBRANCH  13  16
ENDBRANCH  10  13
ENDBRANCH   5   9
BRANCH   6  23
HETATM   23  C   UNL     1      -7.717  11.452  69.410  1.00  0.00     0.148 C  
BRANCH  23  24
HETATM   24  C   UNL     1      -8.862  12.232  68.813  1.00  0.00     0.134 A  
HETATM   25  N   UNL     1     -10.712  13.490  68.702  1.00  0.00    -0.250 NA 
HETATM   26  C   UNL     1     -10.670  12.804  67.507  1.00  0.00    -0.229 A  
HETATM   27  C   UNL     1      -9.518  12.018  67.550  1.00  0.00    -0.178 A  
HETATM   28  C   UNL     1      -9.590  13.228  69.444  1.00  0.00     0.962 A  
HETATM   29  C   UNL     1     -11.833  14.283  69.155  1.00  0.00    -0.330 C  
HETATM   30  C   UNL     1      -9.257  11.187  66.444  1.00  0.00    -0.199 A  
HETATM   31  C   UNL     1     -10.064  11.200  65.301  1.00  0.00    -0.276 A  
HETATM   32  C   UNL     1     -11.225  11.972  65.309  1.00  0.00    -0.374 A  
HETATM   33  C   UNL     1     -11.556  12.774  66.414  1.00  0.00    -0.435 A  
BRANCH  31  34
HETATM   34  N   UNL     1      -9.733  10.474  64.132  1.00  0.00    -0.305 N  
HETATM   35  H   UNL     1      -9.972  10.900  63.237  1.00  0.00     0.000 HD 
HETATM   36  C   UNL     1      -9.120   9.249  64.095  1.00  0.00     0.008 C  
HETATM   37  O   UNL     1      -8.796   8.563  65.050  1.00  0.00    -0.144 OA 
BRANCH  36  38
HETATM   38  O   UNL     1      -8.887   8.862  62.806  1.00  0.00    -0.169 OA 
BRANCH  38  39
HETATM   39  C   UNL     1      -7.491   8.761  62.513  1.00  0.00    -0.102 C  
HETATM   40  C   UNL     1      -6.838  10.139  62.428  1.00  0.00    -0.131 C  
HETATM   41  C   UNL     1      -5.366   9.825  62.603  1.00  0.00    -0.088 C  
HETATM   42  C   UNL     1      -5.343   8.733  63.668  1.00  0.00    -0.062 C  
HETATM   43  C   UNL     1      -6.718   8.059  63.626  1.00  0.00    -0.074 C  
ENDBRANCH  38  39
ENDBRANCH  36  38
ENDBRANCH  31  34
ENDBRANCH  23  24
ENDBRANCH   6  23
ENDBRANCH   2   3
TORSDOF 9
ENDMDL
MODEL      178
REMARK 921   NORMALIZED FREE ENERGY PREDICTED BY IDOCK:    1.30 KCAL/MOL
REMARK 922        TOTAL FREE ENERGY PREDICTED BY IDOCK:    0.23 KCAL/MOL
REMARK 923 INTER-LIGAND FREE ENERGY PREDICTED BY IDOCK:   -0.21 KCAL/MOL
REMARK 924 INTRA-LIGAND FREE ENERGY PREDICTED BY IDOCK:    0.43 KCAL/MOL
REMARK 927      BINDING AFFINITY PREDICTED BY RF-SCORE:    0.00 PKD
ROOT
HETATM    1  C   UNL     1      -5.661  11.569  67.523  1.00  0.00    -0.062 C  
HETATM    2  O   UNL     1      -6.490  12.705  67.729  1.00  0.00    -0.095 OA 
ENDROOT
BRANCH   2   3
HETATM    3  C   UNL     1      -7.686  12.513  68.371  1.00  0.00    -0.136 A  
HETATM    4  C   UNL     1      -8.059  11.320  69.006  1.00  0.00    -0.045 A  
HETATM    5  C   UNL     1      -9.288  11.218  69.679  1.00  0.00     0.784 A  
HETATM    6  C   UNL     1      -8.552  13.624  68.406  1.00  0.00    -0.151 A  
HETATM    7  C   UNL     1     -10.108  12.341  69.788  1.00  0.00     1.433 A  
HETATM    8  C   UNL     1      -9.731  13.531  69.168  1.00  0.00     0.364 A  
BRANCH   5   9
HETATM    9  C   UNL     1      -9.689   9.898  70.229  1.00  0.00    -0.154 C  
HETATM   10  N   UNL     1     -10.995   9.822  70.733  1.00  0.00    -0.315 N  
HETATM   11  H   UNL     1     -11.546  10.680  70.746  1.00  0.00     0.000 HD 
HETATM   12  O   UNL     1      -8.908   8.961  70.238  1.00  0.00    -0.147 OA 
BRANCH  10  13
HETATM   13  S   UNL     1     -11.712   8.438  71.312  1.00  0.00    -0.290 S  
HETATM   14  O   UNL     1     -12.987   8.285  70.640  1.00  0.00     0.262 OA 
HETATM   15  O   UNL     1     -11.659   8.546  72.757  1.00  0.00    -0.312 OA 
BRANCH  13  16
HETATM   16  C   UNL     1     -10.627   7.108  70.832  1.00  0.00    -0.220 A  
HETATM   17  C   UNL     1      -9.793   6.566  71.823  1.00  0.00    -0.178 A  
HETATM   18  C   UNL     1     -11.422   7.173  68.395  1.00  0.00     0.451 C  
HETATM   19  C   UNL     1      -8.910   5.534  71.509  1.00  0.00    -0.142 A  
HETATM   20  C   UNL     1     -10.578   6.626  69.509  1.00  0.00    -0.281 A  
HETATM   21  C   UNL     1      -8.857   5.041  70.209  1.00  0.00    -0.143 A  
HETATM   22  C   UNL     1      -9.683   5.581  69.219  1.00  0.00    -0.214 A  
ENDBRANCH  13  16
ENDBRANCH  10  13
ENDBRANCH   5   9
BRANCH   6  23
HETATM   23  C   UNL     1      -8.233  14.920  67.693  1.00  0.00    -0.184 C  
BRANCH  23  24
HETATM   24  C   UNL     1      -9.191  15.133  66.548  1.00  0.00    -0.318 A  
HETATM   25  N   UNL     1     -10.819  16.058  65.318  1.00  0.00    -0.384 NA 
HETATM   26  C   UNL     1     -10.766  14.741  64.915  1.00  0.00    -0.417 A  
HETATM   27  C   UNL     1      -9.751  14.145  65.664  1.00  0.00    -0.210 A  
HETATM   28  C   UNL     1      -9.821  16.323  66.219  1.00  0.00    -0.313 A  
HETATM   29  C   UNL     1     -11.849  16.995  64.929  1.00  0.00     1.753 C  
HETATM   30  C   UNL     1      -9.512  12.774  65.459  1.00  0.00     0.098 A  
HETATM   31  C   UNL     1     -10.198  12.039  64.486  1.00  0.00    -0.286 A  
HETATM   32  C   UNL     1     -11.230  12.659  63.782  1.00  0.00    -0.519 A  
HETATM   33  C   UNL     1     -11.541  14.013  63.993  1.00  0.00    -0.204 A  
BRANCH  31  34
HETATM   34  N   UNL     1      -9.870  10.697  64.177  1.00  0.00    -0.311 N  
HETATM   35  H   UNL     1      -9.438  10.522  63.271  1.00  0.00     0.000 HD 
HETATM   36  C   UNL     1     -10.081   9.613  64.988  1.00  0.00     0.253 C  
HETATM   37  O   UNL     1     -10.619   9.610  66.083  1.00  0.00    -0.101 OA 
BRANCH  36  38
HETATM   38  O   UNL     1      -9.587   8.476  64.415  1.00  0.00     1.072 OA 
BRANCH  38  39
HETATM   39  C   UNL     1      -8.165   8.381  64.531  1.00  0.00    -0.146 C  
HETATM   40  C   UNL     1      -7.592   7.367  63.544  1.00  0.00    -0.121 C  
HETATM   41  C   UNL     1      -6.129   7.756  63.473  1.00  0.00    -0.058 C  
HETATM   42  C   UNL     1      -6.149   9.281  63.494  1.00  0.00    -0.090 C  
HETATM   43  C   UNL     1      -7.469   9.687  64.157  1.00  0.00    -0.128 C  
ENDBRANCH  38  39
ENDBRANCH  36  38
ENDBRANCH  31  34
ENDBRANCH  23  24
ENDBRANCH   6  23
ENDBRANCH   2   3
TORSDOF 9
ENDMDL
MODEL      179
REMARK 921   NORMALIZED FREE ENERGY PREDICTED BY IDOCK:    1.49 KCAL/MOL
REMARK 922        TOTAL FREE ENERGY PREDICTED BY IDOCK:    0.51 KCAL/MOL
REMARK 923 INTER-LIGAND FREE ENERGY PREDICTED BY IDOCK:   -4.66 KCAL/MOL
REMARK 924 INTRA-LIGAND FREE ENERGY PREDICTED BY IDOCK:    5.17 KCAL/MOL
REMARK 927      BINDING AFFINITY PREDICTED BY RF-SCORE:    0.00 PKD
ROOT
HETATM    1  C   UNL     1     -12.207  12.251  68.101  1.00  0.00     0.239 C  
HETATM    2  O   UNL     1     -11.077  11.957  67.290  1.00  0.00    -0.254 OA 
ENDROOT
BRANCH   2   3
HETATM    3  C   UNL     1     -10.680  12.904  66.383  1.00  0.00    -0.270 A  
HETATM    4  C   UNL     1     -10.690  14.285  66.626  1.00  0.00    -0.290 A  
HETATM    5  C   UNL     1     -10.227  15.190  65.657  1.00  0.00    -0.387 A  
HETATM    6  C   UNL     1     -10.202  12.416  65.151  1.00  0.00    -0.305 A  
HETATM    7  C   UNL     1      -9.674  14.704  64.471  1.00  0.00     1.299 A  
HETATM    8  C   UNL     1      -9.652  13.331  64.234  1.00  0.00     0.856 A  
BRANCH   5   9
HETATM    9  C   UNL     1     -10.372  16.645  65.916  1.00  0.00    -0.340 C  
HETATM   10  N   UNL     1      -9.200  17.313  66.298  1.00  0.00    -0.242 N  
HETATM   11  H   UNL     1      -8.359  16.751  66.431  1.00  0.00     0.000 HD 
HETATM   12  O   UNL     1     -11.455  17.195  65.805  1.00  0.00     0.670 OA 
BRANCH  10  13
HETATM   13  S   UNL     1      -9.078  18.952  66.550  1.00  0.00    -0.320 S  
HETATM   14  O   UNL     1     -10.291  19.391  67.209  1.00  0.00    -0.381 OA 
HETATM   15  O   UNL     1      -8.698  19.516  65.269  1.00  0.00     0.108 OA 
BRANCH  13  16
HETATM   16  C   UNL     1      -7.696  19.156  67.657  1.00  0.00    -0.243 A  
HETATM   17  C   UNL     1      -7.939  18.999  69.030  1.00  0.00    -0.249 A  
HETATM   18  C   UNL     1      -6.080  19.695  65.739  1.00  0.00    -0.210 C  
HETATM   19  C   UNL     1      -6.904  19.161  69.950  1.00  0.00     0.014 A  
HETATM   20  C   UNL     1      -6.408  19.488  67.189  1.00  0.00    -0.200 A  
HETATM   21  C   UNL     1      -5.626  19.479  69.503  1.00  0.00    -0.245 A  
HETATM   22  C   UNL     1      -5.379  19.641  68.136  1.00  0.00    -0.200 A  
ENDBRANCH  13  16
ENDBRANCH  10  13
ENDBRANCH   5   9
BRANCH   6  23
HETATM   23  C   UNL     1     -10.217  10.943  64.804  1.00  0.00    -0.398 C  
BRANCH  23  24
HETATM   24  C   UNL     1      -9.207  10.200  65.644  1.00  0.00    -0.232 A  
HETATM   25  N   UNL     1      -7.582   8.757  66.182  1.00  0.00    -0.093 NA 
HETATM   26  C   UNL     1      -8.254   8.998  67.361  1.00  0.00    -0.108 A  
HETATM   27  C   UNL     1      -9.269   9.904  67.050  1.00  0.00    -0.164 A  
HETATM   28  C   UNL     1      -8.082   9.542  65.176  1.00  0.00    -0.126 A  
HETATM   29  C   UNL     1      -6.569   7.739  66.008  1.00  0.00    -0.049 C  
HETATM   30  C   UNL     1     -10.130  10.296  68.092  1.00  0.00    -0.175 A  
HETATM   31  C   UNL     1      -9.939   9.870  69.412  1.00  0.00    -0.212 A  
HETATM   32  C   UNL     1      -8.937   8.938  69.677  1.00  0.00    -0.147 A  
HETATM   33  C   UNL     1      -8.088   8.476  68.657  1.00  0.00    -0.121 A  
BRANCH  31  34
HETATM   34  N   UNL     1     -10.713  10.366  70.488  1.00  0.00    -0.423 N  
HETATM   35  H   UNL     1     -10.213  10.635  71.334  1.00  0.00     0.000 HD 
HETATM   36  C   UNL     1     -12.075  10.518  70.493  1.00  0.00    -0.345 C  
HETATM   37  O   UNL     1     -12.849  10.217  69.600  1.00  0.00     0.127 OA 
BRANCH  36  38
HETATM   38  O   UNL     1     -12.495  11.085  71.662  1.00  0.00    -0.310 OA 
BRANCH  38  39
HETATM   39  C   UNL     1     -13.178  12.324  71.453  1.00  0.00    -0.086 C  
HETATM   40  C   UNL     1     -13.961  12.745  72.694  1.00  0.00     0.094 C  
HETATM   41  C   UNL     1     -14.184  14.226  72.464  1.00  0.00    -0.330 C  
HETATM   42  C   UNL     1     -12.871  14.709  71.857  1.00  0.00    -0.399 C  
HETATM   43  C   UNL     1     -12.210  13.481  71.222  1.00  0.00    -0.209 C  
ENDBRANCH  38  39
ENDBRANCH  36  38
ENDBRANCH  31  34
ENDBRANCH  23  24
ENDBRANCH   6  23
ENDBRANCH   2   3
TORSDOF 9
ENDMDL
MODEL      180
REMARK 921   NORMALIZED FREE ENERGY PREDICTED BY IDOCK:    1.60 KCAL/MOL
REMARK 922        TOTAL FREE ENERGY PREDICTED BY IDOCK:    0.68 KCAL/MOL
REMARK 923 INTER-LIGAND FREE ENERGY PREDICTED BY IDOCK:   -1.02 KCAL/MOL
REMARK 924 INTRA-LIGAND FREE ENERGY PREDICTED BY IDOCK:    1.70 KCAL/MOL
REMARK 927      BINDING AFFINITY PREDICTED BY RF-SCORE:    0.00 PKD
ROOT
HETATM    1  C   UNL     1     -12.314  10.289  68.826  1.00  0.00     1.083 C  
HETATM    2  O   UNL     1     -12.053  11.473  69.568  1.00  0.00    -0.308 OA 
ENDROOT
BRANCH   2   3
HETATM    3  C   UNL     1     -11.220  12.405  69.007  1.00  0.00    -0.266 A  
HETATM    4  C   UNL     1     -11.597  13.721  68.703  1.00  0.00    -0.369 A  
HETATM    5  C   UNL     1     -10.670  14.629  68.166  1.00  0.00    -0.242 A  
HETATM    6  C   UNL     1      -9.895  11.987  68.771  1.00  0.00    -0.057 A  
HETATM    7  C   UNL     1      -9.339  14.243  68.012  1.00  0.00    -0.200 A  
HETATM    8  C   UNL     1      -8.960  12.939  68.327  1.00  0.00    -0.175 A  
BRANCH   5   9
HETATM    9  C   UNL     1     -11.151  15.972  67.749  1.00  0.00    -0.273 C  
HETATM   10  N   UNL     1     -10.207  16.778  67.096  1.00  0.00    -0.290 N  
HETATM   11  H   UNL     1      -9.257  16.417  67.013  1.00  0.00     0.000 HD 
HETATM   12  O   UNL     1     -12.294  16.326  67.981  1.00  0.00     0.693 OA 
BRANCH  10  13
HETATM   13  S   UNL     1     -10.522  18.276  66.448  1.00  0.00    -0.314 S  
HETATM   14  O   UNL     1     -11.216  19.057  67.453  1.00  0.00    -0.267 OA 
HETATM   15  O   UNL     1     -11.144  18.022  65.163  1.00  0.00    -0.543 OA 
BRANCH  13  16
HETATM   16  C   UNL     1      -8.923  19.000  66.137  1.00  0.00    -0.190 A  
HETATM   17  C   UNL     1      -7.941  18.175  65.566  1.00  0.00     0.627 A  
HETATM   18  C   UNL     1      -9.626  21.270  67.102  1.00  0.00     0.251 C  
HETATM   19  C   UNL     1      -6.666  18.676  65.311  1.00  0.00    -0.160 A  
HETATM   20  C   UNL     1      -8.633  20.339  66.468  1.00  0.00    -0.269 A  
HETATM   21  C   UNL     1      -6.367  19.998  65.624  1.00  0.00    -0.254 A  
HETATM   22  C   UNL     1      -7.340  20.822  66.196  1.00  0.00     0.007 A  
ENDBRANCH  13  16
ENDBRANCH  10  13
ENDBRANCH   5   9
BRANCH   6  23
HETATM   23  C   UNL     1      -9.439  10.566  69.024  1.00  0.00    -0.211 C  
BRANCH  23  24
HETATM   24  C   UNL     1      -8.335  10.549  70.052  1.00  0.00     0.366 A  
HETATM   25  N   UNL     1      -6.400  11.052  71.061  1.00  0.00    -0.192 NA 
HETATM   26  C   UNL     1      -6.735   9.800  71.528  1.00  0.00     0.413 A  
HETATM   27  C   UNL     1      -7.945   9.468  70.918  1.00  0.00    -0.000 A  
HETATM   28  C   UNL     1      -7.394  11.546  70.257  1.00  0.00     1.504 A  
HETATM   29  C   UNL     1      -5.130  11.704  71.295  1.00  0.00    -0.094 C  
HETATM   30  C   UNL     1      -8.496   8.206  71.210  1.00  0.00    -0.154 A  
HETATM   31  C   UNL     1      -7.910   7.339  72.140  1.00  0.00    -0.090 A  
HETATM   32  C   UNL     1      -6.683   7.689  72.702  1.00  0.00    -0.064 A  
HETATM   33  C   UNL     1      -6.068   8.916  72.396  1.00  0.00    -0.043 A  
BRANCH  31  34
HETATM   34  N   UNL     1      -8.527   6.132  72.543  1.00  0.00    -0.119 N  
HETATM   35  H   UNL     1      -8.350   5.306  71.973  1.00  0.00     0.000 HD 
HETATM   36  C   UNL     1      -9.343   5.974  73.633  1.00  0.00    -0.135 C  
HETATM   37  O   UNL     1      -9.707   6.842  74.408  1.00  0.00    -0.273 OA 
BRANCH  36  38
HETATM   38  O   UNL     1      -9.716   4.667  73.774  1.00  0.00    -0.132 OA 
BRANCH  38  39
HETATM   39  C   UNL     1      -8.596   3.799  73.962  1.00  0.00    -0.089 C  
HETATM   40  C   UNL     1      -8.092   3.243  72.632  1.00  0.00    -0.072 C  
HETATM   41  C   UNL     1      -6.688   2.784  72.971  1.00  0.00    -0.026 C  
HETATM   42  C   UNL     1      -6.159   3.865  73.907  1.00  0.00    -0.023 C  
HETATM   43  C   UNL     1      -7.387   4.534  74.532  1.00  0.00    -0.073 C  
ENDBRANCH  38  39
ENDBRANCH  36  38
ENDBRANCH  31  34
ENDBRANCH  23  24
ENDBRANCH   6  23
ENDBRANCH   2   3
TORSDOF 9
ENDMDL
MODEL      181
REMARK 921   NORMALIZED FREE ENERGY PREDICTED BY IDOCK:    1.67 KCAL/MOL
REMARK 922        TOTAL FREE ENERGY PREDICTED BY IDOCK:    0.79 KCAL/MOL
REMARK 923 INTER-LIGAND FREE ENERGY PREDICTED BY IDOCK:   -2.62 KCAL/MOL
REMARK 924 INTRA-LIGAND FREE ENERGY PREDICTED BY IDOCK:    3.42 KCAL/MOL
REMARK 927      BINDING AFFINITY PREDICTED BY RF-SCORE:    0.00 PKD
ROOT
HETATM    1  C   UNL     1      -8.561  13.822  68.055  1.00  0.00    -0.177 C  
HETATM    2  O   UNL     1      -8.675  12.408  67.966  1.00  0.00    -0.170 OA 
ENDROOT
BRANCH   2   3
HETATM    3  C   UNL     1      -7.603  11.712  67.472  1.00  0.00    -0.128 A  
HETATM    4  C   UNL     1      -7.587  10.324  67.271  1.00  0.00    -0.095 A  
HETATM    5  C   UNL     1      -6.460   9.691  66.721  1.00  0.00    -0.067 A  
HETATM    6  C   UNL     1      -6.476  12.482  67.121  1.00  0.00    -0.053 A  
HETATM    7  C   UNL     1      -5.378  10.460  66.293  1.00  0.00    -0.060 A  
HETATM    8  C   UNL     1      -5.399  11.842  66.481  1.00  0.00     0.007 A  
BRANCH   5   9
HETATM    9  C   UNL     1      -6.447   8.207  66.641  1.00  0.00    -0.055 C  
HETATM   10  N   UNL     1      -7.370   7.640  65.751  1.00  0.00    -0.069 N  
HETATM   11  H   UNL     1      -8.017   8.270  65.278  1.00  0.00     0.000 HD 
HETATM   12  O   UNL     1      -5.679   7.551  67.325  1.00  0.00    -0.029 OA 
BRANCH  10  13
HETATM   13  S   UNL     1      -7.488   6.017  65.409  1.00  0.00    -0.086 S  
HETATM   14  O   UNL     1      -6.149   5.463  65.424  1.00  0.00    -0.025 OA 
HETATM   15  O   UNL     1      -8.301   5.929  64.212  1.00  0.00    -0.116 OA 
BRANCH  13  16
HETATM   16  C   UNL     1      -8.431   5.320  66.752  1.00  0.00    -0.107 A  
HETATM   17  C   UNL     1      -8.962   6.210  67.699  1.00  0.00    -0.111 A  
HETATM   18  C   UNL     1      -8.066   2.920  65.925  1.00  0.00    -0.087 C  
HETATM   19  C   UNL     1      -9.696   5.728  68.780  1.00  0.00    -0.168 A  
HETATM   20  C   UNL     1      -8.624   3.930  66.885  1.00  0.00    -0.107 A  
HETATM   21  C   UNL     1      -9.903   4.359  68.921  1.00  0.00    -0.163 A  
HETATM   22  C   UNL     1      -9.373   3.469  67.982  1.00  0.00    -0.237 A  
ENDBRANCH  13  16
ENDBRANCH  10  13
ENDBRANCH   5   9
BRANCH   6  23
HETATM   23  C   UNL     1      -6.409  13.974  67.365  1.00  0.00     0.134 C  
BRANCH  23  24
HETATM   24  C   UNL     1      -6.272  14.254  68.842  1.00  0.00    -0.089 A  
HETATM   25  N   UNL     1      -5.884  15.383  70.736  1.00  0.00    -0.030 NA 
HETATM   26  C   UNL     1      -5.670  14.060  71.055  1.00  0.00    -0.217 A  
HETATM   27  C   UNL     1      -5.915  13.334  69.889  1.00  0.00    -0.136 A  
HETATM   28  C   UNL     1      -6.336  15.498  69.447  1.00  0.00    -0.138 A  
HETATM   29  C   UNL     1      -5.569  16.498  71.601  1.00  0.00     0.670 C  
HETATM   30  C   UNL     1      -5.735  11.939  69.942  1.00  0.00    -0.124 A  
HETATM   31  C   UNL     1      -5.406  11.279  71.132  1.00  0.00    -0.064 A  
HETATM   32  C   UNL     1      -5.135  12.041  72.268  1.00  0.00     0.240 A  
HETATM   33  C   UNL     1      -5.247  13.441  72.246  1.00  0.00    -0.072 A  
BRANCH  31  34
HETATM   34  N   UNL     1      -5.359   9.868  71.228  1.00  0.00    -0.071 N  
HETATM   35  H   UNL     1      -4.946   9.363  70.444  1.00  0.00     0.000 HD 
HETATM   36  C   UNL     1      -5.819   9.120  72.279  1.00  0.00    -0.033 C  
HETATM   37  O   UNL     1      -6.379   9.532  73.282  1.00  0.00    -0.169 OA 
BRANCH  36  38
HETATM   38  O   UNL     1      -5.560   7.794  72.081  1.00  0.00    -0.036 OA 
BRANCH  38  39
HETATM   39  C   UNL     1      -6.694   6.969  72.365  1.00  0.00    -0.057 C  
HETATM   40  C   UNL     1      -6.980   6.002  71.219  1.00  0.00    -0.068 C  
HETATM   41  C   UNL     1      -7.840   4.944  71.879  1.00  0.00    -0.108 C  
HETATM   42  C   UNL     1      -7.211   4.759  73.256  1.00  0.00    -0.081 C  
HETATM   43  C   UNL     1      -6.454   6.055  73.563  1.00  0.00    -0.073 C  
ENDBRANCH  38  39
ENDBRANCH  36  38
ENDBRANCH  31  34
ENDBRANCH  23  24
ENDBRANCH   6  23
ENDBRANCH   2   3
TORSDOF 9
ENDMDL
MODEL      182
REMARK 921   NORMALIZED FREE ENERGY PREDICTED BY IDOCK:    4.05 KCAL/MOL
REMARK 922        TOTAL FREE ENERGY PREDICTED BY IDOCK:    4.41 KCAL/MOL
REMARK 923 INTER-LIGAND FREE ENERGY PREDICTED BY IDOCK:   -2.57 KCAL/MOL
REMARK 924 INTRA-LIGAND FREE ENERGY PREDICTED BY IDOCK:    6.99 KCAL/MOL
REMARK 927      BINDING AFFINITY PREDICTED BY RF-SCORE:    0.00 PKD
ROOT
HETATM    1  C   UNL     1     -12.310  12.190  68.594  1.00  0.00     0.379 C  
HETATM    2  O   UNL     1     -12.371  12.336  70.006  1.00  0.00    -0.200 OA 
ENDROOT
BRANCH   2   3
HETATM    3  C   UNL     1     -11.947  13.523  70.544  1.00  0.00    -0.269 A  
HETATM    4  C   UNL     1     -11.331  14.547  69.810  1.00  0.00    -0.305 A  
HETATM    5  C   UNL     1     -10.963  15.753  70.429  1.00  0.00    -0.369 A  
HETATM    6  C   UNL     1     -12.199  13.703  71.918  1.00  0.00     0.164 A  
HETATM    7  C   UNL     1     -11.288  15.967  71.768  1.00  0.00    -0.279 A  
HETATM    8  C   UNL     1     -11.913  14.954  72.494  1.00  0.00    -0.364 A  
BRANCH   5   9
HETATM    9  C   UNL     1     -10.205  16.756  69.636  1.00  0.00    -0.093 C  
HETATM   10  N   UNL     1     -10.961  17.504  68.723  1.00  0.00    -0.223 N  
HETATM   11  H   UNL     1     -11.948  17.267  68.622  1.00  0.00     0.000 HD 
HETATM   12  O   UNL     1      -9.002  16.890  69.785  1.00  0.00     0.463 OA 
BRANCH  10  13
HETATM   13  S   UNL     1     -10.369  18.748  67.792  1.00  0.00    -0.415 S  
HETATM   14  O   UNL     1     -10.135  19.881  68.664  1.00  0.00    -0.439 OA 
HETATM   15  O   UNL     1     -11.282  18.866  66.672  1.00  0.00     0.055 OA 
BRANCH  13  16
HETATM   16  C   UNL     1      -8.812  18.160  67.155  1.00  0.00    -0.259 A  
HETATM   17  C   UNL     1      -7.741  19.067  67.128  1.00  0.00    -0.249 A  
HETATM   18  C   UNL     1      -9.758  15.831  66.645  1.00  0.00    -0.266 C  
HETATM   19  C   UNL     1      -6.500  18.675  66.628  1.00  0.00    -0.209 A  
HETATM   20  C   UNL     1      -8.652  16.846  66.670  1.00  0.00    -0.281 A  
HETATM   21  C   UNL     1      -6.325  17.379  66.154  1.00  0.00    -0.212 A  
HETATM   22  C   UNL     1      -7.389  16.473  66.175  1.00  0.00     0.171 A  
ENDBRANCH  13  16
ENDBRANCH  10  13
ENDBRANCH   5   9
BRANCH   6  23
HETATM   23  C   UNL     1     -12.809  12.616  72.777  1.00  0.00     1.069 C  
BRANCH  23  24
HETATM   24  C   UNL     1     -12.899  11.327  71.999  1.00  0.00    -0.274 A  
HETATM   25  N   UNL     1     -13.603   9.292  71.385  1.00  0.00    -0.345 NA 
HETATM   26  C   UNL     1     -12.309   9.382  70.918  1.00  0.00    -0.193 A  
HETATM   27  C   UNL     1     -11.852  10.648  71.283  1.00  0.00    -0.257 A  
HETATM   28  C   UNL     1     -13.994  10.481  71.944  1.00  0.00     0.366 A  
HETATM   29  C   UNL     1     -14.394   8.081  71.384  1.00  0.00    -0.375 C  
HETATM   30  C   UNL     1     -10.527  10.983  70.943  1.00  0.00     2.235 A  
HETATM   31  C   UNL     1      -9.714  10.124  70.195  1.00  0.00    -0.016 A  
HETATM   32  C   UNL     1     -10.194   8.853  69.879  1.00  0.00    -0.209 A  
HETATM   33  C   UNL     1     -11.490   8.455  70.247  1.00  0.00    -0.063 A  
BRANCH  31  34
HETATM   34  N   UNL     1      -8.433  10.506  69.731  1.00  0.00    -0.382 N  
HETATM   35  H   UNL     1      -8.397  11.099  68.902  1.00  0.00     0.000 HD 
HETATM   36  C   UNL     1      -7.237  10.150  70.296  1.00  0.00    -0.121 C  
HETATM   37  O   UNL     1      -7.069   9.419  71.258  1.00  0.00    -0.279 OA 
BRANCH  36  38
HETATM   38  O   UNL     1      -6.196  10.743  69.640  1.00  0.00    -0.057 OA 
BRANCH  38  39
HETATM   39  C   UNL     1      -6.272  10.564  68.223  1.00  0.00    -0.054 C  
HETATM   40  C   UNL     1      -6.829   9.188  67.864  1.00  0.00    -0.069 C  
HETATM   41  C   UNL     1      -7.278   9.372  66.429  1.00  0.00    -0.089 C  
HETATM   42  C   UNL     1      -7.884  10.771  66.405  1.00  0.00    -0.148 C  
HETATM   43  C   UNL     1      -7.253  11.536  67.573  1.00  0.00    -0.111 C  
ENDBRANCH  38  39
ENDBRANCH  36  38
ENDBRANCH  31  34
ENDBRANCH  23  24
ENDBRANCH   6  23
ENDBRANCH   2   3
TORSDOF 9
ENDMDL
MODEL      183
REMARK 921   NORMALIZED FREE ENERGY PREDICTED BY IDOCK:    5.51 KCAL/MOL
REMARK 922        TOTAL FREE ENERGY PREDICTED BY IDOCK:    6.66 KCAL/MOL
REMARK 923 INTER-LIGAND FREE ENERGY PREDICTED BY IDOCK:   -3.36 KCAL/MOL
REMARK 924 INTRA-LIGAND FREE ENERGY PREDICTED BY IDOCK:   10.02 KCAL/MOL
REMARK 927      BINDING AFFINITY PREDICTED BY RF-SCORE:    0.00 PKD
ROOT
HETATM    1  C   UNL     1     -10.570   8.978  68.517  1.00  0.00    -0.155 C  
HETATM    2  O   UNL     1     -10.075   9.580  69.706  1.00  0.00    -0.189 OA 
ENDROOT
BRANCH   2   3
HETATM    3  C   UNL     1      -9.027  10.456  69.589  1.00  0.00    -0.037 A  
HETATM    4  C   UNL     1      -9.028  11.582  68.754  1.00  0.00    -0.053 A  
HETATM    5  C   UNL     1      -7.928  12.454  68.721  1.00  0.00     0.048 A  
HETATM    6  C   UNL     1      -7.910  10.193  70.405  1.00  0.00     0.199 A  
HETATM    7  C   UNL     1      -6.858  12.244  69.591  1.00  0.00     0.135 A  
HETATM    8  C   UNL     1      -6.862  11.132  70.431  1.00  0.00     0.497 A  
BRANCH   5   9
HETATM    9  C   UNL     1      -7.928  13.563  67.732  1.00  0.00    -0.168 C  
HETATM   10  N   UNL     1      -7.420  14.786  68.192  1.00  0.00    -0.108 N  
HETATM   11  H   UNL     1      -7.150  14.845  69.173  1.00  0.00     0.000 HD 
HETATM   12  O   UNL     1      -8.358  13.393  66.604  1.00  0.00     0.026 OA 
BRANCH  10  13
HETATM   13  S   UNL     1      -7.223  16.146  67.256  1.00  0.00    -0.217 S  
HETATM   14  O   UNL     1      -6.420  15.781  66.106  1.00  0.00     1.083 OA 
HETATM   15  O   UNL     1      -6.769  17.182  68.163  1.00  0.00    -0.156 OA 
BRANCH  13  16
HETATM   16  C   UNL     1      -8.864  16.587  66.715  1.00  0.00    -0.226 A  
HETATM   17  C   UNL     1      -9.153  16.448  65.349  1.00  0.00     0.732 A  
HETATM   18  C   UNL     1      -9.589  17.279  69.076  1.00  0.00    -0.171 C  
HETATM   19  C   UNL     1     -10.412  16.790  64.860  1.00  0.00     0.247 A  
HETATM   20  C   UNL     1      -9.836  17.081  67.609  1.00  0.00    -0.257 A  
HETATM   21  C   UNL     1     -11.385  17.271  65.730  1.00  0.00     0.922 A  
HETATM   22  C   UNL     1     -11.100  17.415  67.091  1.00  0.00     0.195 A  
ENDBRANCH  13  16
ENDBRANCH  10  13
ENDBRANCH   5   9
BRANCH   6  23
HETATM   23  C   UNL     1      -7.823   8.965  71.286  1.00  0.00    -0.163 C  
BRANCH  23  24
HETATM   24  C   UNL     1      -9.078   8.139  71.152  1.00  0.00    -0.183 A  
HETATM   25  N   UNL     1     -10.461   6.520  70.458  1.00  0.00    -0.201 NA 
HETATM   26  C   UNL     1     -11.284   7.550  70.858  1.00  0.00    -0.269 A  
HETATM   27  C   UNL     1     -10.443   8.570  71.304  1.00  0.00    -0.289 A  
HETATM   28  C   UNL     1      -9.150   6.825  70.720  1.00  0.00    -0.151 A  
HETATM   29  C   UNL     1     -10.908   5.335  69.760  1.00  0.00     0.048 C  
HETATM   30  C   UNL     1     -11.045   9.763  71.745  1.00  0.00     0.138 A  
HETATM   31  C   UNL     1     -12.436   9.907  71.822  1.00  0.00    -0.397 A  
HETATM   32  C   UNL     1     -13.243   8.880  71.335  1.00  0.00    -0.309 A  
HETATM   33  C   UNL     1     -12.684   7.692  70.833  1.00  0.00    -0.056 A  
BRANCH  31  34
HETATM   34  N   UNL     1     -13.049  11.047  72.393  1.00  0.00    -0.332 N  
HETATM   35  H   UNL     1     -13.363  10.969  73.360  1.00  0.00     0.000 HD 
HETATM   36  C   UNL     1     -13.259  12.245  71.763  1.00  0.00    -0.326 C  
HETATM   37  O   UNL     1     -12.996  12.519  70.604  1.00  0.00     0.005 OA 
BRANCH  36  38
HETATM   38  O   UNL     1     -13.813  13.153  72.619  1.00  0.00    -0.691 OA 
BRANCH  38  39
HETATM   39  C   UNL     1     -13.393  14.491  72.341  1.00  0.00    -0.433 C  
HETATM   40  C   UNL     1     -12.603  15.081  73.507  1.00  0.00    -0.664 C  
HETATM   41  C   UNL     1     -11.863  16.235  72.863  1.00  0.00    -0.535 C  
HETATM   42  C   UNL     1     -11.445  15.693  71.499  1.00  0.00    -0.494 C  
HETATM   43  C   UNL     1     -12.417  14.556  71.170  1.00  0.00    -0.411 C  
ENDBRANCH  38  39
ENDBRANCH  36  38
ENDBRANCH  31  34
ENDBRANCH  23  24
ENDBRANCH   6  23
ENDBRANCH   2   3
TORSDOF 9
ENDMDL
MODEL      184
REMARK 921   NORMALIZED FREE ENERGY PREDICTED BY IDOCK:    9.28 KCAL/MOL
REMARK 922        TOTAL FREE ENERGY PREDICTED BY IDOCK:   12.40 KCAL/MOL
REMARK 923 INTER-LIGAND FREE ENERGY PREDICTED BY IDOCK:    4.23 KCAL/MOL
REMARK 924 INTRA-LIGAND FREE ENERGY PREDICTED BY IDOCK:    8.17 KCAL/MOL
REMARK 927      BINDING AFFINITY PREDICTED BY RF-SCORE:    0.00 PKD
ROOT
HETATM    1  C   UNL     1     -11.822  13.444  71.871  1.00  0.00     1.471 C  
HETATM    2  O   UNL     1     -11.939  12.248  71.111  1.00  0.00     0.021 OA 
ENDROOT
BRANCH   2   3
HETATM    3  C   UNL     1     -11.321  12.206  69.889  1.00  0.00    -0.031 A  
HETATM    4  C   UNL     1     -10.334  11.275  69.534  1.00  0.00     0.048 A  
HETATM    5  C   UNL     1      -9.778  11.273  68.244  1.00  0.00    -0.199 A  
HETATM    6  C   UNL     1     -11.761  13.152  68.942  1.00  0.00    -0.368 A  
HETATM    7  C   UNL     1     -10.272  12.152  67.281  1.00  0.00    -0.216 A  
HETATM    8  C   UNL     1     -11.263  13.069  67.629  1.00  0.00    -0.315 A  
BRANCH   5   9
HETATM    9  C   UNL     1      -8.652  10.348  67.958  1.00  0.00    -0.123 C  
HETATM   10  N   UNL     1      -9.013   9.089  67.458  1.00  0.00    -0.123 N  
HETATM   11  H   UNL     1     -10.009   8.877  67.389  1.00  0.00     0.000 HD 
HETATM   12  O   UNL     1      -7.498  10.685  68.162  1.00  0.00    -0.087 OA 
BRANCH  10  13
HETATM   13  S   UNL     1      -7.942   7.916  66.970  1.00  0.00    -0.113 S  
HETATM   14  O   UNL     1      -6.696   8.130  67.679  1.00  0.00    -0.060 OA 
HETATM   15  O   UNL     1      -7.970   7.940  65.520  1.00  0.00    -0.104 OA 
BRANCH  13  16
HETATM   16  C   UNL     1      -8.662   6.372  67.494  1.00  0.00    -0.113 A  
HETATM   17  C   UNL     1      -9.994   6.122  67.126  1.00  0.00    -0.188 A  
HETATM   18  C   UNL     1      -6.528   5.649  68.719  1.00  0.00    -0.042 C  
HETATM   19  C   UNL     1     -10.621   4.941  67.517  1.00  0.00     0.060 A  
HETATM   20  C   UNL     1      -7.945   5.438  68.269  1.00  0.00    -0.088 A  
HETATM   21  C   UNL     1      -9.923   4.006  68.275  1.00  0.00     0.056 A  
HETATM   22  C   UNL     1      -8.598   4.251  68.647  1.00  0.00    -0.111 A  
ENDBRANCH  13  16
ENDBRANCH  10  13
ENDBRANCH   5   9
BRANCH   6  23
HETATM   23  C   UNL     1     -12.781  14.219  69.279  1.00  0.00     0.359 C  
BRANCH  23  24
HETATM   24  C   UNL     1     -12.164  15.263  70.176  1.00  0.00    -0.402 A  
HETATM   25  N   UNL     1     -11.958  16.726  71.859  1.00  0.00     0.076 NA 
HETATM   26  C   UNL     1     -11.079  17.163  70.892  1.00  0.00     1.016 A  
HETATM   27  C   UNL     1     -11.184  16.260  69.834  1.00  0.00    -0.319 A  
HETATM   28  C   UNL     1     -12.537  15.543  71.481  1.00  0.00    -0.418 A  
HETATM   29  C   UNL     1     -12.303  17.469  73.051  1.00  0.00     2.336 C  
HETATM   30  C   UNL     1     -10.398  16.502  68.692  1.00  0.00    -0.287 A  
HETATM   31  C   UNL     1      -9.478  17.555  68.636  1.00  0.00    -0.278 A  
HETATM   32  C   UNL     1      -9.426  18.457  69.697  1.00  0.00     0.599 A  
HETATM   33  C   UNL     1     -10.233  18.286  70.835  1.00  0.00     2.768 A  
BRANCH  31  34
HETATM   34  N   UNL     1      -8.586  17.725  67.550  1.00  0.00    -0.226 N  
HETATM   35  H   UNL     1      -8.070  18.603  67.506  1.00  0.00     0.000 HD 
HETATM   36  C   UNL     1      -8.354  16.813  66.554  1.00  0.00    -0.285 C  
HETATM   37  O   UNL     1      -8.899  15.732  66.408  1.00  0.00    -0.282 OA 
BRANCH  36  38
HETATM   38  O   UNL     1      -7.387  17.263  65.701  1.00  0.00    -0.299 OA 
BRANCH  38  39
HETATM   39  C   UNL     1      -7.014  18.618  65.966  1.00  0.00    -0.269 C  
HETATM   40  C   UNL     1      -7.091  19.474  64.705  1.00  0.00     0.789 C  
HETATM   41  C   UNL     1      -7.148  20.884  65.258  1.00  0.00     0.167 C  
HETATM   42  C   UNL     1      -8.048  20.766  66.483  1.00  0.00     0.090 C  
HETATM   43  C   UNL     1      -7.980  19.302  66.931  1.00  0.00    -0.278 C  
ENDBRANCH  38  39
ENDBRANCH  36  38
ENDBRANCH  31  34
ENDBRANCH  23  24
ENDBRANCH   6  23
ENDBRANCH   2   3
TORSDOF 9
ENDMDL
MODEL      185
REMARK 921   NORMALIZED FREE ENERGY PREDICTED BY IDOCK:   11.46 KCAL/MOL
REMARK 922        TOTAL FREE ENERGY PREDICTED BY IDOCK:   15.72 KCAL/MOL
REMARK 923 INTER-LIGAND FREE ENERGY PREDICTED BY IDOCK:   14.21 KCAL/MOL
REMARK 924 INTRA-LIGAND FREE ENERGY PREDICTED BY IDOCK:    1.51 KCAL/MOL
REMARK 927      BINDING AFFINITY PREDICTED BY RF-SCORE:    0.00 PKD
ROOT
HETATM    1  C   UNL     1      -6.437  15.164  72.224  1.00  0.00     1.760 C  
HETATM    2  O   UNL     1      -7.499  15.451  71.324  1.00  0.00     1.891 OA 
ENDROOT
BRANCH   2   3
HETATM    3  C   UNL     1      -7.900  14.455  70.473  1.00  0.00     1.643 A  
HETATM    4  C   UNL     1      -7.034  13.520  69.888  1.00  0.00     0.356 A  
HETATM    5  C   UNL     1      -7.530  12.502  69.056  1.00  0.00     0.088 A  
HETATM    6  C   UNL     1      -9.284  14.376  70.224  1.00  0.00     1.662 A  
HETATM    7  C   UNL     1      -8.908  12.370  68.878  1.00  0.00     0.292 A  
HETATM    8  C   UNL     1      -9.770  13.292  69.470  1.00  0.00     1.127 A  
BRANCH   5   9
HETATM    9  C   UNL     1      -6.561  11.613  68.366  1.00  0.00    -0.061 C  
HETATM   10  N   UNL     1      -7.098  10.437  67.823  1.00  0.00    -0.083 N  
HETATM   11  H   UNL     1      -8.085  10.247  67.992  1.00  0.00     0.000 HD 
HETATM   12  O   UNL     1      -5.380  11.908  68.300  1.00  0.00    -0.043 OA 
BRANCH  10  13
HETATM   13  S   UNL     1      -6.245   9.330  66.922  1.00  0.00    -0.066 S  
HETATM   14  O   UNL     1      -5.269   8.707  67.793  1.00  0.00    -0.033 OA 
HETATM   15  O   UNL     1      -5.813  10.043  65.735  1.00  0.00    -0.059 OA 
BRANCH  13  16
HETATM   16  C   UNL     1      -7.444   8.114  66.412  1.00  0.00    -0.087 A  
HETATM   17  C   UNL     1      -8.511   7.853  67.285  1.00  0.00    -0.121 A  
HETATM   18  C   UNL     1      -6.200   7.625  64.223  1.00  0.00    -0.049 C  
HETATM   19  C   UNL     1      -9.475   6.903  66.952  1.00  0.00    -0.194 A  
HETATM   20  C   UNL     1      -7.326   7.415  65.193  1.00  0.00    -0.077 A  
HETATM   21  C   UNL     1      -9.377   6.211  65.749  1.00  0.00     0.041 A  
HETATM   22  C   UNL     1      -8.314   6.465  64.878  1.00  0.00    -0.062 A  
ENDBRANCH  13  16
ENDBRANCH  10  13
ENDBRANCH   5   9
BRANCH   6  23
HETATM   23  C   UNL     1     -10.264  15.388  70.778  1.00  0.00     0.348 C  
BRANCH  23  24
HETATM   24  C   UNL     1     -10.976  16.094  69.651  1.00  0.00    -0.346 A  
HETATM   25  N   UNL     1     -12.469  16.478  68.026  1.00  0.00     1.568 NA 
HETATM   26  C   UNL     1     -11.370  17.240  67.694  1.00  0.00     0.357 A  
HETATM   27  C   UNL     1     -10.428  17.023  68.699  1.00  0.00    -0.363 A  
HETATM   28  C   UNL     1     -12.280  15.868  69.239  1.00  0.00    -0.032 A  
HETATM   29  C   UNL     1     -13.611  16.263  67.165  1.00  0.00     7.209 C  
HETATM   30  C   UNL     1      -9.186  17.675  68.578  1.00  0.00    -0.281 A  
HETATM   31  C   UNL     1      -8.920  18.576  67.540  1.00  0.00    -0.276 A  
HETATM   32  C   UNL     1      -9.873  18.740  66.535  1.00  0.00    -0.398 A  
HETATM   33  C   UNL     1     -11.105  18.067  66.586  1.00  0.00     0.422 A  
BRANCH  31  34
HETATM   34  N   UNL     1      -7.731  19.340  67.486  1.00  0.00    -0.246 N  
HETATM   35  H   UNL     1      -7.444  19.689  66.572  1.00  0.00     0.000 HD 
HETATM   36  C   UNL     1      -6.928  19.650  68.552  1.00  0.00    -0.310 C  
HETATM   37  O   UNL     1      -7.076  19.293  69.709  1.00  0.00    -0.144 OA 
BRANCH  36  38
HETATM   38  O   UNL     1      -5.897  20.457  68.164  1.00  0.00    -0.222 OA 
BRANCH  38  39
HETATM   39  C   UNL     1      -5.591  20.319  66.774  1.00  0.00    -0.172 C  
HETATM   40  C   UNL     1      -5.727  18.869  66.315  1.00  0.00    -0.178 C  
HETATM   41  C   UNL     1      -5.849  19.003  64.811  1.00  0.00    -0.317 C  
HETATM   42  C   UNL     1      -6.727  20.235  64.617  1.00  0.00    -0.194 C  
HETATM   43  C   UNL     1      -6.578  21.075  65.890  1.00  0.00    -0.137 C  
ENDBRANCH  38  39
ENDBRANCH  36  38
ENDBRANCH  31  34
ENDBRANCH  23  24
ENDBRANCH   6  23
ENDBRANCH   2   3
TORSDOF 9
ENDMDL
MODEL      186
REMARK 921   NORMALIZED FREE ENERGY PREDICTED BY IDOCK:   11.57 KCAL/MOL
REMARK 922        TOTAL FREE ENERGY PREDICTED BY IDOCK:   15.89 KCAL/MOL
REMARK 923 INTER-LIGAND FREE ENERGY PREDICTED BY IDOCK:    9.32 KCAL/MOL
REMARK 924 INTRA-LIGAND FREE ENERGY PREDICTED BY IDOCK:    6.58 KCAL/MOL
REMARK 927      BINDING AFFINITY PREDICTED BY RF-SCORE:    0.00 PKD
ROOT
HETATM    1  C   UNL     1      -9.463  10.089  70.646  1.00  0.00     0.386 C  
HETATM    2  O   UNL     1      -8.910  10.521  69.410  1.00  0.00    -0.152 OA 
ENDROOT
BRANCH   2   3
HETATM    3  C   UNL     1      -9.374   9.932  68.263  1.00  0.00    -0.132 A  
HETATM    4  C   UNL     1      -9.201   8.577  67.944  1.00  0.00    -0.148 A  
HETATM    5  C   UNL     1      -9.745   8.041  66.766  1.00  0.00    -0.305 A  
HETATM    6  C   UNL     1     -10.101  10.767  67.391  1.00  0.00    -0.227 A  
HETATM    7  C   UNL     1     -10.536   8.845  65.945  1.00  0.00     0.748 A  
HETATM    8  C   UNL     1     -10.720  10.188  66.268  1.00  0.00    -0.047 A  
BRANCH   5   9
HETATM    9  C   UNL     1      -9.430   6.632  66.415  1.00  0.00    -0.123 C  
HETATM   10  N   UNL     1      -8.101   6.382  66.044  1.00  0.00    -0.114 N  
HETATM   11  H   UNL     1      -7.471   7.181  65.980  1.00  0.00     0.000 HD 
HETATM   12  O   UNL     1     -10.294   5.772  66.448  1.00  0.00    -0.196 OA 
BRANCH  10  13
HETATM   13  S   UNL     1      -7.476   4.880  65.702  1.00  0.00    -0.078 S  
HETATM   14  O   UNL     1      -7.279   4.185  66.958  1.00  0.00    -0.066 OA 
HETATM   15  O   UNL     1      -6.353   5.117  64.816  1.00  0.00    -0.032 OA 
BRANCH  13  16
HETATM   16  C   UNL     1      -8.739   4.048  64.758  1.00  0.00    -0.119 A  
HETATM   17  C   UNL     1     -10.059   4.502  64.903  1.00  0.00    -0.062 A  
HETATM   18  C   UNL     1      -7.060   2.405  63.727  1.00  0.00    -0.041 C  
HETATM   19  C   UNL     1     -11.095   3.885  64.204  1.00  0.00     0.097 A  
HETATM   20  C   UNL     1      -8.443   2.959  63.912  1.00  0.00    -0.086 A  
HETATM   21  C   UNL     1     -10.817   2.814  63.360  1.00  0.00    -0.218 A  
HETATM   22  C   UNL     1      -9.505   2.357  63.214  1.00  0.00    -0.093 A  
ENDBRANCH  13  16
ENDBRANCH  10  13
ENDBRANCH   5   9
BRANCH   6  23
HETATM   23  C   UNL     1     -10.275  12.248  67.649  1.00  0.00    -0.208 C  
BRANCH  23  24
HETATM   24  C   UNL     1      -8.966  12.858  68.086  1.00  0.00    -0.202 A  
HETATM   25  N   UNL     1      -6.954  13.037  69.055  1.00  0.00    -0.086 NA 
HETATM   26  C   UNL     1      -7.423  14.329  68.956  1.00  0.00    -0.102 A  
HETATM   27  C   UNL     1      -8.675  14.243  68.346  1.00  0.00    -0.181 A  
HETATM   28  C   UNL     1      -7.824  12.164  68.453  1.00  0.00    -0.149 A  
HETATM   29  C   UNL     1      -5.770  12.646  69.788  1.00  0.00    -0.112 C  
HETATM   30  C   UNL     1      -9.387  15.441  68.153  1.00  0.00    -0.197 A  
HETATM   31  C   UNL     1      -8.841  16.688  68.477  1.00  0.00    -0.235 A  
HETATM   32  C   UNL     1      -7.603  16.732  69.117  1.00  0.00    -0.181 A  
HETATM   33  C   UNL     1      -6.880  15.556  69.380  1.00  0.00    -0.176 A  
BRANCH  31  34
HETATM   34  N   UNL     1      -9.490  17.905  68.160  1.00  0.00    -0.278 N  
HETATM   35  H   UNL     1     -10.358  18.111  68.654  1.00  0.00     0.000 HD 
HETATM   36  C   UNL     1      -9.056  18.832  67.249  1.00  0.00    -0.277 C  
HETATM   37  O   UNL     1      -8.072  18.750  66.532  1.00  0.00    -0.270 OA 
BRANCH  36  38
HETATM   38  O   UNL     1      -9.880  19.921  67.235  1.00  0.00    -0.352 OA 
BRANCH  38  39
HETATM   39  C   UNL     1     -10.846  19.860  66.182  1.00  0.00    -0.212 C  
HETATM   40  C   UNL     1     -10.332  20.538  64.914  1.00  0.00     1.147 C  
HETATM   41  C   UNL     1     -11.229  19.962  63.838  1.00  0.00     6.609 C  
HETATM   42  C   UNL     1     -11.392  18.498  64.234  1.00  0.00     5.325 C  
HETATM   43  C   UNL     1     -11.126  18.426  65.741  1.00  0.00     0.462 C  
ENDBRANCH  38  39
ENDBRANCH  36  38
ENDBRANCH  31  34
ENDBRANCH  23  24
ENDBRANCH   6  23
ENDBRANCH   2   3
TORSDOF 9
ENDMDL
MODEL      187
REMARK 921   NORMALIZED FREE ENERGY PREDICTED BY IDOCK:   12.50 KCAL/MOL
REMARK 922        TOTAL FREE ENERGY PREDICTED BY IDOCK:   17.31 KCAL/MOL
REMARK 923 INTER-LIGAND FREE ENERGY PREDICTED BY IDOCK:   15.44 KCAL/MOL
REMARK 924 INTRA-LIGAND FREE ENERGY PREDICTED BY IDOCK:    1.87 KCAL/MOL
REMARK 927      BINDING AFFINITY PREDICTED BY RF-SCORE:    0.00 PKD
ROOT
HETATM    1  C   UNL     1      -5.126  12.015  68.406  1.00  0.00    -0.047 C  
HETATM    2  O   UNL     1      -5.552  13.263  68.936  1.00  0.00    -0.071 OA 
ENDROOT
BRANCH   2   3
HETATM    3  C   UNL     1      -6.800  13.322  69.501  1.00  0.00     0.081 A  
HETATM    4  C   UNL     1      -7.718  12.263  69.503  1.00  0.00     0.759 A  
HETATM    5  C   UNL     1      -8.963  12.391  70.141  1.00  0.00     4.180 A  
HETATM    6  C   UNL     1      -7.128  14.532  70.145  1.00  0.00     0.131 A  
HETATM    7  C   UNL     1      -9.255  13.555  70.851  1.00  0.00     7.172 A  
HETATM    8  C   UNL     1      -8.337  14.604  70.861  1.00  0.00     2.754 A  
BRANCH   5   9
HETATM    9  C   UNL     1      -9.945  11.285  70.010  1.00  0.00     1.209 C  
HETATM   10  N   UNL     1     -11.285  11.676  69.874  1.00  0.00    -0.486 N  
HETATM   11  H   UNL     1     -11.494  12.672  69.937  1.00  0.00     0.000 HD 
HETATM   12  O   UNL     1      -9.583  10.121  70.032  1.00  0.00    -0.200 OA 
BRANCH  10  13
HETATM   13  S   UNL     1     -12.557  10.638  69.615  1.00  0.00     0.282 S  
HETATM   14  O   UNL     1     -13.089  10.909  68.294  1.00  0.00     2.295 OA 
HETATM   15  O   UNL     1     -13.407  10.764  70.783  1.00  0.00    -0.146 OA 
BRANCH  13  16
HETATM   16  C   UNL     1     -11.846   9.004  69.642  1.00  0.00     0.669 A  
HETATM   17  C   UNL     1     -11.396   8.475  68.422  1.00  0.00     0.772 A  
HETATM   18  C   UNL     1     -12.237   8.742  72.164  1.00  0.00    -0.448 C  
HETATM   19  C   UNL     1     -10.843   7.196  68.373  1.00  0.00    -0.148 A  
HETATM   20  C   UNL     1     -11.754   8.250  70.830  1.00  0.00    -0.213 A  
HETATM   21  C   UNL     1     -10.738   6.443  69.538  1.00  0.00    -0.347 A  
HETATM   22  C   UNL     1     -11.188   6.965  70.754  1.00  0.00    -0.338 A  
ENDBRANCH  13  16
ENDBRANCH  10  13
ENDBRANCH   5   9
BRANCH   6  23
HETATM   23  C   UNL     1      -6.205  15.732  70.130  1.00  0.00    -0.074 C  
BRANCH  23  24
HETATM   24  C   UNL     1      -6.369  16.498  68.841  1.00  0.00    -0.157 A  
HETATM   25  N   UNL     1      -6.392  18.225  67.415  1.00  0.00    -0.176 NA 
HETATM   26  C   UNL     1      -7.256  17.298  66.872  1.00  0.00    -0.200 A  
HETATM   27  C   UNL     1      -7.251  16.207  67.742  1.00  0.00    -0.157 A  
HETATM   28  C   UNL     1      -5.787  17.718  68.535  1.00  0.00    -0.176 A  
HETATM   29  C   UNL     1      -6.232  19.579  66.933  1.00  0.00    -0.183 C  
HETATM   30  C   UNL     1      -8.088  15.120  67.425  1.00  0.00    -0.209 A  
HETATM   31  C   UNL     1      -8.837  15.082  66.243  1.00  0.00    -0.124 A  
HETATM   32  C   UNL     1      -8.843  16.205  65.417  1.00  0.00     1.029 A  
HETATM   33  C   UNL     1      -8.067  17.335  65.723  1.00  0.00     0.205 A  
BRANCH  31  34
HETATM   34  N   UNL     1      -9.571  13.938  65.848  1.00  0.00    -0.499 N  
HETATM   35  H   UNL     1      -9.110  13.288  65.213  1.00  0.00     0.000 HD 
HETATM   36  C   UNL     1     -10.846  13.628  66.243  1.00  0.00    -0.282 C  
HETATM   37  O   UNL     1     -11.574  14.295  66.960  1.00  0.00    -0.349 OA 
BRANCH  36  38
HETATM   38  O   UNL     1     -11.232  12.422  65.732  1.00  0.00    -0.305 OA 
BRANCH  38  39
HETATM   39  C   UNL     1     -10.541  11.327  66.340  1.00  0.00    -0.266 C  
HETATM   40  C   UNL     1     -10.658  10.058  65.499  1.00  0.00     0.161 C  
HETATM   41  C   UNL     1      -9.517   9.206  66.016  1.00  0.00    -0.321 C  
HETATM   42  C   UNL     1      -8.381  10.199  66.236  1.00  0.00    -0.130 C  
HETATM   43  C   UNL     1      -9.037  11.571  66.425  1.00  0.00    -0.206 C  
ENDBRANCH  38  39
ENDBRANCH  36  38
ENDBRANCH  31  34
ENDBRANCH  23  24
ENDBRANCH   6  23
ENDBRANCH   2   3
TORSDOF 9
ENDMDL
MODEL      188
REMARK 921   NORMALIZED FREE ENERGY PREDICTED BY IDOCK:   14.37 KCAL/MOL
REMARK 922        TOTAL FREE ENERGY PREDICTED BY IDOCK:   20.17 KCAL/MOL
REMARK 923 INTER-LIGAND FREE ENERGY PREDICTED BY IDOCK:   -0.58 KCAL/MOL
REMARK 924 INTRA-LIGAND FREE ENERGY PREDICTED BY IDOCK:   20.75 KCAL/MOL
REMARK 927      BINDING AFFINITY PREDICTED BY RF-SCORE:    0.00 PKD
ROOT
HETATM    1  C   UNL     1     -11.680  12.525  67.461  1.00  0.00    -0.374 C  
HETATM    2  O   UNL     1     -10.884  12.768  66.309  1.00  0.00    -0.269 OA 
ENDROOT
BRANCH   2   3
HETATM    3  C   UNL     1     -10.905  14.029  65.774  1.00  0.00    -0.291 A  
HETATM    4  C   UNL     1     -10.864  15.209  66.530  1.00  0.00    -0.317 A  
HETATM    5  C   UNL     1     -10.848  16.465  65.903  1.00  0.00    -0.116 A  
HETATM    6  C   UNL     1     -10.931  14.102  64.367  1.00  0.00    -0.240 A  
HETATM    7  C   UNL     1     -10.787  16.539  64.511  1.00  0.00     0.199 A  
HETATM    8  C   UNL     1     -10.814  15.366  63.759  1.00  0.00     1.979 A  
BRANCH   5   9
HETATM    9  C   UNL     1     -10.927  17.684  66.750  1.00  0.00     0.166 C  
HETATM   10  N   UNL     1      -9.908  17.828  67.701  1.00  0.00    -0.289 N  
HETATM   11  H   UNL     1      -9.233  17.069  67.788  1.00  0.00     0.000 HD 
HETATM   12  O   UNL     1     -11.837  18.484  66.610  1.00  0.00     1.798 OA 
BRANCH  10  13
HETATM   13  S   UNL     1      -9.718  19.145  68.699  1.00  0.00    -0.432 S  
HETATM   14  O   UNL     1     -10.357  18.839  69.963  1.00  0.00     0.574 OA 
HETATM   15  O   UNL     1     -10.150  20.289  67.921  1.00  0.00    -0.396 OA 
BRANCH  13  16
HETATM   16  C   UNL     1      -7.960  19.298  68.947  1.00  0.00    -0.318 A  
HETATM   17  C   UNL     1      -7.406  18.655  70.065  1.00  0.00     0.825 A  
HETATM   18  C   UNL     1      -7.672  20.785  66.877  1.00  0.00    -0.214 C  
HETATM   19  C   UNL     1      -6.040  18.747  70.324  1.00  0.00    -0.072 A  
HETATM   20  C   UNL     1      -7.146  20.052  68.077  1.00  0.00    -0.322 A  
HETATM   21  C   UNL     1      -5.223  19.481  69.470  1.00  0.00    -0.203 A  
HETATM   22  C   UNL     1      -5.770  20.126  68.357  1.00  0.00    -0.271 A  
ENDBRANCH  13  16
ENDBRANCH  10  13
ENDBRANCH   5   9
BRANCH   6  23
HETATM   23  C   UNL     1     -11.033  12.869  63.495  1.00  0.00    -0.226 C  
BRANCH  23  24
HETATM   24  C   UNL     1     -10.020  11.839  63.931  1.00  0.00    -0.356 A  
HETATM   25  N   UNL     1      -8.704  10.029  63.857  1.00  0.00    -0.187 NA 
HETATM   26  C   UNL     1      -8.897  10.280  65.199  1.00  0.00    -0.184 A  
HETATM   27  C   UNL     1      -9.710  11.411  65.269  1.00  0.00    -0.276 A  
HETATM   28  C   UNL     1      -9.289  11.009  63.098  1.00  0.00    -0.329 A  
HETATM   29  C   UNL     1      -8.070   8.843  63.326  1.00  0.00    -0.174 C  
HETATM   30  C   UNL     1     -10.084  11.864  66.549  1.00  0.00    -0.229 A  
HETATM   31  C   UNL     1      -9.600  11.265  67.717  1.00  0.00    -0.174 A  
HETATM   32  C   UNL     1      -8.818  10.116  67.607  1.00  0.00    -0.125 A  
HETATM   33  C   UNL     1      -8.466   9.595  66.350  1.00  0.00    -0.128 A  
BRANCH  31  34
HETATM   34  N   UNL     1      -9.857  11.796  69.004  1.00  0.00    -0.413 N  
HETATM   35  H   UNL     1      -9.050  12.013  69.587  1.00  0.00     0.000 HD 
HETATM   36  C   UNL     1     -11.096  12.044  69.535  1.00  0.00    -0.073 C  
HETATM   37  O   UNL     1     -12.176  11.815  69.016  1.00  0.00    -0.263 OA 
BRANCH  36  38
HETATM   38  O   UNL     1     -10.987  12.618  70.770  1.00  0.00     1.726 OA 
BRANCH  38  39
HETATM   39  C   UNL     1     -11.605  13.906  70.828  1.00  0.00     0.083 C  
HETATM   40  C   UNL     1     -13.035  13.814  71.356  1.00  0.00    -0.433 C  
HETATM   41  C   UNL     1     -13.323  15.236  71.793  1.00  0.00    -0.540 C  
HETATM   42  C   UNL     1     -12.016  15.703  72.425  1.00  0.00    -0.569 C  
HETATM   43  C   UNL     1     -10.909  14.834  71.819  1.00  0.00     0.870 C  
ENDBRANCH  38  39
ENDBRANCH  36  38
ENDBRANCH  31  34
ENDBRANCH  23  24
ENDBRANCH   6  23
ENDBRANCH   2   3
TORSDOF 9
ENDMDL
MODEL      189
REMARK 921   NORMALIZED FREE ENERGY PREDICTED BY IDOCK:   14.86 KCAL/MOL
REMARK 922        TOTAL FREE ENERGY PREDICTED BY IDOCK:   20.92 KCAL/MOL
REMARK 923 INTER-LIGAND FREE ENERGY PREDICTED BY IDOCK:   20.83 KCAL/MOL
REMARK 924 INTRA-LIGAND FREE ENERGY PREDICTED BY IDOCK:    0.09 KCAL/MOL
REMARK 927      BINDING AFFINITY PREDICTED BY RF-SCORE:    0.00 PKD
ROOT
HETATM    1  C   UNL     1      -5.715  15.128  72.157  1.00  0.00     0.534 C  
HETATM    2  O   UNL     1      -6.956  15.327  71.493  1.00  0.00     1.432 OA 
ENDROOT
BRANCH   2   3
HETATM    3  C   UNL     1      -7.505  14.257  70.835  1.00  0.00     2.030 A  
HETATM    4  C   UNL     1      -6.768  13.314  70.105  1.00  0.00     0.374 A  
HETATM    5  C   UNL     1      -7.404  12.222  69.493  1.00  0.00     0.417 A  
HETATM    6  C   UNL     1      -8.901  14.110  70.956  1.00  0.00     4.949 A  
HETATM    7  C   UNL     1      -8.772  12.027  69.683  1.00  0.00     1.687 A  
HETATM    8  C   UNL     1      -9.503  12.957  70.421  1.00  0.00     5.241 A  
BRANCH   5   9
HETATM    9  C   UNL     1      -6.596  11.321  68.631  1.00  0.00    -0.064 C  
HETATM   10  N   UNL     1      -7.120  11.071  67.355  1.00  0.00    -0.090 N  
HETATM   11  H   UNL     1      -8.034  11.466  67.135  1.00  0.00     0.000 HD 
HETATM   12  O   UNL     1      -5.552  10.837  69.038  1.00  0.00    -0.041 OA 
BRANCH  10  13
HETATM   13  S   UNL     1      -6.362  10.180  66.174  1.00  0.00    -0.095 S  
HETATM   14  O   UNL     1      -6.298   8.805  66.628  1.00  0.00    -0.057 OA 
HETATM   15  O   UNL     1      -5.145  10.902  65.860  1.00  0.00    -0.094 OA 
BRANCH  13  16
HETATM   16  C   UNL     1      -7.429  10.282  64.750  1.00  0.00    -0.103 A  
HETATM   17  C   UNL     1      -6.818  10.380  63.490  1.00  0.00    -0.018 A  
HETATM   18  C   UNL     1      -9.555  10.215  66.183  1.00  0.00    -0.256 C  
HETATM   19  C   UNL     1      -7.596  10.478  62.338  1.00  0.00    -0.173 A  
HETATM   20  C   UNL     1      -8.834  10.291  64.869  1.00  0.00    -0.213 A  
HETATM   21  C   UNL     1      -8.983  10.480  62.438  1.00  0.00    -0.308 A  
HETATM   22  C   UNL     1      -9.596  10.387  63.691  1.00  0.00    -0.364 A  
ENDBRANCH  13  16
ENDBRANCH  10  13
ENDBRANCH   5   9
BRANCH   6  23
HETATM   23  C   UNL     1      -9.761  15.122  71.682  1.00  0.00     2.937 C  
BRANCH  23  24
HETATM   24  C   UNL     1     -10.741  15.754  70.725  1.00  0.00    -0.124 A  
HETATM   25  N   UNL     1     -12.581  16.016  69.475  1.00  0.00     0.085 NA 
HETATM   26  C   UNL     1     -11.620  16.797  68.870  1.00  0.00     0.267 A  
HETATM   27  C   UNL     1     -10.464  16.656  69.638  1.00  0.00    -0.237 A  
HETATM   28  C   UNL     1     -12.094  15.468  70.633  1.00  0.00    -0.389 A  
HETATM   29  C   UNL     1     -13.880  15.727  68.909  1.00  0.00     5.148 C  
HETATM   30  C   UNL     1      -9.312  17.340  69.209  1.00  0.00     0.091 A  
HETATM   31  C   UNL     1      -9.328  18.201  68.106  1.00  0.00    -0.288 A  
HETATM   32  C   UNL     1     -10.492  18.290  67.343  1.00  0.00    -0.430 A  
HETATM   33  C   UNL     1     -11.651  17.580  67.702  1.00  0.00     1.006 A  
BRANCH  31  34
HETATM   34  N   UNL     1      -8.215  18.999  67.751  1.00  0.00    -0.271 N  
HETATM   35  H   UNL     1      -7.326  18.521  67.612  1.00  0.00     0.000 HD 
HETATM   36  C   UNL     1      -8.226  20.358  67.576  1.00  0.00    -0.282 C  
HETATM   37  O   UNL     1      -9.174  21.110  67.736  1.00  0.00    -0.014 OA 
BRANCH  36  38
HETATM   38  O   UNL     1      -7.001  20.805  67.171  1.00  0.00    -0.302 OA 
BRANCH  38  39
HETATM   39  C   UNL     1      -5.946  20.345  68.020  1.00  0.00    -0.255 C  
HETATM   40  C   UNL     1      -6.271  20.583  69.492  1.00  0.00    -0.262 C  
HETATM   41  C   UNL     1      -5.328  19.634  70.203  1.00  0.00    -0.240 C  
HETATM   42  C   UNL     1      -5.334  18.382  69.332  1.00  0.00    -0.205 C  
HETATM   43  C   UNL     1      -5.751  18.834  67.929  1.00  0.00    -0.190 C  
ENDBRANCH  38  39
ENDBRANCH  36  38
ENDBRANCH  31  34
ENDBRANCH  23  24
ENDBRANCH   6  23
ENDBRANCH   2   3
TORSDOF 9
ENDMDL
MODEL      190
REMARK 921   NORMALIZED FREE ENERGY PREDICTED BY IDOCK:   15.94 KCAL/MOL
REMARK 922        TOTAL FREE ENERGY PREDICTED BY IDOCK:   22.57 KCAL/MOL
REMARK 923 INTER-LIGAND FREE ENERGY PREDICTED BY IDOCK:    2.97 KCAL/MOL
REMARK 924 INTRA-LIGAND FREE ENERGY PREDICTED BY IDOCK:   19.60 KCAL/MOL
REMARK 927      BINDING AFFINITY PREDICTED BY RF-SCORE:    0.00 PKD
ROOT
HETATM    1  C   UNL     1     -10.074  15.305  69.625  1.00  0.00    -0.237 C  
HETATM    2  O   UNL     1      -9.914  13.896  69.520  1.00  0.00     0.277 OA 
ENDROOT
BRANCH   2   3
HETATM    3  C   UNL     1      -8.715  13.424  69.053  1.00  0.00     0.413 A  
HETATM    4  C   UNL     1      -8.585  12.406  68.098  1.00  0.00    -0.185 A  
HETATM    5  C   UNL     1      -7.319  12.006  67.640  1.00  0.00    -0.121 A  
HETATM    6  C   UNL     1      -7.563  14.055  69.562  1.00  0.00     0.292 A  
HETATM    7  C   UNL     1      -6.183  12.688  68.078  1.00  0.00    -0.094 A  
HETATM    8  C   UNL     1      -6.312  13.710  69.017  1.00  0.00    -0.102 A  
BRANCH   5   9
HETATM    9  C   UNL     1      -7.230  10.843  66.721  1.00  0.00    -0.134 C  
HETATM   10  N   UNL     1      -8.371  10.031  66.658  1.00  0.00    -0.125 N  
HETATM   11  H   UNL     1      -9.144  10.255  67.285  1.00  0.00     0.000 HD 
HETATM   12  O   UNL     1      -6.214  10.627  66.082  1.00  0.00    -0.102 OA 
BRANCH  10  13
HETATM   13  S   UNL     1      -8.559   8.731  65.639  1.00  0.00    -0.182 S  
HETATM   14  O   UNL     1      -7.924   9.060  64.379  1.00  0.00    -0.118 OA 
HETATM   15  O   UNL     1      -9.970   8.402  65.681  1.00  0.00     0.202 OA 
BRANCH  13  16
HETATM   16  C   UNL     1      -7.673   7.392  66.415  1.00  0.00    -0.093 A  
HETATM   17  C   UNL     1      -7.435   6.243  65.645  1.00  0.00    -0.082 A  
HETATM   18  C   UNL     1      -7.486   8.644  68.646  1.00  0.00    -0.096 C  
HETATM   19  C   UNL     1      -6.761   5.155  66.197  1.00  0.00    -0.054 A  
HETATM   20  C   UNL     1      -7.245   7.460  67.756  1.00  0.00    -0.091 A  
HETATM   21  C   UNL     1      -6.324   5.210  67.517  1.00  0.00    -0.040 A  
HETATM   22  C   UNL     1      -6.563   6.350  68.289  1.00  0.00    -0.066 A  
ENDBRANCH  13  16
ENDBRANCH  10  13
ENDBRANCH   5   9
BRANCH   6  23
HETATM   23  C   UNL     1      -7.632  15.121  70.634  1.00  0.00     1.146 C  
BRANCH  23  24
HETATM   24  C   UNL     1      -8.754  16.085  70.338  1.00  0.00     1.746 A  
HETATM   25  N   UNL     1     -10.835  16.901  70.187  1.00  0.00    -0.033 NA 
HETATM   26  C   UNL     1     -10.106  17.596  69.247  1.00  0.00    -0.147 A  
HETATM   27  C   UNL     1      -8.801  17.110  69.329  1.00  0.00     0.144 A  
HETATM   28  C   UNL     1     -10.017  16.068  70.907  1.00  0.00     1.481 A  
HETATM   29  C   UNL     1     -12.274  16.959  70.319  1.00  0.00     2.626 C  
HETATM   30  C   UNL     1      -7.851  17.645  68.439  1.00  0.00    -0.268 A  
HETATM   31  C   UNL     1      -8.165  18.685  67.557  1.00  0.00    -0.253 A  
HETATM   32  C   UNL     1      -9.487  19.121  67.479  1.00  0.00    -0.365 A  
HETATM   33  C   UNL     1     -10.481  18.576  68.310  1.00  0.00    -0.326 A  
BRANCH  31  34
HETATM   34  N   UNL     1      -7.186  19.324  66.759  1.00  0.00    -0.207 N  
HETATM   35  H   UNL     1      -6.806  18.792  65.977  1.00  0.00     0.000 HD 
HETATM   36  C   UNL     1      -6.704  20.593  66.944  1.00  0.00    -0.279 C  
HETATM   37  O   UNL     1      -7.000  21.366  67.840  1.00  0.00    -0.266 OA 
BRANCH  36  38
HETATM   38  O   UNL     1      -5.819  20.924  65.958  1.00  0.00    -0.211 OA 
BRANCH  38  39
HETATM   39  C   UNL     1      -6.259  20.497  64.666  1.00  0.00    -0.295 C  
HETATM   40  C   UNL     1      -5.597  21.310  63.555  1.00  0.00    -0.279 C  
HETATM   41  C   UNL     1      -5.789  20.431  62.336  1.00  0.00    -0.266 C  
HETATM   42  C   UNL     1      -5.561  19.016  62.857  1.00  0.00     0.044 C  
HETATM   43  C   UNL     1      -5.844  19.060  64.362  1.00  0.00    -0.288 C  
ENDBRANCH  38  39
ENDBRANCH  36  38
ENDBRANCH  31  34
ENDBRANCH  23  24
ENDBRANCH   6  23
ENDBRANCH   2   3
TORSDOF 9
ENDMDL
MODEL      191
REMARK 921   NORMALIZED FREE ENERGY PREDICTED BY IDOCK:   16.02 KCAL/MOL
REMARK 922        TOTAL FREE ENERGY PREDICTED BY IDOCK:   22.69 KCAL/MOL
REMARK 923 INTER-LIGAND FREE ENERGY PREDICTED BY IDOCK:   16.04 KCAL/MOL
REMARK 924 INTRA-LIGAND FREE ENERGY PREDICTED BY IDOCK:    6.65 KCAL/MOL
REMARK 927      BINDING AFFINITY PREDICTED BY RF-SCORE:    0.00 PKD
ROOT
HETATM    1  C   UNL     1      -9.121  10.854  70.735  1.00  0.00     3.724 C  
HETATM    2  O   UNL     1      -8.822  11.347  69.436  1.00  0.00     0.232 OA 
ENDROOT
BRANCH   2   3
HETATM    3  C   UNL     1      -9.586  10.896  68.391  1.00  0.00    -0.177 A  
HETATM    4  C   UNL     1      -9.619   9.565  67.954  1.00  0.00    -0.154 A  
HETATM    5  C   UNL     1     -10.461   9.175  66.900  1.00  0.00    -0.287 A  
HETATM    6  C   UNL     1     -10.406  11.857  67.767  1.00  0.00    -0.214 A  
HETATM    7  C   UNL     1     -11.336  10.105  66.338  1.00  0.00     0.848 A  
HETATM    8  C   UNL     1     -11.313  11.426  66.782  1.00  0.00    -0.252 A  
BRANCH   5   9
HETATM    9  C   UNL     1     -10.369   7.780  66.395  1.00  0.00     0.137 C  
HETATM   10  N   UNL     1     -10.759   6.782  67.298  1.00  0.00    -0.310 N  
HETATM   11  H   UNL     1     -11.013   7.072  68.242  1.00  0.00     0.000 HD 
HETATM   12  O   UNL     1      -9.968   7.549  65.267  1.00  0.00     1.392 OA 
BRANCH  10  13
HETATM   13  S   UNL     1     -10.840   5.159  66.945  1.00  0.00     0.315 S  
HETATM   14  O   UNL     1     -12.017   4.941  66.127  1.00  0.00     2.202 OA 
HETATM   15  O   UNL     1     -10.698   4.475  68.216  1.00  0.00     0.471 OA 
BRANCH  13  16
HETATM   16  C   UNL     1      -9.380   4.813  65.983  1.00  0.00    -0.156 A  
HETATM   17  C   UNL     1      -8.762   5.893  65.334  1.00  0.00    -0.109 A  
HETATM   18  C   UNL     1      -9.489   2.301  66.494  1.00  0.00     0.182 C  
HETATM   19  C   UNL     1      -7.626   5.687  64.555  1.00  0.00    -0.082 A  
HETATM   20  C   UNL     1      -8.867   3.506  65.850  1.00  0.00    -0.128 A  
HETATM   21  C   UNL     1      -7.103   4.405  64.420  1.00  0.00    -0.050 A  
HETATM   22  C   UNL     1      -7.716   3.326  65.061  1.00  0.00    -0.081 A  
ENDBRANCH  13  16
ENDBRANCH  10  13
ENDBRANCH   5   9
BRANCH   6  23
HETATM   23  C   UNL     1     -10.375  13.320  68.154  1.00  0.00    -0.246 C  
BRANCH  23  24
HETATM   24  C   UNL     1      -8.949  13.788  68.308  1.00  0.00    -0.186 A  
HETATM   25  N   UNL     1      -6.787  13.771  68.891  1.00  0.00    -0.106 NA 
HETATM   26  C   UNL     1      -7.121  15.104  68.782  1.00  0.00    -0.117 A  
HETATM   27  C   UNL     1      -8.465  15.138  68.410  1.00  0.00    -0.157 A  
HETATM   28  C   UNL     1      -7.843  12.980  68.517  1.00  0.00    -0.105 A  
HETATM   29  C   UNL     1      -5.539  13.278  69.430  1.00  0.00    -0.083 C  
HETATM   30  C   UNL     1      -9.065  16.403  68.260  1.00  0.00    -0.207 A  
HETATM   31  C   UNL     1      -8.334  17.590  68.391  1.00  0.00    -0.278 A  
HETATM   32  C   UNL     1      -7.003  17.516  68.797  1.00  0.00    -0.237 A  
HETATM   33  C   UNL     1      -6.378  16.276  69.014  1.00  0.00    -0.153 A  
BRANCH  31  34
HETATM   34  N   UNL     1      -8.893  18.858  68.105  1.00  0.00    -0.298 N  
HETATM   35  H   UNL     1      -9.615  19.201  68.738  1.00  0.00     0.000 HD 
HETATM   36  C   UNL     1      -8.549  19.668  67.054  1.00  0.00    -0.312 C  
HETATM   37  O   UNL     1      -7.744  19.420  66.172  1.00  0.00    -0.282 OA 
BRANCH  36  38
HETATM   38  O   UNL     1      -9.231  20.850  67.109  1.00  0.00    -0.304 OA 
BRANCH  38  39
HETATM   39  C   UNL     1     -10.388  20.851  66.268  1.00  0.00     1.063 C  
HETATM   40  C   UNL     1     -10.061  21.378  64.873  1.00  0.00     3.933 C  
HETATM   41  C   UNL     1     -11.215  20.858  64.039  1.00  0.00     3.566 C  
HETATM   42  C   UNL     1     -11.465  19.455  64.583  1.00  0.00     3.300 C  
HETATM   43  C   UNL     1     -10.914  19.441  66.012  1.00  0.00    -0.255 C  
ENDBRANCH  38  39
ENDBRANCH  36  38
ENDBRANCH  31  34
ENDBRANCH  23  24
ENDBRANCH   6  23
ENDBRANCH   2   3
TORSDOF 9
ENDMDL
MODEL      192
REMARK 921   NORMALIZED FREE ENERGY PREDICTED BY IDOCK:   16.06 KCAL/MOL
REMARK 922        TOTAL FREE ENERGY PREDICTED BY IDOCK:   22.75 KCAL/MOL
REMARK 923 INTER-LIGAND FREE ENERGY PREDICTED BY IDOCK:    8.55 KCAL/MOL
REMARK 924 INTRA-LIGAND FREE ENERGY PREDICTED BY IDOCK:   14.20 KCAL/MOL
REMARK 927      BINDING AFFINITY PREDICTED BY RF-SCORE:    0.00 PKD
ROOT
HETATM    1  C   UNL     1     -11.650  12.537  67.494  1.00  0.00    -0.361 C  
HETATM    2  O   UNL     1     -10.997  12.894  66.283  1.00  0.00    -0.275 OA 
ENDROOT
BRANCH   2   3
HETATM    3  C   UNL     1     -11.168  14.172  65.819  1.00  0.00    -0.312 A  
HETATM    4  C   UNL     1     -11.056  15.322  66.612  1.00  0.00    -0.276 A  
HETATM    5  C   UNL     1     -11.207  16.601  66.051  1.00  0.00     0.429 A  
HETATM    6  C   UNL     1     -11.436  14.297  64.441  1.00  0.00    -0.321 A  
HETATM    7  C   UNL     1     -11.386  16.730  64.674  1.00  0.00     0.185 A  
HETATM    8  C   UNL     1     -11.484  15.587  63.882  1.00  0.00     0.401 A  
BRANCH   5   9
HETATM    9  C   UNL     1     -11.200  17.780  66.955  1.00  0.00     0.511 C  
HETATM   10  N   UNL     1     -10.036  17.954  67.716  1.00  0.00    -0.316 N  
HETATM   11  H   UNL     1      -9.314  17.236  67.644  1.00  0.00     0.000 HD 
HETATM   12  O   UNL     1     -12.163  18.525  67.018  1.00  0.00     2.869 OA 
BRANCH  10  13
HETATM   13  S   UNL     1      -9.742  19.242  68.725  1.00  0.00    -0.446 S  
HETATM   14  O   UNL     1     -10.106  18.843  70.070  1.00  0.00     0.439 OA 
HETATM   15  O   UNL     1     -10.388  20.381  68.102  1.00  0.00    -0.310 OA 
BRANCH  13  16
HETATM   16  C   UNL     1      -7.982  19.512  68.644  1.00  0.00    -0.346 A  
HETATM   17  C   UNL     1      -7.183  18.857  69.594  1.00  0.00     0.091 A  
HETATM   18  C   UNL     1      -8.196  21.119  66.656  1.00  0.00     0.588 C  
HETATM   19  C   UNL     1      -5.801  19.038  69.594  1.00  0.00    -0.272 A  
HETATM   20  C   UNL     1      -7.402  20.368  67.685  1.00  0.00    -0.338 A  
HETATM   21  C   UNL     1      -5.213  19.872  68.649  1.00  0.00    -0.211 A  
HETATM   22  C   UNL     1      -6.005  20.530  67.704  1.00  0.00    -0.279 A  
ENDBRANCH  13  16
ENDBRANCH  10  13
ENDBRANCH   5   9
BRANCH   6  23
HETATM   23  C   UNL     1     -11.625  13.095  63.542  1.00  0.00    -0.392 C  
BRANCH  23  24
HETATM   24  C   UNL     1     -10.491  12.118  63.735  1.00  0.00    -0.470 A  
HETATM   25  N   UNL     1      -9.173  10.340  63.394  1.00  0.00    -0.268 NA 
HETATM   26  C   UNL     1      -9.003  10.666  64.723  1.00  0.00    -0.199 A  
HETATM   27  C   UNL     1      -9.810  11.779  64.956  1.00  0.00    -0.257 A  
HETATM   28  C   UNL     1      -9.982  11.257  62.776  1.00  0.00    -0.154 A  
HETATM   29  C   UNL     1      -8.661   9.139  62.771  1.00  0.00    -0.185 C  
HETATM   30  C   UNL     1      -9.839  12.298  66.264  1.00  0.00    -0.254 A  
HETATM   31  C   UNL     1      -9.031  11.782  67.284  1.00  0.00    -0.172 A  
HETATM   32  C   UNL     1      -8.264  10.648  67.022  1.00  0.00    -0.124 A  
HETATM   33  C   UNL     1      -8.247  10.062  65.745  1.00  0.00    -0.130 A  
BRANCH  31  34
HETATM   34  N   UNL     1      -8.949  12.383  68.563  1.00  0.00    -0.355 N  
HETATM   35  H   UNL     1      -9.100  11.779  69.370  1.00  0.00     0.000 HD 
HETATM   36  C   UNL     1      -8.684  13.704  68.812  1.00  0.00     0.070 C  
HETATM   37  O   UNL     1      -8.518  14.587  67.987  1.00  0.00    -0.146 OA 
BRANCH  36  38
HETATM   38  O   UNL     1      -8.611  13.939  70.156  1.00  0.00     1.725 OA 
BRANCH  38  39
HETATM   39  C   UNL     1      -7.314  14.386  70.560  1.00  0.00     0.906 C  
HETATM   40  C   UNL     1      -7.253  15.909  70.647  1.00  0.00     1.568 C  
HETATM   41  C   UNL     1      -6.038  16.147  71.520  1.00  0.00     1.466 C  
HETATM   42  C   UNL     1      -6.122  15.054  72.580  1.00  0.00     1.022 C  
HETATM   43  C   UNL     1      -6.961  13.925  71.971  1.00  0.00     3.449 C  
ENDBRANCH  38  39
ENDBRANCH  36  38
ENDBRANCH  31  34
ENDBRANCH  23  24
ENDBRANCH   6  23
ENDBRANCH   2   3
TORSDOF 9
ENDMDL
MODEL      193
REMARK 921   NORMALIZED FREE ENERGY PREDICTED BY IDOCK:   17.57 KCAL/MOL
REMARK 922        TOTAL FREE ENERGY PREDICTED BY IDOCK:   25.06 KCAL/MOL
REMARK 923 INTER-LIGAND FREE ENERGY PREDICTED BY IDOCK:   24.43 KCAL/MOL
REMARK 924 INTRA-LIGAND FREE ENERGY PREDICTED BY IDOCK:    0.63 KCAL/MOL
REMARK 927      BINDING AFFINITY PREDICTED BY RF-SCORE:    0.00 PKD
ROOT
HETATM    1  C   UNL     1      -7.938  12.070  65.662  1.00  0.00     1.179 C  
HETATM    2  O   UNL     1      -8.828  12.582  66.644  1.00  0.00    -0.207 OA 
ENDROOT
BRANCH   2   3
HETATM    3  C   UNL     1      -9.648  11.693  67.288  1.00  0.00    -0.174 A  
HETATM    4  C   UNL     1      -9.265  10.925  68.397  1.00  0.00    -0.168 A  
HETATM    5  C   UNL     1     -10.179  10.065  69.027  1.00  0.00    -0.216 A  
HETATM    6  C   UNL     1     -10.965  11.600  66.797  1.00  0.00    -0.341 A  
HETATM    7  C   UNL     1     -11.505  10.036  68.596  1.00  0.00    -0.033 A  
HETATM    8  C   UNL     1     -11.890  10.809  67.502  1.00  0.00     0.491 A  
BRANCH   5   9
HETATM    9  C   UNL     1      -9.690   9.185  70.119  1.00  0.00    -0.204 C  
HETATM   10  N   UNL     1      -8.799   8.174  69.731  1.00  0.00    -0.142 N  
HETATM   11  H   UNL     1      -8.604   8.075  68.735  1.00  0.00     0.000 HD 
HETATM   12  O   UNL     1     -10.064   9.349  71.269  1.00  0.00    -0.302 OA 
BRANCH  10  13
HETATM   13  S   UNL     1      -8.038   7.125  70.773  1.00  0.00    -0.109 S  
HETATM   14  O   UNL     1      -8.727   7.188  72.047  1.00  0.00    -0.122 OA 
HETATM   15  O   UNL     1      -6.627   7.448  70.690  1.00  0.00    -0.042 OA 
BRANCH  13  16
HETATM   16  C   UNL     1      -8.261   5.507  70.059  1.00  0.00    -0.104 A  
HETATM   17  C   UNL     1      -8.937   5.430  68.831  1.00  0.00    -0.130 A  
HETATM   18  C   UNL     1      -7.098   4.343  72.027  1.00  0.00    -0.059 C  
HETATM   19  C   UNL     1      -9.157   4.194  68.227  1.00  0.00    -0.176 A  
HETATM   20  C   UNL     1      -7.805   4.339  70.702  1.00  0.00    -0.056 A  
HETATM   21  C   UNL     1      -8.705   3.032  68.845  1.00  0.00    -0.135 A  
HETATM   22  C   UNL     1      -8.036   3.104  70.070  1.00  0.00    -0.054 A  
ENDBRANCH  13  16
ENDBRANCH  10  13
ENDBRANCH   5   9
BRANCH   6  23
HETATM   23  C   UNL     1     -11.425  12.359  65.570  1.00  0.00    -0.404 C  
BRANCH  23  24
HETATM   24  C   UNL     1     -12.147  13.620  65.978  1.00  0.00    -0.480 A  
HETATM   25  N   UNL     1     -13.407  15.463  65.812  1.00  0.00     1.857 NA 
HETATM   26  C   UNL     1     -12.589  15.683  66.899  1.00  0.00     2.003 A  
HETATM   27  C   UNL     1     -11.798  14.540  67.028  1.00  0.00    -0.408 A  
HETATM   28  C   UNL     1     -13.217  14.199  65.317  1.00  0.00     0.112 A  
HETATM   29  C   UNL     1     -14.261  16.464  65.211  1.00  0.00     6.997 C  
HETATM   30  C   UNL     1     -10.844  14.524  68.062  1.00  0.00    -0.249 A  
HETATM   31  C   UNL     1     -10.736  15.568  68.987  1.00  0.00    -0.243 A  
HETATM   32  C   UNL     1     -11.518  16.708  68.806  1.00  0.00    -0.042 A  
HETATM   33  C   UNL     1     -12.445  16.792  67.753  1.00  0.00     2.610 A  
BRANCH  31  34
HETATM   34  N   UNL     1      -9.877  15.500  70.110  1.00  0.00    -0.343 N  
HETATM   35  H   UNL     1      -9.631  16.380  70.561  1.00  0.00     0.000 HD 
HETATM   36  C   UNL     1      -9.347  14.355  70.645  1.00  0.00     2.623 C  
HETATM   37  O   UNL     1      -9.487  13.218  70.228  1.00  0.00     3.103 OA 
BRANCH  36  38
HETATM   38  O   UNL     1      -8.616  14.637  71.764  1.00  0.00     3.810 OA 
BRANCH  38  39
HETATM   39  C   UNL     1      -7.222  14.368  71.585  1.00  0.00     2.831 C  
HETATM   40  C   UNL     1      -6.877  14.172  70.111  1.00  0.00     0.122 C  
HETATM   41  C   UNL     1      -5.378  14.389  70.085  1.00  0.00    -0.100 C  
HETATM   42  C   UNL     1      -5.153  15.545  71.054  1.00  0.00    -0.155 C  
HETATM   43  C   UNL     1      -6.350  15.547  72.010  1.00  0.00     1.891 C  
ENDBRANCH  38  39
ENDBRANCH  36  38
ENDBRANCH  31  34
ENDBRANCH  23  24
ENDBRANCH   6  23
ENDBRANCH   2   3
TORSDOF 9
ENDMDL
MODEL      194
REMARK 921   NORMALIZED FREE ENERGY PREDICTED BY IDOCK:   25.38 KCAL/MOL
REMARK 922        TOTAL FREE ENERGY PREDICTED BY IDOCK:   36.97 KCAL/MOL
REMARK 923 INTER-LIGAND FREE ENERGY PREDICTED BY IDOCK:   35.90 KCAL/MOL
REMARK 924 INTRA-LIGAND FREE ENERGY PREDICTED BY IDOCK:    1.07 KCAL/MOL
REMARK 927      BINDING AFFINITY PREDICTED BY RF-SCORE:    0.00 PKD
ROOT
HETATM    1  C   UNL     1      -8.036  12.723  65.295  1.00  0.00     3.311 C  
HETATM    2  O   UNL     1      -8.981  13.210  66.238  1.00  0.00    -0.063 OA 
ENDROOT
BRANCH   2   3
HETATM    3  C   UNL     1      -9.854  12.310  66.790  1.00  0.00    -0.209 A  
HETATM    4  C   UNL     1      -9.553  11.484  67.882  1.00  0.00    -0.178 A  
HETATM    5  C   UNL     1     -10.519  10.615  68.415  1.00  0.00    -0.212 A  
HETATM    6  C   UNL     1     -11.141  12.268  66.218  1.00  0.00    -0.342 A  
HETATM    7  C   UNL     1     -11.817  10.635  67.906  1.00  0.00     0.290 A  
HETATM    8  C   UNL     1     -12.122  11.465  66.829  1.00  0.00     0.976 A  
BRANCH   5   9
HETATM    9  C   UNL     1     -10.113   9.675  69.492  1.00  0.00    -0.209 C  
HETATM   10  N   UNL     1      -9.263   8.632  69.098  1.00  0.00    -0.152 N  
HETATM   11  H   UNL     1      -9.039   8.555  68.106  1.00  0.00     0.000 HD 
HETATM   12  O   UNL     1     -10.516   9.821  70.634  1.00  0.00    -0.289 OA 
BRANCH  10  13
HETATM   13  S   UNL     1      -8.593   7.511  70.127  1.00  0.00    -0.142 S  
HETATM   14  O   UNL     1      -9.321   7.567  71.378  1.00  0.00    -0.142 OA 
HETATM   15  O   UNL     1      -7.165   7.763  70.102  1.00  0.00    -0.060 OA 
BRANCH  13  16
HETATM   16  C   UNL     1      -8.872   5.932  69.350  1.00  0.00    -0.122 A  
HETATM   17  C   UNL     1      -9.508   5.931  68.098  1.00  0.00    -0.120 A  
HETATM   18  C   UNL     1      -7.839   4.644  71.313  1.00  0.00    -0.086 C  
HETATM   19  C   UNL     1      -9.769   4.728  67.444  1.00  0.00    -0.209 A  
HETATM   20  C   UNL     1      -8.499   4.720  69.966  1.00  0.00    -0.087 A  
HETATM   21  C   UNL     1      -9.398   3.525  68.036  1.00  0.00    -0.237 A  
HETATM   22  C   UNL     1      -8.769   3.520  69.284  1.00  0.00    -0.133 A  
ENDBRANCH  13  16
ENDBRANCH  10  13
ENDBRANCH   5   9
BRANCH   6  23
HETATM   23  C   UNL     1     -11.512  13.092  65.004  1.00  0.00    -0.345 C  
BRANCH  23  24
HETATM   24  C   UNL     1     -12.347  14.280  65.416  1.00  0.00    -0.421 A  
HETATM   25  N   UNL     1     -13.627  16.108  65.236  1.00  0.00     3.683 NA 
HETATM   26  C   UNL     1     -13.035  16.204  66.477  1.00  0.00     4.443 A  
HETATM   27  C   UNL     1     -12.237  15.068  66.615  1.00  0.00     0.271 A  
HETATM   28  C   UNL     1     -13.299  14.919  64.638  1.00  0.00     1.476 A  
HETATM   29  C   UNL     1     -14.395  17.161  64.609  1.00  0.00    10.560 C  
HETATM   30  C   UNL     1     -11.490  14.938  67.801  1.00  0.00    -0.353 A  
HETATM   31  C   UNL     1     -11.598  15.860  68.849  1.00  0.00    -0.388 A  
HETATM   32  C   UNL     1     -12.378  17.000  68.660  1.00  0.00     2.477 A  
HETATM   33  C   UNL     1     -13.097  17.199  67.469  1.00  0.00     6.330 A  
BRANCH  31  34
HETATM   34  N   UNL     1     -10.960  15.667  70.097  1.00  0.00    -0.310 N  
HETATM   35  H   UNL     1     -10.846  16.486  70.693  1.00  0.00     0.000 HD 
HETATM   36  C   UNL     1     -10.482  14.475  70.577  1.00  0.00     0.669 C  
HETATM   37  O   UNL     1     -10.485  13.400  70.002  1.00  0.00     0.791 OA 
BRANCH  36  38
HETATM   38  O   UNL     1      -9.986  14.626  71.840  1.00  0.00     2.537 OA 
BRANCH  38  39
HETATM   39  C   UNL     1     -10.923  15.248  72.723  1.00  0.00     0.831 C  
HETATM   40  C   UNL     1     -12.328  15.262  72.124  1.00  0.00    -0.441 C  
HETATM   41  C   UNL     1     -13.208  15.486  73.337  1.00  0.00    -0.600 C  
HETATM   42  C   UNL     1     -12.558  14.643  74.429  1.00  0.00     0.708 C  
HETATM   43  C   UNL     1     -11.090  14.471  74.026  1.00  0.00     2.399 C  
ENDBRANCH  38  39
ENDBRANCH  36  38
ENDBRANCH  31  34
ENDBRANCH  23  24
ENDBRANCH   6  23
ENDBRANCH   2   3
TORSDOF 9
ENDMDL
MODEL      195
REMARK 921   NORMALIZED FREE ENERGY PREDICTED BY IDOCK:   54.94 KCAL/MOL
REMARK 922        TOTAL FREE ENERGY PREDICTED BY IDOCK:   82.08 KCAL/MOL
REMARK 923 INTER-LIGAND FREE ENERGY PREDICTED BY IDOCK:   73.60 KCAL/MOL
REMARK 924 INTRA-LIGAND FREE ENERGY PREDICTED BY IDOCK:    8.48 KCAL/MOL
REMARK 927      BINDING AFFINITY PREDICTED BY RF-SCORE:    0.00 PKD
ROOT
HETATM    1  C   UNL     1     -10.352  14.018  73.284  1.00  0.00     7.216 C  
HETATM    2  O   UNL     1     -10.455  13.049  72.249  1.00  0.00     8.642 OA 
ENDROOT
BRANCH   2   3
HETATM    3  C   UNL     1      -9.934  13.368  71.023  1.00  0.00     6.566 A  
HETATM    4  C   UNL     1      -9.011  12.576  70.326  1.00  0.00     4.984 A  
HETATM    5  C   UNL     1      -8.555  12.954  69.052  1.00  0.00     0.475 A  
HETATM    6  C   UNL     1     -10.410  14.560  70.441  1.00  0.00     0.643 A  
HETATM    7  C   UNL     1      -9.090  14.087  68.439  1.00  0.00    -0.191 A  
HETATM    8  C   UNL     1     -10.018  14.868  69.125  1.00  0.00    -0.213 A  
BRANCH   5   9
HETATM    9  C   UNL     1      -7.488  12.144  68.410  1.00  0.00    -0.114 C  
HETATM   10  N   UNL     1      -7.927  11.186  67.486  1.00  0.00    -0.115 N  
HETATM   11  H   UNL     1      -8.933  11.070  67.369  1.00  0.00     0.000 HD 
HETATM   12  O   UNL     1      -6.315  12.317  68.695  1.00  0.00    -0.063 OA 
BRANCH  10  13
HETATM   13  S   UNL     1      -6.930  10.225  66.565  1.00  0.00    -0.113 S  
HETATM   14  O   UNL     1      -5.718   9.989  67.324  1.00  0.00    -0.045 OA 
HETATM   15  O   UNL     1      -6.864  10.864  65.265  1.00  0.00     0.043 OA 
BRANCH  13  16
HETATM   16  C   UNL     1      -7.811   8.689  66.364  1.00  0.00    -0.099 A  
HETATM   17  C   UNL     1      -7.437   7.866  65.290  1.00  0.00    -0.081 A  
HETATM   18  C   UNL     1      -9.331   9.153  68.377  1.00  0.00    -0.139 C  
HETATM   19  C   UNL     1      -8.096   6.658  65.068  1.00  0.00    -0.124 A  
HETATM   20  C   UNL     1      -8.861   8.312  67.225  1.00  0.00    -0.137 A  
HETATM   21  C   UNL     1      -9.129   6.269  65.915  1.00  0.00    -0.086 A  
HETATM   22  C   UNL     1      -9.508   7.087  66.983  1.00  0.00    -0.184 A  
ENDBRANCH  13  16
ENDBRANCH  10  13
ENDBRANCH   5   9
BRANCH   6  23
HETATM   23  C   UNL     1     -11.363  15.488  71.164  1.00  0.00    -0.442 C  
BRANCH  23  24
HETATM   24  C   UNL     1     -10.798  16.886  71.202  1.00  0.00     1.005 A  
HETATM   25  N   UNL     1     -10.544  19.031  71.794  1.00  0.00     2.795 NA 
HETATM   26  C   UNL     1     -10.000  18.939  70.531  1.00  0.00     1.811 A  
HETATM   27  C   UNL     1     -10.139  17.606  70.144  1.00  0.00     1.089 A  
HETATM   28  C   UNL     1     -10.935  17.795  72.239  1.00  0.00     2.749 A  
HETATM   29  C   UNL     1     -10.774  20.272  72.501  1.00  0.00     6.432 C  
HETATM   30  C   UNL     1      -9.681  17.250  68.862  1.00  0.00    -0.251 A  
HETATM   31  C   UNL     1      -9.031  18.166  68.027  1.00  0.00    -0.283 A  
HETATM   32  C   UNL     1      -8.941  19.497  68.433  1.00  0.00    -0.397 A  
HETATM   33  C   UNL     1      -9.435  19.909  69.683  1.00  0.00     0.287 A  
BRANCH  31  34
HETATM   34  N   UNL     1      -8.444  17.786  66.797  1.00  0.00    -0.239 N  
HETATM   35  H   UNL     1      -8.412  16.789  66.586  1.00  0.00     0.000 HD 
HETATM   36  C   UNL     1      -7.914  18.639  65.864  1.00  0.00    -0.009 C  
HETATM   37  O   UNL     1      -7.820  19.852  65.949  1.00  0.00    -0.348 OA 
BRANCH  36  38
HETATM   38  O   UNL     1      -7.491  17.950  64.763  1.00  0.00     1.612 OA 
BRANCH  38  39
HETATM   39  C   UNL     1      -7.544  16.534  64.953  1.00  0.00     6.043 C  
HETATM   40  C   UNL     1      -6.182  15.887  64.709  1.00  0.00    11.576 C  
HETATM   41  C   UNL     1      -6.315  14.549  65.407  1.00  0.00    12.211 C  
HETATM   42  C   UNL     1      -7.095  14.869  66.678  1.00  0.00     1.293 C  
HETATM   43  C   UNL     1      -7.873  16.159  66.395  1.00  0.00    -0.197 C  
ENDBRANCH  38  39
ENDBRANCH  36  38
ENDBRANCH  31  34
ENDBRANCH  23  24
ENDBRANCH   6  23
ENDBRANCH   2   3
TORSDOF 9
ENDMDL
