MODEL        1
REMARK 921   NORMALIZED FREE ENERGY PREDICTED BY IDOCK:   -6.53 KCAL/MOL
REMARK 922        TOTAL FREE ENERGY PREDICTED BY IDOCK:   -7.62 KCAL/MOL
REMARK 923 INTER-LIGAND FREE ENERGY PREDICTED BY IDOCK:   -7.30 KCAL/MOL
REMARK 924 INTRA-LIGAND FREE ENERGY PREDICTED BY IDOCK:   -0.32 KCAL/MOL
REMARK 927      BINDING AFFINITY PREDICTED BY RF-SCORE:    0.00 PKD
ROOT
HETATM    1  N   UNL     1     -11.528  16.579  63.835  1.00  0.00    -1.599 NA 
HETATM    2  H1  UNL     1     -10.849  17.276  64.141  1.00  0.00     0.000 HD 
HETATM    3  H2  UNL     1     -12.229  16.793  63.126  1.00  0.00     0.000 HD 
HETATM    4  C   UNL     1     -11.454  15.344  64.419  1.00  0.00    -0.255 C  
HETATM    5  N   UNL     1     -12.316  14.459  64.030  1.00  0.00    -0.931 N  
HETATM    6  C   UNL     1     -12.296  13.199  64.584  1.00  0.00    -0.405 C  
HETATM    7  H   UNL     1     -13.006  14.695  63.317  1.00  0.00     0.000 HD 
HETATM    8  N   UNL     1     -11.411  12.948  65.635  1.00  0.00    -0.301 N  
HETATM    9  O   UNL     1     -13.046  12.320  64.162  1.00  0.00    -0.749 OA 
HETATM   10  C   UNL     1     -10.428  15.084  65.446  1.00  0.00    -0.406 C  
HETATM   11  C   UNL     1     -10.474  13.881  66.018  1.00  0.00    -0.298 C  
ENDROOT
BRANCH   8  12
HETATM   12  C   UNL     1     -11.395  11.607  66.192  1.00  0.00    -0.209 C  
HETATM   13  C   UNL     1      -9.999  11.013  66.278  1.00  0.00    -0.269 C  
HETATM   14  C   UNL     1     -10.183   9.936  67.317  1.00  0.00    -0.277 C  
HETATM   15  C   UNL     1     -11.285  10.480  68.223  1.00  0.00    -0.291 C  
HETATM   16  O   UNL     1     -11.897  11.596  67.541  1.00  0.00    -0.591 OA 
BRANCH  15  17
HETATM   17  C   UNL     1     -10.799  10.933  69.601  1.00  0.00    -0.216 C  
HETATM   18  O   UNL     1     -11.482  12.110  70.027  1.00  0.00    -0.499 OA 
HETATM   19  H   UNL     1     -11.180  12.390  70.883  1.00  0.00     0.000 HD 
ENDBRANCH  15  17
ENDBRANCH   8  12
TORSDOF 2
ENDMDL
MODEL        2
REMARK 921   NORMALIZED FREE ENERGY PREDICTED BY IDOCK:   -6.24 KCAL/MOL
REMARK 922        TOTAL FREE ENERGY PREDICTED BY IDOCK:   -7.29 KCAL/MOL
REMARK 923 INTER-LIGAND FREE ENERGY PREDICTED BY IDOCK:   -7.19 KCAL/MOL
REMARK 924 INTRA-LIGAND FREE ENERGY PREDICTED BY IDOCK:   -0.10 KCAL/MOL
REMARK 927      BINDING AFFINITY PREDICTED BY RF-SCORE:    0.00 PKD
ROOT
HETATM    1  N   UNL     1     -12.476  11.657  63.015  1.00  0.00    -0.937 NA 
HETATM    2  H1  UNL     1     -12.284  10.708  63.335  1.00  0.00     0.000 HD 
HETATM    3  H2  UNL     1     -12.937  11.836  62.123  1.00  0.00     0.000 HD 
HETATM    4  C   UNL     1     -12.088  12.679  63.836  1.00  0.00    -0.487 C  
HETATM    5  N   UNL     1     -12.332  13.884  63.430  1.00  0.00    -1.139 N  
HETATM    6  C   UNL     1     -11.960  14.956  64.211  1.00  0.00    -0.338 C  
HETATM    7  H   UNL     1     -12.798  14.038  62.536  1.00  0.00     0.000 HD 
HETATM    8  N   UNL     1     -11.228  14.709  65.374  1.00  0.00    -0.334 N  
HETATM    9  O   UNL     1     -12.266  16.101  63.884  1.00  0.00    -0.935 OA 
HETATM   10  C   UNL     1     -11.416  12.373  65.114  1.00  0.00    -0.379 C  
HETATM   11  C   UNL     1     -11.003  13.425  65.817  1.00  0.00    -0.277 C  
ENDROOT
BRANCH   8  12
HETATM   12  C   UNL     1     -10.862  15.852  66.191  1.00  0.00    -0.208 C  
HETATM   13  C   UNL     1     -10.252  15.461  67.527  1.00  0.00    -0.244 C  
HETATM   14  C   UNL     1      -9.511  16.717  67.909  1.00  0.00    -0.230 C  
HETATM   15  C   UNL     1      -9.110  17.333  66.572  1.00  0.00    -0.265 C  
HETATM   16  O   UNL     1      -9.866  16.662  65.540  1.00  0.00    -0.549 OA 
BRANCH  15  17
HETATM   17  C   UNL     1      -7.617  17.229  66.255  1.00  0.00    -0.325 C  
HETATM   18  O   UNL     1      -7.186  18.319  65.442  1.00  0.00    -0.541 OA 
HETATM   19  H   UNL     1      -6.259  18.255  65.246  1.00  0.00     0.000 HD 
ENDBRANCH  15  17
ENDBRANCH   8  12
TORSDOF 2
ENDMDL
MODEL        3
REMARK 921   NORMALIZED FREE ENERGY PREDICTED BY IDOCK:   -6.16 KCAL/MOL
REMARK 922        TOTAL FREE ENERGY PREDICTED BY IDOCK:   -7.20 KCAL/MOL
REMARK 923 INTER-LIGAND FREE ENERGY PREDICTED BY IDOCK:   -6.86 KCAL/MOL
REMARK 924 INTRA-LIGAND FREE ENERGY PREDICTED BY IDOCK:   -0.34 KCAL/MOL
REMARK 927      BINDING AFFINITY PREDICTED BY RF-SCORE:    0.00 PKD
ROOT
HETATM    1  N   UNL     1     -11.758  16.574  63.879  1.00  0.00    -1.484 NA 
HETATM    2  H1  UNL     1     -11.259  17.298  64.395  1.00  0.00     0.000 HD 
HETATM    3  H2  UNL     1     -12.331  16.798  63.065  1.00  0.00     0.000 HD 
HETATM    4  C   UNL     1     -11.622  15.289  64.327  1.00  0.00    -0.197 C  
HETATM    5  N   UNL     1     -12.255  14.369  63.671  1.00  0.00    -1.068 N  
HETATM    6  C   UNL     1     -12.163  13.056  64.077  1.00  0.00    -0.417 C  
HETATM    7  H   UNL     1     -12.820  14.616  62.858  1.00  0.00     0.000 HD 
HETATM    8  N   UNL     1     -11.472  12.772  65.257  1.00  0.00    -0.313 N  
HETATM    9  O   UNL     1     -12.682  12.161  63.413  1.00  0.00    -0.722 OA 
HETATM   10  C   UNL     1     -10.790  15.015  65.514  1.00  0.00    -0.360 C  
HETATM   11  C   UNL     1     -10.773  13.749  65.928  1.00  0.00    -0.285 C  
ENDROOT
BRANCH   8  12
HETATM   12  C   UNL     1     -11.372  11.380  65.656  1.00  0.00     0.001 C  
HETATM   13  C   UNL     1     -10.060  10.733  65.245  1.00  0.00    -0.353 C  
HETATM   14  C   UNL     1      -9.984   9.558  66.186  1.00  0.00    -0.342 C  
HETATM   15  C   UNL     1     -10.714  10.038  67.437  1.00  0.00    -0.274 C  
HETATM   16  O   UNL     1     -11.433  11.241  67.088  1.00  0.00    -0.460 OA 
BRANCH  15  17
HETATM   17  C   UNL     1      -9.797  10.323  68.628  1.00  0.00    -0.173 C  
HETATM   18  O   UNL     1     -10.088  11.592  69.210  1.00  0.00    -0.415 OA 
HETATM   19  H   UNL     1      -9.519  11.769  69.950  1.00  0.00     0.000 HD 
ENDBRANCH  15  17
ENDBRANCH   8  12
TORSDOF 2
ENDMDL
MODEL        4
REMARK 921   NORMALIZED FREE ENERGY PREDICTED BY IDOCK:   -6.02 KCAL/MOL
REMARK 922        TOTAL FREE ENERGY PREDICTED BY IDOCK:   -7.04 KCAL/MOL
REMARK 923 INTER-LIGAND FREE ENERGY PREDICTED BY IDOCK:   -6.67 KCAL/MOL
REMARK 924 INTRA-LIGAND FREE ENERGY PREDICTED BY IDOCK:   -0.37 KCAL/MOL
REMARK 927      BINDING AFFINITY PREDICTED BY RF-SCORE:    0.00 PKD
ROOT
HETATM    1  N   UNL     1     -12.679  11.809  62.993  1.00  0.00    -0.866 NA 
HETATM    2  H1  UNL     1     -12.505  10.857  63.313  1.00  0.00     0.000 HD 
HETATM    3  H2  UNL     1     -13.201  11.998  62.138  1.00  0.00     0.000 HD 
HETATM    4  C   UNL     1     -12.181  12.823  63.765  1.00  0.00    -0.489 C  
HETATM    5  N   UNL     1     -12.402  14.033  63.359  1.00  0.00    -1.154 N  
HETATM    6  C   UNL     1     -11.921  15.096  64.090  1.00  0.00    -0.170 C  
HETATM    7  H   UNL     1     -12.930  14.197  62.502  1.00  0.00     0.000 HD 
HETATM    8  N   UNL     1     -11.110  14.830  65.196  1.00  0.00    -0.362 N  
HETATM    9  O   UNL     1     -12.200  16.250  63.770  1.00  0.00    -0.923 OA 
HETATM   10  C   UNL     1     -11.424  12.502  64.990  1.00  0.00    -0.368 C  
HETATM   11  C   UNL     1     -10.909  13.544  65.641  1.00  0.00    -0.287 C  
ENDROOT
BRANCH   8  12
HETATM   12  C   UNL     1     -10.629  15.966  65.962  1.00  0.00    -0.323 C  
HETATM   13  C   UNL     1     -10.640  15.722  67.462  1.00  0.00    -0.309 C  
HETATM   14  C   UNL     1      -9.655  16.753  67.952  1.00  0.00    -0.236 C  
HETATM   15  C   UNL     1      -8.671  16.904  66.794  1.00  0.00    -0.232 C  
HETATM   16  O   UNL     1      -9.261  16.275  65.636  1.00  0.00    -0.444 OA 
BRANCH  15  17
HETATM   17  C   UNL     1      -7.294  16.293  67.056  1.00  0.00    -0.229 C  
HETATM   18  O   UNL     1      -7.276  14.904  66.731  1.00  0.00    -0.282 OA 
HETATM   19  H   UNL     1      -6.420  14.525  66.893  1.00  0.00     0.000 HD 
ENDBRANCH  15  17
ENDBRANCH   8  12
TORSDOF 2
ENDMDL
MODEL        5
REMARK 921   NORMALIZED FREE ENERGY PREDICTED BY IDOCK:   -5.91 KCAL/MOL
REMARK 922        TOTAL FREE ENERGY PREDICTED BY IDOCK:   -6.92 KCAL/MOL
REMARK 923 INTER-LIGAND FREE ENERGY PREDICTED BY IDOCK:   -6.64 KCAL/MOL
REMARK 924 INTRA-LIGAND FREE ENERGY PREDICTED BY IDOCK:   -0.28 KCAL/MOL
REMARK 927      BINDING AFFINITY PREDICTED BY RF-SCORE:    0.00 PKD
ROOT
HETATM    1  N   UNL     1     -10.181  12.696  65.065  1.00  0.00    -0.339 NA 
HETATM    2  H1  UNL     1      -9.761  12.061  65.743  1.00  0.00     0.000 HD 
HETATM    3  H2  UNL     1     -10.520  12.365  64.162  1.00  0.00     0.000 HD 
HETATM    4  C   UNL     1     -10.270  14.014  65.422  1.00  0.00    -0.347 C  
HETATM    5  N   UNL     1     -10.804  14.821  64.562  1.00  0.00    -0.625 N  
HETATM    6  C   UNL     1     -10.917  16.160  64.861  1.00  0.00    -0.349 C  
HETATM    7  H   UNL     1     -11.140  14.466  63.666  1.00  0.00     0.000 HD 
HETATM    8  N   UNL     1     -10.347  16.626  66.048  1.00  0.00    -0.342 N  
HETATM    9  O   UNL     1     -11.503  16.923  64.095  1.00  0.00    -1.174 OA 
HETATM   10  C   UNL     1      -9.757  14.449  66.735  1.00  0.00    -0.278 C  
HETATM   11  C   UNL     1      -9.813  15.758  66.973  1.00  0.00    -0.234 C  
ENDROOT
BRANCH   8  12
HETATM   12  C   UNL     1     -10.493  18.039  66.352  1.00  0.00    -0.339 C  
HETATM   13  C   UNL     1     -10.609  18.321  67.840  1.00  0.00    -0.392 C  
HETATM   14  C   UNL     1     -10.220  19.776  67.912  1.00  0.00    -0.576 C  
HETATM   15  C   UNL     1      -9.238  19.954  66.757  1.00  0.00    -0.378 C  
HETATM   16  O   UNL     1      -9.346  18.790  65.910  1.00  0.00    -0.466 OA 
BRANCH  15  17
HETATM   17  C   UNL     1      -7.782  20.131  67.192  1.00  0.00    -0.308 C  
HETATM   18  O   UNL     1      -7.057  20.922  66.254  1.00  0.00    -0.490 OA 
HETATM   19  H   UNL     1      -6.153  21.033  66.524  1.00  0.00     0.000 HD 
ENDBRANCH  15  17
ENDBRANCH   8  12
TORSDOF 2
ENDMDL
MODEL        6
REMARK 921   NORMALIZED FREE ENERGY PREDICTED BY IDOCK:   -5.82 KCAL/MOL
REMARK 922        TOTAL FREE ENERGY PREDICTED BY IDOCK:   -6.83 KCAL/MOL
REMARK 923 INTER-LIGAND FREE ENERGY PREDICTED BY IDOCK:   -6.55 KCAL/MOL
REMARK 924 INTRA-LIGAND FREE ENERGY PREDICTED BY IDOCK:   -0.27 KCAL/MOL
REMARK 927      BINDING AFFINITY PREDICTED BY RF-SCORE:    0.00 PKD
ROOT
HETATM    1  N   UNL     1     -12.810  12.752  71.953  1.00  0.00    -0.248 NA 
HETATM    2  H1  UNL     1     -12.980  13.617  72.464  1.00  0.00     0.000 HD 
HETATM    3  H2  UNL     1     -12.892  11.841  72.403  1.00  0.00     0.000 HD 
HETATM    4  C   UNL     1     -12.468  12.869  70.633  1.00  0.00    -0.252 C  
HETATM    5  N   UNL     1     -12.252  11.771  69.983  1.00  0.00    -0.271 N  
HETATM    6  C   UNL     1     -11.899  11.824  68.653  1.00  0.00    -0.310 C  
HETATM    7  H   UNL     1     -12.343  10.870  70.454  1.00  0.00     0.000 HD 
HETATM    8  N   UNL     1     -11.676  13.075  68.073  1.00  0.00    -0.340 N  
HETATM    9  O   UNL     1     -11.781  10.790  67.998  1.00  0.00    -0.528 OA 
HETATM   10  C   UNL     1     -12.353  14.209  70.026  1.00  0.00    -0.403 C  
HETATM   11  C   UNL     1     -11.942  14.238  68.760  1.00  0.00    -0.311 C  
ENDROOT
BRANCH   8  12
HETATM   12  C   UNL     1     -11.322  13.108  66.665  1.00  0.00    -0.325 C  
HETATM   13  C   UNL     1     -12.526  13.259  65.750  1.00  0.00    -0.480 C  
HETATM   14  C   UNL     1     -11.892  13.784  64.487  1.00  0.00    -0.445 C  
HETATM   15  C   UNL     1     -10.686  14.579  64.981  1.00  0.00    -0.427 C  
HETATM   16  O   UNL     1     -10.472  14.231  66.366  1.00  0.00    -0.274 OA 
BRANCH  15  17
HETATM   17  C   UNL     1     -10.839  16.095  64.857  1.00  0.00    -0.334 C  
HETATM   18  O   UNL     1     -11.648  16.442  63.735  1.00  0.00    -1.605 OA 
HETATM   19  H   UNL     1     -11.744  17.384  63.659  1.00  0.00     0.000 HD 
ENDBRANCH  15  17
ENDBRANCH   8  12
TORSDOF 2
ENDMDL
MODEL        7
REMARK 921   NORMALIZED FREE ENERGY PREDICTED BY IDOCK:   -5.82 KCAL/MOL
REMARK 922        TOTAL FREE ENERGY PREDICTED BY IDOCK:   -6.82 KCAL/MOL
REMARK 923 INTER-LIGAND FREE ENERGY PREDICTED BY IDOCK:   -6.54 KCAL/MOL
REMARK 924 INTRA-LIGAND FREE ENERGY PREDICTED BY IDOCK:   -0.28 KCAL/MOL
REMARK 927      BINDING AFFINITY PREDICTED BY RF-SCORE:    0.00 PKD
ROOT
HETATM    1  N   UNL     1     -10.394  10.954  62.589  1.00  0.00    -0.766 NA 
HETATM    2  H1  UNL     1      -9.818  10.145  62.822  1.00  0.00     0.000 HD 
HETATM    3  H2  UNL     1     -10.696  11.136  61.633  1.00  0.00     0.000 HD 
HETATM    4  C   UNL     1     -10.743  11.783  63.620  1.00  0.00    -0.440 C  
HETATM    5  N   UNL     1     -11.474  12.810  63.326  1.00  0.00    -0.782 N  
HETATM    6  C   UNL     1     -11.854  13.684  64.320  1.00  0.00    -0.425 C  
HETATM    7  H   UNL     1     -11.768  12.970  62.362  1.00  0.00     0.000 HD 
HETATM    8  N   UNL     1     -11.342  13.493  65.605  1.00  0.00    -0.297 N  
HETATM    9  O   UNL     1     -12.623  14.612  64.073  1.00  0.00    -0.819 OA 
HETATM   10  C   UNL     1     -10.275  11.483  64.987  1.00  0.00    -0.328 C  
HETATM   11  C   UNL     1     -10.595  12.380  65.918  1.00  0.00    -0.258 C  
ENDROOT
BRANCH   8  12
HETATM   12  C   UNL     1     -11.770  14.416  66.641  1.00  0.00    -0.394 C  
HETATM   13  C   UNL     1     -11.945  13.753  67.997  1.00  0.00    -0.390 C  
HETATM   14  C   UNL     1     -11.856  14.932  68.933  1.00  0.00    -0.334 C  
HETATM   15  C   UNL     1     -10.926  15.906  68.214  1.00  0.00    -0.329 C  
HETATM   16  O   UNL     1     -10.796  15.456  66.848  1.00  0.00    -0.313 OA 
BRANCH  15  17
HETATM   17  C   UNL     1      -9.537  16.028  68.842  1.00  0.00    -0.236 C  
HETATM   18  O   UNL     1      -9.203  14.857  69.585  1.00  0.00    -0.434 OA 
HETATM   19  H   UNL     1      -8.340  14.933  69.975  1.00  0.00     0.000 HD 
ENDBRANCH  15  17
ENDBRANCH   8  12
TORSDOF 2
ENDMDL
MODEL        8
REMARK 921   NORMALIZED FREE ENERGY PREDICTED BY IDOCK:   -5.71 KCAL/MOL
REMARK 922        TOTAL FREE ENERGY PREDICTED BY IDOCK:   -6.70 KCAL/MOL
REMARK 923 INTER-LIGAND FREE ENERGY PREDICTED BY IDOCK:   -6.66 KCAL/MOL
REMARK 924 INTRA-LIGAND FREE ENERGY PREDICTED BY IDOCK:   -0.04 KCAL/MOL
REMARK 927      BINDING AFFINITY PREDICTED BY RF-SCORE:    0.00 PKD
ROOT
HETATM    1  N   UNL     1     -13.577  16.058  73.561  1.00  0.00    -0.844 NA 
HETATM    2  H1  UNL     1     -14.153  15.432  74.122  1.00  0.00     0.000 HD 
HETATM    3  H2  UNL     1     -13.449  17.038  73.814  1.00  0.00     0.000 HD 
HETATM    4  C   UNL     1     -12.981  15.524  72.451  1.00  0.00    -0.421 C  
HETATM    5  N   UNL     1     -12.249  16.319  71.738  1.00  0.00    -0.618 N  
HETATM    6  C   UNL     1     -11.628  15.841  70.606  1.00  0.00    -0.390 C  
HETATM    7  H   UNL     1     -12.133  17.294  72.013  1.00  0.00     0.000 HD 
HETATM    8  N   UNL     1     -11.898  14.532  70.200  1.00  0.00    -0.290 N  
HETATM    9  O   UNL     1     -10.856  16.556  69.969  1.00  0.00    -0.344 OA 
HETATM   10  C   UNL     1     -13.201  14.103  72.118  1.00  0.00    -0.510 C  
HETATM   11  C   UNL     1     -12.648  13.683  70.982  1.00  0.00    -0.363 C  
ENDROOT
BRANCH   8  12
HETATM   12  C   UNL     1     -11.218  14.043  69.014  1.00  0.00    -0.276 C  
HETATM   13  C   UNL     1     -11.539  12.593  68.696  1.00  0.00    -0.356 C  
HETATM   14  C   UNL     1     -11.180  12.508  67.234  1.00  0.00    -0.347 C  
HETATM   15  C   UNL     1     -11.452  13.914  66.704  1.00  0.00    -0.355 C  
HETATM   16  O   UNL     1     -11.610  14.786  67.844  1.00  0.00    -0.328 OA 
BRANCH  15  17
HETATM   17  C   UNL     1     -12.688  14.020  65.809  1.00  0.00    -0.450 C  
HETATM   18  O   UNL     1     -12.935  12.794  65.124  1.00  0.00    -0.768 OA 
HETATM   19  H   UNL     1     -13.703  12.860  64.569  1.00  0.00     0.000 HD 
ENDBRANCH  15  17
ENDBRANCH   8  12
TORSDOF 2
ENDMDL
MODEL        9
REMARK 921   NORMALIZED FREE ENERGY PREDICTED BY IDOCK:   -5.71 KCAL/MOL
REMARK 922        TOTAL FREE ENERGY PREDICTED BY IDOCK:   -6.70 KCAL/MOL
REMARK 923 INTER-LIGAND FREE ENERGY PREDICTED BY IDOCK:   -6.41 KCAL/MOL
REMARK 924 INTRA-LIGAND FREE ENERGY PREDICTED BY IDOCK:   -0.29 KCAL/MOL
REMARK 927      BINDING AFFINITY PREDICTED BY RF-SCORE:    0.00 PKD
ROOT
HETATM    1  N   UNL     1     -12.473  14.644  72.570  1.00  0.00    -0.317 NA 
HETATM    2  H1  UNL     1     -12.608  15.602  72.892  1.00  0.00     0.000 HD 
HETATM    3  H2  UNL     1     -12.539  13.852  73.209  1.00  0.00     0.000 HD 
HETATM    4  C   UNL     1     -12.200  14.470  71.241  1.00  0.00    -0.355 C  
HETATM    5  N   UNL     1     -12.029  13.254  70.831  1.00  0.00    -0.474 N  
HETATM    6  C   UNL     1     -11.746  13.014  69.505  1.00  0.00    -0.317 C  
HETATM    7  H   UNL     1     -12.103  12.477  71.488  1.00  0.00     0.000 HD 
HETATM    8  N   UNL     1     -11.543  14.108  68.660  1.00  0.00    -0.296 N  
HETATM    9  O   UNL     1     -11.671  11.862  69.082  1.00  0.00    -0.273 OA 
HETATM   10  C   UNL     1     -12.106  15.647  70.356  1.00  0.00    -0.425 C  
HETATM   11  C   UNL     1     -11.762  15.396  69.094  1.00  0.00    -0.345 C  
ENDROOT
BRANCH   8  12
HETATM   12  C   UNL     1     -11.264  13.832  67.262  1.00  0.00    -0.311 C  
HETATM   13  C   UNL     1     -12.504  13.870  66.386  1.00  0.00    -0.414 C  
HETATM   14  C   UNL     1     -11.912  14.087  65.017  1.00  0.00    -0.409 C  
HETATM   15  C   UNL     1     -10.641  14.888  65.286  1.00  0.00    -0.401 C  
HETATM   16  O   UNL     1     -10.372  14.815  66.704  1.00  0.00    -0.265 OA 
BRANCH  15  17
HETATM   17  C   UNL     1     -10.720  16.355  64.860  1.00  0.00    -0.191 C  
HETATM   18  O   UNL     1     -11.566  16.515  63.723  1.00  0.00    -1.617 OA 
HETATM   19  H   UNL     1     -11.615  17.426  63.458  1.00  0.00     0.000 HD 
ENDBRANCH  15  17
ENDBRANCH   8  12
TORSDOF 2
ENDMDL
MODEL       10
REMARK 921   NORMALIZED FREE ENERGY PREDICTED BY IDOCK:   -5.70 KCAL/MOL
REMARK 922        TOTAL FREE ENERGY PREDICTED BY IDOCK:   -6.69 KCAL/MOL
REMARK 923 INTER-LIGAND FREE ENERGY PREDICTED BY IDOCK:   -6.37 KCAL/MOL
REMARK 924 INTRA-LIGAND FREE ENERGY PREDICTED BY IDOCK:   -0.32 KCAL/MOL
REMARK 927      BINDING AFFINITY PREDICTED BY RF-SCORE:    0.00 PKD
ROOT
HETATM    1  N   UNL     1     -11.379   8.942  70.200  1.00  0.00    -0.423 NA 
HETATM    2  H1  UNL     1     -11.718   8.212  70.827  1.00  0.00     0.000 HD 
HETATM    3  H2  UNL     1     -10.736   8.734  69.436  1.00  0.00     0.000 HD 
HETATM    4  C   UNL     1     -11.828  10.214  70.430  1.00  0.00    -0.288 C  
HETATM    5  N   UNL     1     -11.399  11.140  69.634  1.00  0.00    -0.275 N  
HETATM    6  C   UNL     1     -11.811  12.442  69.818  1.00  0.00    -0.317 C  
HETATM    7  H   UNL     1     -10.759  10.908  68.875  1.00  0.00     0.000 HD 
HETATM    8  N   UNL     1     -12.598  12.739  70.933  1.00  0.00    -0.311 N  
HETATM    9  O   UNL     1     -11.486  13.317  69.017  1.00  0.00    -0.265 OA 
HETATM   10  C   UNL     1     -12.751  10.469  71.552  1.00  0.00    -0.558 C  
HETATM   11  C   UNL     1     -13.079  11.744  71.753  1.00  0.00    -0.375 C  
ENDROOT
BRANCH   8  12
HETATM   12  C   UNL     1     -13.035  14.114  71.096  1.00  0.00    -0.349 C  
HETATM   13  C   UNL     1     -14.330  14.239  71.881  1.00  0.00    -0.597 C  
HETATM   14  C   UNL     1     -14.272  15.671  72.350  1.00  0.00    -0.521 C  
HETATM   15  C   UNL     1     -12.779  15.952  72.497  1.00  0.00    -0.444 C  
HETATM   16  O   UNL     1     -12.067  14.886  71.832  1.00  0.00    -0.339 OA 
BRANCH  15  17
HETATM   17  C   UNL     1     -12.299  16.055  73.946  1.00  0.00    -0.584 C  
HETATM   18  O   UNL     1     -12.238  14.770  74.561  1.00  0.00    -0.728 OA 
HETATM   19  H   UNL     1     -11.939  14.835  75.461  1.00  0.00     0.000 HD 
ENDBRANCH  15  17
ENDBRANCH   8  12
TORSDOF 2
ENDMDL
MODEL       11
REMARK 921   NORMALIZED FREE ENERGY PREDICTED BY IDOCK:   -5.62 KCAL/MOL
REMARK 922        TOTAL FREE ENERGY PREDICTED BY IDOCK:   -6.60 KCAL/MOL
REMARK 923 INTER-LIGAND FREE ENERGY PREDICTED BY IDOCK:   -6.42 KCAL/MOL
REMARK 924 INTRA-LIGAND FREE ENERGY PREDICTED BY IDOCK:   -0.18 KCAL/MOL
REMARK 927      BINDING AFFINITY PREDICTED BY RF-SCORE:    0.00 PKD
ROOT
HETATM    1  N   UNL     1     -13.126  15.807  72.421  1.00  0.00    -0.457 NA 
HETATM    2  H1  UNL     1     -13.816  15.118  72.717  1.00  0.00     0.000 HD 
HETATM    3  H2  UNL     1     -12.957  16.658  72.957  1.00  0.00     0.000 HD 
HETATM    4  C   UNL     1     -12.435  15.538  71.271  1.00  0.00    -0.425 C  
HETATM    5  N   UNL     1     -11.558  16.413  70.894  1.00  0.00    -0.579 N  
HETATM    6  C   UNL     1     -10.835  16.201  69.742  1.00  0.00    -0.333 C  
HETATM    7  H   UNL     1     -11.404  17.255  71.448  1.00  0.00     0.000 HD 
HETATM    8  N   UNL     1     -11.151  15.093  68.952  1.00  0.00    -0.256 N  
HETATM    9  O   UNL     1      -9.935  16.975  69.419  1.00  0.00    -0.203 OA 
HETATM   10  C   UNL     1     -12.719  14.298  70.524  1.00  0.00    -0.391 C  
HETATM   11  C   UNL     1     -12.059  14.150  69.377  1.00  0.00    -0.328 C  
ENDROOT
BRANCH   8  12
HETATM   12  C   UNL     1     -10.364  14.880  67.751  1.00  0.00    -0.244 C  
HETATM   13  C   UNL     1     -10.523  13.484  67.172  1.00  0.00    -0.256 C  
HETATM   14  C   UNL     1     -10.080  13.686  65.746  1.00  0.00    -0.311 C  
HETATM   15  C   UNL     1     -10.460  15.132  65.442  1.00  0.00    -0.393 C  
HETATM   16  O   UNL     1     -10.764  15.776  66.698  1.00  0.00    -0.314 OA 
BRANCH  15  17
HETATM   17  C   UNL     1     -11.650  15.283  64.493  1.00  0.00    -0.312 C  
HETATM   18  O   UNL     1     -11.586  16.515  63.777  1.00  0.00    -1.617 OA 
HETATM   19  H   UNL     1     -12.325  16.608  63.188  1.00  0.00     0.000 HD 
ENDBRANCH  15  17
ENDBRANCH   8  12
TORSDOF 2
ENDMDL
MODEL       12
REMARK 921   NORMALIZED FREE ENERGY PREDICTED BY IDOCK:   -5.59 KCAL/MOL
REMARK 922        TOTAL FREE ENERGY PREDICTED BY IDOCK:   -6.56 KCAL/MOL
REMARK 923 INTER-LIGAND FREE ENERGY PREDICTED BY IDOCK:   -6.35 KCAL/MOL
REMARK 924 INTRA-LIGAND FREE ENERGY PREDICTED BY IDOCK:   -0.22 KCAL/MOL
REMARK 927      BINDING AFFINITY PREDICTED BY RF-SCORE:    0.00 PKD
ROOT
HETATM    1  N   UNL     1     -12.408  13.725  63.196  1.00  0.00    -1.106 NA 
HETATM    2  H1  UNL     1     -12.213  14.544  62.621  1.00  0.00     0.000 HD 
HETATM    3  H2  UNL     1     -12.863  12.897  62.809  1.00  0.00     0.000 HD 
HETATM    4  C   UNL     1     -12.032  13.785  64.510  1.00  0.00    -0.427 C  
HETATM    5  N   UNL     1     -12.280  12.745  65.240  1.00  0.00    -0.464 N  
HETATM    6  C   UNL     1     -11.929  12.748  66.571  1.00  0.00    -0.358 C  
HETATM    7  H   UNL     1     -12.732  11.928  64.830  1.00  0.00     0.000 HD 
HETATM    8  N   UNL     1     -11.414  13.924  67.121  1.00  0.00    -0.329 N  
HETATM    9  O   UNL     1     -12.074  11.736  67.256  1.00  0.00    -0.595 OA 
HETATM   10  C   UNL     1     -11.385  15.006  65.027  1.00  0.00    -0.395 C  
HETATM   11  C   UNL     1     -11.120  15.012  66.332  1.00  0.00    -0.329 C  
ENDROOT
BRANCH   8  12
HETATM   12  C   UNL     1     -11.035  13.898  68.523  1.00  0.00    -0.257 C  
HETATM   13  C   UNL     1     -10.128  15.052  68.918  1.00  0.00    -0.234 C  
HETATM   14  C   UNL     1     -10.322  15.102  70.412  1.00  0.00    -0.020 C  
HETATM   15  C   UNL     1     -11.752  14.610  70.617  1.00  0.00    -0.281 C  
HETATM   16  O   UNL     1     -12.188  14.010  69.378  1.00  0.00    -0.336 OA 
BRANCH  15  17
HETATM   17  C   UNL     1     -12.740  15.704  71.024  1.00  0.00    -0.460 C  
HETATM   18  O   UNL     1     -14.081  15.330  70.713  1.00  0.00    -0.754 OA 
HETATM   19  H   UNL     1     -14.694  16.010  70.967  1.00  0.00     0.000 HD 
ENDBRANCH  15  17
ENDBRANCH   8  12
TORSDOF 2
ENDMDL
MODEL       13
REMARK 921   NORMALIZED FREE ENERGY PREDICTED BY IDOCK:   -5.56 KCAL/MOL
REMARK 922        TOTAL FREE ENERGY PREDICTED BY IDOCK:   -6.54 KCAL/MOL
REMARK 923 INTER-LIGAND FREE ENERGY PREDICTED BY IDOCK:   -6.73 KCAL/MOL
REMARK 924 INTRA-LIGAND FREE ENERGY PREDICTED BY IDOCK:    0.20 KCAL/MOL
REMARK 927      BINDING AFFINITY PREDICTED BY RF-SCORE:    0.00 PKD
ROOT
HETATM    1  N   UNL     1     -12.533  13.615  63.169  1.00  0.00    -1.045 NA 
HETATM    2  H1  UNL     1     -12.949  12.692  63.293  1.00  0.00     0.000 HD 
HETATM    3  H2  UNL     1     -12.519  14.077  62.260  1.00  0.00     0.000 HD 
HETATM    4  C   UNL     1     -11.994  14.205  64.280  1.00  0.00    -0.435 C  
HETATM    5  N   UNL     1     -11.466  15.377  64.123  1.00  0.00    -0.749 N  
HETATM    6  C   UNL     1     -10.902  16.020  65.203  1.00  0.00    -0.395 C  
HETATM    7  H   UNL     1     -11.467  15.821  63.205  1.00  0.00     0.000 HD 
HETATM    8  N   UNL     1     -10.821  15.335  66.417  1.00  0.00    -0.318 N  
HETATM    9  O   UNL     1     -10.479  17.170  65.092  1.00  0.00    -0.666 OA 
HETATM   10  C   UNL     1     -12.029  13.495  65.572  1.00  0.00    -0.420 C  
HETATM   11  C   UNL     1     -11.416  14.105  66.585  1.00  0.00    -0.366 C  
ENDROOT
BRANCH   8  12
HETATM   12  C   UNL     1     -10.240  16.039  67.546  1.00  0.00    -0.275 C  
HETATM   13  C   UNL     1      -8.805  16.476  67.303  1.00  0.00    -0.206 C  
HETATM   14  C   UNL     1      -8.638  17.577  68.320  1.00  0.00    -0.266 C  
HETATM   15  C   UNL     1     -10.038  18.169  68.456  1.00  0.00    -0.400 C  
HETATM   16  O   UNL     1     -10.963  17.250  67.835  1.00  0.00    -0.336 OA 
BRANCH  15  17
HETATM   17  C   UNL     1     -10.199  19.554  67.826  1.00  0.00    -0.429 C  
HETATM   18  O   UNL     1     -10.637  19.455  66.472  1.00  0.00    -0.429 OA 
HETATM   19  H   UNL     1     -10.737  20.315  66.081  1.00  0.00     0.000 HD 
ENDBRANCH  15  17
ENDBRANCH   8  12
TORSDOF 2
ENDMDL
MODEL       14
REMARK 921   NORMALIZED FREE ENERGY PREDICTED BY IDOCK:   -5.56 KCAL/MOL
REMARK 922        TOTAL FREE ENERGY PREDICTED BY IDOCK:   -6.54 KCAL/MOL
REMARK 923 INTER-LIGAND FREE ENERGY PREDICTED BY IDOCK:   -6.27 KCAL/MOL
REMARK 924 INTRA-LIGAND FREE ENERGY PREDICTED BY IDOCK:   -0.27 KCAL/MOL
REMARK 927      BINDING AFFINITY PREDICTED BY RF-SCORE:    0.00 PKD
ROOT
HETATM    1  N   UNL     1     -10.922   9.701  71.090  1.00  0.00    -0.360 NA 
HETATM    2  H1  UNL     1     -10.557   8.773  70.877  1.00  0.00     0.000 HD 
HETATM    3  H2  UNL     1     -11.134   9.984  72.046  1.00  0.00     0.000 HD 
HETATM    4  C   UNL     1     -11.115  10.549  70.033  1.00  0.00    -0.308 C  
HETATM    5  N   UNL     1     -11.578  11.727  70.303  1.00  0.00    -0.517 N  
HETATM    6  C   UNL     1     -11.798  12.624  69.282  1.00  0.00    -0.302 C  
HETATM    7  H   UNL     1     -11.780  11.989  71.268  1.00  0.00     0.000 HD 
HETATM    8  N   UNL     1     -11.616  12.191  67.966  1.00  0.00    -0.330 N  
HETATM    9  O   UNL     1     -12.151  13.776  69.528  1.00  0.00    -0.324 OA 
HETATM   10  C   UNL     1     -10.802  10.092  68.666  1.00  0.00    -0.265 C  
HETATM   11  C   UNL     1     -11.089  10.950  67.689  1.00  0.00    -0.313 C  
ENDROOT
BRANCH   8  12
HETATM   12  C   UNL     1     -11.836  13.158  66.906  1.00  0.00    -0.386 C  
HETATM   13  C   UNL     1     -10.560  13.842  66.446  1.00  0.00    -0.280 C  
HETATM   14  C   UNL     1     -10.950  14.342  65.079  1.00  0.00    -0.398 C  
HETATM   15  C   UNL     1     -11.976  13.323  64.591  1.00  0.00    -0.394 C  
HETATM   16  O   UNL     1     -12.377  12.529  65.729  1.00  0.00    -0.627 OA 
BRANCH  15  17
HETATM   17  C   UNL     1     -11.467  12.400  63.483  1.00  0.00    -0.483 C  
HETATM   18  O   UNL     1     -12.518  11.584  62.969  1.00  0.00    -0.982 OA 
HETATM   19  H   UNL     1     -12.201  11.011  62.281  1.00  0.00     0.000 HD 
ENDBRANCH  15  17
ENDBRANCH   8  12
TORSDOF 2
ENDMDL
MODEL       15
REMARK 921   NORMALIZED FREE ENERGY PREDICTED BY IDOCK:   -5.54 KCAL/MOL
REMARK 922        TOTAL FREE ENERGY PREDICTED BY IDOCK:   -6.51 KCAL/MOL
REMARK 923 INTER-LIGAND FREE ENERGY PREDICTED BY IDOCK:   -6.22 KCAL/MOL
REMARK 924 INTRA-LIGAND FREE ENERGY PREDICTED BY IDOCK:   -0.28 KCAL/MOL
REMARK 927      BINDING AFFINITY PREDICTED BY RF-SCORE:    0.00 PKD
ROOT
HETATM    1  N   UNL     1     -11.542   9.965  70.842  1.00  0.00    -0.343 NA 
HETATM    2  H1  UNL     1     -11.836  10.569  71.609  1.00  0.00     0.000 HD 
HETATM    3  H2  UNL     1     -11.315   8.983  70.994  1.00  0.00     0.000 HD 
HETATM    4  C   UNL     1     -11.466  10.533  69.600  1.00  0.00    -0.282 C  
HETATM    5  N   UNL     1     -11.093   9.767  68.626  1.00  0.00    -0.454 N  
HETATM    6  C   UNL     1     -10.993  10.282  67.353  1.00  0.00    -0.252 C  
HETATM    7  H   UNL     1     -10.875   8.786  68.800  1.00  0.00     0.000 HD 
HETATM    8  N   UNL     1     -11.193  11.653  67.172  1.00  0.00    -0.297 N  
HETATM    9  O   UNL     1     -10.730   9.548  66.402  1.00  0.00    -0.067 OA 
HETATM   10  C   UNL     1     -11.796  11.961  69.431  1.00  0.00    -0.389 C  
HETATM   11  C   UNL     1     -11.624  12.454  68.205  1.00  0.00    -0.333 C  
ENDROOT
BRANCH   8  12
HETATM   12  C   UNL     1     -11.100  12.171  65.819  1.00  0.00    -0.319 C  
HETATM   13  C   UNL     1     -12.451  12.517  65.217  1.00  0.00    -0.390 C  
HETATM   14  C   UNL     1     -12.067  13.474  64.118  1.00  0.00    -0.488 C  
HETATM   15  C   UNL     1     -10.808  14.156  64.645  1.00  0.00    -0.386 C  
HETATM   16  O   UNL     1     -10.341  13.394  65.779  1.00  0.00    -0.282 OA 
BRANCH  15  17
HETATM   17  C   UNL     1     -11.012  15.613  65.064  1.00  0.00    -0.431 C  
HETATM   18  O   UNL     1     -11.296  16.439  63.936  1.00  0.00    -1.510 OA 
HETATM   19  H   UNL     1     -11.423  17.343  64.197  1.00  0.00     0.000 HD 
ENDBRANCH  15  17
ENDBRANCH   8  12
TORSDOF 2
ENDMDL
MODEL       16
REMARK 921   NORMALIZED FREE ENERGY PREDICTED BY IDOCK:   -5.52 KCAL/MOL
REMARK 922        TOTAL FREE ENERGY PREDICTED BY IDOCK:   -6.49 KCAL/MOL
REMARK 923 INTER-LIGAND FREE ENERGY PREDICTED BY IDOCK:   -6.21 KCAL/MOL
REMARK 924 INTRA-LIGAND FREE ENERGY PREDICTED BY IDOCK:   -0.28 KCAL/MOL
REMARK 927      BINDING AFFINITY PREDICTED BY RF-SCORE:    0.00 PKD
ROOT
HETATM    1  N   UNL     1     -12.536  10.607  71.691  1.00  0.00    -0.400 NA 
HETATM    2  H1  UNL     1     -12.423   9.610  71.510  1.00  0.00     0.000 HD 
HETATM    3  H2  UNL     1     -12.839  10.953  72.602  1.00  0.00     0.000 HD 
HETATM    4  C   UNL     1     -12.264  11.460  70.656  1.00  0.00    -0.389 C  
HETATM    5  N   UNL     1     -12.408  12.726  70.886  1.00  0.00    -0.399 N  
HETATM    6  C   UNL     1     -12.154  13.634  69.882  1.00  0.00    -0.341 C  
HETATM    7  H   UNL     1     -12.708  13.049  71.806  1.00  0.00     0.000 HD 
HETATM    8  N   UNL     1     -11.853  13.149  68.607  1.00  0.00    -0.325 N  
HETATM    9  O   UNL     1     -12.197  14.842  70.109  1.00  0.00    -0.304 OA 
HETATM   10  C   UNL     1     -11.838  10.912  69.354  1.00  0.00    -0.400 C  
HETATM   11  C   UNL     1     -11.667  11.804  68.380  1.00  0.00    -0.325 C  
ENDROOT
BRANCH   8  12
HETATM   12  C   UNL     1     -11.571  14.124  67.569  1.00  0.00    -0.367 C  
HETATM   13  C   UNL     1     -10.172  13.995  66.992  1.00  0.00    -0.261 C  
HETATM   14  C   UNL     1     -10.317  14.694  65.664  1.00  0.00    -0.370 C  
HETATM   15  C   UNL     1     -11.773  14.453  65.276  1.00  0.00    -0.364 C  
HETATM   16  O   UNL     1     -12.461  13.966  66.448  1.00  0.00    -0.441 OA 
BRANCH  15  17
HETATM   17  C   UNL     1     -11.960  13.458  64.128  1.00  0.00    -0.450 C  
HETATM   18  O   UNL     1     -12.453  14.109  62.959  1.00  0.00    -1.077 OA 
HETATM   19  H   UNL     1     -12.569  13.491  62.246  1.00  0.00     0.000 HD 
ENDBRANCH  15  17
ENDBRANCH   8  12
TORSDOF 2
ENDMDL
MODEL       17
REMARK 921   NORMALIZED FREE ENERGY PREDICTED BY IDOCK:   -5.49 KCAL/MOL
REMARK 922        TOTAL FREE ENERGY PREDICTED BY IDOCK:   -6.46 KCAL/MOL
REMARK 923 INTER-LIGAND FREE ENERGY PREDICTED BY IDOCK:   -6.41 KCAL/MOL
REMARK 924 INTRA-LIGAND FREE ENERGY PREDICTED BY IDOCK:   -0.05 KCAL/MOL
REMARK 927      BINDING AFFINITY PREDICTED BY RF-SCORE:    0.00 PKD
ROOT
HETATM    1  N   UNL     1     -10.517  14.952  70.550  1.00  0.00    -0.496 NA 
HETATM    2  H1  UNL     1     -10.248  15.934  70.592  1.00  0.00     0.000 HD 
HETATM    3  H2  UNL     1     -10.473  14.350  71.372  1.00  0.00     0.000 HD 
HETATM    4  C   UNL     1     -10.939  14.477  69.338  1.00  0.00    -0.249 C  
HETATM    5  N   UNL     1     -11.281  13.229  69.284  1.00  0.00    -0.383 N  
HETATM    6  C   UNL     1     -11.710  12.691  68.091  1.00  0.00    -0.347 C  
HETATM    7  H   UNL     1     -11.232  12.648  70.120  1.00  0.00     0.000 HD 
HETATM    8  N   UNL     1     -11.658  13.488  66.945  1.00  0.00    -0.344 N  
HETATM    9  O   UNL     1     -12.125  11.534  68.042  1.00  0.00    -0.617 OA 
HETATM   10  C   UNL     1     -10.978  15.382  68.174  1.00  0.00    -0.297 C  
HETATM   11  C   UNL     1     -11.328  14.823  67.017  1.00  0.00    -0.353 C  
ENDROOT
BRANCH   8  12
HETATM   12  C   UNL     1     -12.132  12.906  65.702  1.00  0.00    -0.458 C  
HETATM   13  C   UNL     1     -12.150  13.895  64.548  1.00  0.00    -0.473 C  
HETATM   14  C   UNL     1     -12.148  12.977  63.352  1.00  0.00    -0.591 C  
HETATM   15  C   UNL     1     -11.382  11.747  63.831  1.00  0.00    -0.411 C  
HETATM   16  O   UNL     1     -11.278  11.831  65.269  1.00  0.00    -0.307 OA 
BRANCH  15  17
HETATM   17  C   UNL     1      -9.984  11.603  63.229  1.00  0.00    -0.419 C  
HETATM   18  O   UNL     1      -9.857  10.381  62.504  1.00  0.00    -0.661 OA 
HETATM   19  H   UNL     1      -8.989  10.293  62.130  1.00  0.00     0.000 HD 
ENDBRANCH  15  17
ENDBRANCH   8  12
TORSDOF 2
ENDMDL
MODEL       18
REMARK 921   NORMALIZED FREE ENERGY PREDICTED BY IDOCK:   -5.44 KCAL/MOL
REMARK 922        TOTAL FREE ENERGY PREDICTED BY IDOCK:   -6.40 KCAL/MOL
REMARK 923 INTER-LIGAND FREE ENERGY PREDICTED BY IDOCK:   -6.12 KCAL/MOL
REMARK 924 INTRA-LIGAND FREE ENERGY PREDICTED BY IDOCK:   -0.28 KCAL/MOL
REMARK 927      BINDING AFFINITY PREDICTED BY RF-SCORE:    0.00 PKD
ROOT
HETATM    1  N   UNL     1      -9.830  20.001  67.290  1.00  0.00    -0.399 NA 
HETATM    2  H1  UNL     1      -9.518  20.193  68.242  1.00  0.00     0.000 HD 
HETATM    3  H2  UNL     1      -9.897  20.741  66.591  1.00  0.00     0.000 HD 
HETATM    4  C   UNL     1     -10.153  18.705  66.993  1.00  0.00    -0.363 C  
HETATM    5  N   UNL     1     -10.548  18.461  65.785  1.00  0.00    -0.357 N  
HETATM    6  C   UNL     1     -10.892  17.177  65.426  1.00  0.00    -0.046 C  
HETATM    7  H   UNL     1     -10.604  19.217  65.102  1.00  0.00     0.000 HD 
HETATM    8  N   UNL     1     -10.908  16.192  66.416  1.00  0.00    -0.200 N  
HETATM    9  O   UNL     1     -11.182  16.911  64.261  1.00  0.00    -1.204 OA 
HETATM   10  C   UNL     1     -10.048  17.670  68.039  1.00  0.00    -0.343 C  
HETATM   11  C   UNL     1     -10.453  16.451  67.689  1.00  0.00    -0.302 C  
ENDROOT
BRANCH   8  12
HETATM   12  C   UNL     1     -11.257  14.842  66.012  1.00  0.00    -0.341 C  
HETATM   13  C   UNL     1     -10.050  13.929  65.872  1.00  0.00    -0.331 C  
HETATM   14  C   UNL     1     -10.679  12.563  65.981  1.00  0.00    -0.292 C  
HETATM   15  C   UNL     1     -11.885  12.782  66.891  1.00  0.00    -0.371 C  
HETATM   16  O   UNL     1     -12.104  14.206  66.988  1.00  0.00    -0.427 OA 
BRANCH  15  17
HETATM   17  C   UNL     1     -11.727  12.196  68.295  1.00  0.00    -0.342 C  
HETATM   18  O   UNL     1     -12.391  10.939  68.405  1.00  0.00    -0.803 OA 
HETATM   19  H   UNL     1     -12.293  10.575  69.277  1.00  0.00     0.000 HD 
ENDBRANCH  15  17
ENDBRANCH   8  12
TORSDOF 2
ENDMDL
MODEL       19
REMARK 921   NORMALIZED FREE ENERGY PREDICTED BY IDOCK:   -5.42 KCAL/MOL
REMARK 922        TOTAL FREE ENERGY PREDICTED BY IDOCK:   -6.37 KCAL/MOL
REMARK 923 INTER-LIGAND FREE ENERGY PREDICTED BY IDOCK:   -6.06 KCAL/MOL
REMARK 924 INTRA-LIGAND FREE ENERGY PREDICTED BY IDOCK:   -0.32 KCAL/MOL
REMARK 927      BINDING AFFINITY PREDICTED BY RF-SCORE:    0.00 PKD
ROOT
HETATM    1  N   UNL     1      -9.469  21.215  67.188  1.00  0.00    -0.612 NA 
HETATM    2  H1  UNL     1      -9.224  21.680  68.062  1.00  0.00     0.000 HD 
HETATM    3  H2  UNL     1      -9.501  21.722  66.304  1.00  0.00     0.000 HD 
HETATM    4  C   UNL     1      -9.750  19.878  67.256  1.00  0.00    -0.387 C  
HETATM    5  N   UNL     1     -10.061  19.286  66.147  1.00  0.00    -0.428 N  
HETATM    6  C   UNL     1     -10.360  17.942  66.151  1.00  0.00    -0.352 C  
HETATM    7  H   UNL     1     -10.084  19.814  65.274  1.00  0.00     0.000 HD 
HETATM    8  N   UNL     1     -10.426  17.279  67.379  1.00  0.00    -0.347 N  
HETATM    9  O   UNL     1     -10.567  17.346  65.095  1.00  0.00    -0.681 OA 
HETATM   10  C   UNL     1      -9.698  19.187  68.559  1.00  0.00    -0.467 C  
HETATM   11  C   UNL     1     -10.060  17.905  68.549  1.00  0.00    -0.391 C  
ENDROOT
BRANCH   8  12
HETATM   12  C   UNL     1     -10.725  15.859  67.358  1.00  0.00    -0.313 C  
HETATM   13  C   UNL     1      -9.626  15.007  67.971  1.00  0.00    -0.208 C  
HETATM   14  C   UNL     1     -10.366  13.737  68.304  1.00  0.00    -0.247 C  
HETATM   15  C   UNL     1     -11.790  14.204  68.597  1.00  0.00    -0.348 C  
HETATM   16  O   UNL     1     -11.908  15.563  68.124  1.00  0.00    -0.301 OA 
BRANCH  15  17
HETATM   17  C   UNL     1     -12.178  14.145  70.075  1.00  0.00    -0.357 C  
HETATM   18  O   UNL     1     -13.118  15.167  70.402  1.00  0.00    -0.617 OA 
HETATM   19  H   UNL     1     -13.360  15.130  71.320  1.00  0.00     0.000 HD 
ENDBRANCH  15  17
ENDBRANCH   8  12
TORSDOF 2
ENDMDL
MODEL       20
REMARK 921   NORMALIZED FREE ENERGY PREDICTED BY IDOCK:   -5.41 KCAL/MOL
REMARK 922        TOTAL FREE ENERGY PREDICTED BY IDOCK:   -6.36 KCAL/MOL
REMARK 923 INTER-LIGAND FREE ENERGY PREDICTED BY IDOCK:   -6.06 KCAL/MOL
REMARK 924 INTRA-LIGAND FREE ENERGY PREDICTED BY IDOCK:   -0.30 KCAL/MOL
REMARK 927      BINDING AFFINITY PREDICTED BY RF-SCORE:    0.00 PKD
ROOT
HETATM    1  N   UNL     1      -9.541  21.284  67.217  1.00  0.00    -0.495 NA 
HETATM    2  H1  UNL     1     -10.364  21.668  67.681  1.00  0.00     0.000 HD 
HETATM    3  H2  UNL     1      -8.751  21.875  66.957  1.00  0.00     0.000 HD 
HETATM    4  C   UNL     1      -9.544  19.940  66.960  1.00  0.00    -0.388 C  
HETATM    5  N   UNL     1      -8.499  19.453  66.371  1.00  0.00    -0.335 N  
HETATM    6  C   UNL     1      -8.445  18.108  66.081  1.00  0.00    -0.111 C  
HETATM    7  H   UNL     1      -7.720  20.063  66.124  1.00  0.00     0.000 HD 
HETATM    8  N   UNL     1      -9.575  17.327  66.333  1.00  0.00    -0.272 N  
HETATM    9  O   UNL     1      -7.424  17.613  65.606  1.00  0.00    -0.508 OA 
HETATM   10  C   UNL     1     -10.713  19.127  67.346  1.00  0.00    -0.578 C  
HETATM   11  C   UNL     1     -10.668  17.844  66.991  1.00  0.00    -0.209 C  
ENDROOT
BRANCH   8  12
HETATM   12  C   UNL     1      -9.490  15.909  66.036  1.00  0.00    -0.354 C  
HETATM   13  C   UNL     1     -10.001  15.029  67.164  1.00  0.00    -0.237 C  
HETATM   14  C   UNL     1     -10.298  13.739  66.444  1.00  0.00    -0.290 C  
HETATM   15  C   UNL     1     -10.684  14.183  65.035  1.00  0.00    -0.416 C  
HETATM   16  O   UNL     1     -10.294  15.566  64.892  1.00  0.00    -0.382 OA 
BRANCH  15  17
HETATM   17  C   UNL     1     -12.173  14.040  64.717  1.00  0.00    -0.433 C  
HETATM   18  O   UNL     1     -12.533  14.816  63.576  1.00  0.00    -1.053 OA 
HETATM   19  H   UNL     1     -13.458  14.727  63.379  1.00  0.00     0.000 HD 
ENDBRANCH  15  17
ENDBRANCH   8  12
TORSDOF 2
ENDMDL
MODEL       21
REMARK 921   NORMALIZED FREE ENERGY PREDICTED BY IDOCK:   -5.39 KCAL/MOL
REMARK 922        TOTAL FREE ENERGY PREDICTED BY IDOCK:   -6.34 KCAL/MOL
REMARK 923 INTER-LIGAND FREE ENERGY PREDICTED BY IDOCK:   -6.04 KCAL/MOL
REMARK 924 INTRA-LIGAND FREE ENERGY PREDICTED BY IDOCK:   -0.30 KCAL/MOL
REMARK 927      BINDING AFFINITY PREDICTED BY RF-SCORE:    0.00 PKD
ROOT
HETATM    1  N   UNL     1     -13.159  12.832  64.780  1.00  0.00    -0.836 NA 
HETATM    2  H1  UNL     1     -13.087  12.808  63.763  1.00  0.00     0.000 HD 
HETATM    3  H2  UNL     1     -13.793  12.213  65.285  1.00  0.00     0.000 HD 
HETATM    4  C   UNL     1     -12.366  13.734  65.436  1.00  0.00    -0.475 C  
HETATM    5  N   UNL     1     -12.457  13.765  66.727  1.00  0.00    -0.423 N  
HETATM    6  C   UNL     1     -11.688  14.655  67.444  1.00  0.00    -0.390 C  
HETATM    7  H   UNL     1     -13.095  13.133  67.211  1.00  0.00     0.000 HD 
HETATM    8  N   UNL     1     -10.910  15.578  66.741  1.00  0.00    -0.310 N  
HETATM    9  O   UNL     1     -11.694  14.635  68.674  1.00  0.00    -0.307 OA 
HETATM   10  C   UNL     1     -11.472  14.616  64.663  1.00  0.00    -0.389 C  
HETATM   11  C   UNL     1     -10.792  15.515  65.371  1.00  0.00    -0.390 C  
ENDROOT
BRANCH   8  12
HETATM   12  C   UNL     1     -10.094  16.494  67.517  1.00  0.00    -0.267 C  
HETATM   13  C   UNL     1      -8.824  16.917  66.799  1.00  0.00    -0.262 C  
HETATM   14  C   UNL     1      -8.467  18.191  67.522  1.00  0.00    -0.248 C  
HETATM   15  C   UNL     1      -9.816  18.761  67.954  1.00  0.00    -0.341 C  
HETATM   16  O   UNL     1     -10.801  17.718  67.792  1.00  0.00    -0.371 OA 
BRANCH  15  17
HETATM   17  C   UNL     1     -10.255  19.999  67.171  1.00  0.00    -0.441 C  
HETATM   18  O   UNL     1      -9.130  20.773  66.758  1.00  0.00    -0.592 OA 
HETATM   19  H   UNL     1      -9.403  21.542  66.271  1.00  0.00     0.000 HD 
ENDBRANCH  15  17
ENDBRANCH   8  12
TORSDOF 2
ENDMDL
MODEL       22
REMARK 921   NORMALIZED FREE ENERGY PREDICTED BY IDOCK:   -5.33 KCAL/MOL
REMARK 922        TOTAL FREE ENERGY PREDICTED BY IDOCK:   -6.28 KCAL/MOL
REMARK 923 INTER-LIGAND FREE ENERGY PREDICTED BY IDOCK:   -6.01 KCAL/MOL
REMARK 924 INTRA-LIGAND FREE ENERGY PREDICTED BY IDOCK:   -0.27 KCAL/MOL
REMARK 927      BINDING AFFINITY PREDICTED BY RF-SCORE:    0.00 PKD
ROOT
HETATM    1  N   UNL     1     -10.056   7.762  66.504  1.00  0.00    -0.453 NA 
HETATM    2  H1  UNL     1      -9.443   7.511  65.728  1.00  0.00     0.000 HD 
HETATM    3  H2  UNL     1     -10.420   7.058  67.146  1.00  0.00     0.000 HD 
HETATM    4  C   UNL     1     -10.368   9.087  66.644  1.00  0.00    -0.219 C  
HETATM    5  N   UNL     1     -11.145   9.406  67.628  1.00  0.00    -0.459 N  
HETATM    6  C   UNL     1     -11.499  10.723  67.819  1.00  0.00    -0.202 C  
HETATM    7  H   UNL     1     -11.494   8.685  68.260  1.00  0.00     0.000 HD 
HETATM    8  N   UNL     1     -11.093  11.665  66.870  1.00  0.00    -0.295 N  
HETATM    9  O   UNL     1     -12.161  11.055  68.800  1.00  0.00    -0.546 OA 
HETATM   10  C   UNL     1      -9.825  10.068  65.685  1.00  0.00    -0.363 C  
HETATM   11  C   UNL     1     -10.237  11.324  65.847  1.00  0.00    -0.249 C  
ENDROOT
BRANCH   8  12
HETATM   12  C   UNL     1     -11.462  13.050  67.100  1.00  0.00    -0.331 C  
HETATM   13  C   UNL     1     -10.351  13.867  67.738  1.00  0.00    -0.240 C  
HETATM   14  C   UNL     1     -10.758  15.275  67.385  1.00  0.00    -0.293 C  
HETATM   15  C   UNL     1     -11.490  15.126  66.053  1.00  0.00    -0.157 C  
HETATM   16  O   UNL     1     -11.768  13.721  65.864  1.00  0.00    -0.328 OA 
BRANCH  15  17
HETATM   17  C   UNL     1     -10.712  15.655  64.847  1.00  0.00    -0.382 C  
HETATM   18  O   UNL     1     -11.574  16.339  63.939  1.00  0.00    -1.489 OA 
HETATM   19  H   UNL     1     -11.091  16.668  63.190  1.00  0.00     0.000 HD 
ENDBRANCH  15  17
ENDBRANCH   8  12
TORSDOF 2
ENDMDL
MODEL       23
REMARK 921   NORMALIZED FREE ENERGY PREDICTED BY IDOCK:   -5.30 KCAL/MOL
REMARK 922        TOTAL FREE ENERGY PREDICTED BY IDOCK:   -6.25 KCAL/MOL
REMARK 923 INTER-LIGAND FREE ENERGY PREDICTED BY IDOCK:   -5.96 KCAL/MOL
REMARK 924 INTRA-LIGAND FREE ENERGY PREDICTED BY IDOCK:   -0.29 KCAL/MOL
REMARK 927      BINDING AFFINITY PREDICTED BY RF-SCORE:    0.00 PKD
ROOT
HETATM    1  N   UNL     1     -10.172  19.548  68.930  1.00  0.00    -0.589 NA 
HETATM    2  H1  UNL     1     -10.850  19.568  69.692  1.00  0.00     0.000 HD 
HETATM    3  H2  UNL     1      -9.622  20.371  68.683  1.00  0.00     0.000 HD 
HETATM    4  C   UNL     1     -10.032  18.366  68.256  1.00  0.00    -0.369 C  
HETATM    5  N   UNL     1      -9.170  18.340  67.289  1.00  0.00    -0.254 N  
HETATM    6  C   UNL     1      -8.988  17.180  66.569  1.00  0.00    -0.272 C  
HETATM    7  H   UNL     1      -8.630  19.175  67.063  1.00  0.00     0.000 HD 
HETATM    8  N   UNL     1      -9.824  16.093  66.836  1.00  0.00    -0.235 N  
HETATM    9  O   UNL     1      -8.111  17.111  65.710  1.00  0.00    -0.497 OA 
HETATM   10  C   UNL     1     -10.855  17.204  68.643  1.00  0.00    -0.250 C  
HETATM   11  C   UNL     1     -10.712  16.117  67.888  1.00  0.00    -0.321 C  
ENDROOT
BRANCH   8  12
HETATM   12  C   UNL     1      -9.602  14.876  66.077  1.00  0.00    -0.313 C  
HETATM   13  C   UNL     1      -9.989  13.619  66.838  1.00  0.00    -0.260 C  
HETATM   14  C   UNL     1     -10.172  12.623  65.721  1.00  0.00    -0.288 C  
HETATM   15  C   UNL     1     -10.641  13.471  64.542  1.00  0.00    -0.424 C  
HETATM   16  O   UNL     1     -10.399  14.855  64.878  1.00  0.00    -0.400 OA 
BRANCH  15  17
HETATM   17  C   UNL     1     -12.116  13.288  64.183  1.00  0.00    -0.432 C  
HETATM   18  O   UNL     1     -12.580  14.348  63.350  1.00  0.00    -1.054 OA 
HETATM   19  H   UNL     1     -13.496  14.234  63.127  1.00  0.00     0.000 HD 
ENDBRANCH  15  17
ENDBRANCH   8  12
TORSDOF 2
ENDMDL
MODEL       24
REMARK 921   NORMALIZED FREE ENERGY PREDICTED BY IDOCK:   -5.27 KCAL/MOL
REMARK 922        TOTAL FREE ENERGY PREDICTED BY IDOCK:   -6.21 KCAL/MOL
REMARK 923 INTER-LIGAND FREE ENERGY PREDICTED BY IDOCK:   -5.93 KCAL/MOL
REMARK 924 INTRA-LIGAND FREE ENERGY PREDICTED BY IDOCK:   -0.28 KCAL/MOL
REMARK 927      BINDING AFFINITY PREDICTED BY RF-SCORE:    0.00 PKD
ROOT
HETATM    1  N   UNL     1     -11.698  16.329  71.590  1.00  0.00    -0.610 NA 
HETATM    2  H1  UNL     1     -12.150  15.638  72.189  1.00  0.00     0.000 HD 
HETATM    3  H2  UNL     1     -11.389  17.230  71.953  1.00  0.00     0.000 HD 
HETATM    4  C   UNL     1     -11.524  15.990  70.276  1.00  0.00    -0.359 C  
HETATM    5  N   UNL     1     -10.949  16.866  69.515  1.00  0.00    -0.357 N  
HETATM    6  C   UNL     1     -10.751  16.585  68.181  1.00  0.00    -0.343 C  
HETATM    7  H   UNL     1     -10.646  17.760  69.902  1.00  0.00     0.000 HD 
HETATM    8  N   UNL     1     -11.279  15.400  67.665  1.00  0.00    -0.324 N  
HETATM    9  O   UNL     1     -10.126  17.367  67.466  1.00  0.00    -0.299 OA 
HETATM   10  C   UNL     1     -11.995  14.678  69.793  1.00  0.00    -0.378 C  
HETATM   11  C   UNL     1     -11.856  14.458  68.487  1.00  0.00    -0.334 C  
ENDROOT
BRANCH   8  12
HETATM   12  C   UNL     1     -11.042  15.116  66.261  1.00  0.00    -0.309 C  
HETATM   13  C   UNL     1      -9.926  14.110  66.035  1.00  0.00    -0.340 C  
HETATM   14  C   UNL     1     -10.233  13.612  64.645  1.00  0.00    -0.338 C  
HETATM   15  C   UNL     1     -11.752  13.725  64.539  1.00  0.00    -0.407 C  
HETATM   16  O   UNL     1     -12.207  14.540  65.641  1.00  0.00    -0.351 OA 
BRANCH  15  17
HETATM   17  C   UNL     1     -12.485  12.382  64.566  1.00  0.00    -0.435 C  
HETATM   18  O   UNL     1     -12.253  11.645  63.368  1.00  0.00    -0.747 OA 
HETATM   19  H   UNL     1     -12.708  10.811  63.385  1.00  0.00     0.000 HD 
ENDBRANCH  15  17
ENDBRANCH   8  12
TORSDOF 2
ENDMDL
MODEL       25
REMARK 921   NORMALIZED FREE ENERGY PREDICTED BY IDOCK:   -5.27 KCAL/MOL
REMARK 922        TOTAL FREE ENERGY PREDICTED BY IDOCK:   -6.20 KCAL/MOL
REMARK 923 INTER-LIGAND FREE ENERGY PREDICTED BY IDOCK:   -5.92 KCAL/MOL
REMARK 924 INTRA-LIGAND FREE ENERGY PREDICTED BY IDOCK:   -0.28 KCAL/MOL
REMARK 927      BINDING AFFINITY PREDICTED BY RF-SCORE:    0.00 PKD
ROOT
HETATM    1  N   UNL     1     -10.148  18.977  68.233  1.00  0.00    -0.378 NA 
HETATM    2  H1  UNL     1      -9.746  19.614  67.546  1.00  0.00     0.000 HD 
HETATM    3  H2  UNL     1     -10.294  19.259  69.202  1.00  0.00     0.000 HD 
HETATM    4  C   UNL     1     -10.483  17.724  67.795  1.00  0.00    -0.397 C  
HETATM    5  N   UNL     1     -10.993  16.915  68.667  1.00  0.00    -0.306 N  
HETATM    6  C   UNL     1     -11.346  15.639  68.288  1.00  0.00    -0.356 C  
HETATM    7  H   UNL     1     -11.134  17.221  69.630  1.00  0.00     0.000 HD 
HETATM    8  N   UNL     1     -11.037  15.220  66.992  1.00  0.00    -0.325 N  
HETATM    9  O   UNL     1     -11.916  14.888  69.079  1.00  0.00    -0.308 OA 
HETATM   10  C   UNL     1     -10.245  17.357  66.386  1.00  0.00    -0.339 C  
HETATM   11  C   UNL     1     -10.528  16.097  66.061  1.00  0.00    -0.338 C  
ENDROOT
BRANCH   8  12
HETATM   12  C   UNL     1     -11.434  13.877  66.609  1.00  0.00    -0.355 C  
HETATM   13  C   UNL     1     -12.653  13.850  65.702  1.00  0.00    -0.553 C  
HETATM   14  C   UNL     1     -12.529  12.495  65.054  1.00  0.00    -0.494 C  
HETATM   15  C   UNL     1     -11.024  12.245  65.005  1.00  0.00    -0.302 C  
HETATM   16  O   UNL     1     -10.392  13.217  65.866  1.00  0.00    -0.279 OA 
BRANCH  15  17
HETATM   17  C   UNL     1     -10.417  12.339  63.604  1.00  0.00    -0.450 C  
HETATM   18  O   UNL     1     -10.806  11.228  62.798  1.00  0.00    -0.744 OA 
HETATM   19  H   UNL     1     -10.429  11.287  61.928  1.00  0.00     0.000 HD 
ENDBRANCH  15  17
ENDBRANCH   8  12
TORSDOF 2
ENDMDL
MODEL       26
REMARK 921   NORMALIZED FREE ENERGY PREDICTED BY IDOCK:   -5.26 KCAL/MOL
REMARK 922        TOTAL FREE ENERGY PREDICTED BY IDOCK:   -6.20 KCAL/MOL
REMARK 923 INTER-LIGAND FREE ENERGY PREDICTED BY IDOCK:   -5.90 KCAL/MOL
REMARK 924 INTRA-LIGAND FREE ENERGY PREDICTED BY IDOCK:   -0.30 KCAL/MOL
REMARK 927      BINDING AFFINITY PREDICTED BY RF-SCORE:    0.00 PKD
ROOT
HETATM    1  N   UNL     1     -11.574  16.334  63.872  1.00  0.00    -1.573 NA 
HETATM    2  H1  UNL     1     -12.346  16.181  63.223  1.00  0.00     0.000 HD 
HETATM    3  H2  UNL     1     -10.972  17.154  63.802  1.00  0.00     0.000 HD 
HETATM    4  C   UNL     1     -11.383  15.388  64.842  1.00  0.00    -0.363 C  
HETATM    5  N   UNL     1     -10.404  15.582  65.666  1.00  0.00    -0.354 N  
HETATM    6  C   UNL     1     -10.159  14.662  66.661  1.00  0.00    -0.273 C  
HETATM    7  H   UNL     1      -9.818  16.412  65.579  1.00  0.00     0.000 HD 
HETATM    8  N   UNL     1     -10.912  13.486  66.680  1.00  0.00    -0.286 N  
HETATM    9  O   UNL     1      -9.292  14.875  67.507  1.00  0.00    -0.189 OA 
HETATM   10  C   UNL     1     -12.274  14.213  64.898  1.00  0.00    -0.451 C  
HETATM   11  C   UNL     1     -11.973  13.303  65.823  1.00  0.00    -0.417 C  
ENDROOT
BRANCH   8  12
HETATM   12  C   UNL     1     -10.647  12.538  67.748  1.00  0.00    -0.219 C  
HETATM   13  C   UNL     1     -11.911  11.930  68.334  1.00  0.00    -0.352 C  
HETATM   14  C   UNL     1     -11.381  10.676  68.981  1.00  0.00    -0.340 C  
HETATM   15  C   UNL     1     -10.185  10.289  68.115  1.00  0.00    -0.164 C  
HETATM   16  O   UNL     1      -9.870  11.422  67.276  1.00  0.00    -0.187 OA 
BRANCH  15  17
HETATM   17  C   UNL     1     -10.416   9.058  67.238  1.00  0.00    -0.273 C  
HETATM   18  O   UNL     1     -11.014   7.999  67.984  1.00  0.00    -0.463 OA 
HETATM   19  H   UNL     1     -11.157   7.234  67.439  1.00  0.00     0.000 HD 
ENDBRANCH  15  17
ENDBRANCH   8  12
TORSDOF 2
ENDMDL
MODEL       27
REMARK 921   NORMALIZED FREE ENERGY PREDICTED BY IDOCK:   -5.26 KCAL/MOL
REMARK 922        TOTAL FREE ENERGY PREDICTED BY IDOCK:   -6.19 KCAL/MOL
REMARK 923 INTER-LIGAND FREE ENERGY PREDICTED BY IDOCK:   -5.85 KCAL/MOL
REMARK 924 INTRA-LIGAND FREE ENERGY PREDICTED BY IDOCK:   -0.34 KCAL/MOL
REMARK 927      BINDING AFFINITY PREDICTED BY RF-SCORE:    0.00 PKD
ROOT
HETATM    1  N   UNL     1     -12.534  14.990  63.756  1.00  0.00    -1.049 NA 
HETATM    2  H1  UNL     1     -12.941  15.835  64.154  1.00  0.00     0.000 HD 
HETATM    3  H2  UNL     1     -12.472  14.851  62.747  1.00  0.00     0.000 HD 
HETATM    4  C   UNL     1     -12.072  14.050  64.636  1.00  0.00    -0.440 C  
HETATM    5  N   UNL     1     -11.554  12.977  64.131  1.00  0.00    -0.382 N  
HETATM    6  C   UNL     1     -11.077  11.992  64.967  1.00  0.00    -0.316 C  
HETATM    7  H   UNL     1     -11.500  12.861  63.119  1.00  0.00     0.000 HD 
HETATM    8  N   UNL     1     -11.269  12.136  66.342  1.00  0.00    -0.315 N  
HETATM    9  O   UNL     1     -10.500  11.008  64.505  1.00  0.00    -0.330 OA 
HETATM   10  C   UNL     1     -12.191  14.291  66.087  1.00  0.00    -0.430 C  
HETATM   11  C   UNL     1     -11.788  13.295  66.874  1.00  0.00    -0.392 C  
ENDROOT
BRANCH   8  12
HETATM   12  C   UNL     1     -10.742  11.094  67.205  1.00  0.00    -0.258 C  
HETATM   13  C   UNL     1      -9.584  11.563  68.070  1.00  0.00    -0.180 C  
HETATM   14  C   UNL     1      -9.588  10.539  69.177  1.00  0.00    -0.214 C  
HETATM   15  C   UNL     1     -11.054  10.131  69.299  1.00  0.00    -0.225 C  
HETATM   16  O   UNL     1     -11.742  10.624  68.129  1.00  0.00    -0.474 OA 
BRANCH  15  17
HETATM   17  C   UNL     1     -11.750  10.657  70.555  1.00  0.00    -0.356 C  
HETATM   18  O   UNL     1     -11.850  12.080  70.532  1.00  0.00    -0.491 OA 
HETATM   19  H   UNL     1     -12.282  12.406  71.312  1.00  0.00     0.000 HD 
ENDBRANCH  15  17
ENDBRANCH   8  12
TORSDOF 2
ENDMDL
MODEL       28
REMARK 921   NORMALIZED FREE ENERGY PREDICTED BY IDOCK:   -5.21 KCAL/MOL
REMARK 922        TOTAL FREE ENERGY PREDICTED BY IDOCK:   -6.14 KCAL/MOL
REMARK 923 INTER-LIGAND FREE ENERGY PREDICTED BY IDOCK:   -5.87 KCAL/MOL
REMARK 924 INTRA-LIGAND FREE ENERGY PREDICTED BY IDOCK:   -0.26 KCAL/MOL
REMARK 927      BINDING AFFINITY PREDICTED BY RF-SCORE:    0.00 PKD
ROOT
HETATM    1  N   UNL     1     -12.892   8.993  71.962  1.00  0.00    -0.370 NA 
HETATM    2  H1  UNL     1     -12.339   8.314  71.438  1.00  0.00     0.000 HD 
HETATM    3  H2  UNL     1     -13.515   8.706  72.716  1.00  0.00     0.000 HD 
HETATM    4  C   UNL     1     -12.758  10.307  71.606  1.00  0.00    -0.456 C  
HETATM    5  N   UNL     1     -13.458  11.170  72.270  1.00  0.00    -0.527 N  
HETATM    6  C   UNL     1     -13.371  12.508  71.955  1.00  0.00    -0.426 C  
HETATM    7  H   UNL     1     -14.072  10.860  73.023  1.00  0.00     0.000 HD 
HETATM    8  N   UNL     1     -12.606  12.881  70.848  1.00  0.00    -0.320 N  
HETATM    9  O   UNL     1     -13.958  13.348  72.635  1.00  0.00    -0.755 OA 
HETATM   10  C   UNL     1     -11.850  10.675  70.502  1.00  0.00    -0.453 C  
HETATM   11  C   UNL     1     -11.836  11.964  70.169  1.00  0.00    -0.308 C  
ENDROOT
BRANCH   8  12
HETATM   12  C   UNL     1     -12.513  14.298  70.545  1.00  0.00    -0.361 C  
HETATM   13  C   UNL     1     -11.326  14.975  71.208  1.00  0.00    -0.315 C  
HETATM   14  C   UNL     1     -11.153  16.207  70.357  1.00  0.00    -0.362 C  
HETATM   15  C   UNL     1     -11.635  15.772  68.975  1.00  0.00    -0.400 C  
HETATM   16  O   UNL     1     -12.339  14.521  69.133  1.00  0.00    -0.244 OA 
BRANCH  15  17
HETATM   17  C   UNL     1     -10.517  15.598  67.946  1.00  0.00    -0.267 C  
HETATM   18  O   UNL     1     -10.951  14.806  66.843  1.00  0.00    -0.313 OA 
HETATM   19  H   UNL     1     -10.257  14.698  66.203  1.00  0.00     0.000 HD 
ENDBRANCH  15  17
ENDBRANCH   8  12
TORSDOF 2
ENDMDL
MODEL       29
REMARK 921   NORMALIZED FREE ENERGY PREDICTED BY IDOCK:   -5.18 KCAL/MOL
REMARK 922        TOTAL FREE ENERGY PREDICTED BY IDOCK:   -6.11 KCAL/MOL
REMARK 923 INTER-LIGAND FREE ENERGY PREDICTED BY IDOCK:   -5.83 KCAL/MOL
REMARK 924 INTRA-LIGAND FREE ENERGY PREDICTED BY IDOCK:   -0.28 KCAL/MOL
REMARK 927      BINDING AFFINITY PREDICTED BY RF-SCORE:    0.00 PKD
ROOT
HETATM    1  N   UNL     1     -13.704   9.190  73.059  1.00  0.00    -1.009 NA 
HETATM    2  H1  UNL     1     -13.516   8.188  73.050  1.00  0.00     0.000 HD 
HETATM    3  H2  UNL     1     -14.333   9.609  73.744  1.00  0.00     0.000 HD 
HETATM    4  C   UNL     1     -13.073   9.948  72.111  1.00  0.00    -0.403 C  
HETATM    5  N   UNL     1     -13.312  11.220  72.122  1.00  0.00    -0.569 N  
HETATM    6  C   UNL     1     -12.711  12.035  71.189  1.00  0.00    -0.266 C  
HETATM    7  H   UNL     1     -13.942  11.617  72.819  1.00  0.00     0.000 HD 
HETATM    8  N   UNL     1     -11.943  11.442  70.184  1.00  0.00    -0.352 N  
HETATM    9  O   UNL     1     -12.854  13.255  71.242  1.00  0.00    -0.353 OA 
HETATM   10  C   UNL     1     -12.178   9.297  71.135  1.00  0.00    -0.373 C  
HETATM   11  C   UNL     1     -11.665  10.094  70.200  1.00  0.00    -0.256 C  
ENDROOT
BRANCH   8  12
HETATM   12  C   UNL     1     -11.304  12.321  69.222  1.00  0.00    -0.256 C  
HETATM   13  C   UNL     1      -9.996  11.767  68.681  1.00  0.00    -0.181 C  
HETATM   14  C   UNL     1      -9.836  12.543  67.399  1.00  0.00    -0.201 C  
HETATM   15  C   UNL     1     -11.269  12.817  66.950  1.00  0.00    -0.296 C  
HETATM   16  O   UNL     1     -12.138  12.525  68.066  1.00  0.00    -0.351 OA 
BRANCH  15  17
HETATM   17  C   UNL     1     -11.713  12.001  65.734  1.00  0.00    -0.245 C  
HETATM   18  O   UNL     1     -12.833  12.605  65.090  1.00  0.00    -0.721 OA 
HETATM   19  H   UNL     1     -13.109  12.099  64.335  1.00  0.00     0.000 HD 
ENDBRANCH  15  17
ENDBRANCH   8  12
TORSDOF 2
ENDMDL
MODEL       30
REMARK 921   NORMALIZED FREE ENERGY PREDICTED BY IDOCK:   -5.14 KCAL/MOL
REMARK 922        TOTAL FREE ENERGY PREDICTED BY IDOCK:   -6.06 KCAL/MOL
REMARK 923 INTER-LIGAND FREE ENERGY PREDICTED BY IDOCK:   -5.70 KCAL/MOL
REMARK 924 INTRA-LIGAND FREE ENERGY PREDICTED BY IDOCK:   -0.36 KCAL/MOL
REMARK 927      BINDING AFFINITY PREDICTED BY RF-SCORE:    0.00 PKD
ROOT
HETATM    1  N   UNL     1     -14.260   8.890  73.317  1.00  0.00    -1.237 NA 
HETATM    2  H1  UNL     1     -14.241   7.903  73.571  1.00  0.00     0.000 HD 
HETATM    3  H2  UNL     1     -14.945   9.531  73.717  1.00  0.00     0.000 HD 
HETATM    4  C   UNL     1     -13.324   9.315  72.414  1.00  0.00    -0.449 C  
HETATM    5  N   UNL     1     -13.348  10.569  72.091  1.00  0.00    -0.569 N  
HETATM    6  C   UNL     1     -12.434  11.056  71.183  1.00  0.00    -0.397 C  
HETATM    7  H   UNL     1     -14.040  11.192  72.507  1.00  0.00     0.000 HD 
HETATM    8  N   UNL     1     -11.575  10.153  70.553  1.00  0.00    -0.304 N  
HETATM    9  O   UNL     1     -12.383  12.260  70.935  1.00  0.00    -0.376 OA 
HETATM   10  C   UNL     1     -12.359   8.350  71.856  1.00  0.00    -0.395 C  
HETATM   11  C   UNL     1     -11.532   8.829  70.928  1.00  0.00    -0.284 C  
ENDROOT
BRANCH   8  12
HETATM   12  C   UNL     1     -10.609  10.691  69.613  1.00  0.00    -0.217 C  
HETATM   13  C   UNL     1      -9.274   9.967  69.648  1.00  0.00    -0.246 C  
HETATM   14  C   UNL     1      -8.690  10.325  68.305  1.00  0.00    -0.126 C  
HETATM   15  C   UNL     1      -9.911  10.493  67.404  1.00  0.00    -0.174 C  
HETATM   16  O   UNL     1     -11.074  10.567  68.257  1.00  0.00    -0.249 OA 
BRANCH  15  17
HETATM   17  C   UNL     1     -10.099   9.368  66.386  1.00  0.00    -0.262 C  
HETATM   18  O   UNL     1     -10.805   8.268  66.957  1.00  0.00    -0.413 OA 
HETATM   19  H   UNL     1     -10.923   7.570  66.324  1.00  0.00     0.000 HD 
ENDBRANCH  15  17
ENDBRANCH   8  12
TORSDOF 2
ENDMDL
MODEL       31
REMARK 921   NORMALIZED FREE ENERGY PREDICTED BY IDOCK:   -5.11 KCAL/MOL
REMARK 922        TOTAL FREE ENERGY PREDICTED BY IDOCK:   -6.03 KCAL/MOL
REMARK 923 INTER-LIGAND FREE ENERGY PREDICTED BY IDOCK:   -5.79 KCAL/MOL
REMARK 924 INTRA-LIGAND FREE ENERGY PREDICTED BY IDOCK:   -0.24 KCAL/MOL
REMARK 927      BINDING AFFINITY PREDICTED BY RF-SCORE:    0.00 PKD
ROOT
HETATM    1  N   UNL     1      -8.735  17.462  66.283  1.00  0.00    -0.427 NA 
HETATM    2  H1  UNL     1      -8.103  18.145  66.700  1.00  0.00     0.000 HD 
HETATM    3  H2  UNL     1      -8.703  17.244  65.287  1.00  0.00     0.000 HD 
HETATM    4  C   UNL     1      -9.628  16.851  67.120  1.00  0.00    -0.244 C  
HETATM    5  N   UNL     1     -10.429  15.983  66.591  1.00  0.00    -0.304 N  
HETATM    6  C   UNL     1     -11.354  15.338  67.382  1.00  0.00    -0.284 C  
HETATM    7  H   UNL     1     -10.376  15.778  65.593  1.00  0.00     0.000 HD 
HETATM    8  N   UNL     1     -11.471  15.725  68.719  1.00  0.00    -0.370 N  
HETATM    9  O   UNL     1     -12.060  14.446  66.914  1.00  0.00    -0.425 OA 
HETATM   10  C   UNL     1      -9.643  17.205  68.552  1.00  0.00    -0.288 C  
HETATM   11  C   UNL     1     -10.592  16.621  69.282  1.00  0.00    -0.343 C  
ENDROOT
BRANCH   8  12
HETATM   12  C   UNL     1     -12.440  15.019  69.538  1.00  0.00    -0.087 C  
HETATM   13  C   UNL     1     -11.854  13.810  70.248  1.00  0.00    -0.342 C  
HETATM   14  C   UNL     1     -12.837  13.603  71.372  1.00  0.00    -0.442 C  
HETATM   15  C   UNL     1     -13.352  15.007  71.677  1.00  0.00    -0.401 C  
HETATM   16  O   UNL     1     -12.953  15.864  70.585  1.00  0.00    -0.467 OA 
BRANCH  15  17
HETATM   17  C   UNL     1     -12.839  15.592  72.994  1.00  0.00    -0.490 C  
HETATM   18  O   UNL     1     -13.867  16.306  73.676  1.00  0.00    -0.877 OA 
HETATM   19  H   UNL     1     -13.549  16.669  74.494  1.00  0.00     0.000 HD 
ENDBRANCH  15  17
ENDBRANCH   8  12
TORSDOF 2
ENDMDL
MODEL       32
REMARK 921   NORMALIZED FREE ENERGY PREDICTED BY IDOCK:   -5.11 KCAL/MOL
REMARK 922        TOTAL FREE ENERGY PREDICTED BY IDOCK:   -6.03 KCAL/MOL
REMARK 923 INTER-LIGAND FREE ENERGY PREDICTED BY IDOCK:   -5.73 KCAL/MOL
REMARK 924 INTRA-LIGAND FREE ENERGY PREDICTED BY IDOCK:   -0.30 KCAL/MOL
REMARK 927      BINDING AFFINITY PREDICTED BY RF-SCORE:    0.00 PKD
ROOT
HETATM    1  N   UNL     1     -12.211  15.368  69.262  1.00  0.00    -0.582 NA 
HETATM    2  H1  UNL     1     -11.696  15.389  68.383  1.00  0.00     0.000 HD 
HETATM    3  H2  UNL     1     -12.597  16.217  69.675  1.00  0.00     0.000 HD 
HETATM    4  C   UNL     1     -12.363  14.148  69.862  1.00  0.00    -0.327 C  
HETATM    5  N   UNL     1     -13.019  14.121  70.978  1.00  0.00    -0.338 N  
HETATM    6  C   UNL     1     -13.201  12.923  71.633  1.00  0.00    -0.324 C  
HETATM    7  H   UNL     1     -13.399  14.982  71.371  1.00  0.00     0.000 HD 
HETATM    8  N   UNL     1     -12.573  11.784  71.123  1.00  0.00    -0.361 N  
HETATM    9  O   UNL     1     -13.898  12.865  72.645  1.00  0.00    -0.596 OA 
HETATM   10  C   UNL     1     -11.780  12.948  69.232  1.00  0.00    -0.378 C  
HETATM   11  C   UNL     1     -11.908  11.814  69.918  1.00  0.00    -0.348 C  
ENDROOT
BRANCH   8  12
HETATM   12  C   UNL     1     -12.793  10.529  71.820  1.00  0.00    -0.454 C  
HETATM   13  C   UNL     1     -13.932   9.712  71.234  1.00  0.00    -0.033 C  
HETATM   14  C   UNL     1     -13.615   8.328  71.740  1.00  0.00    -0.393 C  
HETATM   15  C   UNL     1     -12.092   8.312  71.844  1.00  0.00    -0.332 C  
HETATM   16  O   UNL     1     -11.634   9.678  71.741  1.00  0.00    -0.378 OA 
BRANCH  15  17
HETATM   17  C   UNL     1     -11.398   7.464  70.777  1.00  0.00    -0.280 C  
HETATM   18  O   UNL     1     -12.347   6.744  69.993  1.00  0.00    -0.605 OA 
HETATM   19  H   UNL     1     -11.916   6.217  69.330  1.00  0.00     0.000 HD 
ENDBRANCH  15  17
ENDBRANCH   8  12
TORSDOF 2
ENDMDL
MODEL       33
REMARK 921   NORMALIZED FREE ENERGY PREDICTED BY IDOCK:   -5.09 KCAL/MOL
REMARK 922        TOTAL FREE ENERGY PREDICTED BY IDOCK:   -6.00 KCAL/MOL
REMARK 923 INTER-LIGAND FREE ENERGY PREDICTED BY IDOCK:   -6.46 KCAL/MOL
REMARK 924 INTRA-LIGAND FREE ENERGY PREDICTED BY IDOCK:    0.45 KCAL/MOL
REMARK 927      BINDING AFFINITY PREDICTED BY RF-SCORE:    0.00 PKD
ROOT
HETATM    1  N   UNL     1     -11.634  10.631  70.983  1.00  0.00    -0.294 NA 
HETATM    2  H1  UNL     1     -11.327   9.688  71.223  1.00  0.00     0.000 HD 
HETATM    3  H2  UNL     1     -12.049  11.250  71.679  1.00  0.00     0.000 HD 
HETATM    4  C   UNL     1     -11.462  11.028  69.685  1.00  0.00    -0.303 C  
HETATM    5  N   UNL     1     -11.851  12.224  69.381  1.00  0.00    -0.315 N  
HETATM    6  C   UNL     1     -11.709  12.680  68.089  1.00  0.00    -0.347 C  
HETATM    7  H   UNL     1     -12.260  12.827  70.095  1.00  0.00     0.000 HD 
HETATM    8  N   UNL     1     -11.248  11.789  67.117  1.00  0.00    -0.298 N  
HETATM    9  O   UNL     1     -11.989  13.843  67.804  1.00  0.00    -0.358 OA 
HETATM   10  C   UNL     1     -10.865  10.094  68.711  1.00  0.00    -0.259 C  
HETATM   11  C   UNL     1     -10.803  10.531  67.454  1.00  0.00    -0.291 C  
ENDROOT
BRANCH   8  12
HETATM   12  C   UNL     1     -11.090  12.296  65.766  1.00  0.00    -0.323 C  
HETATM   13  C   UNL     1     -12.411  12.643  65.099  1.00  0.00    -0.547 C  
HETATM   14  C   UNL     1     -11.971  13.589  64.011  1.00  0.00    -0.501 C  
HETATM   15  C   UNL     1     -10.734  14.270  64.590  1.00  0.00    -0.365 C  
HETATM   16  O   UNL     1     -10.324  13.515  65.751  1.00  0.00    -0.280 OA 
BRANCH  15  17
HETATM   17  C   UNL     1     -10.950  15.731  64.988  1.00  0.00    -0.417 C  
HETATM   18  O   UNL     1     -11.410  16.504  63.880  1.00  0.00    -1.557 OA 
HETATM   19  H   UNL     1     -11.544  17.411  64.127  1.00  0.00     0.000 HD 
ENDBRANCH  15  17
ENDBRANCH   8  12
TORSDOF 2
ENDMDL
MODEL       34
REMARK 921   NORMALIZED FREE ENERGY PREDICTED BY IDOCK:   -5.04 KCAL/MOL
REMARK 922        TOTAL FREE ENERGY PREDICTED BY IDOCK:   -5.95 KCAL/MOL
REMARK 923 INTER-LIGAND FREE ENERGY PREDICTED BY IDOCK:   -5.60 KCAL/MOL
REMARK 924 INTRA-LIGAND FREE ENERGY PREDICTED BY IDOCK:   -0.36 KCAL/MOL
REMARK 927      BINDING AFFINITY PREDICTED BY RF-SCORE:    0.00 PKD
ROOT
HETATM    1  N   UNL     1     -12.229  15.161  68.338  1.00  0.00    -0.556 NA 
HETATM    2  H1  UNL     1     -11.515  15.440  69.010  1.00  0.00     0.000 HD 
HETATM    3  H2  UNL     1     -13.175  15.541  68.375  1.00  0.00     0.000 HD 
HETATM    4  C   UNL     1     -11.860  14.254  67.382  1.00  0.00    -0.409 C  
HETATM    5  N   UNL     1     -12.766  13.900  66.528  1.00  0.00    -0.420 N  
HETATM    6  C   UNL     1     -12.456  12.986  65.546  1.00  0.00    -0.438 C  
HETATM    7  H   UNL     1     -13.704  14.295  66.583  1.00  0.00     0.000 HD 
HETATM    8  N   UNL     1     -11.196  12.384  65.570  1.00  0.00    -0.313 N  
HETATM    9  O   UNL     1     -13.276  12.707  64.672  1.00  0.00    -0.828 OA 
HETATM   10  C   UNL     1     -10.482  13.726  67.373  1.00  0.00    -0.256 C  
HETATM   11  C   UNL     1     -10.227  12.792  66.459  1.00  0.00    -0.253 C  
ENDROOT
BRANCH   8  12
HETATM   12  C   UNL     1     -10.885  11.437  64.514  1.00  0.00    -0.309 C  
HETATM   13  C   UNL     1     -10.172  12.072  63.332  1.00  0.00    -0.457 C  
HETATM   14  C   UNL     1      -9.521  10.878  62.683  1.00  0.00    -0.324 C  
HETATM   15  C   UNL     1      -9.248   9.928  63.846  1.00  0.00    -0.248 C  
HETATM   16  O   UNL     1      -9.998  10.404  64.984  1.00  0.00    -0.294 OA 
BRANCH  15  17
HETATM   17  C   UNL     1      -7.771   9.809  64.226  1.00  0.00    -0.134 C  
HETATM   18  O   UNL     1      -7.388  10.842  65.132  1.00  0.00    -0.356 OA 
HETATM   19  H   UNL     1      -6.471  10.769  65.368  1.00  0.00     0.000 HD 
ENDBRANCH  15  17
ENDBRANCH   8  12
TORSDOF 2
ENDMDL
MODEL       35
REMARK 921   NORMALIZED FREE ENERGY PREDICTED BY IDOCK:   -5.04 KCAL/MOL
REMARK 922        TOTAL FREE ENERGY PREDICTED BY IDOCK:   -5.95 KCAL/MOL
REMARK 923 INTER-LIGAND FREE ENERGY PREDICTED BY IDOCK:   -6.20 KCAL/MOL
REMARK 924 INTRA-LIGAND FREE ENERGY PREDICTED BY IDOCK:    0.25 KCAL/MOL
REMARK 927      BINDING AFFINITY PREDICTED BY RF-SCORE:    0.00 PKD
ROOT
HETATM    1  N   UNL     1     -12.423  11.163  71.461  1.00  0.00    -0.295 NA 
HETATM    2  H1  UNL     1     -12.579  11.599  72.369  1.00  0.00     0.000 HD 
HETATM    3  H2  UNL     1     -12.386  10.149  71.356  1.00  0.00     0.000 HD 
HETATM    4  C   UNL     1     -12.268  11.999  70.389  1.00  0.00    -0.294 C  
HETATM    5  N   UNL     1     -12.071  11.445  69.236  1.00  0.00    -0.319 N  
HETATM    6  C   UNL     1     -11.902  12.234  68.120  1.00  0.00    -0.311 C  
HETATM    7  H   UNL     1     -12.040  10.429  69.154  1.00  0.00     0.000 HD 
HETATM    8  N   UNL     1     -11.840  13.619  68.289  1.00  0.00    -0.357 N  
HETATM    9  O   UNL     1     -11.806  11.725  67.005  1.00  0.00    -0.599 OA 
HETATM   10  C   UNL     1     -12.322  13.460  70.591  1.00  0.00    -0.423 C  
HETATM   11  C   UNL     1     -12.086  14.202  69.511  1.00  0.00    -0.340 C  
ENDROOT
BRANCH   8  12
HETATM   12  C   UNL     1     -11.680  14.433  67.097  1.00  0.00    -0.400 C  
HETATM   13  C   UNL     1     -10.309  14.291  66.456  1.00  0.00    -0.278 C  
HETATM   14  C   UNL     1     -10.572  14.763  65.049  1.00  0.00    -0.452 C  
HETATM   15  C   UNL     1     -12.030  14.385  64.799  1.00  0.00    -0.447 C  
HETATM   16  O   UNL     1     -12.619  14.052  66.074  1.00  0.00    -0.481 OA 
BRANCH  15  17
HETATM   17  C   UNL     1     -12.218  13.214  63.832  1.00  0.00    -0.433 C  
HETATM   18  O   UNL     1     -13.277  12.359  64.258  1.00  0.00    -0.769 OA 
HETATM   19  H   UNL     1     -13.393  11.633  63.658  1.00  0.00     0.000 HD 
ENDBRANCH  15  17
ENDBRANCH   8  12
TORSDOF 2
ENDMDL
MODEL       36
REMARK 921   NORMALIZED FREE ENERGY PREDICTED BY IDOCK:   -5.02 KCAL/MOL
REMARK 922        TOTAL FREE ENERGY PREDICTED BY IDOCK:   -5.93 KCAL/MOL
REMARK 923 INTER-LIGAND FREE ENERGY PREDICTED BY IDOCK:   -5.62 KCAL/MOL
REMARK 924 INTRA-LIGAND FREE ENERGY PREDICTED BY IDOCK:   -0.31 KCAL/MOL
REMARK 927      BINDING AFFINITY PREDICTED BY RF-SCORE:    0.00 PKD
ROOT
HETATM    1  N   UNL     1     -12.158  12.309  63.171  1.00  0.00    -0.730 NA 
HETATM    2  H1  UNL     1     -11.952  12.843  62.328  1.00  0.00     0.000 HD 
HETATM    3  H2  UNL     1     -12.548  11.367  63.125  1.00  0.00     0.000 HD 
HETATM    4  C   UNL     1     -11.888  12.912  64.369  1.00  0.00    -0.383 C  
HETATM    5  N   UNL     1     -12.150  12.234  65.440  1.00  0.00    -0.359 N  
HETATM    6  C   UNL     1     -11.904  12.789  66.676  1.00  0.00    -0.393 C  
HETATM    7  H   UNL     1     -12.536  11.292  65.369  1.00  0.00     0.000 HD 
HETATM    8  N   UNL     1     -11.480  14.119  66.735  1.00  0.00    -0.352 N  
HETATM    9  O   UNL     1     -12.060  12.126  67.700  1.00  0.00    -0.522 OA 
HETATM   10  C   UNL     1     -11.333  14.279  64.387  1.00  0.00    -0.284 C  
HETATM   11  C   UNL     1     -11.170  14.821  65.593  1.00  0.00    -0.343 C  
ENDROOT
BRANCH   8  12
HETATM   12  C   UNL     1     -11.210  14.678  68.048  1.00  0.00    -0.293 C  
HETATM   13  C   UNL     1      -9.745  14.594  68.443  1.00  0.00    -0.217 C  
HETATM   14  C   UNL     1      -9.650  15.655  69.511  1.00  0.00    -0.279 C  
HETATM   15  C   UNL     1     -10.698  16.686  69.102  1.00  0.00    -0.342 C  
HETATM   16  O   UNL     1     -11.539  16.079  68.096  1.00  0.00    -0.308 OA 
BRANCH  15  17
HETATM   17  C   UNL     1     -10.116  17.991  68.555  1.00  0.00    -0.393 C  
HETATM   18  O   UNL     1     -10.876  18.471  67.448  1.00  0.00    -0.421 OA 
HETATM   19  H   UNL     1     -10.515  19.281  67.109  1.00  0.00     0.000 HD 
ENDBRANCH  15  17
ENDBRANCH   8  12
TORSDOF 2
ENDMDL
MODEL       37
REMARK 921   NORMALIZED FREE ENERGY PREDICTED BY IDOCK:   -5.01 KCAL/MOL
REMARK 922        TOTAL FREE ENERGY PREDICTED BY IDOCK:   -5.92 KCAL/MOL
REMARK 923 INTER-LIGAND FREE ENERGY PREDICTED BY IDOCK:   -5.59 KCAL/MOL
REMARK 924 INTRA-LIGAND FREE ENERGY PREDICTED BY IDOCK:   -0.33 KCAL/MOL
REMARK 927      BINDING AFFINITY PREDICTED BY RF-SCORE:    0.00 PKD
ROOT
HETATM    1  N   UNL     1     -12.401  13.902  63.081  1.00  0.00    -1.106 NA 
HETATM    2  H1  UNL     1     -12.941  14.633  63.544  1.00  0.00     0.000 HD 
HETATM    3  H2  UNL     1     -12.330  13.855  62.064  1.00  0.00     0.000 HD 
HETATM    4  C   UNL     1     -11.776  12.988  63.884  1.00  0.00    -0.468 C  
HETATM    5  N   UNL     1     -11.090  12.061  63.296  1.00  0.00    -0.677 N  
HETATM    6  C   UNL     1     -10.442  11.109  64.051  1.00  0.00    -0.383 C  
HETATM    7  H   UNL     1     -11.030  12.037  62.278  1.00  0.00     0.000 HD 
HETATM    8  N   UNL     1     -10.638  11.110  65.434  1.00  0.00    -0.252 N  
HETATM    9  O   UNL     1      -9.713  10.277  63.513  1.00  0.00    -0.298 OA 
HETATM   10  C   UNL     1     -11.915  13.091  65.349  1.00  0.00    -0.457 C  
HETATM   11  C   UNL     1     -11.339  12.119  66.055  1.00  0.00    -0.358 C  
ENDROOT
BRANCH   8  12
HETATM   12  C   UNL     1      -9.932  10.109  66.211  1.00  0.00    -0.242 C  
HETATM   13  C   UNL     1      -8.750  10.674  66.981  1.00  0.00    -0.128 C  
HETATM   14  C   UNL     1      -8.548   9.631  68.051  1.00  0.00    -0.119 C  
HETATM   15  C   UNL     1      -9.948   9.074  68.293  1.00  0.00    -0.173 C  
HETATM   16  O   UNL     1     -10.789   9.520  67.207  1.00  0.00    -0.251 OA 
BRANCH  15  17
HETATM   17  C   UNL     1     -10.571   9.499  69.624  1.00  0.00    -0.228 C  
HETATM   18  O   UNL     1     -11.956   9.802  69.472  1.00  0.00    -0.446 OA 
HETATM   19  H   UNL     1     -12.343  10.065  70.298  1.00  0.00     0.000 HD 
ENDBRANCH  15  17
ENDBRANCH   8  12
TORSDOF 2
ENDMDL
MODEL       38
REMARK 921   NORMALIZED FREE ENERGY PREDICTED BY IDOCK:   -5.01 KCAL/MOL
REMARK 922        TOTAL FREE ENERGY PREDICTED BY IDOCK:   -5.92 KCAL/MOL
REMARK 923 INTER-LIGAND FREE ENERGY PREDICTED BY IDOCK:   -5.68 KCAL/MOL
REMARK 924 INTRA-LIGAND FREE ENERGY PREDICTED BY IDOCK:   -0.24 KCAL/MOL
REMARK 927      BINDING AFFINITY PREDICTED BY RF-SCORE:    0.00 PKD
ROOT
HETATM    1  N   UNL     1      -8.199  14.829  66.948  1.00  0.00    -0.361 NA 
HETATM    2  H1  UNL     1      -7.377  15.356  67.242  1.00  0.00     0.000 HD 
HETATM    3  H2  UNL     1      -8.233  14.351  66.048  1.00  0.00     0.000 HD 
HETATM    4  C   UNL     1      -9.254  14.791  67.818  1.00  0.00    -0.194 C  
HETATM    5  N   UNL     1     -10.298  14.121  67.446  1.00  0.00    -0.255 N  
HETATM    6  C   UNL     1     -11.395  14.051  68.276  1.00  0.00    -0.288 C  
HETATM    7  H   UNL     1     -10.308  13.648  66.542  1.00  0.00     0.000 HD 
HETATM    8  N   UNL     1     -11.387  14.801  69.454  1.00  0.00    -0.270 N  
HETATM    9  O   UNL     1     -12.357  13.345  67.979  1.00  0.00    -0.199 OA 
HETATM   10  C   UNL     1      -9.163  15.505  69.106  1.00  0.00    -0.246 C  
HETATM   11  C   UNL     1     -10.261  15.481  69.860  1.00  0.00    -0.295 C  
ENDROOT
BRANCH   8  12
HETATM   12  C   UNL     1     -12.546  14.697  70.322  1.00  0.00    -0.318 C  
HETATM   13  C   UNL     1     -12.452  13.545  71.308  1.00  0.00    -0.388 C  
HETATM   14  C   UNL     1     -13.436  13.965  72.371  1.00  0.00    -0.661 C  
HETATM   15  C   UNL     1     -13.387  15.490  72.339  1.00  0.00    -0.483 C  
HETATM   16  O   UNL     1     -12.701  15.879  71.130  1.00  0.00    -0.465 OA 
BRANCH  15  17
HETATM   17  C   UNL     1     -12.687  16.120  73.544  1.00  0.00    -0.559 C  
HETATM   18  O   UNL     1     -12.097  15.124  74.377  1.00  0.00    -0.700 OA 
HETATM   19  H   UNL     1     -11.662  15.516  75.125  1.00  0.00     0.000 HD 
ENDBRANCH  15  17
ENDBRANCH   8  12
TORSDOF 2
ENDMDL
MODEL       39
REMARK 921   NORMALIZED FREE ENERGY PREDICTED BY IDOCK:   -5.01 KCAL/MOL
REMARK 922        TOTAL FREE ENERGY PREDICTED BY IDOCK:   -5.92 KCAL/MOL
REMARK 923 INTER-LIGAND FREE ENERGY PREDICTED BY IDOCK:   -5.64 KCAL/MOL
REMARK 924 INTRA-LIGAND FREE ENERGY PREDICTED BY IDOCK:   -0.28 KCAL/MOL
REMARK 927      BINDING AFFINITY PREDICTED BY RF-SCORE:    0.00 PKD
ROOT
HETATM    1  N   UNL     1     -10.247   7.450  69.394  1.00  0.00    -0.196 NA 
HETATM    2  H1  UNL     1      -9.704   6.799  68.826  1.00  0.00     0.000 HD 
HETATM    3  H2  UNL     1     -10.553   7.208  70.337  1.00  0.00     0.000 HD 
HETATM    4  C   UNL     1     -10.545   8.662  68.834  1.00  0.00    -0.144 C  
HETATM    5  N   UNL     1     -11.234   9.488  69.555  1.00  0.00    -0.422 N  
HETATM    6  C   UNL     1     -11.570  10.722  69.044  1.00  0.00    -0.299 C  
HETATM    7  H   UNL     1     -11.526   9.226  70.496  1.00  0.00     0.000 HD 
HETATM    8  N   UNL     1     -11.248  11.001  67.714  1.00  0.00    -0.296 N  
HETATM    9  O   UNL     1     -12.143  11.552  69.747  1.00  0.00    -0.309 OA 
HETATM   10  C   UNL     1     -10.088   8.964  67.464  1.00  0.00    -0.285 C  
HETATM   11  C   UNL     1     -10.485  10.133  66.966  1.00  0.00    -0.240 C  
ENDROOT
BRANCH   8  12
HETATM   12  C   UNL     1     -11.596  12.315  67.203  1.00  0.00    -0.353 C  
HETATM   13  C   UNL     1     -10.383  13.182  66.909  1.00  0.00    -0.247 C  
HETATM   14  C   UNL     1     -10.951  14.194  65.946  1.00  0.00    -0.297 C  
HETATM   15  C   UNL     1     -12.054  13.433  65.216  1.00  0.00    -0.413 C  
HETATM   16  O   UNL     1     -12.306  12.218  65.954  1.00  0.00    -0.618 OA 
BRANCH  15  17
HETATM   17  C   UNL     1     -11.721  13.084  63.764  1.00  0.00    -0.485 C  
HETATM   18  O   UNL     1     -12.457  13.901  62.856  1.00  0.00    -1.034 OA 
HETATM   19  H   UNL     1     -12.250  13.685  61.955  1.00  0.00     0.000 HD 
ENDBRANCH  15  17
ENDBRANCH   8  12
TORSDOF 2
ENDMDL
MODEL       40
REMARK 921   NORMALIZED FREE ENERGY PREDICTED BY IDOCK:   -4.99 KCAL/MOL
REMARK 922        TOTAL FREE ENERGY PREDICTED BY IDOCK:   -5.89 KCAL/MOL
REMARK 923 INTER-LIGAND FREE ENERGY PREDICTED BY IDOCK:   -5.61 KCAL/MOL
REMARK 924 INTRA-LIGAND FREE ENERGY PREDICTED BY IDOCK:   -0.28 KCAL/MOL
REMARK 927      BINDING AFFINITY PREDICTED BY RF-SCORE:    0.00 PKD
ROOT
HETATM    1  N   UNL     1     -12.603  11.154  71.105  1.00  0.00    -0.402 NA 
HETATM    2  H1  UNL     1     -12.708  10.212  70.729  1.00  0.00     0.000 HD 
HETATM    3  H2  UNL     1     -12.918  11.392  72.045  1.00  0.00     0.000 HD 
HETATM    4  C   UNL     1     -12.019  12.085  70.290  1.00  0.00    -0.314 C  
HETATM    5  N   UNL     1     -11.885  13.281  70.766  1.00  0.00    -0.490 N  
HETATM    6  C   UNL     1     -11.309  14.263  69.992  1.00  0.00    -0.165 C  
HETATM    7  H   UNL     1     -12.205  13.495  71.711  1.00  0.00     0.000 HD 
HETATM    8  N   UNL     1     -10.986  13.961  68.667  1.00  0.00    -0.253 N  
HETATM    9  O   UNL     1     -11.091  15.379  70.461  1.00  0.00    -0.294 OA 
HETATM   10  C   UNL     1     -11.586  11.697  68.934  1.00  0.00    -0.377 C  
HETATM   11  C   UNL     1     -11.097  12.679  68.179  1.00  0.00    -0.249 C  
ENDROOT
BRANCH   8  12
HETATM   12  C   UNL     1     -10.363  15.007  67.875  1.00  0.00    -0.241 C  
HETATM   13  C   UNL     1      -9.202  14.506  67.031  1.00  0.00    -0.253 C  
HETATM   14  C   UNL     1      -9.101  15.577  65.975  1.00  0.00    -0.316 C  
HETATM   15  C   UNL     1     -10.534  16.079  65.819  1.00  0.00    -0.374 C  
HETATM   16  O   UNL     1     -11.296  15.578  66.938  1.00  0.00    -0.227 OA 
BRANCH  15  17
HETATM   17  C   UNL     1     -11.210  15.654  64.514  1.00  0.00    -0.325 C  
HETATM   18  O   UNL     1     -11.605  16.789  63.745  1.00  0.00    -1.331 OA 
HETATM   19  H   UNL     1     -12.025  16.525  62.935  1.00  0.00     0.000 HD 
ENDBRANCH  15  17
ENDBRANCH   8  12
TORSDOF 2
ENDMDL
MODEL       41
REMARK 921   NORMALIZED FREE ENERGY PREDICTED BY IDOCK:   -4.96 KCAL/MOL
REMARK 922        TOTAL FREE ENERGY PREDICTED BY IDOCK:   -5.86 KCAL/MOL
REMARK 923 INTER-LIGAND FREE ENERGY PREDICTED BY IDOCK:   -5.60 KCAL/MOL
REMARK 924 INTRA-LIGAND FREE ENERGY PREDICTED BY IDOCK:   -0.26 KCAL/MOL
REMARK 927      BINDING AFFINITY PREDICTED BY RF-SCORE:    0.00 PKD
ROOT
HETATM    1  N   UNL     1     -13.844   8.919  73.224  1.00  0.00    -1.162 NA 
HETATM    2  H1  UNL     1     -14.514   9.502  73.725  1.00  0.00     0.000 HD 
HETATM    3  H2  UNL     1     -13.692   7.943  73.475  1.00  0.00     0.000 HD 
HETATM    4  C   UNL     1     -13.158   9.508  72.197  1.00  0.00    -0.436 C  
HETATM    5  N   UNL     1     -12.307   8.768  71.559  1.00  0.00    -0.316 N  
HETATM    6  C   UNL     1     -11.582   9.305  70.519  1.00  0.00    -0.217 C  
HETATM    7  H   UNL     1     -12.175   7.793  71.827  1.00  0.00     0.000 HD 
HETATM    8  N   UNL     1     -11.709  10.671  70.255  1.00  0.00    -0.315 N  
HETATM    9  O   UNL     1     -10.839   8.594  69.845  1.00  0.00    -0.236 OA 
HETATM   10  C   UNL     1     -13.404  10.926  71.874  1.00  0.00    -0.429 C  
HETATM   11  C   UNL     1     -12.641  11.442  70.912  1.00  0.00    -0.356 C  
ENDROOT
BRANCH   8  12
HETATM   12  C   UNL     1     -10.949  11.211  69.142  1.00  0.00    -0.242 C  
HETATM   13  C   UNL     1     -11.622  10.995  67.797  1.00  0.00    -0.277 C  
HETATM   14  C   UNL     1     -10.962  12.049  66.946  1.00  0.00    -0.328 C  
HETATM   15  C   UNL     1     -10.639  13.171  67.929  1.00  0.00    -0.234 C  
HETATM   16  O   UNL     1     -10.789  12.637  69.263  1.00  0.00    -0.132 OA 
BRANCH  15  17
HETATM   17  C   UNL     1     -11.520  14.412  67.778  1.00  0.00    -0.336 C  
HETATM   18  O   UNL     1     -12.509  14.470  68.804  1.00  0.00    -0.579 OA 
HETATM   19  H   UNL     1     -13.056  15.241  68.710  1.00  0.00     0.000 HD 
ENDBRANCH  15  17
ENDBRANCH   8  12
TORSDOF 2
ENDMDL
MODEL       42
REMARK 921   NORMALIZED FREE ENERGY PREDICTED BY IDOCK:   -4.90 KCAL/MOL
REMARK 922        TOTAL FREE ENERGY PREDICTED BY IDOCK:   -5.80 KCAL/MOL
REMARK 923 INTER-LIGAND FREE ENERGY PREDICTED BY IDOCK:   -5.46 KCAL/MOL
REMARK 924 INTRA-LIGAND FREE ENERGY PREDICTED BY IDOCK:   -0.33 KCAL/MOL
REMARK 927      BINDING AFFINITY PREDICTED BY RF-SCORE:    0.00 PKD
ROOT
HETATM    1  N   UNL     1      -7.371  21.321  67.075  1.00  0.00    -0.795 NA 
HETATM    2  H1  UNL     1      -6.496  21.193  67.583  1.00  0.00     0.000 HD 
HETATM    3  H2  UNL     1      -7.635  22.225  66.686  1.00  0.00     0.000 HD 
HETATM    4  C   UNL     1      -8.175  20.222  66.941  1.00  0.00    -0.294 C  
HETATM    5  N   UNL     1      -9.286  20.383  66.296  1.00  0.00    -0.620 N  
HETATM    6  C   UNL     1     -10.140  19.315  66.132  1.00  0.00    -0.442 C  
HETATM    7  H   UNL     1      -9.528  21.296  65.912  1.00  0.00     0.000 HD 
HETATM    8  N   UNL     1      -9.827  18.110  66.766  1.00  0.00    -0.319 N  
HETATM    9  O   UNL     1     -11.154  19.427  65.446  1.00  0.00    -0.402 OA 
HETATM   10  C   UNL     1      -7.755  18.935  67.529  1.00  0.00    -0.251 C  
HETATM   11  C   UNL     1      -8.628  17.936  67.419  1.00  0.00    -0.239 C  
ENDROOT
BRANCH   8  12
HETATM   12  C   UNL     1     -10.733  16.993  66.565  1.00  0.00    -0.073 C  
HETATM   13  C   UNL     1     -10.264  16.030  65.487  1.00  0.00    -0.389 C  
HETATM   14  C   UNL     1     -11.025  14.777  65.836  1.00  0.00    -0.335 C  
HETATM   15  C   UNL     1     -11.187  14.852  67.351  1.00  0.00    -0.338 C  
HETATM   16  O   UNL     1     -10.855  16.197  67.759  1.00  0.00    -0.321 OA 
BRANCH  15  17
HETATM   17  C   UNL     1     -10.320  13.859  68.126  1.00  0.00    -0.247 C  
HETATM   18  O   UNL     1      -9.671  14.491  69.228  1.00  0.00    -0.397 OA 
HETATM   19  H   UNL     1      -9.133  13.873  69.709  1.00  0.00     0.000 HD 
ENDBRANCH  15  17
ENDBRANCH   8  12
TORSDOF 2
ENDMDL
MODEL       43
REMARK 921   NORMALIZED FREE ENERGY PREDICTED BY IDOCK:   -4.88 KCAL/MOL
REMARK 922        TOTAL FREE ENERGY PREDICTED BY IDOCK:   -5.77 KCAL/MOL
REMARK 923 INTER-LIGAND FREE ENERGY PREDICTED BY IDOCK:   -5.48 KCAL/MOL
REMARK 924 INTRA-LIGAND FREE ENERGY PREDICTED BY IDOCK:   -0.29 KCAL/MOL
REMARK 927      BINDING AFFINITY PREDICTED BY RF-SCORE:    0.00 PKD
ROOT
HETATM    1  N   UNL     1      -7.192  10.884  69.746  1.00  0.00    -0.318 NA 
HETATM    2  H1  UNL     1      -6.287  11.259  69.462  1.00  0.00     0.000 HD 
HETATM    3  H2  UNL     1      -7.275  10.206  70.503  1.00  0.00     0.000 HD 
HETATM    4  C   UNL     1      -8.290  11.333  69.064  1.00  0.00    -0.008 C  
HETATM    5  N   UNL     1      -9.439  10.857  69.423  1.00  0.00    -0.423 N  
HETATM    6  C   UNL     1     -10.581  11.267  68.771  1.00  0.00    -0.203 C  
HETATM    7  H   UNL     1      -9.498  10.183  70.186  1.00  0.00     0.000 HD 
HETATM    8  N   UNL     1     -10.448  12.105  67.661  1.00  0.00    -0.203 N  
HETATM    9  O   UNL     1     -11.687  10.896  69.159  1.00  0.00    -0.292 OA 
HETATM   10  C   UNL     1      -8.119  12.307  67.969  1.00  0.00    -0.156 C  
HETATM   11  C   UNL     1      -9.228  12.634  67.307  1.00  0.00    -0.195 C  
ENDROOT
BRANCH   8  12
HETATM   12  C   UNL     1     -11.666  12.538  67.000  1.00  0.00    -0.367 C  
HETATM   13  C   UNL     1     -11.665  14.018  66.655  1.00  0.00    -0.420 C  
HETATM   14  C   UNL     1     -12.711  14.085  65.571  1.00  0.00    -0.517 C  
HETATM   15  C   UNL     1     -12.627  12.722  64.891  1.00  0.00    -0.470 C  
HETATM   16  O   UNL     1     -11.851  11.854  65.746  1.00  0.00    -0.435 OA 
BRANCH  15  17
HETATM   17  C   UNL     1     -11.998  12.753  63.497  1.00  0.00    -0.555 C  
HETATM   18  O   UNL     1     -12.042  11.466  62.883  1.00  0.00    -0.919 OA 
HETATM   19  H   UNL     1     -11.651  11.486  62.017  1.00  0.00     0.000 HD 
ENDBRANCH  15  17
ENDBRANCH   8  12
TORSDOF 2
ENDMDL
MODEL       44
REMARK 921   NORMALIZED FREE ENERGY PREDICTED BY IDOCK:   -4.77 KCAL/MOL
REMARK 922        TOTAL FREE ENERGY PREDICTED BY IDOCK:   -5.65 KCAL/MOL
REMARK 923 INTER-LIGAND FREE ENERGY PREDICTED BY IDOCK:   -5.28 KCAL/MOL
REMARK 924 INTRA-LIGAND FREE ENERGY PREDICTED BY IDOCK:   -0.37 KCAL/MOL
REMARK 927      BINDING AFFINITY PREDICTED BY RF-SCORE:    0.00 PKD
ROOT
HETATM    1  N   UNL     1     -14.293   8.879  73.264  1.00  0.00    -1.177 NA 
HETATM    2  H1  UNL     1     -14.759   9.773  73.416  1.00  0.00     0.000 HD 
HETATM    3  H2  UNL     1     -14.598   8.030  73.740  1.00  0.00     0.000 HD 
HETATM    4  C   UNL     1     -13.239   8.870  72.391  1.00  0.00    -0.430 C  
HETATM    5  N   UNL     1     -12.647   7.736  72.197  1.00  0.00    -0.468 N  
HETATM    6  C   UNL     1     -11.576   7.664  71.334  1.00  0.00    -0.274 C  
HETATM    7  H   UNL     1     -12.972   6.899  72.682  1.00  0.00     0.000 HD 
HETATM    8  N   UNL     1     -11.092   8.849  70.775  1.00  0.00    -0.251 N  
HETATM    9  O   UNL     1     -11.061   6.579  71.068  1.00  0.00    -0.259 OA 
HETATM   10  C   UNL     1     -12.829  10.125  71.732  1.00  0.00    -0.554 C  
HETATM   11  C   UNL     1     -11.748  10.045  70.958  1.00  0.00    -0.392 C  
ENDROOT
BRANCH   8  12
HETATM   12  C   UNL     1      -9.974   8.747  69.854  1.00  0.00    -0.187 C  
HETATM   13  C   UNL     1     -10.401   8.725  68.396  1.00  0.00    -0.242 C  
HETATM   14  C   UNL     1      -9.135   9.145  67.695  1.00  0.00    -0.133 C  
HETATM   15  C   UNL     1      -8.440  10.059  68.700  1.00  0.00    -0.118 C  
HETATM   16  O   UNL     1      -9.093   9.880  69.976  1.00  0.00    -0.225 OA 
BRANCH  15  17
HETATM   17  C   UNL     1      -8.466  11.542  68.322  1.00  0.00    -0.159 C  
HETATM   18  O   UNL     1      -9.633  12.183  68.831  1.00  0.00    -0.411 OA 
HETATM   19  H   UNL     1      -9.648  13.104  68.597  1.00  0.00     0.000 HD 
ENDBRANCH  15  17
ENDBRANCH   8  12
TORSDOF 2
ENDMDL
MODEL       45
REMARK 921   NORMALIZED FREE ENERGY PREDICTED BY IDOCK:   -4.77 KCAL/MOL
REMARK 922        TOTAL FREE ENERGY PREDICTED BY IDOCK:   -5.65 KCAL/MOL
REMARK 923 INTER-LIGAND FREE ENERGY PREDICTED BY IDOCK:   -5.38 KCAL/MOL
REMARK 924 INTRA-LIGAND FREE ENERGY PREDICTED BY IDOCK:   -0.28 KCAL/MOL
REMARK 927      BINDING AFFINITY PREDICTED BY RF-SCORE:    0.00 PKD
ROOT
HETATM    1  N   UNL     1     -13.273   9.988  72.296  1.00  0.00    -0.560 NA 
HETATM    2  H1  UNL     1     -13.539  10.344  73.214  1.00  0.00     0.000 HD 
HETATM    3  H2  UNL     1     -13.292   8.991  72.085  1.00  0.00     0.000 HD 
HETATM    4  C   UNL     1     -12.891  10.910  71.361  1.00  0.00    -0.449 C  
HETATM    5  N   UNL     1     -12.554  10.459  70.195  1.00  0.00    -0.526 N  
HETATM    6  C   UNL     1     -12.155  11.338  69.213  1.00  0.00    -0.303 C  
HETATM    7  H   UNL     1     -12.584   9.457  70.006  1.00  0.00     0.000 HD 
HETATM    8  N   UNL     1     -12.021  12.688  69.543  1.00  0.00    -0.297 N  
HETATM    9  O   UNL     1     -11.920  10.936  68.075  1.00  0.00    -0.586 OA 
HETATM   10  C   UNL     1     -12.872  12.342  71.715  1.00  0.00    -0.350 C  
HETATM   11  C   UNL     1     -12.416  13.165  70.773  1.00  0.00    -0.308 C  
ENDROOT
BRANCH   8  12
HETATM   12  C   UNL     1     -11.617  13.599  68.487  1.00  0.00    -0.335 C  
HETATM   13  C   UNL     1     -11.909  15.055  68.810  1.00  0.00    -0.331 C  
HETATM   14  C   UNL     1     -10.966  15.775  67.880  1.00  0.00    -0.324 C  
HETATM   15  C   UNL     1      -9.785  14.819  67.737  1.00  0.00    -0.213 C  
HETATM   16  O   UNL     1     -10.197  13.537  68.259  1.00  0.00    -0.237 OA 
BRANCH  15  17
HETATM   17  C   UNL     1      -8.515  15.276  68.457  1.00  0.00    -0.162 C  
HETATM   18  O   UNL     1      -8.353  14.593  69.698  1.00  0.00    -0.396 OA 
HETATM   19  H   UNL     1      -7.565  14.876  70.146  1.00  0.00     0.000 HD 
ENDBRANCH  15  17
ENDBRANCH   8  12
TORSDOF 2
ENDMDL
MODEL       46
REMARK 921   NORMALIZED FREE ENERGY PREDICTED BY IDOCK:   -4.74 KCAL/MOL
REMARK 922        TOTAL FREE ENERGY PREDICTED BY IDOCK:   -5.61 KCAL/MOL
REMARK 923 INTER-LIGAND FREE ENERGY PREDICTED BY IDOCK:   -6.04 KCAL/MOL
REMARK 924 INTRA-LIGAND FREE ENERGY PREDICTED BY IDOCK:    0.43 KCAL/MOL
REMARK 927      BINDING AFFINITY PREDICTED BY RF-SCORE:    0.00 PKD
ROOT
HETATM    1  N   UNL     1     -13.393  10.084  72.213  1.00  0.00    -0.593 NA 
HETATM    2  H1  UNL     1     -13.701  10.480  73.100  1.00  0.00     0.000 HD 
HETATM    3  H2  UNL     1     -13.409   9.079  72.042  1.00  0.00     0.000 HD 
HETATM    4  C   UNL     1     -12.957  10.964  71.260  1.00  0.00    -0.392 C  
HETATM    5  N   UNL     1     -12.566  10.461  70.132  1.00  0.00    -0.526 N  
HETATM    6  C   UNL     1     -12.112  11.295  69.135  1.00  0.00    -0.279 C  
HETATM    7  H   UNL     1     -12.595   9.453  69.983  1.00  0.00     0.000 HD 
HETATM    8  N   UNL     1     -11.982  12.658  69.415  1.00  0.00    -0.289 N  
HETATM    9  O   UNL     1     -11.824  10.844  68.028  1.00  0.00    -0.585 OA 
HETATM   10  C   UNL     1     -12.943  12.409  71.554  1.00  0.00    -0.385 C  
HETATM   11  C   UNL     1     -12.433  13.189  70.602  1.00  0.00    -0.286 C  
ENDROOT
BRANCH   8  12
HETATM   12  C   UNL     1     -11.518  13.520  68.344  1.00  0.00    -0.311 C  
HETATM   13  C   UNL     1     -10.127  13.163  67.848  1.00  0.00    -0.232 C  
HETATM   14  C   UNL     1     -10.111  13.796  66.480  1.00  0.00    -0.286 C  
HETATM   15  C   UNL     1     -11.568  13.739  66.029  1.00  0.00    -0.346 C  
HETATM   16  O   UNL     1     -12.371  13.423  67.188  1.00  0.00    -0.295 OA 
BRANCH  15  17
HETATM   17  C   UNL     1     -11.845  12.715  64.927  1.00  0.00    -0.387 C  
HETATM   18  O   UNL     1     -13.244  12.582  64.686  1.00  0.00    -0.848 OA 
HETATM   19  H   UNL     1     -13.416  11.947  64.002  1.00  0.00     0.000 HD 
ENDBRANCH  15  17
ENDBRANCH   8  12
TORSDOF 2
ENDMDL
MODEL       47
REMARK 921   NORMALIZED FREE ENERGY PREDICTED BY IDOCK:   -4.73 KCAL/MOL
REMARK 922        TOTAL FREE ENERGY PREDICTED BY IDOCK:   -5.60 KCAL/MOL
REMARK 923 INTER-LIGAND FREE ENERGY PREDICTED BY IDOCK:   -5.30 KCAL/MOL
REMARK 924 INTRA-LIGAND FREE ENERGY PREDICTED BY IDOCK:   -0.30 KCAL/MOL
REMARK 927      BINDING AFFINITY PREDICTED BY RF-SCORE:    0.00 PKD
ROOT
HETATM    1  N   UNL     1     -11.737  13.553  70.340  1.00  0.00    -0.531 NA 
HETATM    2  H1  UNL     1     -11.800  13.739  71.340  1.00  0.00     0.000 HD 
HETATM    3  H2  UNL     1     -11.896  12.620  69.959  1.00  0.00     0.000 HD 
HETATM    4  C   UNL     1     -11.432  14.613  69.530  1.00  0.00    -0.297 C  
HETATM    5  N   UNL     1     -11.353  14.377  68.259  1.00  0.00    -0.273 N  
HETATM    6  C   UNL     1     -11.044  15.402  67.394  1.00  0.00    -0.311 C  
HETATM    7  H   UNL     1     -11.519  13.436  67.902  1.00  0.00     0.000 HD 
HETATM    8  N   UNL     1     -10.715  16.649  67.930  1.00  0.00    -0.346 N  
HETATM    9  O   UNL     1     -11.055  15.216  66.178  1.00  0.00    -0.339 OA 
HETATM   10  C   UNL     1     -11.203  15.943  70.126  1.00  0.00    -0.368 C  
HETATM   11  C   UNL     1     -10.837  16.901  69.278  1.00  0.00    -0.214 C  
ENDROOT
BRANCH   8  12
HETATM   12  C   UNL     1     -10.410  17.720  66.998  1.00  0.00    -0.344 C  
HETATM   13  C   UNL     1     -10.734  19.100  67.546  1.00  0.00    -0.555 C  
HETATM   14  C   UNL     1      -9.877  19.987  66.680  1.00  0.00    -0.577 C  
HETATM   15  C   UNL     1      -8.674  19.115  66.332  1.00  0.00    -0.328 C  
HETATM   16  O   UNL     1      -9.006  17.755  66.684  1.00  0.00    -0.252 OA 
BRANCH  15  17
HETATM   17  C   UNL     1      -7.379  19.521  67.040  1.00  0.00    -0.215 C  
HETATM   18  O   UNL     1      -7.392  20.904  67.384  1.00  0.00    -0.351 OA 
HETATM   19  H   UNL     1      -6.588  21.156  67.824  1.00  0.00     0.000 HD 
ENDBRANCH  15  17
ENDBRANCH   8  12
TORSDOF 2
ENDMDL
MODEL       48
REMARK 921   NORMALIZED FREE ENERGY PREDICTED BY IDOCK:   -4.72 KCAL/MOL
REMARK 922        TOTAL FREE ENERGY PREDICTED BY IDOCK:   -5.60 KCAL/MOL
REMARK 923 INTER-LIGAND FREE ENERGY PREDICTED BY IDOCK:   -5.22 KCAL/MOL
REMARK 924 INTRA-LIGAND FREE ENERGY PREDICTED BY IDOCK:   -0.37 KCAL/MOL
REMARK 927      BINDING AFFINITY PREDICTED BY RF-SCORE:    0.00 PKD
ROOT
HETATM    1  N   UNL     1     -13.722  13.763  72.722  1.00  0.00    -0.700 NA 
HETATM    2  H1  UNL     1     -13.938  13.043  73.410  1.00  0.00     0.000 HD 
HETATM    3  H2  UNL     1     -13.976  14.739  72.872  1.00  0.00     0.000 HD 
HETATM    4  C   UNL     1     -13.072  13.360  71.587  1.00  0.00    -0.375 C  
HETATM    5  N   UNL     1     -12.797  14.274  70.712  1.00  0.00    -0.346 N  
HETATM    6  C   UNL     1     -12.149  13.929  69.547  1.00  0.00    -0.342 C  
HETATM    7  H   UNL     1     -13.058  15.244  70.886  1.00  0.00     0.000 HD 
HETATM    8  N   UNL     1     -11.906  12.577  69.296  1.00  0.00    -0.313 N  
HETATM    9  O   UNL     1     -11.798  14.796  68.749  1.00  0.00    -0.308 OA 
HETATM   10  C   UNL     1     -12.731  11.935  71.410  1.00  0.00    -0.395 C  
HETATM   11  C   UNL     1     -12.169  11.616  70.245  1.00  0.00    -0.318 C  
ENDROOT
BRANCH   8  12
HETATM   12  C   UNL     1     -11.206  12.238  68.070  1.00  0.00    -0.269 C  
HETATM   13  C   UNL     1      -9.713  12.039  68.270  1.00  0.00    -0.205 C  
HETATM   14  C   UNL     1      -9.344  11.218  67.060  1.00  0.00    -0.183 C  
HETATM   15  C   UNL     1     -10.605  10.413  66.760  1.00  0.00    -0.205 C  
HETATM   16  O   UNL     1     -11.686  10.996  67.520  1.00  0.00    -0.565 OA 
BRANCH  15  17
HETATM   17  C   UNL     1     -10.495   8.925  67.096  1.00  0.00    -0.274 C  
HETATM   18  O   UNL     1     -10.817   8.680  68.464  1.00  0.00    -0.426 OA 
HETATM   19  H   UNL     1     -10.749   7.756  68.672  1.00  0.00     0.000 HD 
ENDBRANCH  15  17
ENDBRANCH   8  12
TORSDOF 2
ENDMDL
MODEL       49
REMARK 921   NORMALIZED FREE ENERGY PREDICTED BY IDOCK:   -4.71 KCAL/MOL
REMARK 922        TOTAL FREE ENERGY PREDICTED BY IDOCK:   -5.59 KCAL/MOL
REMARK 923 INTER-LIGAND FREE ENERGY PREDICTED BY IDOCK:   -5.75 KCAL/MOL
REMARK 924 INTRA-LIGAND FREE ENERGY PREDICTED BY IDOCK:    0.16 KCAL/MOL
REMARK 927      BINDING AFFINITY PREDICTED BY RF-SCORE:    0.00 PKD
ROOT
HETATM    1  N   UNL     1     -12.182  12.494  65.870  1.00  0.00    -0.624 NA 
HETATM    2  H1  UNL     1     -12.699  11.826  66.440  1.00  0.00     0.000 HD 
HETATM    3  H2  UNL     1     -12.008  12.329  64.879  1.00  0.00     0.000 HD 
HETATM    4  C   UNL     1     -11.731  13.624  66.497  1.00  0.00    -0.382 C  
HETATM    5  N   UNL     1     -11.075  14.474  65.774  1.00  0.00    -0.317 N  
HETATM    6  C   UNL     1     -10.591  15.628  66.348  1.00  0.00    -0.308 C  
HETATM    7  H   UNL     1     -10.916  14.289  64.783  1.00  0.00     0.000 HD 
HETATM    8  N   UNL     1     -10.732  15.793  67.728  1.00  0.00    -0.299 N  
HETATM    9  O   UNL     1     -10.046  16.487  65.658  1.00  0.00    -0.483 OA 
HETATM   10  C   UNL     1     -11.999  13.816  67.935  1.00  0.00    -0.391 C  
HETATM   11  C   UNL     1     -11.462  14.904  68.483  1.00  0.00    -0.315 C  
ENDROOT
BRANCH   8  12
HETATM   12  C   UNL     1     -10.230  17.026  68.310  1.00  0.00    -0.326 C  
HETATM   13  C   UNL     1      -8.768  17.286  67.990  1.00  0.00    -0.231 C  
HETATM   14  C   UNL     1      -8.659  18.772  68.219  1.00  0.00    -0.357 C  
HETATM   15  C   UNL     1     -10.048  19.303  67.875  1.00  0.00    -0.395 C  
HETATM   16  O   UNL     1     -10.941  18.170  67.802  1.00  0.00    -0.315 OA 
BRANCH  15  17
HETATM   17  C   UNL     1     -10.114  20.086  66.563  1.00  0.00    -0.482 C  
HETATM   18  O   UNL     1     -10.564  19.260  65.492  1.00  0.00    -0.520 OA 
HETATM   19  H   UNL     1     -10.605  19.747  64.677  1.00  0.00     0.000 HD 
ENDBRANCH  15  17
ENDBRANCH   8  12
TORSDOF 2
ENDMDL
MODEL       50
REMARK 921   NORMALIZED FREE ENERGY PREDICTED BY IDOCK:   -4.71 KCAL/MOL
REMARK 922        TOTAL FREE ENERGY PREDICTED BY IDOCK:   -5.59 KCAL/MOL
REMARK 923 INTER-LIGAND FREE ENERGY PREDICTED BY IDOCK:   -5.32 KCAL/MOL
REMARK 924 INTRA-LIGAND FREE ENERGY PREDICTED BY IDOCK:   -0.26 KCAL/MOL
REMARK 927      BINDING AFFINITY PREDICTED BY RF-SCORE:    0.00 PKD
ROOT
HETATM    1  N   UNL     1     -13.726  14.933  73.087  1.00  0.00    -0.555 NA 
HETATM    2  H1  UNL     1     -13.530  15.899  72.825  1.00  0.00     0.000 HD 
HETATM    3  H2  UNL     1     -14.213  14.703  73.953  1.00  0.00     0.000 HD 
HETATM    4  C   UNL     1     -13.305  13.960  72.223  1.00  0.00    -0.503 C  
HETATM    5  N   UNL     1     -13.553  12.733  72.555  1.00  0.00    -0.597 N  
HETATM    6  C   UNL     1     -13.149  11.708  71.729  1.00  0.00    -0.382 C  
HETATM    7  H   UNL     1     -14.045  12.527  73.424  1.00  0.00     0.000 HD 
HETATM    8  N   UNL     1     -12.382  12.023  70.605  1.00  0.00    -0.345 N  
HETATM    9  O   UNL     1     -13.457  10.545  71.983  1.00  0.00    -0.379 OA 
HETATM   10  C   UNL     1     -12.596  14.340  70.987  1.00  0.00    -0.428 C  
HETATM   11  C   UNL     1     -12.153  13.330  70.240  1.00  0.00    -0.335 C  
ENDROOT
BRANCH   8  12
HETATM   12  C   UNL     1     -11.983  10.928  69.738  1.00  0.00    -0.351 C  
HETATM   13  C   UNL     1     -11.608  11.381  68.337  1.00  0.00    -0.385 C  
HETATM   14  C   UNL     1     -10.768  10.227  67.852  1.00  0.00    -0.310 C  
HETATM   15  C   UNL     1     -10.121   9.680  69.121  1.00  0.00    -0.189 C  
HETATM   16  O   UNL     1     -10.815  10.258  70.248  1.00  0.00    -0.288 OA 
BRANCH  15  17
HETATM   17  C   UNL     1      -8.625   9.976  69.241  1.00  0.00    -0.168 C  
HETATM   18  O   UNL     1      -8.092  10.446  68.005  1.00  0.00    -0.108 OA 
HETATM   19  H   UNL     1      -7.163  10.630  68.079  1.00  0.00     0.000 HD 
ENDBRANCH  15  17
ENDBRANCH   8  12
TORSDOF 2
ENDMDL
MODEL       51
REMARK 921   NORMALIZED FREE ENERGY PREDICTED BY IDOCK:   -4.70 KCAL/MOL
REMARK 922        TOTAL FREE ENERGY PREDICTED BY IDOCK:   -5.58 KCAL/MOL
REMARK 923 INTER-LIGAND FREE ENERGY PREDICTED BY IDOCK:   -5.26 KCAL/MOL
REMARK 924 INTRA-LIGAND FREE ENERGY PREDICTED BY IDOCK:   -0.32 KCAL/MOL
REMARK 927      BINDING AFFINITY PREDICTED BY RF-SCORE:    0.00 PKD
ROOT
HETATM    1  N   UNL     1     -10.479  10.559  63.683  1.00  0.00    -0.408 NA 
HETATM    2  H1  UNL     1      -9.770   9.910  64.023  1.00  0.00     0.000 HD 
HETATM    3  H2  UNL     1     -11.040  10.352  62.857  1.00  0.00     0.000 HD 
HETATM    4  C   UNL     1     -10.643  11.721  64.386  1.00  0.00    -0.317 C  
HETATM    5  N   UNL     1     -11.543  12.546  63.955  1.00  0.00    -0.401 N  
HETATM    6  C   UNL     1     -11.751  13.735  64.617  1.00  0.00    -0.395 C  
HETATM    7  H   UNL     1     -12.095  12.315  63.128  1.00  0.00     0.000 HD 
HETATM    8  N   UNL     1     -10.902  14.065  65.675  1.00  0.00    -0.288 N  
HETATM    9  O   UNL     1     -12.663  14.487  64.276  1.00  0.00    -0.659 OA 
HETATM   10  C   UNL     1      -9.801  11.982  65.569  1.00  0.00    -0.251 C  
HETATM   11  C   UNL     1      -9.972  13.168  66.150  1.00  0.00    -0.291 C  
ENDROOT
BRANCH   8  12
HETATM   12  C   UNL     1     -11.152  15.315  66.370  1.00  0.00    -0.273 C  
HETATM   13  C   UNL     1     -10.598  15.333  67.785  1.00  0.00    -0.266 C  
HETATM   14  C   UNL     1     -10.506  16.812  68.064  1.00  0.00    -0.333 C  
HETATM   15  C   UNL     1     -10.244  17.431  66.694  1.00  0.00    -0.324 C  
HETATM   16  O   UNL     1     -10.519  16.421  65.699  1.00  0.00    -0.361 OA 
BRANCH  15  17
HETATM   17  C   UNL     1      -8.820  17.956  66.503  1.00  0.00    -0.261 C  
HETATM   18  O   UNL     1      -8.029  17.039  65.752  1.00  0.00    -0.428 OA 
HETATM   19  H   UNL     1      -7.145  17.365  65.633  1.00  0.00     0.000 HD 
ENDBRANCH  15  17
ENDBRANCH   8  12
TORSDOF 2
ENDMDL
MODEL       52
REMARK 921   NORMALIZED FREE ENERGY PREDICTED BY IDOCK:   -4.68 KCAL/MOL
REMARK 922        TOTAL FREE ENERGY PREDICTED BY IDOCK:   -5.55 KCAL/MOL
REMARK 923 INTER-LIGAND FREE ENERGY PREDICTED BY IDOCK:   -5.18 KCAL/MOL
REMARK 924 INTRA-LIGAND FREE ENERGY PREDICTED BY IDOCK:   -0.36 KCAL/MOL
REMARK 927      BINDING AFFINITY PREDICTED BY RF-SCORE:    0.00 PKD
ROOT
HETATM    1  N   UNL     1     -13.049   8.896  72.869  1.00  0.00    -0.749 NA 
HETATM    2  H1  UNL     1     -13.736   9.324  73.488  1.00  0.00     0.000 HD 
HETATM    3  H2  UNL     1     -12.741   7.932  72.999  1.00  0.00     0.000 HD 
HETATM    4  C   UNL     1     -12.560   9.672  71.854  1.00  0.00    -0.396 C  
HETATM    5  N   UNL     1     -11.688   9.127  71.067  1.00  0.00    -0.289 N  
HETATM    6  C   UNL     1     -11.155   9.860  70.029  1.00  0.00    -0.285 C  
HETATM    7  H   UNL     1     -11.397   8.161  71.215  1.00  0.00     0.000 HD 
HETATM    8  N   UNL     1     -11.494  11.211  69.926  1.00  0.00    -0.296 N  
HETATM    9  O   UNL     1     -10.396   9.331  69.219  1.00  0.00    -0.202 OA 
HETATM   10  C   UNL     1     -13.029  11.063  71.709  1.00  0.00    -0.544 C  
HETATM   11  C   UNL     1     -12.448  11.772  70.744  1.00  0.00    -0.312 C  
ENDROOT
BRANCH   8  12
HETATM   12  C   UNL     1     -10.934  11.959  68.814  1.00  0.00    -0.235 C  
HETATM   13  C   UNL     1     -11.854  12.011  67.606  1.00  0.00    -0.294 C  
HETATM   14  C   UNL     1     -11.324  13.212  66.864  1.00  0.00    -0.355 C  
HETATM   15  C   UNL     1     -10.781  14.118  67.965  1.00  0.00    -0.242 C  
HETATM   16  O   UNL     1     -10.700  13.333  69.175  1.00  0.00    -0.172 OA 
BRANCH  15  17
HETATM   17  C   UNL     1     -11.627  15.365  68.227  1.00  0.00    -0.348 C  
HETATM   18  O   UNL     1     -12.665  15.097  69.167  1.00  0.00    -0.466 OA 
HETATM   19  H   UNL     1     -13.189  15.871  69.329  1.00  0.00     0.000 HD 
ENDBRANCH  15  17
ENDBRANCH   8  12
TORSDOF 2
ENDMDL
MODEL       53
REMARK 921   NORMALIZED FREE ENERGY PREDICTED BY IDOCK:   -4.66 KCAL/MOL
REMARK 922        TOTAL FREE ENERGY PREDICTED BY IDOCK:   -5.53 KCAL/MOL
REMARK 923 INTER-LIGAND FREE ENERGY PREDICTED BY IDOCK:   -5.21 KCAL/MOL
REMARK 924 INTRA-LIGAND FREE ENERGY PREDICTED BY IDOCK:   -0.32 KCAL/MOL
REMARK 927      BINDING AFFINITY PREDICTED BY RF-SCORE:    0.00 PKD
ROOT
HETATM    1  N   UNL     1     -10.888   6.975  73.480  1.00  0.00    -0.540 NA 
HETATM    2  H1  UNL     1      -9.910   6.686  73.494  1.00  0.00     0.000 HD 
HETATM    3  H2  UNL     1     -11.581   6.541  74.089  1.00  0.00     0.000 HD 
HETATM    4  C   UNL     1     -11.228   7.972  72.607  1.00  0.00    -0.397 C  
HETATM    5  N   UNL     1     -12.469   8.339  72.590  1.00  0.00    -0.603 N  
HETATM    6  C   UNL     1     -12.874   9.335  71.729  1.00  0.00    -0.382 C  
HETATM    7  H   UNL     1     -13.144   7.892  73.211  1.00  0.00     0.000 HD 
HETATM    8  N   UNL     1     -11.947   9.844  70.818  1.00  0.00    -0.307 N  
HETATM    9  O   UNL     1     -14.029   9.758  71.765  1.00  0.00    -0.175 OA 
HETATM   10  C   UNL     1     -10.193   8.565  71.739  1.00  0.00    -0.352 C  
HETATM   11  C   UNL     1     -10.621   9.475  70.866  1.00  0.00    -0.325 C  
ENDROOT
BRANCH   8  12
HETATM   12  C   UNL     1     -12.391  10.905  69.932  1.00  0.00    -0.285 C  
HETATM   13  C   UNL     1     -11.916  12.282  70.364  1.00  0.00    -0.349 C  
HETATM   14  C   UNL     1     -12.030  13.067  69.082  1.00  0.00    -0.320 C  
HETATM   15  C   UNL     1     -11.783  12.030  67.990  1.00  0.00    -0.331 C  
HETATM   16  O   UNL     1     -11.874  10.725  68.600  1.00  0.00    -0.404 OA 
BRANCH  15  17
HETATM   17  C   UNL     1     -10.432  12.168  67.287  1.00  0.00    -0.218 C  
HETATM   18  O   UNL     1      -9.919  13.493  67.412  1.00  0.00    -0.228 OA 
HETATM   19  H   UNL     1      -9.080  13.578  66.975  1.00  0.00     0.000 HD 
ENDBRANCH  15  17
ENDBRANCH   8  12
TORSDOF 2
ENDMDL
MODEL       54
REMARK 921   NORMALIZED FREE ENERGY PREDICTED BY IDOCK:   -4.65 KCAL/MOL
REMARK 922        TOTAL FREE ENERGY PREDICTED BY IDOCK:   -5.51 KCAL/MOL
REMARK 923 INTER-LIGAND FREE ENERGY PREDICTED BY IDOCK:   -5.22 KCAL/MOL
REMARK 924 INTRA-LIGAND FREE ENERGY PREDICTED BY IDOCK:   -0.29 KCAL/MOL
REMARK 927      BINDING AFFINITY PREDICTED BY RF-SCORE:    0.00 PKD
ROOT
HETATM    1  N   UNL     1     -13.674  13.807  72.615  1.00  0.00    -0.722 NA 
HETATM    2  H1  UNL     1     -13.950  14.766  72.825  1.00  0.00     0.000 HD 
HETATM    3  H2  UNL     1     -13.893  13.038  73.248  1.00  0.00     0.000 HD 
HETATM    4  C   UNL     1     -12.998  13.600  71.444  1.00  0.00    -0.347 C  
HETATM    5  N   UNL     1     -12.648  12.382  71.176  1.00  0.00    -0.325 N  
HETATM    6  C   UNL     1     -11.961  12.110  70.015  1.00  0.00    -0.315 C  
HETATM    7  H   UNL     1     -12.881  11.628  71.823  1.00  0.00     0.000 HD 
HETATM    8  N   UNL     1     -11.564  13.181  69.210  1.00  0.00    -0.298 N  
HETATM    9  O   UNL     1     -11.701  10.949  69.701  1.00  0.00    -0.275 OA 
HETATM   10  C   UNL     1     -12.698  14.744  70.563  1.00  0.00    -0.397 C  
HETATM   11  C   UNL     1     -11.971  14.467  69.482  1.00  0.00    -0.319 C  
ENDROOT
BRANCH   8  12
HETATM   12  C   UNL     1     -10.856  12.869  67.981  1.00  0.00    -0.241 C  
HETATM   13  C   UNL     1     -11.784  12.568  66.817  1.00  0.00    -0.453 C  
HETATM   14  C   UNL     1     -10.884  12.807  65.631  1.00  0.00    -0.300 C  
HETATM   15  C   UNL     1      -9.916  13.885  66.113  1.00  0.00    -0.310 C  
HETATM   16  O   UNL     1     -10.049  13.980  67.548  1.00  0.00    -0.233 OA 
BRANCH  15  17
HETATM   17  C   UNL     1     -10.151  15.263  65.491  1.00  0.00    -0.375 C  
HETATM   18  O   UNL     1     -10.609  16.197  66.466  1.00  0.00    -0.308 OA 
HETATM   19  H   UNL     1     -10.754  17.053  66.079  1.00  0.00     0.000 HD 
ENDBRANCH  15  17
ENDBRANCH   8  12
TORSDOF 2
ENDMDL
MODEL       55
REMARK 921   NORMALIZED FREE ENERGY PREDICTED BY IDOCK:   -4.64 KCAL/MOL
REMARK 922        TOTAL FREE ENERGY PREDICTED BY IDOCK:   -5.50 KCAL/MOL
REMARK 923 INTER-LIGAND FREE ENERGY PREDICTED BY IDOCK:   -5.22 KCAL/MOL
REMARK 924 INTRA-LIGAND FREE ENERGY PREDICTED BY IDOCK:   -0.29 KCAL/MOL
REMARK 927      BINDING AFFINITY PREDICTED BY RF-SCORE:    0.00 PKD
ROOT
HETATM    1  N   UNL     1     -10.376  13.038  63.950  1.00  0.00    -0.631 NA 
HETATM    2  H1  UNL     1     -11.155  13.236  63.323  1.00  0.00     0.000 HD 
HETATM    3  H2  UNL     1      -9.539  12.555  63.624  1.00  0.00     0.000 HD 
HETATM    4  C   UNL     1     -10.504  13.450  65.248  1.00  0.00    -0.324 C  
HETATM    5  N   UNL     1      -9.515  13.199  66.044  1.00  0.00    -0.464 N  
HETATM    6  C   UNL     1      -9.587  13.585  67.364  1.00  0.00    -0.227 C  
HETATM    7  H   UNL     1      -8.686  12.718  65.695  1.00  0.00     0.000 HD 
HETATM    8  N   UNL     1     -10.780  14.141  67.830  1.00  0.00    -0.238 N  
HETATM    9  O   UNL     1      -8.621  13.437  68.110  1.00  0.00    -0.162 OA 
HETATM   10  C   UNL     1     -11.738  14.138  65.676  1.00  0.00    -0.357 C  
HETATM   11  C   UNL     1     -11.814  14.437  66.971  1.00  0.00    -0.412 C  
ENDROOT
BRANCH   8  12
HETATM   12  C   UNL     1     -10.827  14.557  69.221  1.00  0.00    -0.252 C  
HETATM   13  C   UNL     1     -11.544  15.881  69.425  1.00  0.00    -0.352 C  
HETATM   14  C   UNL     1     -11.913  15.813  70.885  1.00  0.00    -0.453 C  
HETATM   15  C   UNL     1     -12.105  14.322  71.149  1.00  0.00    -0.336 C  
HETATM   16  O   UNL     1     -11.548  13.605  70.026  1.00  0.00    -0.254 OA 
BRANCH  15  17
HETATM   17  C   UNL     1     -13.562  13.901  71.347  1.00  0.00    -0.215 C  
HETATM   18  O   UNL     1     -13.672  12.866  72.322  1.00  0.00    -0.541 OA 
HETATM   19  H   UNL     1     -14.577  12.605  72.445  1.00  0.00     0.000 HD 
ENDBRANCH  15  17
ENDBRANCH   8  12
TORSDOF 2
ENDMDL
MODEL       56
REMARK 921   NORMALIZED FREE ENERGY PREDICTED BY IDOCK:   -4.63 KCAL/MOL
REMARK 922        TOTAL FREE ENERGY PREDICTED BY IDOCK:   -5.49 KCAL/MOL
REMARK 923 INTER-LIGAND FREE ENERGY PREDICTED BY IDOCK:   -5.17 KCAL/MOL
REMARK 924 INTRA-LIGAND FREE ENERGY PREDICTED BY IDOCK:   -0.32 KCAL/MOL
REMARK 927      BINDING AFFINITY PREDICTED BY RF-SCORE:    0.00 PKD
ROOT
HETATM    1  N   UNL     1      -9.598   8.281  72.008  1.00  0.00    -0.221 NA 
HETATM    2  H1  UNL     1      -8.684   7.900  71.763  1.00  0.00     0.000 HD 
HETATM    3  H2  UNL     1     -10.091   7.986  72.850  1.00  0.00     0.000 HD 
HETATM    4  C   UNL     1     -10.131   9.207  71.154  1.00  0.00    -0.314 C  
HETATM    5  N   UNL     1     -11.291   9.692  71.465  1.00  0.00    -0.380 N  
HETATM    6  C   UNL     1     -11.883  10.625  70.642  1.00  0.00    -0.363 C  
HETATM    7  H   UNL     1     -11.764   9.384  72.315  1.00  0.00     0.000 HD 
HETATM    8  N   UNL     1     -11.256  10.938  69.434  1.00  0.00    -0.250 N  
HETATM    9  O   UNL     1     -12.940  11.162  70.968  1.00  0.00    -0.335 OA 
HETATM   10  C   UNL     1      -9.385   9.597  69.943  1.00  0.00    -0.256 C  
HETATM   11  C   UNL     1     -10.008  10.447  69.128  1.00  0.00    -0.223 C  
ENDROOT
BRANCH   8  12
HETATM   12  C   UNL     1     -11.889  11.937  68.591  1.00  0.00    -0.308 C  
HETATM   13  C   UNL     1     -11.176  13.278  68.616  1.00  0.00    -0.311 C  
HETATM   14  C   UNL     1     -11.663  13.914  67.339  1.00  0.00    -0.422 C  
HETATM   15  C   UNL     1     -11.905  12.730  66.405  1.00  0.00    -0.408 C  
HETATM   16  O   UNL     1     -11.889  11.531  67.210  1.00  0.00    -0.609 OA 
BRANCH  15  17
HETATM   17  C   UNL     1     -10.878  12.599  65.279  1.00  0.00    -0.288 C  
HETATM   18  O   UNL     1      -9.958  13.688  65.291  1.00  0.00    -0.483 OA 
HETATM   19  H   UNL     1      -9.321  13.606  64.591  1.00  0.00     0.000 HD 
ENDBRANCH  15  17
ENDBRANCH   8  12
TORSDOF 2
ENDMDL
MODEL       57
REMARK 921   NORMALIZED FREE ENERGY PREDICTED BY IDOCK:   -4.63 KCAL/MOL
REMARK 922        TOTAL FREE ENERGY PREDICTED BY IDOCK:   -5.49 KCAL/MOL
REMARK 923 INTER-LIGAND FREE ENERGY PREDICTED BY IDOCK:   -5.20 KCAL/MOL
REMARK 924 INTRA-LIGAND FREE ENERGY PREDICTED BY IDOCK:   -0.29 KCAL/MOL
REMARK 927      BINDING AFFINITY PREDICTED BY RF-SCORE:    0.00 PKD
ROOT
HETATM    1  N   UNL     1      -8.878   7.487  65.658  1.00  0.00    -0.346 NA 
HETATM    2  H1  UNL     1      -9.001   7.078  66.584  1.00  0.00     0.000 HD 
HETATM    3  H2  UNL     1      -8.385   6.991  64.916  1.00  0.00     0.000 HD 
HETATM    4  C   UNL     1      -9.406   8.734  65.457  1.00  0.00    -0.095 C  
HETATM    5  N   UNL     1      -9.250   9.254  64.282  1.00  0.00    -0.425 N  
HETATM    6  C   UNL     1      -9.754  10.509  64.020  1.00  0.00    -0.323 C  
HETATM    7  H   UNL     1      -8.756   8.738  63.554  1.00  0.00     0.000 HD 
HETATM    8  N   UNL     1     -10.326  11.229  65.071  1.00  0.00    -0.285 N  
HETATM    9  O   UNL     1      -9.696  10.979  62.885  1.00  0.00    -0.319 OA 
HETATM   10  C   UNL     1     -10.104   9.417  66.563  1.00  0.00    -0.332 C  
HETATM   11  C   UNL     1     -10.520  10.656  66.307  1.00  0.00    -0.203 C  
ENDROOT
BRANCH   8  12
HETATM   12  C   UNL     1     -10.867  12.542  64.768  1.00  0.00    -0.298 C  
HETATM   13  C   UNL     1     -12.351  12.661  65.069  1.00  0.00    -0.561 C  
HETATM   14  C   UNL     1     -12.526  14.154  65.185  1.00  0.00    -0.453 C  
HETATM   15  C   UNL     1     -11.180  14.645  65.709  1.00  0.00    -0.336 C  
HETATM   16  O   UNL     1     -10.234  13.564  65.561  1.00  0.00    -0.291 OA 
BRANCH  15  17
HETATM   17  C   UNL     1     -11.202  15.102  67.169  1.00  0.00    -0.320 C  
HETATM   18  O   UNL     1     -12.342  14.585  67.853  1.00  0.00    -0.615 OA 
HETATM   19  H   UNL     1     -12.356  14.868  68.759  1.00  0.00     0.000 HD 
ENDBRANCH  15  17
ENDBRANCH   8  12
TORSDOF 2
ENDMDL
MODEL       58
REMARK 921   NORMALIZED FREE ENERGY PREDICTED BY IDOCK:   -4.63 KCAL/MOL
REMARK 922        TOTAL FREE ENERGY PREDICTED BY IDOCK:   -5.49 KCAL/MOL
REMARK 923 INTER-LIGAND FREE ENERGY PREDICTED BY IDOCK:   -5.25 KCAL/MOL
REMARK 924 INTRA-LIGAND FREE ENERGY PREDICTED BY IDOCK:   -0.24 KCAL/MOL
REMARK 927      BINDING AFFINITY PREDICTED BY RF-SCORE:    0.00 PKD
ROOT
HETATM    1  N   UNL     1     -13.860   8.977  73.149  1.00  0.00    -1.177 NA 
HETATM    2  H1  UNL     1     -14.599   9.657  73.321  1.00  0.00     0.000 HD 
HETATM    3  H2  UNL     1     -13.771   8.131  73.711  1.00  0.00     0.000 HD 
HETATM    4  C   UNL     1     -12.992   9.250  72.126  1.00  0.00    -0.424 C  
HETATM    5  N   UNL     1     -12.054   8.386  71.906  1.00  0.00    -0.319 N  
HETATM    6  C   UNL     1     -11.147   8.607  70.894  1.00  0.00    -0.264 C  
HETATM    7  H   UNL     1     -11.987   7.545  72.480  1.00  0.00     0.000 HD 
HETATM    8  N   UNL     1     -11.203   9.820  70.204  1.00  0.00    -0.260 N  
HETATM    9  O   UNL     1     -10.306   7.755  70.613  1.00  0.00    -0.200 OA 
HETATM   10  C   UNL     1     -13.155  10.491  71.345  1.00  0.00    -0.509 C  
HETATM   11  C   UNL     1     -12.225  10.717  70.419  1.00  0.00    -0.349 C  
ENDROOT
BRANCH   8  12
HETATM   12  C   UNL     1     -10.249  10.025  69.130  1.00  0.00    -0.210 C  
HETATM   13  C   UNL     1     -10.782   9.610  67.769  1.00  0.00    -0.316 C  
HETATM   14  C   UNL     1      -9.884  10.380  66.834  1.00  0.00    -0.236 C  
HETATM   15  C   UNL     1      -9.524  11.638  67.620  1.00  0.00    -0.177 C  
HETATM   16  O   UNL     1      -9.903  11.416  68.995  1.00  0.00    -0.153 OA 
BRANCH  15  17
HETATM   17  C   UNL     1     -10.196  12.912  67.107  1.00  0.00    -0.239 C  
HETATM   18  O   UNL     1      -9.276  13.725  66.383  1.00  0.00    -0.416 OA 
HETATM   19  H   UNL     1      -9.694  14.517  66.064  1.00  0.00     0.000 HD 
ENDBRANCH  15  17
ENDBRANCH   8  12
TORSDOF 2
ENDMDL
MODEL       59
REMARK 921   NORMALIZED FREE ENERGY PREDICTED BY IDOCK:   -4.60 KCAL/MOL
REMARK 922        TOTAL FREE ENERGY PREDICTED BY IDOCK:   -5.46 KCAL/MOL
REMARK 923 INTER-LIGAND FREE ENERGY PREDICTED BY IDOCK:   -5.16 KCAL/MOL
REMARK 924 INTRA-LIGAND FREE ENERGY PREDICTED BY IDOCK:   -0.30 KCAL/MOL
REMARK 927      BINDING AFFINITY PREDICTED BY RF-SCORE:    0.00 PKD
ROOT
HETATM    1  N   UNL     1      -6.835  14.169  69.943  1.00  0.00    -0.350 NA 
HETATM    2  H1  UNL     1      -7.033  14.997  70.505  1.00  0.00     0.000 HD 
HETATM    3  H2  UNL     1      -6.024  13.580  70.128  1.00  0.00     0.000 HD 
HETATM    4  C   UNL     1      -7.710  13.884  68.930  1.00  0.00    -0.041 C  
HETATM    5  N   UNL     1      -7.459  12.833  68.218  1.00  0.00    -0.115 N  
HETATM    6  C   UNL     1      -8.300  12.496  67.180  1.00  0.00    -0.179 C  
HETATM    7  H   UNL     1      -6.643  12.256  68.424  1.00  0.00     0.000 HD 
HETATM    8  N   UNL     1      -9.342  13.368  66.859  1.00  0.00    -0.245 N  
HETATM    9  O   UNL     1      -8.129  11.452  66.552  1.00  0.00    -0.165 OA 
HETATM   10  C   UNL     1      -8.866  14.770  68.695  1.00  0.00    -0.180 C  
HETATM   11  C   UNL     1      -9.624  14.464  67.643  1.00  0.00    -0.214 C  
ENDROOT
BRANCH   8  12
HETATM   12  C   UNL     1     -10.227  12.985  65.773  1.00  0.00    -0.290 C  
HETATM   13  C   UNL     1     -11.617  12.594  66.245  1.00  0.00    -0.440 C  
HETATM   14  C   UNL     1     -12.432  12.765  64.988  1.00  0.00    -0.572 C  
HETATM   15  C   UNL     1     -11.719  13.886  64.235  1.00  0.00    -0.380 C  
HETATM   16  O   UNL     1     -10.428  14.074  64.854  1.00  0.00    -0.393 OA 
BRANCH  15  17
HETATM   17  C   UNL     1     -12.476  15.215  64.225  1.00  0.00    -0.052 C  
HETATM   18  O   UNL     1     -11.635  16.283  63.793  1.00  0.00    -1.539 OA 
HETATM   19  H   UNL     1     -12.105  17.109  63.787  1.00  0.00     0.000 HD 
ENDBRANCH  15  17
ENDBRANCH   8  12
TORSDOF 2
ENDMDL
MODEL       60
REMARK 921   NORMALIZED FREE ENERGY PREDICTED BY IDOCK:   -4.59 KCAL/MOL
REMARK 922        TOTAL FREE ENERGY PREDICTED BY IDOCK:   -5.44 KCAL/MOL
REMARK 923 INTER-LIGAND FREE ENERGY PREDICTED BY IDOCK:   -5.30 KCAL/MOL
REMARK 924 INTRA-LIGAND FREE ENERGY PREDICTED BY IDOCK:   -0.14 KCAL/MOL
REMARK 927      BINDING AFFINITY PREDICTED BY RF-SCORE:    0.00 PKD
ROOT
HETATM    1  N   UNL     1     -12.428  14.906  63.756  1.00  0.00    -1.062 NA 
HETATM    2  H1  UNL     1     -12.315  14.589  62.793  1.00  0.00     0.000 HD 
HETATM    3  H2  UNL     1     -12.748  15.850  63.972  1.00  0.00     0.000 HD 
HETATM    4  C   UNL     1     -12.131  14.008  64.744  1.00  0.00    -0.437 C  
HETATM    5  N   UNL     1     -12.275  14.410  65.966  1.00  0.00    -0.373 N  
HETATM    6  C   UNL     1     -11.986  13.553  67.004  1.00  0.00    -0.394 C  
HETATM    7  H   UNL     1     -12.600  15.358  66.158  1.00  0.00     0.000 HD 
HETATM    8  N   UNL     1     -11.439  12.304  66.704  1.00  0.00    -0.357 N  
HETATM    9  O   UNL     1     -12.204  13.888  68.168  1.00  0.00    -0.329 OA 
HETATM   10  C   UNL     1     -11.662  12.656  64.383  1.00  0.00    -0.431 C  
HETATM   11  C   UNL     1     -11.322  11.870  65.403  1.00  0.00    -0.277 C  
ENDROOT
BRANCH   8  12
HETATM   12  C   UNL     1     -11.159  11.411  67.813  1.00  0.00    -0.265 C  
HETATM   13  C   UNL     1     -10.830   9.994  67.372  1.00  0.00    -0.313 C  
HETATM   14  C   UNL     1     -10.096   9.457  68.573  1.00  0.00    -0.208 C  
HETATM   15  C   UNL     1      -9.419  10.686  69.174  1.00  0.00    -0.170 C  
HETATM   16  O   UNL     1     -10.012  11.852  68.564  1.00  0.00    -0.207 OA 
BRANCH  15  17
HETATM   17  C   UNL     1      -7.902  10.727  68.978  1.00  0.00    -0.138 C  
HETATM   18  O   UNL     1      -7.340  11.903  69.557  1.00  0.00    -0.342 OA 
HETATM   19  H   UNL     1      -6.398  11.928  69.435  1.00  0.00     0.000 HD 
ENDBRANCH  15  17
ENDBRANCH   8  12
TORSDOF 2
ENDMDL
MODEL       61
REMARK 921   NORMALIZED FREE ENERGY PREDICTED BY IDOCK:   -4.58 KCAL/MOL
REMARK 922        TOTAL FREE ENERGY PREDICTED BY IDOCK:   -5.44 KCAL/MOL
REMARK 923 INTER-LIGAND FREE ENERGY PREDICTED BY IDOCK:   -5.05 KCAL/MOL
REMARK 924 INTRA-LIGAND FREE ENERGY PREDICTED BY IDOCK:   -0.39 KCAL/MOL
REMARK 927      BINDING AFFINITY PREDICTED BY RF-SCORE:    0.00 PKD
ROOT
HETATM    1  N   UNL     1     -14.190  13.288  72.628  1.00  0.00    -0.656 NA 
HETATM    2  H1  UNL     1     -14.708  14.022  73.110  1.00  0.00     0.000 HD 
HETATM    3  H2  UNL     1     -14.278  12.308  72.897  1.00  0.00     0.000 HD 
HETATM    4  C   UNL     1     -13.372  13.678  71.603  1.00  0.00    -0.346 C  
HETATM    5  N   UNL     1     -12.714  12.746  70.990  1.00  0.00    -0.302 N  
HETATM    6  C   UNL     1     -11.871  13.077  69.953  1.00  0.00    -0.307 C  
HETATM    7  H   UNL     1     -12.821  11.772  71.274  1.00  0.00     0.000 HD 
HETATM    8  N   UNL     1     -11.667  14.428  69.666  1.00  0.00    -0.290 N  
HETATM    9  O   UNL     1     -11.310  12.197  69.301  1.00  0.00    -0.256 OA 
HETATM   10  C   UNL     1     -13.270  15.108  71.256  1.00  0.00    -0.536 C  
HETATM   11  C   UNL     1     -12.396  15.410  70.298  1.00  0.00    -0.388 C  
ENDROOT
BRANCH   8  12
HETATM   12  C   UNL     1     -10.787  14.752  68.558  1.00  0.00    -0.252 C  
HETATM   13  C   UNL     1     -11.525  15.314  67.354  1.00  0.00    -0.246 C  
HETATM   14  C   UNL     1     -10.420  16.029  66.618  1.00  0.00    -0.304 C  
HETATM   15  C   UNL     1      -9.467  16.476  67.723  1.00  0.00    -0.222 C  
HETATM   16  O   UNL     1      -9.833  15.766  68.927  1.00  0.00    -0.202 OA 
BRANCH  15  17
HETATM   17  C   UNL     1      -9.484  17.980  67.997  1.00  0.00    -0.284 C  
HETATM   18  O   UNL     1     -10.402  18.304  69.040  1.00  0.00    -0.458 OA 
HETATM   19  H   UNL     1     -10.412  19.238  69.210  1.00  0.00     0.000 HD 
ENDBRANCH  15  17
ENDBRANCH   8  12
TORSDOF 2
ENDMDL
MODEL       62
REMARK 921   NORMALIZED FREE ENERGY PREDICTED BY IDOCK:   -4.58 KCAL/MOL
REMARK 922        TOTAL FREE ENERGY PREDICTED BY IDOCK:   -5.44 KCAL/MOL
REMARK 923 INTER-LIGAND FREE ENERGY PREDICTED BY IDOCK:   -5.22 KCAL/MOL
REMARK 924 INTRA-LIGAND FREE ENERGY PREDICTED BY IDOCK:   -0.22 KCAL/MOL
REMARK 927      BINDING AFFINITY PREDICTED BY RF-SCORE:    0.00 PKD
ROOT
HETATM    1  N   UNL     1     -12.814  15.963  70.390  1.00  0.00    -0.672 NA 
HETATM    2  H1  UNL     1     -12.853  15.846  71.402  1.00  0.00     0.000 HD 
HETATM    3  H2  UNL     1     -13.068  16.845  69.945  1.00  0.00     0.000 HD 
HETATM    4  C   UNL     1     -12.404  14.884  69.656  1.00  0.00    -0.208 C  
HETATM    5  N   UNL     1     -12.354  15.033  68.371  1.00  0.00    -0.544 N  
HETATM    6  C   UNL     1     -11.955  13.980  67.578  1.00  0.00    -0.395 C  
HETATM    7  H   UNL     1     -12.610  15.925  67.948  1.00  0.00     0.000 HD 
HETATM    8  N   UNL     1     -11.720  12.743  68.183  1.00  0.00    -0.332 N  
HETATM    9  O   UNL     1     -11.814  14.132  66.366  1.00  0.00    -0.386 OA 
HETATM   10  C   UNL     1     -12.055  13.626  70.343  1.00  0.00    -0.421 C  
HETATM   11  C   UNL     1     -11.740  12.602  69.552  1.00  0.00    -0.308 C  
ENDROOT
BRANCH   8  12
HETATM   12  C   UNL     1     -11.283  11.653  67.330  1.00  0.00    -0.304 C  
HETATM   13  C   UNL     1      -9.774  11.599  67.155  1.00  0.00    -0.195 C  
HETATM   14  C   UNL     1      -9.562  10.170  66.723  1.00  0.00    -0.222 C  
HETATM   15  C   UNL     1     -10.692   9.405  67.406  1.00  0.00    -0.210 C  
HETATM   16  O   UNL     1     -11.648  10.376  67.886  1.00  0.00    -0.406 OA 
BRANCH  15  17
HETATM   17  C   UNL     1     -10.240   8.521  68.569  1.00  0.00    -0.198 C  
HETATM   18  O   UNL     1     -11.228   7.545  68.891  1.00  0.00    -0.423 OA 
HETATM   19  H   UNL     1     -10.947   6.997  69.613  1.00  0.00     0.000 HD 
ENDBRANCH  15  17
ENDBRANCH   8  12
TORSDOF 2
ENDMDL
MODEL       63
REMARK 921   NORMALIZED FREE ENERGY PREDICTED BY IDOCK:   -4.53 KCAL/MOL
REMARK 922        TOTAL FREE ENERGY PREDICTED BY IDOCK:   -5.39 KCAL/MOL
REMARK 923 INTER-LIGAND FREE ENERGY PREDICTED BY IDOCK:   -5.02 KCAL/MOL
REMARK 924 INTRA-LIGAND FREE ENERGY PREDICTED BY IDOCK:   -0.37 KCAL/MOL
REMARK 927      BINDING AFFINITY PREDICTED BY RF-SCORE:    0.00 PKD
ROOT
HETATM    1  N   UNL     1     -13.388  11.566  72.083  1.00  0.00    -0.562 NA 
HETATM    2  H1  UNL     1     -12.761  12.344  71.881  1.00  0.00     0.000 HD 
HETATM    3  H2  UNL     1     -14.285  11.711  72.547  1.00  0.00     0.000 HD 
HETATM    4  C   UNL     1     -12.973  10.319  71.704  1.00  0.00    -0.465 C  
HETATM    5  N   UNL     1     -13.770   9.332  71.961  1.00  0.00    -0.427 N  
HETATM    6  C   UNL     1     -13.405   8.052  71.608  1.00  0.00    -0.332 C  
HETATM    7  H   UNL     1     -14.663   9.501  72.423  1.00  0.00     0.000 HD 
HETATM    8  N   UNL     1     -12.129   7.846  71.079  1.00  0.00    -0.273 N  
HETATM    9  O   UNL     1     -14.188   7.116  71.761  1.00  0.00    -0.406 OA 
HETATM   10  C   UNL     1     -11.664  10.157  71.043  1.00  0.00    -0.470 C  
HETATM   11  C   UNL     1     -11.302   8.904  70.775  1.00  0.00    -0.278 C  
ENDROOT
BRANCH   8  12
HETATM   12  C   UNL     1     -11.773   6.491  70.697  1.00  0.00    -0.374 C  
HETATM   13  C   UNL     1     -10.934   6.427  69.431  1.00  0.00    -0.421 C  
HETATM   14  C   UNL     1     -10.285   5.073  69.556  1.00  0.00    -0.286 C  
HETATM   15  C   UNL     1     -10.154   4.862  71.062  1.00  0.00    -0.218 C  
HETATM   16  O   UNL     1     -10.976   5.854  71.714  1.00  0.00    -0.255 OA 
BRANCH  15  17
HETATM   17  C   UNL     1      -8.722   4.965  71.589  1.00  0.00    -0.127 C  
HETATM   18  O   UNL     1      -8.412   6.301  71.980  1.00  0.00    -0.123 OA 
HETATM   19  H   UNL     1      -7.522   6.365  72.307  1.00  0.00     0.000 HD 
ENDBRANCH  15  17
ENDBRANCH   8  12
TORSDOF 2
ENDMDL
MODEL       64
REMARK 921   NORMALIZED FREE ENERGY PREDICTED BY IDOCK:   -4.53 KCAL/MOL
REMARK 922        TOTAL FREE ENERGY PREDICTED BY IDOCK:   -5.38 KCAL/MOL
REMARK 923 INTER-LIGAND FREE ENERGY PREDICTED BY IDOCK:   -5.03 KCAL/MOL
REMARK 924 INTRA-LIGAND FREE ENERGY PREDICTED BY IDOCK:   -0.35 KCAL/MOL
REMARK 927      BINDING AFFINITY PREDICTED BY RF-SCORE:    0.00 PKD
ROOT
HETATM    1  N   UNL     1     -11.604  16.371  63.887  1.00  0.00    -1.602 NA 
HETATM    2  H1  UNL     1     -12.041  15.899  63.096  1.00  0.00     0.000 HD 
HETATM    3  H2  UNL     1     -11.611  17.388  63.972  1.00  0.00     0.000 HD 
HETATM    4  C   UNL     1     -11.010  15.579  64.830  1.00  0.00    -0.436 C  
HETATM    5  N   UNL     1     -10.456  16.178  65.836  1.00  0.00    -0.346 N  
HETATM    6  C   UNL     1      -9.837  15.434  66.816  1.00  0.00    -0.245 C  
HETATM    7  H   UNL     1     -10.478  17.196  65.901  1.00  0.00     0.000 HD 
HETATM    8  N   UNL     1      -9.731  14.054  66.636  1.00  0.00    -0.279 N  
HETATM    9  O   UNL     1      -9.386  15.981  67.821  1.00  0.00    -0.209 OA 
HETATM   10  C   UNL     1     -11.018  14.113  64.661  1.00  0.00    -0.393 C  
HETATM   11  C   UNL     1     -10.353  13.421  65.584  1.00  0.00    -0.290 C  
ENDROOT
BRANCH   8  12
HETATM   12  C   UNL     1      -9.090  13.288  67.690  1.00  0.00    -0.204 C  
HETATM   13  C   UNL     1      -9.665  11.890  67.847  1.00  0.00    -0.192 C  
HETATM   14  C   UNL     1      -8.549  11.174  68.564  1.00  0.00    -0.157 C  
HETATM   15  C   UNL     1      -7.285  11.874  68.074  1.00  0.00    -0.090 C  
HETATM   16  O   UNL     1      -7.689  13.095  67.418  1.00  0.00    -0.161 OA 
BRANCH  15  17
HETATM   17  C   UNL     1      -6.436  11.039  67.113  1.00  0.00    -0.084 C  
HETATM   18  O   UNL     1      -6.463  11.585  65.796  1.00  0.00    -0.346 OA 
HETATM   19  H   UNL     1      -5.936  11.067  65.199  1.00  0.00     0.000 HD 
ENDBRANCH  15  17
ENDBRANCH   8  12
TORSDOF 2
ENDMDL
MODEL       65
REMARK 921   NORMALIZED FREE ENERGY PREDICTED BY IDOCK:   -4.48 KCAL/MOL
REMARK 922        TOTAL FREE ENERGY PREDICTED BY IDOCK:   -5.32 KCAL/MOL
REMARK 923 INTER-LIGAND FREE ENERGY PREDICTED BY IDOCK:   -5.52 KCAL/MOL
REMARK 924 INTRA-LIGAND FREE ENERGY PREDICTED BY IDOCK:    0.20 KCAL/MOL
REMARK 927      BINDING AFFINITY PREDICTED BY RF-SCORE:    0.00 PKD
ROOT
HETATM    1  N   UNL     1     -11.389   9.167  70.378  1.00  0.00    -0.323 NA 
HETATM    2  H1  UNL     1     -11.653   9.335  71.349  1.00  0.00     0.000 HD 
HETATM    3  H2  UNL     1     -11.057   8.255  70.066  1.00  0.00     0.000 HD 
HETATM    4  C   UNL     1     -11.501  10.222  69.514  1.00  0.00    -0.210 C  
HETATM    5  N   UNL     1     -11.166  10.009  68.282  1.00  0.00    -0.502 N  
HETATM    6  C   UNL     1     -11.252  11.033  67.365  1.00  0.00    -0.285 C  
HETATM    7  H   UNL     1     -10.840   9.087  67.992  1.00  0.00     0.000 HD 
HETATM    8  N   UNL     1     -11.596  12.307  67.822  1.00  0.00    -0.335 N  
HETATM    9  O   UNL     1     -11.026  10.825  66.175  1.00  0.00    -0.115 OA 
HETATM   10  C   UNL     1     -11.978  11.525  70.014  1.00  0.00    -0.435 C  
HETATM   11  C   UNL     1     -11.985  12.518  69.126  1.00  0.00    -0.236 C  
ENDROOT
BRANCH   8  12
HETATM   12  C   UNL     1     -11.698  13.368  66.836  1.00  0.00    -0.389 C  
HETATM   13  C   UNL     1     -10.355  13.772  66.252  1.00  0.00    -0.294 C  
HETATM   14  C   UNL     1     -10.764  14.438  64.963  1.00  0.00    -0.440 C  
HETATM   15  C   UNL     1     -12.047  13.714  64.563  1.00  0.00    -0.419 C  
HETATM   16  O   UNL     1     -12.496  12.959  65.709  1.00  0.00    -0.531 OA 
BRANCH  15  17
HETATM   17  C   UNL     1     -11.892  12.775  63.366  1.00  0.00    -0.518 C  
HETATM   18  O   UNL     1     -12.537  11.526  63.604  1.00  0.00    -0.491 OA 
HETATM   19  H   UNL     1     -12.441  10.943  62.860  1.00  0.00     0.000 HD 
ENDBRANCH  15  17
ENDBRANCH   8  12
TORSDOF 2
ENDMDL
MODEL       66
REMARK 921   NORMALIZED FREE ENERGY PREDICTED BY IDOCK:   -4.47 KCAL/MOL
REMARK 922        TOTAL FREE ENERGY PREDICTED BY IDOCK:   -5.32 KCAL/MOL
REMARK 923 INTER-LIGAND FREE ENERGY PREDICTED BY IDOCK:   -5.07 KCAL/MOL
REMARK 924 INTRA-LIGAND FREE ENERGY PREDICTED BY IDOCK:   -0.25 KCAL/MOL
REMARK 927      BINDING AFFINITY PREDICTED BY RF-SCORE:    0.00 PKD
ROOT
HETATM    1  N   UNL     1     -12.536  14.032  63.130  1.00  0.00    -1.070 NA 
HETATM    2  H1  UNL     1     -12.437  13.752  62.154  1.00  0.00     0.000 HD 
HETATM    3  H2  UNL     1     -13.049  14.873  63.394  1.00  0.00     0.000 HD 
HETATM    4  C   UNL     1     -11.948  13.229  64.068  1.00  0.00    -0.465 C  
HETATM    5  N   UNL     1     -12.074  13.585  65.307  1.00  0.00    -0.386 N  
HETATM    6  C   UNL     1     -11.500  12.820  66.298  1.00  0.00    -0.354 C  
HETATM    7  H   UNL     1     -12.595  14.429  65.547  1.00  0.00     0.000 HD 
HETATM    8  N   UNL     1     -10.702  11.737  65.923  1.00  0.00    -0.273 N  
HETATM    9  O   UNL     1     -11.686  13.093  67.482  1.00  0.00    -0.329 OA 
HETATM   10  C   UNL     1     -11.208  12.028  63.639  1.00  0.00    -0.528 C  
HETATM   11  C   UNL     1     -10.603  11.344  64.608  1.00  0.00    -0.318 C  
ENDROOT
BRANCH   8  12
HETATM   12  C   UNL     1     -10.121  10.934  66.985  1.00  0.00    -0.205 C  
HETATM   13  C   UNL     1     -10.968   9.727  67.353  1.00  0.00    -0.176 C  
HETATM   14  C   UNL     1      -9.960   8.833  68.027  1.00  0.00    -0.220 C  
HETATM   15  C   UNL     1      -8.642   9.175  67.337  1.00  0.00    -0.115 C  
HETATM   16  O   UNL     1      -8.843  10.397  66.595  1.00  0.00    -0.133 OA 
BRANCH  15  17
HETATM   17  C   UNL     1      -8.127   8.088  66.392  1.00  0.00    -0.107 C  
HETATM   18  O   UNL     1      -9.196   7.493  65.658  1.00  0.00    -0.388 OA 
HETATM   19  H   UNL     1      -8.876   6.819  65.072  1.00  0.00     0.000 HD 
ENDBRANCH  15  17
ENDBRANCH   8  12
TORSDOF 2
ENDMDL
MODEL       67
REMARK 921   NORMALIZED FREE ENERGY PREDICTED BY IDOCK:   -4.45 KCAL/MOL
REMARK 922        TOTAL FREE ENERGY PREDICTED BY IDOCK:   -5.29 KCAL/MOL
REMARK 923 INTER-LIGAND FREE ENERGY PREDICTED BY IDOCK:   -5.64 KCAL/MOL
REMARK 924 INTRA-LIGAND FREE ENERGY PREDICTED BY IDOCK:    0.34 KCAL/MOL
REMARK 927      BINDING AFFINITY PREDICTED BY RF-SCORE:    0.00 PKD
ROOT
HETATM    1  N   UNL     1     -13.078  16.085  74.237  1.00  0.00    -0.893 NA 
HETATM    2  H1  UNL     1     -13.560  15.496  74.914  1.00  0.00     0.000 HD 
HETATM    3  H2  UNL     1     -12.818  17.047  74.455  1.00  0.00     0.000 HD 
HETATM    4  C   UNL     1     -12.795  15.527  73.020  1.00  0.00    -0.472 C  
HETATM    5  N   UNL     1     -12.182  16.275  72.159  1.00  0.00    -0.574 N  
HETATM    6  C   UNL     1     -11.874  15.772  70.915  1.00  0.00    -0.414 C  
HETATM    7  H   UNL     1     -11.928  17.233  72.402  1.00  0.00     0.000 HD 
HETATM    8  N   UNL     1     -12.334  14.496  70.581  1.00  0.00    -0.316 N  
HETATM    9  O   UNL     1     -11.212  16.437  70.120  1.00  0.00    -0.354 OA 
HETATM   10  C   UNL     1     -13.199  14.135  72.746  1.00  0.00    -0.604 C  
HETATM   11  C   UNL     1     -12.954  13.694  71.513  1.00  0.00    -0.360 C  
ENDROOT
BRANCH   8  12
HETATM   12  C   UNL     1     -11.983  13.979  69.271  1.00  0.00    -0.353 C  
HETATM   13  C   UNL     1     -10.489  14.011  68.997  1.00  0.00    -0.169 C  
HETATM   14  C   UNL     1     -10.353  12.991  67.895  1.00  0.00    -0.233 C  
HETATM   15  C   UNL     1     -11.473  11.993  68.174  1.00  0.00    -0.322 C  
HETATM   16  O   UNL     1     -12.365  12.597  69.135  1.00  0.00    -0.086 OA 
BRANCH  15  17
HETATM   17  C   UNL     1     -10.993  10.642  68.707  1.00  0.00    -0.246 C  
HETATM   18  O   UNL     1     -10.546   9.799  67.647  1.00  0.00    -0.242 OA 
HETATM   19  H   UNL     1     -10.247   8.961  67.979  1.00  0.00     0.000 HD 
ENDBRANCH  15  17
ENDBRANCH   8  12
TORSDOF 2
ENDMDL
MODEL       68
REMARK 921   NORMALIZED FREE ENERGY PREDICTED BY IDOCK:   -4.44 KCAL/MOL
REMARK 922        TOTAL FREE ENERGY PREDICTED BY IDOCK:   -5.28 KCAL/MOL
REMARK 923 INTER-LIGAND FREE ENERGY PREDICTED BY IDOCK:   -5.00 KCAL/MOL
REMARK 924 INTRA-LIGAND FREE ENERGY PREDICTED BY IDOCK:   -0.28 KCAL/MOL
REMARK 927      BINDING AFFINITY PREDICTED BY RF-SCORE:    0.00 PKD
ROOT
HETATM    1  N   UNL     1     -13.702  14.195  72.936  1.00  0.00    -0.633 NA 
HETATM    2  H1  UNL     1     -13.730  15.214  72.935  1.00  0.00     0.000 HD 
HETATM    3  H2  UNL     1     -14.052  13.652  73.725  1.00  0.00     0.000 HD 
HETATM    4  C   UNL     1     -13.175  13.588  71.828  1.00  0.00    -0.404 C  
HETATM    5  N   UNL     1     -13.141  12.294  71.829  1.00  0.00    -0.408 N  
HETATM    6  C   UNL     1     -12.618  11.626  70.745  1.00  0.00    -0.273 C  
HETATM    7  H   UNL     1     -13.500  11.772  72.628  1.00  0.00     0.000 HD 
HETATM    8  N   UNL     1     -12.036  12.374  69.719  1.00  0.00    -0.310 N  
HETATM    9  O   UNL     1     -12.661  10.398  70.689  1.00  0.00    -0.335 OA 
HETATM   10  C   UNL     1     -12.673  14.415  70.714  1.00  0.00    -0.427 C  
HETATM   11  C   UNL     1     -12.108  13.749  69.709  1.00  0.00    -0.340 C  
ENDROOT
BRANCH   8  12
HETATM   12  C   UNL     1     -11.506  11.650  68.578  1.00  0.00    -0.298 C  
HETATM   13  C   UNL     1     -11.868  12.285  67.246  1.00  0.00    -0.330 C  
HETATM   14  C   UNL     1     -10.819  11.707  66.330  1.00  0.00    -0.333 C  
HETATM   15  C   UNL     1      -9.612  11.494  67.239  1.00  0.00    -0.172 C  
HETATM   16  O   UNL     1     -10.067  11.614  68.604  1.00  0.00    -0.211 OA 
BRANCH  15  17
HETATM   17  C   UNL     1      -8.464  12.477  66.999  1.00  0.00    -0.161 C  
HETATM   18  O   UNL     1      -7.389  11.853  66.300  1.00  0.00    -0.360 OA 
HETATM   19  H   UNL     1      -6.677  12.463  66.151  1.00  0.00     0.000 HD 
ENDBRANCH  15  17
ENDBRANCH   8  12
TORSDOF 2
ENDMDL
MODEL       69
REMARK 921   NORMALIZED FREE ENERGY PREDICTED BY IDOCK:   -4.41 KCAL/MOL
REMARK 922        TOTAL FREE ENERGY PREDICTED BY IDOCK:   -5.25 KCAL/MOL
REMARK 923 INTER-LIGAND FREE ENERGY PREDICTED BY IDOCK:   -5.40 KCAL/MOL
REMARK 924 INTRA-LIGAND FREE ENERGY PREDICTED BY IDOCK:    0.15 KCAL/MOL
REMARK 927      BINDING AFFINITY PREDICTED BY RF-SCORE:    0.00 PKD
ROOT
HETATM    1  N   UNL     1     -12.001  16.004  70.067  1.00  0.00    -0.344 NA 
HETATM    2  H1  UNL     1     -11.354  16.557  70.628  1.00  0.00     0.000 HD 
HETATM    3  H2  UNL     1     -13.002  15.993  70.262  1.00  0.00     0.000 HD 
HETATM    4  C   UNL     1     -11.465  15.276  69.040  1.00  0.00    -0.324 C  
HETATM    5  N   UNL     1     -12.287  14.574  68.327  1.00  0.00    -0.595 N  
HETATM    6  C   UNL     1     -11.807  13.816  67.282  1.00  0.00    -0.401 C  
HETATM    7  H   UNL     1     -13.284  14.582  68.539  1.00  0.00     0.000 HD 
HETATM    8  N   UNL     1     -10.425  13.744  67.093  1.00  0.00    -0.271 N  
HETATM    9  O   UNL     1     -12.582  13.216  66.540  1.00  0.00    -0.301 OA 
HETATM   10  C   UNL     1     -10.010  15.316  68.801  1.00  0.00    -0.215 C  
HETATM   11  C   UNL     1      -9.561  14.521  67.831  1.00  0.00    -0.217 C  
ENDROOT
BRANCH   8  12
HETATM   12  C   UNL     1      -9.942  12.953  65.974  1.00  0.00    -0.272 C  
HETATM   13  C   UNL     1     -10.238  11.470  66.119  1.00  0.00    -0.272 C  
HETATM   14  C   UNL     1     -10.142  10.993  64.692  1.00  0.00    -0.370 C  
HETATM   15  C   UNL     1     -10.577  12.201  63.868  1.00  0.00    -0.415 C  
HETATM   16  O   UNL     1     -10.575  13.350  64.743  1.00  0.00    -0.358 OA 
BRANCH  15  17
HETATM   17  C   UNL     1     -11.956  12.057  63.223  1.00  0.00    -0.376 C  
HETATM   18  O   UNL     1     -12.881  12.994  63.770  1.00  0.00    -0.667 OA 
HETATM   19  H   UNL     1     -13.738  12.905  63.369  1.00  0.00     0.000 HD 
ENDBRANCH  15  17
ENDBRANCH   8  12
TORSDOF 2
ENDMDL
MODEL       70
REMARK 921   NORMALIZED FREE ENERGY PREDICTED BY IDOCK:   -4.41 KCAL/MOL
REMARK 922        TOTAL FREE ENERGY PREDICTED BY IDOCK:   -5.25 KCAL/MOL
REMARK 923 INTER-LIGAND FREE ENERGY PREDICTED BY IDOCK:   -4.91 KCAL/MOL
REMARK 924 INTRA-LIGAND FREE ENERGY PREDICTED BY IDOCK:   -0.34 KCAL/MOL
REMARK 927      BINDING AFFINITY PREDICTED BY RF-SCORE:    0.00 PKD
ROOT
HETATM    1  N   UNL     1     -13.918   9.050  73.282  1.00  0.00    -1.199 NA 
HETATM    2  H1  UNL     1     -14.249   8.229  73.790  1.00  0.00     0.000 HD 
HETATM    3  H2  UNL     1     -14.327   9.972  73.434  1.00  0.00     0.000 HD 
HETATM    4  C   UNL     1     -12.901   8.857  72.388  1.00  0.00    -0.380 C  
HETATM    5  N   UNL     1     -12.481   9.899  71.744  1.00  0.00    -0.398 N  
HETATM    6  C   UNL     1     -11.462   9.768  70.826  1.00  0.00    -0.342 C  
HETATM    7  H   UNL     1     -12.903  10.812  71.915  1.00  0.00     0.000 HD 
HETATM    8  N   UNL     1     -10.987   8.487  70.539  1.00  0.00    -0.239 N  
HETATM    9  O   UNL     1     -10.990  10.760  70.274  1.00  0.00    -0.246 OA 
HETATM   10  C   UNL     1     -12.347   7.504  72.195  1.00  0.00    -0.251 C  
HETATM   11  C   UNL     1     -11.412   7.390  71.253  1.00  0.00    -0.272 C  
ENDROOT
BRANCH   8  12
HETATM   12  C   UNL     1      -9.901   8.375  69.582  1.00  0.00    -0.184 C  
HETATM   13  C   UNL     1      -9.011   7.168  69.826  1.00  0.00    -0.142 C  
HETATM   14  C   UNL     1      -8.357   6.986  68.480  1.00  0.00    -0.121 C  
HETATM   15  C   UNL     1      -9.401   7.493  67.489  1.00  0.00    -0.138 C  
HETATM   16  O   UNL     1     -10.400   8.215  68.241  1.00  0.00    -0.202 OA 
BRANCH  15  17
HETATM   17  C   UNL     1     -10.079   6.392  66.672  1.00  0.00    -0.145 C  
HETATM   18  O   UNL     1     -11.459   6.275  67.010  1.00  0.00    -0.650 OA 
HETATM   19  H   UNL     1     -11.880   5.592  66.502  1.00  0.00     0.000 HD 
ENDBRANCH  15  17
ENDBRANCH   8  12
TORSDOF 2
ENDMDL
MODEL       71
REMARK 921   NORMALIZED FREE ENERGY PREDICTED BY IDOCK:   -4.39 KCAL/MOL
REMARK 922        TOTAL FREE ENERGY PREDICTED BY IDOCK:   -5.23 KCAL/MOL
REMARK 923 INTER-LIGAND FREE ENERGY PREDICTED BY IDOCK:   -4.95 KCAL/MOL
REMARK 924 INTRA-LIGAND FREE ENERGY PREDICTED BY IDOCK:   -0.28 KCAL/MOL
REMARK 927      BINDING AFFINITY PREDICTED BY RF-SCORE:    0.00 PKD
ROOT
HETATM    1  N   UNL     1     -10.197  13.337  63.912  1.00  0.00    -0.735 NA 
HETATM    2  H1  UNL     1     -10.963  13.160  63.263  1.00  0.00     0.000 HD 
HETATM    3  H2  UNL     1      -9.345  13.812  63.614  1.00  0.00     0.000 HD 
HETATM    4  C   UNL     1     -10.363  12.909  65.200  1.00  0.00    -0.303 C  
HETATM    5  N   UNL     1      -9.390  13.135  66.024  1.00  0.00    -0.477 N  
HETATM    6  C   UNL     1      -9.496  12.723  67.334  1.00  0.00    -0.190 C  
HETATM    7  H   UNL     1      -8.549  13.615  65.704  1.00  0.00     0.000 HD 
HETATM    8  N   UNL     1     -10.614  11.973  67.707  1.00  0.00    -0.202 N  
HETATM    9  O   UNL     1      -8.622  13.009  68.150  1.00  0.00    -0.176 OA 
HETATM   10  C   UNL     1     -11.610  12.219  65.584  1.00  0.00    -0.433 C  
HETATM   11  C   UNL     1     -11.660  11.768  66.836  1.00  0.00    -0.234 C  
ENDROOT
BRANCH   8  12
HETATM   12  C   UNL     1     -10.714  11.564  69.096  1.00  0.00    -0.168 C  
HETATM   13  C   UNL     1     -12.129  11.200  69.512  1.00  0.00    -0.396 C  
HETATM   14  C   UNL     1     -11.885  10.350  70.733  1.00  0.00    -0.466 C  
HETATM   15  C   UNL     1     -10.535   9.691  70.462  1.00  0.00    -0.303 C  
HETATM   16  O   UNL     1      -9.926  10.387  69.353  1.00  0.00    -0.216 OA 
BRANCH  15  17
HETATM   17  C   UNL     1     -10.619   8.198  70.139  1.00  0.00    -0.237 C  
HETATM   18  O   UNL     1     -11.064   7.984  68.802  1.00  0.00    -0.415 OA 
HETATM   19  H   UNL     1     -11.116   7.057  68.601  1.00  0.00     0.000 HD 
ENDBRANCH  15  17
ENDBRANCH   8  12
TORSDOF 2
ENDMDL
MODEL       72
REMARK 921   NORMALIZED FREE ENERGY PREDICTED BY IDOCK:   -4.38 KCAL/MOL
REMARK 922        TOTAL FREE ENERGY PREDICTED BY IDOCK:   -5.22 KCAL/MOL
REMARK 923 INTER-LIGAND FREE ENERGY PREDICTED BY IDOCK:   -4.82 KCAL/MOL
REMARK 924 INTRA-LIGAND FREE ENERGY PREDICTED BY IDOCK:   -0.39 KCAL/MOL
REMARK 927      BINDING AFFINITY PREDICTED BY RF-SCORE:    0.00 PKD
ROOT
HETATM    1  N   UNL     1     -11.982   7.781  72.749  1.00  0.00    -0.608 NA 
HETATM    2  H1  UNL     1     -11.548   6.860  72.687  1.00  0.00     0.000 HD 
HETATM    3  H2  UNL     1     -12.565   8.044  73.543  1.00  0.00     0.000 HD 
HETATM    4  C   UNL     1     -11.744   8.648  71.718  1.00  0.00    -0.331 C  
HETATM    5  N   UNL     1     -12.294   9.817  71.796  1.00  0.00    -0.390 N  
HETATM    6  C   UNL     1     -12.097  10.733  70.786  1.00  0.00    -0.372 C  
HETATM    7  H   UNL     1     -12.870  10.060  72.602  1.00  0.00     0.000 HD 
HETATM    8  N   UNL     1     -11.394  10.327  69.649  1.00  0.00    -0.255 N  
HETATM    9  O   UNL     1     -12.535  11.877  70.887  1.00  0.00    -0.369 OA 
HETATM   10  C   UNL     1     -10.901   8.220  70.585  1.00  0.00    -0.254 C  
HETATM   11  C   UNL     1     -10.783   9.095  69.589  1.00  0.00    -0.225 C  
ENDROOT
BRANCH   8  12
HETATM   12  C   UNL     1     -11.183  11.313  68.605  1.00  0.00    -0.250 C  
HETATM   13  C   UNL     1      -9.725  11.711  68.444  1.00  0.00    -0.199 C  
HETATM   14  C   UNL     1      -9.709  12.274  67.046  1.00  0.00    -0.207 C  
HETATM   15  C   UNL     1     -10.798  11.492  66.318  1.00  0.00    -0.282 C  
HETATM   16  O   UNL     1     -11.583  10.806  67.318  1.00  0.00    -0.439 OA 
BRANCH  15  17
HETATM   17  C   UNL     1     -10.271  10.476  65.304  1.00  0.00    -0.282 C  
HETATM   18  O   UNL     1     -10.227   9.165  65.862  1.00  0.00    -0.361 OA 
HETATM   19  H   UNL     1      -9.900   8.534  65.232  1.00  0.00     0.000 HD 
ENDBRANCH  15  17
ENDBRANCH   8  12
TORSDOF 2
ENDMDL
MODEL       73
REMARK 921   NORMALIZED FREE ENERGY PREDICTED BY IDOCK:   -4.38 KCAL/MOL
REMARK 922        TOTAL FREE ENERGY PREDICTED BY IDOCK:   -5.21 KCAL/MOL
REMARK 923 INTER-LIGAND FREE ENERGY PREDICTED BY IDOCK:   -5.68 KCAL/MOL
REMARK 924 INTRA-LIGAND FREE ENERGY PREDICTED BY IDOCK:    0.46 KCAL/MOL
REMARK 927      BINDING AFFINITY PREDICTED BY RF-SCORE:    0.00 PKD
ROOT
HETATM    1  N   UNL     1     -13.943  13.302  72.551  1.00  0.00    -0.723 NA 
HETATM    2  H1  UNL     1     -14.451  13.967  73.134  1.00  0.00     0.000 HD 
HETATM    3  H2  UNL     1     -13.946  12.303  72.754  1.00  0.00     0.000 HD 
HETATM    4  C   UNL     1     -13.258  13.812  71.482  1.00  0.00    -0.341 C  
HETATM    5  N   UNL     1     -12.614  12.968  70.741  1.00  0.00    -0.286 N  
HETATM    6  C   UNL     1     -11.900  13.421  69.654  1.00  0.00    -0.331 C  
HETATM    7  H   UNL     1     -12.634  11.972  70.962  1.00  0.00     0.000 HD 
HETATM    8  N   UNL     1     -11.805  14.799  69.449  1.00  0.00    -0.309 N  
HETATM    9  O   UNL     1     -11.359  12.626  68.888  1.00  0.00    -0.260 OA 
HETATM   10  C   UNL     1     -13.275  15.266  71.233  1.00  0.00    -0.563 C  
HETATM   11  C   UNL     1     -12.521  15.687  70.219  1.00  0.00    -0.334 C  
ENDROOT
BRANCH   8  12
HETATM   12  C   UNL     1     -11.063  15.254  68.286  1.00  0.00    -0.300 C  
HETATM   13  C   UNL     1      -9.625  14.763  68.266  1.00  0.00    -0.215 C  
HETATM   14  C   UNL     1      -9.272  14.897  66.806  1.00  0.00    -0.281 C  
HETATM   15  C   UNL     1     -10.597  14.676  66.083  1.00  0.00    -0.312 C  
HETATM   16  O   UNL     1     -11.651  14.763  67.067  1.00  0.00    -0.362 OA 
BRANCH  15  17
HETATM   17  C   UNL     1     -10.697  13.337  65.350  1.00  0.00    -0.297 C  
HETATM   18  O   UNL     1     -10.095  13.409  64.059  1.00  0.00    -0.764 OA 
HETATM   19  H   UNL     1     -10.157  12.578  63.605  1.00  0.00     0.000 HD 
ENDBRANCH  15  17
ENDBRANCH   8  12
TORSDOF 2
ENDMDL
MODEL       74
REMARK 921   NORMALIZED FREE ENERGY PREDICTED BY IDOCK:   -4.37 KCAL/MOL
REMARK 922        TOTAL FREE ENERGY PREDICTED BY IDOCK:   -5.20 KCAL/MOL
REMARK 923 INTER-LIGAND FREE ENERGY PREDICTED BY IDOCK:   -5.53 KCAL/MOL
REMARK 924 INTRA-LIGAND FREE ENERGY PREDICTED BY IDOCK:    0.33 KCAL/MOL
REMARK 927      BINDING AFFINITY PREDICTED BY RF-SCORE:    0.00 PKD
ROOT
HETATM    1  N   UNL     1     -12.106  14.888  69.983  1.00  0.00    -0.319 NA 
HETATM    2  H1  UNL     1     -12.552  15.698  70.412  1.00  0.00     0.000 HD 
HETATM    3  H2  UNL     1     -11.493  14.983  69.173  1.00  0.00     0.000 HD 
HETATM    4  C   UNL     1     -12.367  13.667  70.543  1.00  0.00    -0.355 C  
HETATM    5  N   UNL     1     -11.800  12.638  69.998  1.00  0.00    -0.481 N  
HETATM    6  C   UNL     1     -12.028  11.382  70.514  1.00  0.00    -0.356 C  
HETATM    7  H   UNL     1     -11.188  12.758  69.191  1.00  0.00     0.000 HD 
HETATM    8  N   UNL     1     -12.957  11.246  71.547  1.00  0.00    -0.445 N  
HETATM    9  O   UNL     1     -11.427  10.406  70.067  1.00  0.00    -0.264 OA 
HETATM   10  C   UNL     1     -13.267  13.578  71.708  1.00  0.00    -0.490 C  
HETATM   11  C   UNL     1     -13.528  12.347  72.144  1.00  0.00    -0.378 C  
ENDROOT
BRANCH   8  12
HETATM   12  C   UNL     1     -13.169   9.914  72.087  1.00  0.00    -0.415 C  
HETATM   13  C   UNL     1     -14.109   9.070  71.244  1.00  0.00    -0.164 C  
HETATM   14  C   UNL     1     -13.748   7.673  71.680  1.00  0.00    -0.454 C  
HETATM   15  C   UNL     1     -12.271   7.770  72.049  1.00  0.00    -0.305 C  
HETATM   16  O   UNL     1     -11.936   9.172  72.143  1.00  0.00    -0.354 OA 
BRANCH  15  17
HETATM   17  C   UNL     1     -11.329   7.090  71.054  1.00  0.00    -0.287 C  
HETATM   18  O   UNL     1     -11.482   7.634  69.745  1.00  0.00    -0.465 OA 
HETATM   19  H   UNL     1     -10.897   7.211  69.127  1.00  0.00     0.000 HD 
ENDBRANCH  15  17
ENDBRANCH   8  12
TORSDOF 2
ENDMDL
MODEL       75
REMARK 921   NORMALIZED FREE ENERGY PREDICTED BY IDOCK:   -4.33 KCAL/MOL
REMARK 922        TOTAL FREE ENERGY PREDICTED BY IDOCK:   -5.16 KCAL/MOL
REMARK 923 INTER-LIGAND FREE ENERGY PREDICTED BY IDOCK:   -4.88 KCAL/MOL
REMARK 924 INTRA-LIGAND FREE ENERGY PREDICTED BY IDOCK:   -0.28 KCAL/MOL
REMARK 927      BINDING AFFINITY PREDICTED BY RF-SCORE:    0.00 PKD
ROOT
HETATM    1  N   UNL     1     -10.123   5.089  65.344  1.00  0.00    -0.398 NA 
HETATM    2  H1  UNL     1     -10.428   5.765  64.645  1.00  0.00     0.000 HD 
HETATM    3  H2  UNL     1      -9.710   4.195  65.078  1.00  0.00     0.000 HD 
HETATM    4  C   UNL     1     -10.291   5.436  66.657  1.00  0.00    -0.275 C  
HETATM    5  N   UNL     1      -9.903   4.579  67.546  1.00  0.00    -0.164 N  
HETATM    6  C   UNL     1     -10.051   4.869  68.884  1.00  0.00    -0.115 C  
HETATM    7  H   UNL     1      -9.490   3.692  67.256  1.00  0.00     0.000 HD 
HETATM    8  N   UNL     1     -10.720   6.042  69.240  1.00  0.00    -0.296 N  
HETATM    9  O   UNL     1      -9.605   4.107  69.740  1.00  0.00    -0.183 OA 
HETATM   10  C   UNL     1     -10.900   6.737  66.994  1.00  0.00    -0.453 C  
HETATM   11  C   UNL     1     -11.097   6.965  68.291  1.00  0.00    -0.074 C  
ENDROOT
BRANCH   8  12
HETATM   12  C   UNL     1     -10.848   6.337  70.655  1.00  0.00    -0.280 C  
HETATM   13  C   UNL     1     -10.082   7.578  71.080  1.00  0.00    -0.190 C  
HETATM   14  C   UNL     1     -10.776   7.948  72.366  1.00  0.00    -0.367 C  
HETATM   15  C   UNL     1     -12.210   7.466  72.165  1.00  0.00    -0.230 C  
HETATM   16  O   UNL     1     -12.219   6.594  71.013  1.00  0.00    -0.367 OA 
BRANCH  15  17
HETATM   17  C   UNL     1     -13.227   8.589  71.958  1.00  0.00    -0.369 C  
HETATM   18  O   UNL     1     -13.923   8.883  73.168  1.00  0.00    -1.118 OA 
HETATM   19  H   UNL     1     -14.555   9.581  73.039  1.00  0.00     0.000 HD 
ENDBRANCH  15  17
ENDBRANCH   8  12
TORSDOF 2
ENDMDL
MODEL       76
REMARK 921   NORMALIZED FREE ENERGY PREDICTED BY IDOCK:   -4.30 KCAL/MOL
REMARK 922        TOTAL FREE ENERGY PREDICTED BY IDOCK:   -5.13 KCAL/MOL
REMARK 923 INTER-LIGAND FREE ENERGY PREDICTED BY IDOCK:   -4.76 KCAL/MOL
REMARK 924 INTRA-LIGAND FREE ENERGY PREDICTED BY IDOCK:   -0.36 KCAL/MOL
REMARK 927      BINDING AFFINITY PREDICTED BY RF-SCORE:    0.00 PKD
ROOT
HETATM    1  N   UNL     1     -11.420  12.128  69.508  1.00  0.00    -0.398 NA 
HETATM    2  H1  UNL     1     -10.592  12.266  68.930  1.00  0.00     0.000 HD 
HETATM    3  H2  UNL     1     -12.183  12.805  69.517  1.00  0.00     0.000 HD 
HETATM    4  C   UNL     1     -11.462  10.994  70.272  1.00  0.00    -0.273 C  
HETATM    5  N   UNL     1     -12.513  10.818  71.006  1.00  0.00    -0.384 N  
HETATM    6  C   UNL     1     -12.611   9.698  71.800  1.00  0.00    -0.409 C  
HETATM    7  H   UNL     1     -13.266  11.507  70.996  1.00  0.00     0.000 HD 
HETATM    8  N   UNL     1     -11.515   8.835  71.872  1.00  0.00    -0.335 N  
HETATM    9  O   UNL     1     -13.641   9.470  72.433  1.00  0.00    -0.452 OA 
HETATM   10  C   UNL     1     -10.330  10.048  70.233  1.00  0.00    -0.301 C  
HETATM   11  C   UNL     1     -10.416   9.009  71.062  1.00  0.00    -0.269 C  
ENDROOT
BRANCH   8  12
HETATM   12  C   UNL     1     -11.647   7.651  72.702  1.00  0.00    -0.317 C  
HETATM   13  C   UNL     1     -11.644   6.358  71.903  1.00  0.00    -0.367 C  
HETATM   14  C   UNL     1     -11.262   5.346  72.953  1.00  0.00    -0.372 C  
HETATM   15  C   UNL     1     -10.379   6.130  73.920  1.00  0.00    -0.294 C  
HETATM   16  O   UNL     1     -10.547   7.533  73.623  1.00  0.00    -0.348 OA 
BRANCH  15  17
HETATM   17  C   UNL     1      -8.894   5.770  73.848  1.00  0.00    -0.126 C  
HETATM   18  O   UNL     1      -8.293   6.301  72.669  1.00  0.00    -0.120 OA 
HETATM   19  H   UNL     1      -7.370   6.078  72.624  1.00  0.00     0.000 HD 
ENDBRANCH  15  17
ENDBRANCH   8  12
TORSDOF 2
ENDMDL
MODEL       77
REMARK 921   NORMALIZED FREE ENERGY PREDICTED BY IDOCK:   -4.28 KCAL/MOL
REMARK 922        TOTAL FREE ENERGY PREDICTED BY IDOCK:   -5.10 KCAL/MOL
REMARK 923 INTER-LIGAND FREE ENERGY PREDICTED BY IDOCK:   -5.06 KCAL/MOL
REMARK 924 INTRA-LIGAND FREE ENERGY PREDICTED BY IDOCK:   -0.04 KCAL/MOL
REMARK 927      BINDING AFFINITY PREDICTED BY RF-SCORE:    0.00 PKD
ROOT
HETATM    1  N   UNL     1      -9.455  20.148  67.416  1.00  0.00    -0.378 NA 
HETATM    2  H1  UNL     1      -8.953  20.256  68.297  1.00  0.00     0.000 HD 
HETATM    3  H2  UNL     1      -9.677  20.950  66.827  1.00  0.00     0.000 HD 
HETATM    4  C   UNL     1      -9.818  18.877  67.061  1.00  0.00    -0.324 C  
HETATM    5  N   UNL     1     -10.455  18.740  65.943  1.00  0.00    -0.450 N  
HETATM    6  C   UNL     1     -10.851  17.486  65.533  1.00  0.00     0.028 C  
HETATM    7  H   UNL     1     -10.663  19.557  65.368  1.00  0.00     0.000 HD 
HETATM    8  N   UNL     1     -10.647  16.409  66.398  1.00  0.00    -0.277 N  
HETATM    9  O   UNL     1     -11.376  17.327  64.432  1.00  0.00    -1.052 OA 
HETATM   10  C   UNL     1      -9.483  17.749  67.950  1.00  0.00    -0.270 C  
HETATM   11  C   UNL     1      -9.938  16.557  67.568  1.00  0.00    -0.255 C  
ENDROOT
BRANCH   8  12
HETATM   12  C   UNL     1     -11.057  15.094  65.938  1.00  0.00    -0.319 C  
HETATM   13  C   UNL     1     -10.167  14.542  64.837  1.00  0.00    -0.338 C  
HETATM   14  C   UNL     1     -10.447  13.063  64.924  1.00  0.00    -0.358 C  
HETATM   15  C   UNL     1     -10.770  12.833  66.398  1.00  0.00    -0.262 C  
HETATM   16  O   UNL     1     -10.993  14.125  67.002  1.00  0.00    -0.292 OA 
BRANCH  15  17
HETATM   17  C   UNL     1      -9.677  12.093  67.172  1.00  0.00    -0.199 C  
HETATM   18  O   UNL     1      -8.579  11.762  66.324  1.00  0.00    -0.308 OA 
HETATM   19  H   UNL     1      -7.900  11.303  66.805  1.00  0.00     0.000 HD 
ENDBRANCH  15  17
ENDBRANCH   8  12
TORSDOF 2
ENDMDL
MODEL       78
REMARK 921   NORMALIZED FREE ENERGY PREDICTED BY IDOCK:   -4.27 KCAL/MOL
REMARK 922        TOTAL FREE ENERGY PREDICTED BY IDOCK:   -5.10 KCAL/MOL
REMARK 923 INTER-LIGAND FREE ENERGY PREDICTED BY IDOCK:   -4.81 KCAL/MOL
REMARK 924 INTRA-LIGAND FREE ENERGY PREDICTED BY IDOCK:   -0.29 KCAL/MOL
REMARK 927      BINDING AFFINITY PREDICTED BY RF-SCORE:    0.00 PKD
ROOT
HETATM    1  N   UNL     1     -13.445  13.938  72.824  1.00  0.00    -0.669 NA 
HETATM    2  H1  UNL     1     -13.659  14.656  73.516  1.00  0.00     0.000 HD 
HETATM    3  H2  UNL     1     -13.775  12.979  72.930  1.00  0.00     0.000 HD 
HETATM    4  C   UNL     1     -12.692  14.320  71.747  1.00  0.00    -0.347 C  
HETATM    5  N   UNL     1     -12.420  13.409  70.869  1.00  0.00    -0.371 N  
HETATM    6  C   UNL     1     -11.662  13.731  69.765  1.00  0.00    -0.302 C  
HETATM    7  H   UNL     1     -12.765  12.457  70.994  1.00  0.00     0.000 HD 
HETATM    8  N   UNL     1     -11.116  15.014  69.684  1.00  0.00    -0.261 N  
HETATM    9  O   UNL     1     -11.471  12.902  68.877  1.00  0.00    -0.263 OA 
HETATM   10  C   UNL     1     -12.229  15.717  71.641  1.00  0.00    -0.493 C  
HETATM   11  C   UNL     1     -11.439  15.987  70.603  1.00  0.00    -0.402 C  
ENDROOT
BRANCH   8  12
HETATM   12  C   UNL     1     -10.335  15.337  68.503  1.00  0.00    -0.231 C  
HETATM   13  C   UNL     1     -10.898  16.509  67.717  1.00  0.00    -0.304 C  
HETATM   14  C   UNL     1      -9.697  16.956  66.923  1.00  0.00    -0.264 C  
HETATM   15  C   UNL     1      -8.511  16.603  67.816  1.00  0.00    -0.187 C  
HETATM   16  O   UNL     1      -8.993  15.722  68.854  1.00  0.00    -0.194 OA 
BRANCH  15  17
HETATM   17  C   UNL     1      -7.825  17.812  68.457  1.00  0.00    -0.290 C  
HETATM   18  O   UNL     1      -7.488  18.792  67.477  1.00  0.00    -0.226 OA 
HETATM   19  H   UNL     1      -7.063  19.542  67.875  1.00  0.00     0.000 HD 
ENDBRANCH  15  17
ENDBRANCH   8  12
TORSDOF 2
ENDMDL
MODEL       79
REMARK 921   NORMALIZED FREE ENERGY PREDICTED BY IDOCK:   -4.27 KCAL/MOL
REMARK 922        TOTAL FREE ENERGY PREDICTED BY IDOCK:   -5.10 KCAL/MOL
REMARK 923 INTER-LIGAND FREE ENERGY PREDICTED BY IDOCK:   -4.86 KCAL/MOL
REMARK 924 INTRA-LIGAND FREE ENERGY PREDICTED BY IDOCK:   -0.24 KCAL/MOL
REMARK 927      BINDING AFFINITY PREDICTED BY RF-SCORE:    0.00 PKD
ROOT
HETATM    1  N   UNL     1     -11.979  11.523  68.150  1.00  0.00    -0.610 NA 
HETATM    2  H1  UNL     1     -12.947  11.543  67.829  1.00  0.00     0.000 HD 
HETATM    3  H2  UNL     1     -11.564  10.678  68.541  1.00  0.00     0.000 HD 
HETATM    4  C   UNL     1     -11.263  12.683  68.032  1.00  0.00    -0.265 C  
HETATM    5  N   UNL     1     -10.034  12.658  68.439  1.00  0.00    -0.265 N  
HETATM    6  C   UNL     1      -9.263  13.795  68.351  1.00  0.00    -0.182 C  
HETATM    7  H   UNL     1      -9.639  11.799  68.824  1.00  0.00     0.000 HD 
HETATM    8  N   UNL     1      -9.870  14.978  67.923  1.00  0.00    -0.216 N  
HETATM    9  O   UNL     1      -8.070  13.764  68.647  1.00  0.00    -0.140 OA 
HETATM   10  C   UNL     1     -11.908  13.884  67.468  1.00  0.00    -0.431 C  
HETATM   11  C   UNL     1     -11.165  14.989  67.458  1.00  0.00    -0.330 C  
ENDROOT
BRANCH   8  12
HETATM   12  C   UNL     1      -9.034  16.161  67.820  1.00  0.00    -0.192 C  
HETATM   13  C   UNL     1      -8.422  16.343  66.441  1.00  0.00    -0.364 C  
HETATM   14  C   UNL     1      -8.085  17.812  66.442  1.00  0.00    -0.296 C  
HETATM   15  C   UNL     1      -9.145  18.435  67.347  1.00  0.00    -0.264 C  
HETATM   16  O   UNL     1      -9.793  17.360  68.061  1.00  0.00    -0.267 OA 
BRANCH  15  17
HETATM   17  C   UNL     1     -10.199  19.259  66.605  1.00  0.00    -0.421 C  
HETATM   18  O   UNL     1      -9.897  20.651  66.660  1.00  0.00    -0.616 OA 
HETATM   19  H   UNL     1     -10.551  21.163  66.199  1.00  0.00     0.000 HD 
ENDBRANCH  15  17
ENDBRANCH   8  12
TORSDOF 2
ENDMDL
MODEL       80
REMARK 921   NORMALIZED FREE ENERGY PREDICTED BY IDOCK:   -4.26 KCAL/MOL
REMARK 922        TOTAL FREE ENERGY PREDICTED BY IDOCK:   -5.08 KCAL/MOL
REMARK 923 INTER-LIGAND FREE ENERGY PREDICTED BY IDOCK:   -5.23 KCAL/MOL
REMARK 924 INTRA-LIGAND FREE ENERGY PREDICTED BY IDOCK:    0.14 KCAL/MOL
REMARK 927      BINDING AFFINITY PREDICTED BY RF-SCORE:    0.00 PKD
ROOT
HETATM    1  N   UNL     1      -6.737  17.960  69.012  1.00  0.00    -0.244 NA 
HETATM    2  H1  UNL     1      -5.883  17.600  69.436  1.00  0.00     0.000 HD 
HETATM    3  H2  UNL     1      -6.976  18.951  69.051  1.00  0.00     0.000 HD 
HETATM    4  C   UNL     1      -7.549  17.053  68.388  1.00  0.00    -0.220 C  
HETATM    5  N   UNL     1      -8.634  17.510  67.849  1.00  0.00    -0.233 N  
HETATM    6  C   UNL     1      -9.495  16.645  67.211  1.00  0.00    -0.232 C  
HETATM    7  H   UNL     1      -8.850  18.506  67.898  1.00  0.00     0.000 HD 
HETATM    8  N   UNL     1      -9.222  15.276  67.261  1.00  0.00    -0.194 N  
HETATM    9  O   UNL     1     -10.482  17.074  66.616  1.00  0.00    -0.307 OA 
HETATM   10  C   UNL     1      -7.168  15.628  68.365  1.00  0.00    -0.115 C  
HETATM   11  C   UNL     1      -8.049  14.802  67.804  1.00  0.00    -0.152 C  
ENDROOT
BRANCH   8  12
HETATM   12  C   UNL     1     -10.133  14.385  66.566  1.00  0.00    -0.276 C  
HETATM   13  C   UNL     1     -11.539  14.399  67.143  1.00  0.00    -0.406 C  
HETATM   14  C   UNL     1     -12.352  13.862  65.993  1.00  0.00    -0.511 C  
HETATM   15  C   UNL     1     -11.588  14.319  64.753  1.00  0.00    -0.401 C  
HETATM   16  O   UNL     1     -10.284  14.765  65.185  1.00  0.00    -0.381 OA 
BRANCH  15  17
HETATM   17  C   UNL     1     -12.273  15.440  63.970  1.00  0.00     0.051 C  
HETATM   18  O   UNL     1     -11.457  16.609  63.924  1.00  0.00    -1.604 OA 
HETATM   19  H   UNL     1     -11.883  17.305  63.438  1.00  0.00     0.000 HD 
ENDBRANCH  15  17
ENDBRANCH   8  12
TORSDOF 2
ENDMDL
MODEL       81
REMARK 921   NORMALIZED FREE ENERGY PREDICTED BY IDOCK:   -4.26 KCAL/MOL
REMARK 922        TOTAL FREE ENERGY PREDICTED BY IDOCK:   -5.08 KCAL/MOL
REMARK 923 INTER-LIGAND FREE ENERGY PREDICTED BY IDOCK:   -4.71 KCAL/MOL
REMARK 924 INTRA-LIGAND FREE ENERGY PREDICTED BY IDOCK:   -0.37 KCAL/MOL
REMARK 927      BINDING AFFINITY PREDICTED BY RF-SCORE:    0.00 PKD
ROOT
HETATM    1  N   UNL     1     -10.515  18.478  65.713  1.00  0.00    -0.628 NA 
HETATM    2  H1  UNL     1     -10.823  18.716  64.771  1.00  0.00     0.000 HD 
HETATM    3  H2  UNL     1     -10.260  19.198  66.389  1.00  0.00     0.000 HD 
HETATM    4  C   UNL     1     -10.459  17.149  66.030  1.00  0.00    -0.266 C  
HETATM    5  N   UNL     1     -10.069  16.846  67.227  1.00  0.00    -0.279 N  
HETATM    6  C   UNL     1      -9.988  15.524  67.603  1.00  0.00    -0.233 C  
HETATM    7  H   UNL     1      -9.822  17.583  67.887  1.00  0.00     0.000 HD 
HETATM    8  N   UNL     1     -10.226  14.542  66.640  1.00  0.00    -0.270 N  
HETATM    9  O   UNL     1      -9.707  15.222  68.762  1.00  0.00    -0.196 OA 
HETATM   10  C   UNL     1     -10.829  16.142  65.017  1.00  0.00    -0.380 C  
HETATM   11  C   UNL     1     -10.675  14.871  65.381  1.00  0.00    -0.377 C  
ENDROOT
BRANCH   8  12
HETATM   12  C   UNL     1     -10.152  13.155  67.064  1.00  0.00    -0.241 C  
HETATM   13  C   UNL     1     -11.477  12.421  66.939  1.00  0.00    -0.423 C  
HETATM   14  C   UNL     1     -11.033  10.980  66.913  1.00  0.00    -0.311 C  
HETATM   15  C   UNL     1      -9.652  11.030  66.263  1.00  0.00    -0.201 C  
HETATM   16  O   UNL     1      -9.225  12.409  66.253  1.00  0.00    -0.219 OA 
BRANCH  15  17
HETATM   17  C   UNL     1      -9.609  10.475  64.839  1.00  0.00    -0.277 C  
HETATM   18  O   UNL     1      -9.318  11.502  63.894  1.00  0.00    -0.408 OA 
HETATM   19  H   UNL     1      -9.291  11.157  63.009  1.00  0.00     0.000 HD 
ENDBRANCH  15  17
ENDBRANCH   8  12
TORSDOF 2
ENDMDL
MODEL       82
REMARK 921   NORMALIZED FREE ENERGY PREDICTED BY IDOCK:   -4.26 KCAL/MOL
REMARK 922        TOTAL FREE ENERGY PREDICTED BY IDOCK:   -5.08 KCAL/MOL
REMARK 923 INTER-LIGAND FREE ENERGY PREDICTED BY IDOCK:   -4.81 KCAL/MOL
REMARK 924 INTRA-LIGAND FREE ENERGY PREDICTED BY IDOCK:   -0.27 KCAL/MOL
REMARK 927      BINDING AFFINITY PREDICTED BY RF-SCORE:    0.00 PKD
ROOT
HETATM    1  N   UNL     1     -12.048  11.342  62.895  1.00  0.00    -0.795 NA 
HETATM    2  H1  UNL     1     -12.870  11.774  62.474  1.00  0.00     0.000 HD 
HETATM    3  H2  UNL     1     -11.579  10.550  62.457  1.00  0.00     0.000 HD 
HETATM    4  C   UNL     1     -11.604  11.875  64.074  1.00  0.00    -0.389 C  
HETATM    5  N   UNL     1     -10.560  11.326  64.609  1.00  0.00    -0.326 N  
HETATM    6  C   UNL     1     -10.067  11.814  65.799  1.00  0.00    -0.237 C  
HETATM    7  H   UNL     1     -10.105  10.537  64.151  1.00  0.00     0.000 HD 
HETATM    8  N   UNL     1     -10.781  12.822  66.450  1.00  0.00    -0.259 N  
HETATM    9  O   UNL     1      -9.025  11.365  66.273  1.00  0.00    -0.192 OA 
HETATM   10  C   UNL     1     -12.320  13.016  64.675  1.00  0.00    -0.480 C  
HETATM   11  C   UNL     1     -11.868  13.424  65.859  1.00  0.00    -0.376 C  
ENDROOT
BRANCH   8  12
HETATM   12  C   UNL     1     -10.234  13.334  67.694  1.00  0.00    -0.228 C  
HETATM   13  C   UNL     1      -9.353  14.557  67.501  1.00  0.00    -0.193 C  
HETATM   14  C   UNL     1      -9.366  15.170  68.879  1.00  0.00    -0.207 C  
HETATM   15  C   UNL     1     -10.730  14.784  69.443  1.00  0.00    -0.239 C  
HETATM   16  O   UNL     1     -11.279  13.755  68.591  1.00  0.00    -0.250 OA 
BRANCH  15  17
HETATM   17  C   UNL     1     -11.722  15.945  69.537  1.00  0.00    -0.326 C  
HETATM   18  O   UNL     1     -11.072  17.145  69.953  1.00  0.00    -0.311 OA 
HETATM   19  H   UNL     1     -11.688  17.866  70.012  1.00  0.00     0.000 HD 
ENDBRANCH  15  17
ENDBRANCH   8  12
TORSDOF 2
ENDMDL
MODEL       83
REMARK 921   NORMALIZED FREE ENERGY PREDICTED BY IDOCK:   -4.22 KCAL/MOL
REMARK 922        TOTAL FREE ENERGY PREDICTED BY IDOCK:   -5.03 KCAL/MOL
REMARK 923 INTER-LIGAND FREE ENERGY PREDICTED BY IDOCK:   -4.74 KCAL/MOL
REMARK 924 INTRA-LIGAND FREE ENERGY PREDICTED BY IDOCK:   -0.30 KCAL/MOL
REMARK 927      BINDING AFFINITY PREDICTED BY RF-SCORE:    0.00 PKD
ROOT
HETATM    1  N   UNL     1     -11.728  11.384  66.886  1.00  0.00    -0.467 NA 
HETATM    2  H1  UNL     1     -11.806  10.852  67.753  1.00  0.00     0.000 HD 
HETATM    3  H2  UNL     1     -11.860  10.942  65.976  1.00  0.00     0.000 HD 
HETATM    4  C   UNL     1     -11.437  12.716  67.000  1.00  0.00    -0.346 C  
HETATM    5  N   UNL     1     -11.339  13.390  65.899  1.00  0.00    -0.305 N  
HETATM    6  C   UNL     1     -11.043  14.735  65.948  1.00  0.00    -0.340 C  
HETATM    7  H   UNL     1     -11.479  12.928  65.001  1.00  0.00     0.000 HD 
HETATM    8  N   UNL     1     -10.750  15.307  67.187  1.00  0.00    -0.310 N  
HETATM    9  O   UNL     1     -11.036  15.409  64.919  1.00  0.00    -0.417 OA 
HETATM   10  C   UNL     1     -11.246  13.308  68.337  1.00  0.00    -0.314 C  
HETATM   11  C   UNL     1     -10.892  14.592  68.355  1.00  0.00    -0.245 C  
ENDROOT
BRANCH   8  12
HETATM   12  C   UNL     1     -10.458  16.729  67.217  1.00  0.00    -0.310 C  
HETATM   13  C   UNL     1     -10.718  17.364  68.573  1.00  0.00    -0.279 C  
HETATM   14  C   UNL     1      -9.878  18.613  68.497  1.00  0.00    -0.427 C  
HETATM   15  C   UNL     1      -8.716  18.224  67.586  1.00  0.00    -0.256 C  
HETATM   16  O   UNL     1      -9.069  16.984  66.936  1.00  0.00    -0.221 OA 
BRANCH  15  17
HETATM   17  C   UNL     1      -7.380  18.054  68.311  1.00  0.00    -0.259 C  
HETATM   18  O   UNL     1      -7.361  16.856  69.083  1.00  0.00    -0.239 OA 
HETATM   19  H   UNL     1      -6.531  16.750  69.532  1.00  0.00     0.000 HD 
ENDBRANCH  15  17
ENDBRANCH   8  12
TORSDOF 2
ENDMDL
MODEL       84
REMARK 921   NORMALIZED FREE ENERGY PREDICTED BY IDOCK:   -4.20 KCAL/MOL
REMARK 922        TOTAL FREE ENERGY PREDICTED BY IDOCK:   -5.02 KCAL/MOL
REMARK 923 INTER-LIGAND FREE ENERGY PREDICTED BY IDOCK:   -4.81 KCAL/MOL
REMARK 924 INTRA-LIGAND FREE ENERGY PREDICTED BY IDOCK:   -0.20 KCAL/MOL
REMARK 927      BINDING AFFINITY PREDICTED BY RF-SCORE:    0.00 PKD
ROOT
HETATM    1  N   UNL     1     -10.683  12.022  64.825  1.00  0.00    -0.293 NA 
HETATM    2  H1  UNL     1     -10.345  11.265  64.231  1.00  0.00     0.000 HD 
HETATM    3  H2  UNL     1     -10.834  12.962  64.458  1.00  0.00     0.000 HD 
HETATM    4  C   UNL     1     -10.925  11.719  66.137  1.00  0.00    -0.307 C  
HETATM    5  N   UNL     1     -11.355  12.680  66.891  1.00  0.00    -0.301 N  
HETATM    6  C   UNL     1     -11.611  12.438  68.222  1.00  0.00    -0.333 C  
HETATM    7  H   UNL     1     -11.502  13.611  66.501  1.00  0.00     0.000 HD 
HETATM    8  N   UNL     1     -11.293  11.183  68.744  1.00  0.00    -0.250 N  
HETATM    9  O   UNL     1     -12.106  13.314  68.931  1.00  0.00    -0.316 OA 
HETATM   10  C   UNL     1     -10.684  10.348  66.625  1.00  0.00    -0.198 C  
HETATM   11  C   UNL     1     -10.871  10.157  67.929  1.00  0.00    -0.284 C  
ENDROOT
BRANCH   8  12
HETATM   12  C   UNL     1     -11.589  10.945  70.145  1.00  0.00    -0.338 C  
HETATM   13  C   UNL     1     -13.025  10.512  70.388  1.00  0.00    -0.208 C  
HETATM   14  C   UNL     1     -12.926   9.846  71.737  1.00  0.00    -0.549 C  
HETATM   15  C   UNL     1     -11.508   9.280  71.767  1.00  0.00    -0.378 C  
HETATM   16  O   UNL     1     -10.776   9.883  70.678  1.00  0.00    -0.296 OA 
BRANCH  15  17
HETATM   17  C   UNL     1     -11.437   7.757  71.645  1.00  0.00    -0.261 C  
HETATM   18  O   UNL     1     -12.498   7.132  72.364  1.00  0.00    -0.502 OA 
HETATM   19  H   UNL     1     -12.454   6.187  72.287  1.00  0.00     0.000 HD 
ENDBRANCH  15  17
ENDBRANCH   8  12
TORSDOF 2
ENDMDL
MODEL       85
REMARK 921   NORMALIZED FREE ENERGY PREDICTED BY IDOCK:   -4.15 KCAL/MOL
REMARK 922        TOTAL FREE ENERGY PREDICTED BY IDOCK:   -4.96 KCAL/MOL
REMARK 923 INTER-LIGAND FREE ENERGY PREDICTED BY IDOCK:   -4.66 KCAL/MOL
REMARK 924 INTRA-LIGAND FREE ENERGY PREDICTED BY IDOCK:   -0.30 KCAL/MOL
REMARK 927      BINDING AFFINITY PREDICTED BY RF-SCORE:    0.00 PKD
ROOT
HETATM    1  N   UNL     1     -10.079   7.242  67.848  1.00  0.00    -0.168 NA 
HETATM    2  H1  UNL     1     -10.287   7.049  68.827  1.00  0.00     0.000 HD 
HETATM    3  H2  UNL     1      -9.749   6.510  67.219  1.00  0.00     0.000 HD 
HETATM    4  C   UNL     1     -10.264   8.526  67.416  1.00  0.00    -0.261 C  
HETATM    5  N   UNL     1     -10.000   8.771  66.172  1.00  0.00    -0.428 N  
HETATM    6  C   UNL     1     -10.162  10.046  65.679  1.00  0.00    -0.188 C  
HETATM    7  H   UNL     1      -9.675   8.022  65.561  1.00  0.00     0.000 HD 
HETATM    8  N   UNL     1     -10.503  11.066  66.570  1.00  0.00    -0.249 N  
HETATM    9  O   UNL     1     -10.005  10.276  64.481  1.00  0.00    -0.339 OA 
HETATM   10  C   UNL     1     -10.735   9.553  68.364  1.00  0.00    -0.230 C  
HETATM   11  C   UNL     1     -10.816  10.792  67.882  1.00  0.00    -0.264 C  
ENDROOT
BRANCH   8  12
HETATM   12  C   UNL     1     -10.685  12.399  66.025  1.00  0.00    -0.261 C  
HETATM   13  C   UNL     1     -12.137  12.847  66.014  1.00  0.00    -0.484 C  
HETATM   14  C   UNL     1     -12.000  14.346  65.930  1.00  0.00    -0.367 C  
HETATM   15  C   UNL     1     -10.687  14.638  66.651  1.00  0.00    -0.305 C  
HETATM   16  O   UNL     1      -9.988  13.385  66.810  1.00  0.00    -0.251 OA 
BRANCH  15  17
HETATM   17  C   UNL     1     -10.856  15.302  68.019  1.00  0.00    -0.288 C  
HETATM   18  O   UNL     1     -12.196  15.179  68.489  1.00  0.00    -0.575 OA 
HETATM   19  H   UNL     1     -12.301  15.590  69.339  1.00  0.00     0.000 HD 
ENDBRANCH  15  17
ENDBRANCH   8  12
TORSDOF 2
ENDMDL
MODEL       86
REMARK 921   NORMALIZED FREE ENERGY PREDICTED BY IDOCK:   -4.15 KCAL/MOL
REMARK 922        TOTAL FREE ENERGY PREDICTED BY IDOCK:   -4.95 KCAL/MOL
REMARK 923 INTER-LIGAND FREE ENERGY PREDICTED BY IDOCK:   -4.62 KCAL/MOL
REMARK 924 INTRA-LIGAND FREE ENERGY PREDICTED BY IDOCK:   -0.33 KCAL/MOL
REMARK 927      BINDING AFFINITY PREDICTED BY RF-SCORE:    0.00 PKD
ROOT
HETATM    1  N   UNL     1      -7.347  12.135  66.971  1.00  0.00    -0.308 NA 
HETATM    2  H1  UNL     1      -6.418  12.153  67.392  1.00  0.00     0.000 HD 
HETATM    3  H2  UNL     1      -7.727  11.287  66.553  1.00  0.00     0.000 HD 
HETATM    4  C   UNL     1      -8.061  13.302  66.995  1.00  0.00    -0.005 C  
HETATM    5  N   UNL     1      -9.241  13.280  66.462  1.00  0.00    -0.401 N  
HETATM    6  C   UNL     1     -10.006  14.425  66.451  1.00  0.00    -0.294 C  
HETATM    7  H   UNL     1      -9.601  12.418  66.052  1.00  0.00     0.000 HD 
HETATM    8  N   UNL     1      -9.436  15.610  66.921  1.00  0.00    -0.222 N  
HETATM    9  O   UNL     1     -11.162  14.398  66.032  1.00  0.00    -0.322 OA 
HETATM   10  C   UNL     1      -7.467  14.507  67.605  1.00  0.00    -0.195 C  
HETATM   11  C   UNL     1      -8.196  15.618  67.519  1.00  0.00    -0.166 C  
ENDROOT
BRANCH   8  12
HETATM   12  C   UNL     1     -10.267  16.801  66.916  1.00  0.00    -0.290 C  
HETATM   13  C   UNL     1     -10.341  17.483  68.272  1.00  0.00    -0.379 C  
HETATM   14  C   UNL     1     -10.770  18.878  67.895  1.00  0.00    -0.362 C  
HETATM   15  C   UNL     1     -10.170  19.088  66.507  1.00  0.00    -0.421 C  
HETATM   16  O   UNL     1      -9.747  17.797  66.016  1.00  0.00    -0.496 OA 
BRANCH  15  17
HETATM   17  C   UNL     1      -8.986  20.056  66.474  1.00  0.00    -0.344 C  
HETATM   18  O   UNL     1      -7.951  19.575  65.619  1.00  0.00    -0.422 OA 
HETATM   19  H   UNL     1      -7.216  20.176  65.599  1.00  0.00     0.000 HD 
ENDBRANCH  15  17
ENDBRANCH   8  12
TORSDOF 2
ENDMDL
MODEL       87
REMARK 921   NORMALIZED FREE ENERGY PREDICTED BY IDOCK:   -4.10 KCAL/MOL
REMARK 922        TOTAL FREE ENERGY PREDICTED BY IDOCK:   -4.90 KCAL/MOL
REMARK 923 INTER-LIGAND FREE ENERGY PREDICTED BY IDOCK:   -4.63 KCAL/MOL
REMARK 924 INTRA-LIGAND FREE ENERGY PREDICTED BY IDOCK:   -0.26 KCAL/MOL
REMARK 927      BINDING AFFINITY PREDICTED BY RF-SCORE:    0.00 PKD
ROOT
HETATM    1  N   UNL     1     -11.453   6.613  69.923  1.00  0.00    -0.522 NA 
HETATM    2  H1  UNL     1     -11.380   5.707  69.462  1.00  0.00     0.000 HD 
HETATM    3  H2  UNL     1     -11.716   6.692  70.906  1.00  0.00     0.000 HD 
HETATM    4  C   UNL     1     -11.182   7.719  69.165  1.00  0.00     0.301 C  
HETATM    5  N   UNL     1     -11.275   8.870  69.750  1.00  0.00    -0.430 N  
HETATM    6  C   UNL     1     -11.019  10.020  69.037  1.00  0.00    -0.212 C  
HETATM    7  H   UNL     1     -11.536   8.924  70.735  1.00  0.00     0.000 HD 
HETATM    8  N   UNL     1     -10.773   9.912  67.667  1.00  0.00    -0.272 N  
HETATM    9  O   UNL     1     -11.013  11.114  69.600  1.00  0.00    -0.244 OA 
HETATM   10  C   UNL     1     -10.814   7.556  67.745  1.00  0.00    -0.156 C  
HETATM   11  C   UNL     1     -10.641   8.684  67.059  1.00  0.00    -0.223 C  
ENDROOT
BRANCH   8  12
HETATM   12  C   UNL     1     -10.489  11.136  66.939  1.00  0.00    -0.246 C  
HETATM   13  C   UNL     1      -9.701  10.902  65.661  1.00  0.00    -0.279 C  
HETATM   14  C   UNL     1      -9.998  12.155  64.878  1.00  0.00    -0.235 C  
HETATM   15  C   UNL     1     -11.397  12.556  65.337  1.00  0.00    -0.325 C  
HETATM   16  O   UNL     1     -11.702  11.791  66.524  1.00  0.00    -0.530 OA 
BRANCH  15  17
HETATM   17  C   UNL     1     -12.491  12.327  64.292  1.00  0.00    -0.413 C  
HETATM   18  O   UNL     1     -12.024  11.496  63.231  1.00  0.00    -0.847 OA 
HETATM   19  H   UNL     1     -12.703  11.354  62.583  1.00  0.00     0.000 HD 
ENDBRANCH  15  17
ENDBRANCH   8  12
TORSDOF 2
ENDMDL
MODEL       88
REMARK 921   NORMALIZED FREE ENERGY PREDICTED BY IDOCK:   -4.07 KCAL/MOL
REMARK 922        TOTAL FREE ENERGY PREDICTED BY IDOCK:   -4.86 KCAL/MOL
REMARK 923 INTER-LIGAND FREE ENERGY PREDICTED BY IDOCK:   -4.55 KCAL/MOL
REMARK 924 INTRA-LIGAND FREE ENERGY PREDICTED BY IDOCK:   -0.32 KCAL/MOL
REMARK 927      BINDING AFFINITY PREDICTED BY RF-SCORE:    0.00 PKD
ROOT
HETATM    1  N   UNL     1     -11.790   9.280  71.254  1.00  0.00    -0.319 NA 
HETATM    2  H1  UNL     1     -12.112   9.784  72.080  1.00  0.00     0.000 HD 
HETATM    3  H2  UNL     1     -11.634   8.272  71.271  1.00  0.00     0.000 HD 
HETATM    4  C   UNL     1     -11.577  10.017  70.121  1.00  0.00    -0.252 C  
HETATM    5  N   UNL     1     -11.169   9.377  69.072  1.00  0.00    -0.446 N  
HETATM    6  C   UNL     1     -10.933  10.064  67.903  1.00  0.00    -0.252 C  
HETATM    7  H   UNL     1     -11.023   8.368  69.113  1.00  0.00     0.000 HD 
HETATM    8  N   UNL     1     -11.036  11.457  67.918  1.00  0.00    -0.240 N  
HETATM    9  O   UNL     1     -10.633   9.460  66.874  1.00  0.00    -0.231 OA 
HETATM   10  C   UNL     1     -11.808  11.474  70.146  1.00  0.00    -0.440 C  
HETATM   11  C   UNL     1     -11.505  12.126  69.025  1.00  0.00    -0.297 C  
ENDROOT
BRANCH   8  12
HETATM   12  C   UNL     1     -10.800  12.159  66.669  1.00  0.00    -0.268 C  
HETATM   13  C   UNL     1     -12.060  12.772  66.080  1.00  0.00    -0.429 C  
HETATM   14  C   UNL     1     -11.494  13.826  65.163  1.00  0.00    -0.329 C  
HETATM   15  C   UNL     1     -10.191  14.244  65.840  1.00  0.00    -0.324 C  
HETATM   16  O   UNL     1      -9.891  13.261  66.854  1.00  0.00    -0.235 OA 
BRANCH  15  17
HETATM   17  C   UNL     1     -10.232  15.634  66.478  1.00  0.00    -0.283 C  
HETATM   18  O   UNL     1      -9.364  15.708  67.607  1.00  0.00    -0.204 OA 
HETATM   19  H   UNL     1      -9.390  16.571  68.003  1.00  0.00     0.000 HD 
ENDBRANCH  15  17
ENDBRANCH   8  12
TORSDOF 2
ENDMDL
MODEL       89
REMARK 921   NORMALIZED FREE ENERGY PREDICTED BY IDOCK:   -4.04 KCAL/MOL
REMARK 922        TOTAL FREE ENERGY PREDICTED BY IDOCK:   -4.84 KCAL/MOL
REMARK 923 INTER-LIGAND FREE ENERGY PREDICTED BY IDOCK:   -4.54 KCAL/MOL
REMARK 924 INTRA-LIGAND FREE ENERGY PREDICTED BY IDOCK:   -0.30 KCAL/MOL
REMARK 927      BINDING AFFINITY PREDICTED BY RF-SCORE:    0.00 PKD
ROOT
HETATM    1  N   UNL     1     -12.472  15.468  69.106  1.00  0.00    -0.595 NA 
HETATM    2  H1  UNL     1     -12.079  15.596  70.038  1.00  0.00     0.000 HD 
HETATM    3  H2  UNL     1     -13.228  16.060  68.760  1.00  0.00     0.000 HD 
HETATM    4  C   UNL     1     -11.940  14.466  68.341  1.00  0.00    -0.293 C  
HETATM    5  N   UNL     1     -12.439  14.304  67.158  1.00  0.00    -0.537 N  
HETATM    6  C   UNL     1     -11.949  13.309  66.342  1.00  0.00    -0.410 C  
HETATM    7  H   UNL     1     -13.192  14.910  66.831  1.00  0.00     0.000 HD 
HETATM    8  N   UNL     1     -10.997  12.430  66.864  1.00  0.00    -0.255 N  
HETATM    9  O   UNL     1     -12.347  13.199  65.183  1.00  0.00    -0.421 OA 
HETATM   10  C   UNL     1     -10.854  13.631  68.888  1.00  0.00    -0.264 C  
HETATM   11  C   UNL     1     -10.446  12.631  68.109  1.00  0.00    -0.231 C  
ENDROOT
BRANCH   8  12
HETATM   12  C   UNL     1     -10.481  11.400  65.980  1.00  0.00    -0.255 C  
HETATM   13  C   UNL     1      -8.968  11.265  66.038  1.00  0.00    -0.209 C  
HETATM   14  C   UNL     1      -8.759   9.874  65.497  1.00  0.00    -0.170 C  
HETATM   15  C   UNL     1     -10.020   9.121  65.913  1.00  0.00    -0.162 C  
HETATM   16  O   UNL     1     -10.992  10.102  66.337  1.00  0.00     0.003 OA 
BRANCH  15  17
HETATM   17  C   UNL     1      -9.804   8.104  67.034  1.00  0.00    -0.232 C  
HETATM   18  O   UNL     1     -11.043   7.713  67.621  1.00  0.00    -0.508 OA 
HETATM   19  H   UNL     1     -10.909   7.081  68.318  1.00  0.00     0.000 HD 
ENDBRANCH  15  17
ENDBRANCH   8  12
TORSDOF 2
ENDMDL
MODEL       90
REMARK 921   NORMALIZED FREE ENERGY PREDICTED BY IDOCK:   -4.04 KCAL/MOL
REMARK 922        TOTAL FREE ENERGY PREDICTED BY IDOCK:   -4.83 KCAL/MOL
REMARK 923 INTER-LIGAND FREE ENERGY PREDICTED BY IDOCK:   -4.47 KCAL/MOL
REMARK 924 INTRA-LIGAND FREE ENERGY PREDICTED BY IDOCK:   -0.36 KCAL/MOL
REMARK 927      BINDING AFFINITY PREDICTED BY RF-SCORE:    0.00 PKD
ROOT
HETATM    1  N   UNL     1     -12.290  10.831  68.779  1.00  0.00    -0.792 NA 
HETATM    2  H1  UNL     1     -12.885  10.870  69.606  1.00  0.00     0.000 HD 
HETATM    3  H2  UNL     1     -12.118   9.955  68.286  1.00  0.00     0.000 HD 
HETATM    4  C   UNL     1     -11.733  12.008  68.360  1.00  0.00    -0.332 C  
HETATM    5  N   UNL     1     -10.978  11.959  67.309  1.00  0.00    -0.252 N  
HETATM    6  C   UNL     1     -10.385  13.110  66.841  1.00  0.00    -0.247 C  
HETATM    7  H   UNL     1     -10.824  11.071  66.830  1.00  0.00     0.000 HD 
HETATM    8  N   UNL     1     -10.530  14.283  67.586  1.00  0.00    -0.247 N  
HETATM    9  O   UNL     1      -9.740  13.098  65.794  1.00  0.00    -0.236 OA 
HETATM   10  C   UNL     1     -12.003  13.249  69.110  1.00  0.00    -0.343 C  
HETATM   11  C   UNL     1     -11.362  14.335  68.681  1.00  0.00    -0.275 C  
ENDROOT
BRANCH   8  12
HETATM   12  C   UNL     1      -9.911  15.488  67.065  1.00  0.00    -0.232 C  
HETATM   13  C   UNL     1     -10.861  16.340  66.241  1.00  0.00    -0.098 C  
HETATM   14  C   UNL     1     -10.188  17.688  66.284  1.00  0.00    -0.362 C  
HETATM   15  C   UNL     1      -9.469  17.700  67.631  1.00  0.00    -0.258 C  
HETATM   16  O   UNL     1      -9.457  16.345  68.130  1.00  0.00    -0.208 OA 
BRANCH  15  17
HETATM   17  C   UNL     1     -10.106  18.619  68.675  1.00  0.00    -0.368 C  
HETATM   18  O   UNL     1     -10.781  17.866  69.680  1.00  0.00    -0.219 OA 
HETATM   19  H   UNL     1     -11.176  18.437  70.329  1.00  0.00     0.000 HD 
ENDBRANCH  15  17
ENDBRANCH   8  12
TORSDOF 2
ENDMDL
MODEL       91
REMARK 921   NORMALIZED FREE ENERGY PREDICTED BY IDOCK:   -4.03 KCAL/MOL
REMARK 922        TOTAL FREE ENERGY PREDICTED BY IDOCK:   -4.83 KCAL/MOL
REMARK 923 INTER-LIGAND FREE ENERGY PREDICTED BY IDOCK:   -4.54 KCAL/MOL
REMARK 924 INTRA-LIGAND FREE ENERGY PREDICTED BY IDOCK:   -0.29 KCAL/MOL
REMARK 927      BINDING AFFINITY PREDICTED BY RF-SCORE:    0.00 PKD
ROOT
HETATM    1  N   UNL     1     -13.623  12.915  72.200  1.00  0.00    -0.536 NA 
HETATM    2  H1  UNL     1     -14.162  12.405  72.899  1.00  0.00     0.000 HD 
HETATM    3  H2  UNL     1     -13.697  13.928  72.104  1.00  0.00     0.000 HD 
HETATM    4  C   UNL     1     -12.796  12.179  71.396  1.00  0.00    -0.276 C  
HETATM    5  N   UNL     1     -12.111  12.827  70.508  1.00  0.00    -0.508 N  
HETATM    6  C   UNL     1     -11.265  12.141  69.666  1.00  0.00    -0.067 C  
HETATM    7  H   UNL     1     -12.199  13.840  70.433  1.00  0.00     0.000 HD 
HETATM    8  N   UNL     1     -11.255  10.746  69.725  1.00  0.00    -0.277 N  
HETATM    9  O   UNL     1     -10.540  12.749  68.880  1.00  0.00    -0.212 OA 
HETATM   10  C   UNL     1     -12.728  10.715  71.566  1.00  0.00    -0.549 C  
HETATM   11  C   UNL     1     -11.958  10.067  70.694  1.00  0.00    -0.313 C  
ENDROOT
BRANCH   8  12
HETATM   12  C   UNL     1     -10.342  10.044  68.840  1.00  0.00    -0.202 C  
HETATM   13  C   UNL     1      -9.313   9.209  69.583  1.00  0.00    -0.177 C  
HETATM   14  C   UNL     1      -8.883   8.229  68.522  1.00  0.00    -0.137 C  
HETATM   15  C   UNL     1     -10.124   8.059  67.650  1.00  0.00    -0.209 C  
HETATM   16  O   UNL     1     -11.045   9.117  67.992  1.00  0.00    -0.044 OA 
BRANCH  15  17
HETATM   17  C   UNL     1     -10.823   6.707  67.809  1.00  0.00    -0.294 C  
HETATM   18  O   UNL     1     -11.168   6.153  66.542  1.00  0.00    -0.741 OA 
HETATM   19  H   UNL     1     -11.602   5.314  66.640  1.00  0.00     0.000 HD 
ENDBRANCH  15  17
ENDBRANCH   8  12
TORSDOF 2
ENDMDL
MODEL       92
REMARK 921   NORMALIZED FREE ENERGY PREDICTED BY IDOCK:   -4.03 KCAL/MOL
REMARK 922        TOTAL FREE ENERGY PREDICTED BY IDOCK:   -4.82 KCAL/MOL
REMARK 923 INTER-LIGAND FREE ENERGY PREDICTED BY IDOCK:   -4.50 KCAL/MOL
REMARK 924 INTRA-LIGAND FREE ENERGY PREDICTED BY IDOCK:   -0.32 KCAL/MOL
REMARK 927      BINDING AFFINITY PREDICTED BY RF-SCORE:    0.00 PKD
ROOT
HETATM    1  N   UNL     1     -12.256  15.739  63.772  1.00  0.00    -1.100 NA 
HETATM    2  H1  UNL     1     -12.714  16.571  63.402  1.00  0.00     0.000 HD 
HETATM    3  H2  UNL     1     -12.528  14.803  63.472  1.00  0.00     0.000 HD 
HETATM    4  C   UNL     1     -11.260  15.935  64.688  1.00  0.00    -0.351 C  
HETATM    5  N   UNL     1     -10.678  14.878  65.158  1.00  0.00    -0.381 N  
HETATM    6  C   UNL     1      -9.670  15.010  66.087  1.00  0.00    -0.306 C  
HETATM    7  H   UNL     1     -10.964  13.952  64.840  1.00  0.00     0.000 HD 
HETATM    8  N   UNL     1      -9.382  16.286  66.579  1.00  0.00    -0.250 N  
HETATM    9  O   UNL     1      -9.046  14.024  66.474  1.00  0.00    -0.232 OA 
HETATM   10  C   UNL     1     -10.907  17.308  65.098  1.00  0.00     0.051 C  
HETATM   11  C   UNL     1      -9.980  17.407  66.049  1.00  0.00    -0.215 C  
ENDROOT
BRANCH   8  12
HETATM   12  C   UNL     1      -8.305  16.404  67.545  1.00  0.00    -0.161 C  
HETATM   13  C   UNL     1      -6.947  16.628  66.901  1.00  0.00    -0.262 C  
HETATM   14  C   UNL     1      -6.158  17.225  68.039  1.00  0.00    -0.138 C  
HETATM   15  C   UNL     1      -7.204  17.971  68.863  1.00  0.00    -0.259 C  
HETATM   16  O   UNL     1      -8.505  17.533  68.415  1.00  0.00    -0.259 OA 
BRANCH  15  17
HETATM   17  C   UNL     1      -7.118  19.495  68.756  1.00  0.00    -0.348 C  
HETATM   18  O   UNL     1      -8.254  20.029  68.080  1.00  0.00    -0.289 OA 
HETATM   19  H   UNL     1      -8.201  20.975  68.014  1.00  0.00     0.000 HD 
ENDBRANCH  15  17
ENDBRANCH   8  12
TORSDOF 2
ENDMDL
MODEL       93
REMARK 921   NORMALIZED FREE ENERGY PREDICTED BY IDOCK:   -4.03 KCAL/MOL
REMARK 922        TOTAL FREE ENERGY PREDICTED BY IDOCK:   -4.82 KCAL/MOL
REMARK 923 INTER-LIGAND FREE ENERGY PREDICTED BY IDOCK:   -5.14 KCAL/MOL
REMARK 924 INTRA-LIGAND FREE ENERGY PREDICTED BY IDOCK:    0.32 KCAL/MOL
REMARK 927      BINDING AFFINITY PREDICTED BY RF-SCORE:    0.00 PKD
ROOT
HETATM    1  N   UNL     1     -12.441  13.724  63.099  1.00  0.00    -1.074 NA 
HETATM    2  H1  UNL     1     -12.881  14.638  62.992  1.00  0.00     0.000 HD 
HETATM    3  H2  UNL     1     -12.289  13.109  62.300  1.00  0.00     0.000 HD 
HETATM    4  C   UNL     1     -12.065  13.360  64.363  1.00  0.00    -0.416 C  
HETATM    5  N   UNL     1     -11.507  12.200  64.498  1.00  0.00    -0.327 N  
HETATM    6  C   UNL     1     -11.111  11.776  65.747  1.00  0.00    -0.297 C  
HETATM    7  H   UNL     1     -11.361  11.604  63.684  1.00  0.00     0.000 HD 
HETATM    8  N   UNL     1     -11.427  12.571  66.851  1.00  0.00    -0.332 N  
HETATM    9  O   UNL     1     -10.498  10.718  65.881  1.00  0.00    -0.252 OA 
HETATM   10  C   UNL     1     -12.314  14.280  65.490  1.00  0.00    -0.417 C  
HETATM   11  C   UNL     1     -11.988  13.818  66.696  1.00  0.00    -0.431 C  
ENDROOT
BRANCH   8  12
HETATM   12  C   UNL     1     -10.984  12.113  68.156  1.00  0.00    -0.230 C  
HETATM   13  C   UNL     1     -11.873  11.028  68.741  1.00  0.00    -0.352 C  
HETATM   14  C   UNL     1     -10.957  10.389  69.754  1.00  0.00    -0.345 C  
HETATM   15  C   UNL     1      -9.563  10.569  69.158  1.00  0.00    -0.199 C  
HETATM   16  O   UNL     1      -9.668  11.531  68.086  1.00  0.00    -0.179 OA 
BRANCH  15  17
HETATM   17  C   UNL     1      -8.937   9.280  68.623  1.00  0.00    -0.132 C  
HETATM   18  O   UNL     1      -9.857   8.563  67.803  1.00  0.00    -0.159 OA 
HETATM   19  H   UNL     1      -9.468   7.763  67.470  1.00  0.00     0.000 HD 
ENDBRANCH  15  17
ENDBRANCH   8  12
TORSDOF 2
ENDMDL
MODEL       94
REMARK 921   NORMALIZED FREE ENERGY PREDICTED BY IDOCK:   -4.01 KCAL/MOL
REMARK 922        TOTAL FREE ENERGY PREDICTED BY IDOCK:   -4.80 KCAL/MOL
REMARK 923 INTER-LIGAND FREE ENERGY PREDICTED BY IDOCK:   -4.68 KCAL/MOL
REMARK 924 INTRA-LIGAND FREE ENERGY PREDICTED BY IDOCK:   -0.11 KCAL/MOL
REMARK 927      BINDING AFFINITY PREDICTED BY RF-SCORE:    0.00 PKD
ROOT
HETATM    1  N   UNL     1      -9.192  13.079  67.641  1.00  0.00    -0.191 NA 
HETATM    2  H1  UNL     1      -9.910  13.702  67.274  1.00  0.00     0.000 HD 
HETATM    3  H2  UNL     1      -8.201  13.243  67.462  1.00  0.00     0.000 HD 
HETATM    4  C   UNL     1      -9.617  12.013  68.387  1.00  0.00    -0.190 C  
HETATM    5  N   UNL     1      -8.704  11.222  68.853  1.00  0.00    -0.342 N  
HETATM    6  C   UNL     1      -9.070  10.129  69.607  1.00  0.00    -0.174 C  
HETATM    7  H   UNL     1      -7.719  11.408  68.664  1.00  0.00     0.000 HD 
HETATM    8  N   UNL     1     -10.430   9.846  69.752  1.00  0.00    -0.242 N  
HETATM    9  O   UNL     1      -8.214   9.420  70.134  1.00  0.00    -0.129 OA 
HETATM   10  C   UNL     1     -11.061  11.812  68.613  1.00  0.00    -0.289 C  
HETATM   11  C   UNL     1     -11.393  10.711  69.284  1.00  0.00    -0.282 C  
ENDROOT
BRANCH   8  12
HETATM   12  C   UNL     1     -10.793   8.699  70.565  1.00  0.00    -0.228 C  
HETATM   13  C   UNL     1     -10.653   8.955  72.056  1.00  0.00    -0.388 C  
HETATM   14  C   UNL     1     -11.547   7.891  72.640  1.00  0.00    -0.435 C  
HETATM   15  C   UNL     1     -12.627   7.693  71.579  1.00  0.00    -0.343 C  
HETATM   16  O   UNL     1     -12.172   8.335  70.368  1.00  0.00     0.119 OA 
BRANCH  15  17
HETATM   17  C   UNL     1     -13.997   8.252  71.965  1.00  0.00    -0.368 C  
HETATM   18  O   UNL     1     -13.958   8.872  73.249  1.00  0.00    -1.203 OA 
HETATM   19  H   UNL     1     -14.809   9.219  73.489  1.00  0.00     0.000 HD 
ENDBRANCH  15  17
ENDBRANCH   8  12
TORSDOF 2
ENDMDL
MODEL       95
REMARK 921   NORMALIZED FREE ENERGY PREDICTED BY IDOCK:   -4.00 KCAL/MOL
REMARK 922        TOTAL FREE ENERGY PREDICTED BY IDOCK:   -4.79 KCAL/MOL
REMARK 923 INTER-LIGAND FREE ENERGY PREDICTED BY IDOCK:   -5.12 KCAL/MOL
REMARK 924 INTRA-LIGAND FREE ENERGY PREDICTED BY IDOCK:    0.33 KCAL/MOL
REMARK 927      BINDING AFFINITY PREDICTED BY RF-SCORE:    0.00 PKD
ROOT
HETATM    1  N   UNL     1     -10.577   8.418  68.377  1.00  0.00    -0.384 NA 
HETATM    2  H1  UNL     1     -10.064   7.592  68.071  1.00  0.00     0.000 HD 
HETATM    3  H2  UNL     1     -11.018   8.463  69.296  1.00  0.00     0.000 HD 
HETATM    4  C   UNL     1     -10.645   9.466  67.500  1.00  0.00    -0.267 C  
HETATM    5  N   UNL     1     -11.295  10.516  67.889  1.00  0.00    -0.416 N  
HETATM    6  C   UNL     1     -11.403  11.601  67.048  1.00  0.00    -0.305 C  
HETATM    7  H   UNL     1     -11.726  10.538  68.813  1.00  0.00     0.000 HD 
HETATM    8  N   UNL     1     -10.897  11.490  65.751  1.00  0.00    -0.279 N  
HETATM    9  O   UNL     1     -11.938  12.638  67.435  1.00  0.00    -0.398 OA 
HETATM   10  C   UNL     1      -9.998   9.353  66.179  1.00  0.00    -0.351 C  
HETATM   11  C   UNL     1     -10.176  10.386  65.357  1.00  0.00    -0.259 C  
ENDROOT
BRANCH   8  12
HETATM   12  C   UNL     1     -11.006  12.653  64.888  1.00  0.00    -0.293 C  
HETATM   13  C   UNL     1     -12.390  13.280  64.902  1.00  0.00    -0.476 C  
HETATM   14  C   UNL     1     -12.105  14.674  64.404  1.00  0.00    -0.481 C  
HETATM   15  C   UNL     1     -10.684  14.955  64.884  1.00  0.00    -0.405 C  
HETATM   16  O   UNL     1     -10.109  13.699  65.304  1.00  0.00    -0.316 OA 
BRANCH  15  17
HETATM   17  C   UNL     1     -10.596  15.962  66.032  1.00  0.00    -0.323 C  
HETATM   18  O   UNL     1     -11.461  15.596  67.106  1.00  0.00    -0.168 OA 
HETATM   19  H   UNL     1     -11.406  16.221  67.819  1.00  0.00     0.000 HD 
ENDBRANCH  15  17
ENDBRANCH   8  12
TORSDOF 2
ENDMDL
MODEL       96
REMARK 921   NORMALIZED FREE ENERGY PREDICTED BY IDOCK:   -3.97 KCAL/MOL
REMARK 922        TOTAL FREE ENERGY PREDICTED BY IDOCK:   -4.76 KCAL/MOL
REMARK 923 INTER-LIGAND FREE ENERGY PREDICTED BY IDOCK:   -4.55 KCAL/MOL
REMARK 924 INTRA-LIGAND FREE ENERGY PREDICTED BY IDOCK:   -0.21 KCAL/MOL
REMARK 927      BINDING AFFINITY PREDICTED BY RF-SCORE:    0.00 PKD
ROOT
HETATM    1  N   UNL     1     -12.694  15.882  69.855  1.00  0.00    -0.591 NA 
HETATM    2  H1  UNL     1     -12.357  16.427  69.062  1.00  0.00     0.000 HD 
HETATM    3  H2  UNL     1     -13.203  16.318  70.624  1.00  0.00     0.000 HD 
HETATM    4  C   UNL     1     -12.431  14.540  69.842  1.00  0.00    -0.252 C  
HETATM    5  N   UNL     1     -12.859  13.848  70.850  1.00  0.00    -0.321 N  
HETATM    6  C   UNL     1     -12.621  12.493  70.896  1.00  0.00    -0.241 C  
HETATM    7  H   UNL     1     -13.369  14.306  71.605  1.00  0.00     0.000 HD 
HETATM    8  N   UNL     1     -11.825  11.922  69.901  1.00  0.00    -0.340 N  
HETATM    9  O   UNL     1     -13.099  11.807  71.799  1.00  0.00    -0.463 OA 
HETATM   10  C   UNL     1     -11.683  13.955  68.713  1.00  0.00    -0.392 C  
HETATM   11  C   UNL     1     -11.405  12.656  68.815  1.00  0.00    -0.289 C  
ENDROOT
BRANCH   8  12
HETATM   12  C   UNL     1     -11.602  10.489  69.960  1.00  0.00    -0.313 C  
HETATM   13  C   UNL     1     -11.118   9.904  68.644  1.00  0.00    -0.182 C  
HETATM   14  C   UNL     1     -10.483   8.613  69.092  1.00  0.00    -0.223 C  
HETATM   15  C   UNL     1      -9.974   8.919  70.498  1.00  0.00    -0.201 C  
HETATM   16  O   UNL     1     -10.584  10.158  70.922  1.00  0.00    -0.190 OA 
BRANCH  15  17
HETATM   17  C   UNL     1      -8.452   9.042  70.603  1.00  0.00    -0.196 C  
HETATM   18  O   UNL     1      -8.029   9.062  71.965  1.00  0.00    -0.356 OA 
HETATM   19  H   UNL     1      -7.085   9.137  72.029  1.00  0.00     0.000 HD 
ENDBRANCH  15  17
ENDBRANCH   8  12
TORSDOF 2
ENDMDL
MODEL       97
REMARK 921   NORMALIZED FREE ENERGY PREDICTED BY IDOCK:   -3.97 KCAL/MOL
REMARK 922        TOTAL FREE ENERGY PREDICTED BY IDOCK:   -4.75 KCAL/MOL
REMARK 923 INTER-LIGAND FREE ENERGY PREDICTED BY IDOCK:   -4.48 KCAL/MOL
REMARK 924 INTRA-LIGAND FREE ENERGY PREDICTED BY IDOCK:   -0.27 KCAL/MOL
REMARK 927      BINDING AFFINITY PREDICTED BY RF-SCORE:    0.00 PKD
ROOT
HETATM    1  N   UNL     1     -10.282  18.232  68.980  1.00  0.00    -0.449 NA 
HETATM    2  H1  UNL     1     -10.140  18.553  69.937  1.00  0.00     0.000 HD 
HETATM    3  H2  UNL     1     -10.196  18.867  68.186  1.00  0.00     0.000 HD 
HETATM    4  C   UNL     1     -10.594  16.911  68.809  1.00  0.00    -0.355 C  
HETATM    5  N   UNL     1     -10.774  16.503  67.593  1.00  0.00    -0.329 N  
HETATM    6  C   UNL     1     -11.095  15.185  67.357  1.00  0.00    -0.325 C  
HETATM    7  H   UNL     1     -10.679  17.155  66.815  1.00  0.00     0.000 HD 
HETATM    8  N   UNL     1     -11.325  14.350  68.453  1.00  0.00    -0.273 N  
HETATM    9  O   UNL     1     -11.180  14.761  66.206  1.00  0.00    -0.338 OA 
HETATM   10  C   UNL     1     -10.716  16.033  69.988  1.00  0.00    -0.328 C  
HETATM   11  C   UNL     1     -11.096  14.781  69.740  1.00  0.00    -0.258 C  
ENDROOT
BRANCH   8  12
HETATM   12  C   UNL     1     -11.645  12.960  68.180  1.00  0.00    -0.336 C  
HETATM   13  C   UNL     1     -10.423  12.057  68.169  1.00  0.00    -0.218 C  
HETATM   14  C   UNL     1     -11.037  10.700  68.401  1.00  0.00    -0.328 C  
HETATM   15  C   UNL     1     -12.272  10.992  69.248  1.00  0.00    -0.210 C  
HETATM   16  O   UNL     1     -12.512  12.415  69.192  1.00  0.00     0.064 OA 
BRANCH  15  17
HETATM   17  C   UNL     1     -12.150  10.556  70.709  1.00  0.00    -0.370 C  
HETATM   18  O   UNL     1     -13.021  11.312  71.547  1.00  0.00    -0.428 OA 
HETATM   19  H   UNL     1     -12.946  11.041  72.455  1.00  0.00     0.000 HD 
ENDBRANCH  15  17
ENDBRANCH   8  12
TORSDOF 2
ENDMDL
MODEL       98
REMARK 921   NORMALIZED FREE ENERGY PREDICTED BY IDOCK:   -3.96 KCAL/MOL
REMARK 922        TOTAL FREE ENERGY PREDICTED BY IDOCK:   -4.75 KCAL/MOL
REMARK 923 INTER-LIGAND FREE ENERGY PREDICTED BY IDOCK:   -4.55 KCAL/MOL
REMARK 924 INTRA-LIGAND FREE ENERGY PREDICTED BY IDOCK:   -0.20 KCAL/MOL
REMARK 927      BINDING AFFINITY PREDICTED BY RF-SCORE:    0.00 PKD
ROOT
HETATM    1  N   UNL     1     -13.176  15.492  70.669  1.00  0.00    -0.745 NA 
HETATM    2  H1  UNL     1     -13.539  15.694  71.600  1.00  0.00     0.000 HD 
HETATM    3  H2  UNL     1     -13.147  16.206  69.941  1.00  0.00     0.000 HD 
HETATM    4  C   UNL     1     -12.730  14.220  70.440  1.00  0.00    -0.295 C  
HETATM    5  N   UNL     1     -12.268  13.963  69.258  1.00  0.00    -0.404 N  
HETATM    6  C   UNL     1     -11.809  12.698  68.965  1.00  0.00    -0.294 C  
HETATM    7  H   UNL     1     -12.246  14.694  68.547  1.00  0.00     0.000 HD 
HETATM    8  N   UNL     1     -11.958  11.697  69.927  1.00  0.00    -0.332 N  
HETATM    9  O   UNL     1     -11.284  12.462  67.878  1.00  0.00    -0.232 OA 
HETATM   10  C   UNL     1     -12.800  13.218  71.521  1.00  0.00    -0.419 C  
HETATM   11  C   UNL     1     -12.416  11.985  71.193  1.00  0.00    -0.249 C  
ENDROOT
BRANCH   8  12
HETATM   12  C   UNL     1     -11.450  10.376  69.603  1.00  0.00    -0.262 C  
HETATM   13  C   UNL     1      -9.981  10.200  69.947  1.00  0.00    -0.250 C  
HETATM   14  C   UNL     1      -9.857   8.699  70.026  1.00  0.00    -0.185 C  
HETATM   15  C   UNL     1     -11.235   8.239  70.494  1.00  0.00    -0.239 C  
HETATM   16  O   UNL     1     -12.141   9.354  70.347  1.00  0.00    -0.129 OA 
BRANCH  15  17
HETATM   17  C   UNL     1     -11.274   7.742  71.940  1.00  0.00    -0.265 C  
HETATM   18  O   UNL     1     -10.509   8.587  72.796  1.00  0.00    -0.250 OA 
HETATM   19  H   UNL     1     -10.533   8.278  73.694  1.00  0.00     0.000 HD 
ENDBRANCH  15  17
ENDBRANCH   8  12
TORSDOF 2
ENDMDL
MODEL       99
REMARK 921   NORMALIZED FREE ENERGY PREDICTED BY IDOCK:   -3.96 KCAL/MOL
REMARK 922        TOTAL FREE ENERGY PREDICTED BY IDOCK:   -4.74 KCAL/MOL
REMARK 923 INTER-LIGAND FREE ENERGY PREDICTED BY IDOCK:   -4.73 KCAL/MOL
REMARK 924 INTRA-LIGAND FREE ENERGY PREDICTED BY IDOCK:   -0.01 KCAL/MOL
REMARK 927      BINDING AFFINITY PREDICTED BY RF-SCORE:    0.00 PKD
ROOT
HETATM    1  N   UNL     1     -10.445   7.846  69.390  1.00  0.00    -0.221 NA 
HETATM    2  H1  UNL     1     -10.303   7.344  70.266  1.00  0.00     0.000 HD 
HETATM    3  H2  UNL     1     -10.222   7.422  68.490  1.00  0.00     0.000 HD 
HETATM    4  C   UNL     1     -10.948   9.115  69.477  1.00  0.00    -0.123 C  
HETATM    5  N   UNL     1     -11.129   9.752  68.364  1.00  0.00    -0.473 N  
HETATM    6  C   UNL     1     -11.629  11.035  68.387  1.00  0.00    -0.302 C  
HETATM    7  H   UNL     1     -10.902   9.306  67.476  1.00  0.00     0.000 HD 
HETATM    8  N   UNL     1     -11.823  11.652  69.625  1.00  0.00    -0.330 N  
HETATM    9  O   UNL     1     -11.892  11.620  67.337  1.00  0.00    -0.603 OA 
HETATM   10  C   UNL     1     -11.248   9.691  70.802  1.00  0.00    -0.403 C  
HETATM   11  C   UNL     1     -11.663  10.957  70.802  1.00  0.00    -0.252 C  
ENDROOT
BRANCH   8  12
HETATM   12  C   UNL     1     -12.367  12.998  69.625  1.00  0.00    -0.045 C  
HETATM   13  C   UNL     1     -12.588  13.553  71.022  1.00  0.00    -0.438 C  
HETATM   14  C   UNL     1     -12.626  15.038  70.764  1.00  0.00    -0.429 C  
HETATM   15  C   UNL     1     -11.711  15.228  69.557  1.00  0.00    -0.339 C  
HETATM   16  O   UNL     1     -11.470  13.924  68.984  1.00  0.00    -0.260 OA 
BRANCH  15  17
HETATM   17  C   UNL     1     -10.373  15.894  69.882  1.00  0.00    -0.281 C  
HETATM   18  O   UNL     1      -9.838  16.558  68.739  1.00  0.00    -0.233 OA 
HETATM   19  H   UNL     1      -9.007  16.973  68.941  1.00  0.00     0.000 HD 
ENDBRANCH  15  17
ENDBRANCH   8  12
TORSDOF 2
ENDMDL
MODEL      100
REMARK 921   NORMALIZED FREE ENERGY PREDICTED BY IDOCK:   -3.96 KCAL/MOL
REMARK 922        TOTAL FREE ENERGY PREDICTED BY IDOCK:   -4.74 KCAL/MOL
REMARK 923 INTER-LIGAND FREE ENERGY PREDICTED BY IDOCK:   -4.40 KCAL/MOL
REMARK 924 INTRA-LIGAND FREE ENERGY PREDICTED BY IDOCK:   -0.35 KCAL/MOL
REMARK 927      BINDING AFFINITY PREDICTED BY RF-SCORE:    0.00 PKD
ROOT
HETATM    1  N   UNL     1      -9.852  11.067  62.375  1.00  0.00    -0.569 NA 
HETATM    2  H1  UNL     1     -10.319  11.952  62.177  1.00  0.00     0.000 HD 
HETATM    3  H2  UNL     1      -9.466  10.490  61.628  1.00  0.00     0.000 HD 
HETATM    4  C   UNL     1      -9.767  10.691  63.687  1.00  0.00    -0.330 C  
HETATM    5  N   UNL     1      -9.174   9.567  63.938  1.00  0.00    -0.425 N  
HETATM    6  C   UNL     1      -9.061   9.132  65.239  1.00  0.00    -0.195 C  
HETATM    7  H   UNL     1      -8.793   9.008  63.175  1.00  0.00     0.000 HD 
HETATM    8  N   UNL     1      -9.692   9.868  66.244  1.00  0.00    -0.206 N  
HETATM    9  O   UNL     1      -8.422   8.115  65.503  1.00  0.00    -0.148 OA 
HETATM   10  C   UNL     1     -10.348  11.555  64.732  1.00  0.00    -0.341 C  
HETATM   11  C   UNL     1     -10.289  11.079  65.975  1.00  0.00    -0.254 C  
ENDROOT
BRANCH   8  12
HETATM   12  C   UNL     1      -9.545   9.400  67.611  1.00  0.00    -0.134 C  
HETATM   13  C   UNL     1      -8.733  10.344  68.482  1.00  0.00    -0.135 C  
HETATM   14  C   UNL     1      -9.167   9.939  69.868  1.00  0.00    -0.245 C  
HETATM   15  C   UNL     1     -10.603   9.460  69.680  1.00  0.00    -0.225 C  
HETATM   16  O   UNL     1     -10.823   9.284  68.264  1.00  0.00    -0.179 OA 
BRANCH  15  17
HETATM   17  C   UNL     1     -11.661  10.410  70.244  1.00  0.00    -0.321 C  
HETATM   18  O   UNL     1     -12.685  10.669  69.285  1.00  0.00    -0.689 OA 
HETATM   19  H   UNL     1     -13.342  11.259  69.635  1.00  0.00     0.000 HD 
ENDBRANCH  15  17
ENDBRANCH   8  12
TORSDOF 2
ENDMDL
MODEL      101
REMARK 921   NORMALIZED FREE ENERGY PREDICTED BY IDOCK:   -3.95 KCAL/MOL
REMARK 922        TOTAL FREE ENERGY PREDICTED BY IDOCK:   -4.73 KCAL/MOL
REMARK 923 INTER-LIGAND FREE ENERGY PREDICTED BY IDOCK:   -4.42 KCAL/MOL
REMARK 924 INTRA-LIGAND FREE ENERGY PREDICTED BY IDOCK:   -0.31 KCAL/MOL
REMARK 927      BINDING AFFINITY PREDICTED BY RF-SCORE:    0.00 PKD
ROOT
HETATM    1  N   UNL     1     -10.117  18.997  66.772  1.00  0.00    -0.351 NA 
HETATM    2  H1  UNL     1      -9.705  19.219  65.867  1.00  0.00     0.000 HD 
HETATM    3  H2  UNL     1     -10.270  19.716  67.480  1.00  0.00     0.000 HD 
HETATM    4  C   UNL     1     -10.456  17.691  66.995  1.00  0.00    -0.305 C  
HETATM    5  N   UNL     1     -10.980  17.408  68.145  1.00  0.00    -0.265 N  
HETATM    6  C   UNL     1     -11.338  16.109  68.430  1.00  0.00    -0.345 C  
HETATM    7  H   UNL     1     -11.127  18.144  68.836  1.00  0.00     0.000 HD 
HETATM    8  N   UNL     1     -11.020  15.113  67.505  1.00  0.00    -0.302 N  
HETATM    9  O   UNL     1     -11.920  15.839  69.480  1.00  0.00    -0.361 OA 
HETATM   10  C   UNL     1     -10.208  16.684  65.945  1.00  0.00    -0.358 C  
HETATM   11  C   UNL     1     -10.497  15.425  66.271  1.00  0.00    -0.303 C  
ENDROOT
BRANCH   8  12
HETATM   12  C   UNL     1     -11.423  13.754  67.819  1.00  0.00    -0.322 C  
HETATM   13  C   UNL     1     -11.581  12.878  66.587  1.00  0.00    -0.428 C  
HETATM   14  C   UNL     1     -11.466  11.494  67.173  1.00  0.00    -0.313 C  
HETATM   15  C   UNL     1     -10.541  11.675  68.373  1.00  0.00    -0.211 C  
HETATM   16  O   UNL     1     -10.437  13.092  68.633  1.00  0.00    -0.253 OA 
BRANCH  15  17
HETATM   17  C   UNL     1      -9.140  11.091  68.181  1.00  0.00    -0.155 C  
HETATM   18  O   UNL     1      -8.143  12.108  68.256  1.00  0.00    -0.153 OA 
HETATM   19  H   UNL     1      -7.274  11.745  68.136  1.00  0.00     0.000 HD 
ENDBRANCH  15  17
ENDBRANCH   8  12
TORSDOF 2
ENDMDL
MODEL      102
REMARK 921   NORMALIZED FREE ENERGY PREDICTED BY IDOCK:   -3.93 KCAL/MOL
REMARK 922        TOTAL FREE ENERGY PREDICTED BY IDOCK:   -4.71 KCAL/MOL
REMARK 923 INTER-LIGAND FREE ENERGY PREDICTED BY IDOCK:   -4.42 KCAL/MOL
REMARK 924 INTRA-LIGAND FREE ENERGY PREDICTED BY IDOCK:   -0.29 KCAL/MOL
REMARK 927      BINDING AFFINITY PREDICTED BY RF-SCORE:    0.00 PKD
ROOT
HETATM    1  N   UNL     1     -11.801   5.250  73.062  1.00  0.00    -0.515 NA 
HETATM    2  H1  UNL     1     -12.626   5.585  73.559  1.00  0.00     0.000 HD 
HETATM    3  H2  UNL     1     -11.341   4.377  73.320  1.00  0.00     0.000 HD 
HETATM    4  C   UNL     1     -11.340   6.024  72.033  1.00  0.00    -0.290 C  
HETATM    5  N   UNL     1     -10.293   5.598  71.402  1.00  0.00    -0.220 N  
HETATM    6  C   UNL     1      -9.778   6.337  70.359  1.00  0.00    -0.165 C  
HETATM    7  H   UNL     1      -9.851   4.721  71.675  1.00  0.00     0.000 HD 
HETATM    8  N   UNL     1     -10.342   7.585  70.086  1.00  0.00    -0.211 N  
HETATM    9  O   UNL     1      -8.841   5.903  69.691  1.00  0.00    -0.128 OA 
HETATM   10  C   UNL     1     -12.033   7.284  71.701  1.00  0.00    -0.341 C  
HETATM   11  C   UNL     1     -11.476   8.014  70.737  1.00  0.00    -0.263 C  
ENDROOT
BRANCH   8  12
HETATM   12  C   UNL     1      -9.795   8.338  68.972  1.00  0.00    -0.176 C  
HETATM   13  C   UNL     1     -10.392   7.941  67.632  1.00  0.00    -0.307 C  
HETATM   14  C   UNL     1     -10.090   9.152  66.786  1.00  0.00    -0.341 C  
HETATM   15  C   UNL     1     -10.103  10.310  67.780  1.00  0.00    -0.180 C  
HETATM   16  O   UNL     1     -10.067   9.745  69.108  1.00  0.00    -0.173 OA 
BRANCH  15  17
HETATM   17  C   UNL     1     -11.318  11.232  67.654  1.00  0.00    -0.282 C  
HETATM   18  O   UNL     1     -12.363  10.829  68.536  1.00  0.00    -0.825 OA 
HETATM   19  H   UNL     1     -13.117  11.402  68.459  1.00  0.00     0.000 HD 
ENDBRANCH  15  17
ENDBRANCH   8  12
TORSDOF 2
ENDMDL
MODEL      103
REMARK 921   NORMALIZED FREE ENERGY PREDICTED BY IDOCK:   -3.90 KCAL/MOL
REMARK 922        TOTAL FREE ENERGY PREDICTED BY IDOCK:   -4.68 KCAL/MOL
REMARK 923 INTER-LIGAND FREE ENERGY PREDICTED BY IDOCK:   -4.39 KCAL/MOL
REMARK 924 INTRA-LIGAND FREE ENERGY PREDICTED BY IDOCK:   -0.29 KCAL/MOL
REMARK 927      BINDING AFFINITY PREDICTED BY RF-SCORE:    0.00 PKD
ROOT
HETATM    1  N   UNL     1     -12.780  14.113  65.797  1.00  0.00    -0.480 NA 
HETATM    2  H1  UNL     1     -13.226  14.769  66.437  1.00  0.00     0.000 HD 
HETATM    3  H2  UNL     1     -12.880  14.202  64.786  1.00  0.00     0.000 HD 
HETATM    4  C   UNL     1     -12.039  13.108  66.356  1.00  0.00    -0.382 C  
HETATM    5  N   UNL     1     -11.472  12.275  65.544  1.00  0.00    -0.350 N  
HETATM    6  C   UNL     1     -10.717  11.239  66.047  1.00  0.00    -0.242 C  
HETATM    7  H   UNL     1     -11.583  12.386  64.536  1.00  0.00     0.000 HD 
HETATM    8  N   UNL     1     -10.678  11.055  67.431  1.00  0.00    -0.240 N  
HETATM    9  O   UNL     1     -10.097  10.494  65.289  1.00  0.00    -0.279 OA 
HETATM   10  C   UNL     1     -11.929  13.015  67.825  1.00  0.00    -0.344 C  
HETATM   11  C   UNL     1     -11.253  11.965  68.288  1.00  0.00    -0.261 C  
ENDROOT
BRANCH   8  12
HETATM   12  C   UNL     1      -9.862   9.967  67.939  1.00  0.00    -0.145 C  
HETATM   13  C   UNL     1      -9.177  10.298  69.255  1.00  0.00    -0.215 C  
HETATM   14  C   UNL     1      -8.871   8.927  69.800  1.00  0.00    -0.144 C  
HETATM   15  C   UNL     1      -9.993   8.050  69.249  1.00  0.00    -0.191 C  
HETATM   16  O   UNL     1     -10.658   8.798  68.208  1.00  0.00    -0.210 OA 
BRANCH  15  17
HETATM   17  C   UNL     1     -11.020   7.613  70.294  1.00  0.00    -0.252 C  
HETATM   18  O   UNL     1     -12.010   6.763  69.720  1.00  0.00    -0.654 OA 
HETATM   19  H   UNL     1     -12.648   6.491  70.369  1.00  0.00     0.000 HD 
ENDBRANCH  15  17
ENDBRANCH   8  12
TORSDOF 2
ENDMDL
MODEL      104
REMARK 921   NORMALIZED FREE ENERGY PREDICTED BY IDOCK:   -3.86 KCAL/MOL
REMARK 922        TOTAL FREE ENERGY PREDICTED BY IDOCK:   -4.64 KCAL/MOL
REMARK 923 INTER-LIGAND FREE ENERGY PREDICTED BY IDOCK:   -4.78 KCAL/MOL
REMARK 924 INTRA-LIGAND FREE ENERGY PREDICTED BY IDOCK:    0.15 KCAL/MOL
REMARK 927      BINDING AFFINITY PREDICTED BY RF-SCORE:    0.00 PKD
ROOT
HETATM    1  N   UNL     1     -14.203  13.434  72.337  1.00  0.00    -0.654 NA 
HETATM    2  H1  UNL     1     -14.178  14.405  72.027  1.00  0.00     0.000 HD 
HETATM    3  H2  UNL     1     -14.848  13.122  73.063  1.00  0.00     0.000 HD 
HETATM    4  C   UNL     1     -13.331  12.568  71.735  1.00  0.00    -0.286 C  
HETATM    5  N   UNL     1     -13.363  11.335  72.128  1.00  0.00    -0.569 N  
HETATM    6  C   UNL     1     -12.506  10.417  71.563  1.00  0.00    -0.404 C  
HETATM    7  H   UNL     1     -14.019  11.045  72.853  1.00  0.00     0.000 HD 
HETATM    8  N   UNL     1     -11.547  10.873  70.656  1.00  0.00    -0.310 N  
HETATM    9  O   UNL     1     -12.585   9.226  71.859  1.00  0.00    -0.342 OA 
HETATM   10  C   UNL     1     -12.410  13.067  70.696  1.00  0.00    -0.391 C  
HETATM   11  C   UNL     1     -11.543  12.177  70.216  1.00  0.00    -0.017 C  
ENDROOT
BRANCH   8  12
HETATM   12  C   UNL     1     -10.666   9.885  70.059  1.00  0.00    -0.292 C  
HETATM   13  C   UNL     1      -9.818   9.146  71.081  1.00  0.00    -0.371 C  
HETATM   14  C   UNL     1      -9.436   7.899  70.325  1.00  0.00    -0.163 C  
HETATM   15  C   UNL     1     -10.615   7.660  69.386  1.00  0.00    -0.215 C  
HETATM   16  O   UNL     1     -11.414   8.863  69.375  1.00  0.00     0.174 OA 
BRANCH  15  17
HETATM   17  C   UNL     1     -11.495   6.470  69.772  1.00  0.00    -0.379 C  
HETATM   18  O   UNL     1     -12.726   6.905  70.347  1.00  0.00    -0.565 OA 
HETATM   19  H   UNL     1     -13.272   6.166  70.586  1.00  0.00     0.000 HD 
ENDBRANCH  15  17
ENDBRANCH   8  12
TORSDOF 2
ENDMDL
MODEL      105
REMARK 921   NORMALIZED FREE ENERGY PREDICTED BY IDOCK:   -3.85 KCAL/MOL
REMARK 922        TOTAL FREE ENERGY PREDICTED BY IDOCK:   -4.62 KCAL/MOL
REMARK 923 INTER-LIGAND FREE ENERGY PREDICTED BY IDOCK:   -4.92 KCAL/MOL
REMARK 924 INTRA-LIGAND FREE ENERGY PREDICTED BY IDOCK:    0.29 KCAL/MOL
REMARK 927      BINDING AFFINITY PREDICTED BY RF-SCORE:    0.00 PKD
ROOT
HETATM    1  N   UNL     1     -13.605  15.145  73.264  1.00  0.00    -0.607 NA 
HETATM    2  H1  UNL     1     -13.788  16.115  73.518  1.00  0.00     0.000 HD 
HETATM    3  H2  UNL     1     -13.867  14.374  73.878  1.00  0.00     0.000 HD 
HETATM    4  C   UNL     1     -12.992  14.924  72.061  1.00  0.00    -0.333 C  
HETATM    5  N   UNL     1     -12.760  13.692  71.737  1.00  0.00    -0.300 N  
HETATM    6  C   UNL     1     -12.142  13.406  70.541  1.00  0.00    -0.323 C  
HETATM    7  H   UNL     1     -13.035  12.937  72.366  1.00  0.00     0.000 HD 
HETATM    8  N   UNL     1     -11.682  14.468  69.759  1.00  0.00    -0.286 N  
HETATM    9  O   UNL     1     -11.997  12.240  70.177  1.00  0.00    -0.334 OA 
HETATM   10  C   UNL     1     -12.623  16.071  71.209  1.00  0.00    -0.239 C  
HETATM   11  C   UNL     1     -11.963  15.774  70.092  1.00  0.00    -0.347 C  
ENDROOT
BRANCH   8  12
HETATM   12  C   UNL     1     -11.048  14.143  68.494  1.00  0.00    -0.255 C  
HETATM   13  C   UNL     1      -9.605  13.694  68.646  1.00  0.00    -0.100 C  
HETATM   14  C   UNL     1      -9.374  12.946  67.357  1.00  0.00    -0.194 C  
HETATM   15  C   UNL     1     -10.748  12.382  67.006  1.00  0.00    -0.239 C  
HETATM   16  O   UNL     1     -11.720  13.052  67.838  1.00  0.00    -0.322 OA 
BRANCH  15  17
HETATM   17  C   UNL     1     -10.874  10.869  67.197  1.00  0.00    -0.280 C  
HETATM   18  O   UNL     1     -11.950  10.549  68.076  1.00  0.00    -0.758 OA 
HETATM   19  H   UNL     1     -12.028   9.610  68.194  1.00  0.00     0.000 HD 
ENDBRANCH  15  17
ENDBRANCH   8  12
TORSDOF 2
ENDMDL
MODEL      106
REMARK 921   NORMALIZED FREE ENERGY PREDICTED BY IDOCK:   -3.84 KCAL/MOL
REMARK 922        TOTAL FREE ENERGY PREDICTED BY IDOCK:   -4.61 KCAL/MOL
REMARK 923 INTER-LIGAND FREE ENERGY PREDICTED BY IDOCK:   -4.84 KCAL/MOL
REMARK 924 INTRA-LIGAND FREE ENERGY PREDICTED BY IDOCK:    0.23 KCAL/MOL
REMARK 927      BINDING AFFINITY PREDICTED BY RF-SCORE:    0.00 PKD
ROOT
HETATM    1  N   UNL     1      -7.710  18.222  67.543  1.00  0.00    -0.221 NA 
HETATM    2  H1  UNL     1      -7.349  18.366  68.486  1.00  0.00     0.000 HD 
HETATM    3  H2  UNL     1      -7.486  18.864  66.782  1.00  0.00     0.000 HD 
HETATM    4  C   UNL     1      -8.508  17.129  67.345  1.00  0.00    -0.191 C  
HETATM    5  N   UNL     1      -8.965  16.946  66.148  1.00  0.00    -0.264 N  
HETATM    6  C   UNL     1      -9.778  15.865  65.886  1.00  0.00    -0.351 C  
HETATM    7  H   UNL     1      -8.725  17.599  65.402  1.00  0.00     0.000 HD 
HETATM    8  N   UNL     1     -10.174  15.057  66.955  1.00  0.00    -0.255 N  
HETATM    9  O   UNL     1     -10.146  15.625  64.738  1.00  0.00    -0.326 OA 
HETATM   10  C   UNL     1      -8.811  16.233  68.477  1.00  0.00    -0.219 C  
HETATM   11  C   UNL     1      -9.655  15.237  68.217  1.00  0.00    -0.206 C  
ENDROOT
BRANCH   8  12
HETATM   12  C   UNL     1     -11.016  13.913  66.653  1.00  0.00    -0.301 C  
HETATM   13  C   UNL     1     -12.219  14.267  65.794  1.00  0.00    -0.415 C  
HETATM   14  C   UNL     1     -12.588  12.927  65.210  1.00  0.00    -0.502 C  
HETATM   15  C   UNL     1     -11.258  12.183  65.119  1.00  0.00    -0.329 C  
HETATM   16  O   UNL     1     -10.295  12.915  65.907  1.00  0.00    -0.275 OA 
BRANCH  15  17
HETATM   17  C   UNL     1     -10.727  12.019  63.694  1.00  0.00    -0.449 C  
HETATM   18  O   UNL     1      -9.607  12.872  63.460  1.00  0.00    -0.538 OA 
HETATM   19  H   UNL     1      -9.277  12.769  62.575  1.00  0.00     0.000 HD 
ENDBRANCH  15  17
ENDBRANCH   8  12
TORSDOF 2
ENDMDL
MODEL      107
REMARK 921   NORMALIZED FREE ENERGY PREDICTED BY IDOCK:   -3.84 KCAL/MOL
REMARK 922        TOTAL FREE ENERGY PREDICTED BY IDOCK:   -4.61 KCAL/MOL
REMARK 923 INTER-LIGAND FREE ENERGY PREDICTED BY IDOCK:   -4.26 KCAL/MOL
REMARK 924 INTRA-LIGAND FREE ENERGY PREDICTED BY IDOCK:   -0.35 KCAL/MOL
REMARK 927      BINDING AFFINITY PREDICTED BY RF-SCORE:    0.00 PKD
ROOT
HETATM    1  N   UNL     1     -11.945  12.318  67.561  1.00  0.00    -0.528 NA 
HETATM    2  H1  UNL     1     -12.380  13.008  68.172  1.00  0.00     0.000 HD 
HETATM    3  H2  UNL     1     -11.860  12.473  66.557  1.00  0.00     0.000 HD 
HETATM    4  C   UNL     1     -11.478  11.175  68.151  1.00  0.00    -0.303 C  
HETATM    5  N   UNL     1     -10.925  10.299  67.375  1.00  0.00    -0.284 N  
HETATM    6  C   UNL     1     -10.440   9.125  67.909  1.00  0.00    -0.237 C  
HETATM    7  H   UNL     1     -10.848  10.477  66.374  1.00  0.00     0.000 HD 
HETATM    8  N   UNL     1     -10.662   8.869  69.264  1.00  0.00    -0.202 N  
HETATM    9  O   UNL     1      -9.831   8.324  67.202  1.00  0.00    -0.177 OA 
HETATM   10  C   UNL     1     -11.631  10.992  69.607  1.00  0.00    -0.390 C  
HETATM   11  C   UNL     1     -11.219   9.820  70.088  1.00  0.00    -0.272 C  
ENDROOT
BRANCH   8  12
HETATM   12  C   UNL     1     -10.127   7.634  69.809  1.00  0.00    -0.196 C  
HETATM   13  C   UNL     1      -9.211   7.854  71.000  1.00  0.00    -0.164 C  
HETATM   14  C   UNL     1      -9.236   6.502  71.666  1.00  0.00    -0.143 C  
HETATM   15  C   UNL     1     -10.621   5.953  71.337  1.00  0.00    -0.252 C  
HETATM   16  O   UNL     1     -11.179   6.777  70.290  1.00  0.00    -0.287 OA 
BRANCH  15  17
HETATM   17  C   UNL     1     -11.584   5.924  72.526  1.00  0.00    -0.277 C  
HETATM   18  O   UNL     1     -12.797   6.609  72.224  1.00  0.00    -0.549 OA 
HETATM   19  H   UNL     1     -13.395   6.591  72.962  1.00  0.00     0.000 HD 
ENDBRANCH  15  17
ENDBRANCH   8  12
TORSDOF 2
ENDMDL
MODEL      108
REMARK 921   NORMALIZED FREE ENERGY PREDICTED BY IDOCK:   -3.83 KCAL/MOL
REMARK 922        TOTAL FREE ENERGY PREDICTED BY IDOCK:   -4.60 KCAL/MOL
REMARK 923 INTER-LIGAND FREE ENERGY PREDICTED BY IDOCK:   -4.95 KCAL/MOL
REMARK 924 INTRA-LIGAND FREE ENERGY PREDICTED BY IDOCK:    0.34 KCAL/MOL
REMARK 927      BINDING AFFINITY PREDICTED BY RF-SCORE:    0.00 PKD
ROOT
HETATM    1  N   UNL     1     -12.501  14.309  63.281  1.00  0.00    -1.068 NA 
HETATM    2  H1  UNL     1     -12.846  15.121  63.792  1.00  0.00     0.000 HD 
HETATM    3  H2  UNL     1     -12.729  14.160  62.298  1.00  0.00     0.000 HD 
HETATM    4  C   UNL     1     -11.716  13.428  63.973  1.00  0.00    -0.416 C  
HETATM    5  N   UNL     1     -11.277  12.397  63.325  1.00  0.00    -0.673 N  
HETATM    6  C   UNL     1     -10.487  11.472  63.969  1.00  0.00    -0.370 C  
HETATM    7  H   UNL     1     -11.516  12.271  62.341  1.00  0.00     0.000 HD 
HETATM    8  N   UNL     1     -10.274  11.620  65.341  1.00  0.00    -0.251 N  
HETATM    9  O   UNL     1      -9.987  10.537  63.346  1.00  0.00    -0.307 OA 
HETATM   10  C   UNL     1     -11.419  13.680  65.396  1.00  0.00    -0.322 C  
HETATM   11  C   UNL     1     -10.713  12.736  66.016  1.00  0.00    -0.272 C  
ENDROOT
BRANCH   8  12
HETATM   12  C   UNL     1      -9.423  10.643  65.996  1.00  0.00    -0.193 C  
HETATM   13  C   UNL     1     -10.004   9.239  65.982  1.00  0.00    -0.325 C  
HETATM   14  C   UNL     1      -8.778   8.392  66.208  1.00  0.00    -0.164 C  
HETATM   15  C   UNL     1      -7.648   9.200  65.576  1.00  0.00    -0.090 C  
HETATM   16  O   UNL     1      -8.148  10.533  65.336  1.00  0.00    -0.155 OA 
BRANCH  15  17
HETATM   17  C   UNL     1      -7.113   8.616  64.268  1.00  0.00    -0.089 C  
HETATM   18  O   UNL     1      -8.107   7.836  63.607  1.00  0.00    -0.251 OA 
HETATM   19  H   UNL     1      -7.775   7.473  62.795  1.00  0.00     0.000 HD 
ENDBRANCH  15  17
ENDBRANCH   8  12
TORSDOF 2
ENDMDL
MODEL      109
REMARK 921   NORMALIZED FREE ENERGY PREDICTED BY IDOCK:   -3.83 KCAL/MOL
REMARK 922        TOTAL FREE ENERGY PREDICTED BY IDOCK:   -4.60 KCAL/MOL
REMARK 923 INTER-LIGAND FREE ENERGY PREDICTED BY IDOCK:   -4.45 KCAL/MOL
REMARK 924 INTRA-LIGAND FREE ENERGY PREDICTED BY IDOCK:   -0.15 KCAL/MOL
REMARK 927      BINDING AFFINITY PREDICTED BY RF-SCORE:    0.00 PKD
ROOT
HETATM    1  N   UNL     1     -13.240  14.413  65.658  1.00  0.00    -0.503 NA 
HETATM    2  H1  UNL     1     -13.652  14.843  66.486  1.00  0.00     0.000 HD 
HETATM    3  H2  UNL     1     -13.464  14.743  64.719  1.00  0.00     0.000 HD 
HETATM    4  C   UNL     1     -12.375  13.374  65.864  1.00  0.00    -0.437 C  
HETATM    5  N   UNL     1     -11.852  12.829  64.813  1.00  0.00    -0.352 N  
HETATM    6  C   UNL     1     -10.977  11.775  64.955  1.00  0.00    -0.300 C  
HETATM    7  H   UNL     1     -12.087  13.177  63.883  1.00  0.00     0.000 HD 
HETATM    8  N   UNL     1     -10.765  11.255  66.234  1.00  0.00    -0.268 N  
HETATM    9  O   UNL     1     -10.402  11.305  63.975  1.00  0.00    -0.309 OA 
HETATM   10  C   UNL     1     -12.088  12.927  67.240  1.00  0.00    -0.275 C  
HETATM   11  C   UNL     1     -11.296  11.862  67.349  1.00  0.00    -0.324 C  
ENDROOT
BRANCH   8  12
HETATM   12  C   UNL     1      -9.825  10.156  66.363  1.00  0.00    -0.222 C  
HETATM   13  C   UNL     1      -9.446   9.859  67.804  1.00  0.00    -0.158 C  
HETATM   14  C   UNL     1      -8.942   8.441  67.708  1.00  0.00    -0.140 C  
HETATM   15  C   UNL     1      -9.746   7.840  66.558  1.00  0.00    -0.195 C  
HETATM   16  O   UNL     1     -10.383   8.929  65.855  1.00  0.00     0.016 OA 
BRANCH  15  17
HETATM   17  C   UNL     1     -10.808   6.829  66.995  1.00  0.00    -0.383 C  
HETATM   18  O   UNL     1     -11.073   5.882  65.962  1.00  0.00    -0.604 OA 
HETATM   19  H   UNL     1     -11.732   5.254  66.233  1.00  0.00     0.000 HD 
ENDBRANCH  15  17
ENDBRANCH   8  12
TORSDOF 2
ENDMDL
MODEL      110
REMARK 921   NORMALIZED FREE ENERGY PREDICTED BY IDOCK:   -3.82 KCAL/MOL
REMARK 922        TOTAL FREE ENERGY PREDICTED BY IDOCK:   -4.59 KCAL/MOL
REMARK 923 INTER-LIGAND FREE ENERGY PREDICTED BY IDOCK:   -5.12 KCAL/MOL
REMARK 924 INTRA-LIGAND FREE ENERGY PREDICTED BY IDOCK:    0.52 KCAL/MOL
REMARK 927      BINDING AFFINITY PREDICTED BY RF-SCORE:    0.00 PKD
ROOT
HETATM    1  N   UNL     1     -12.733  16.029  70.699  1.00  0.00    -0.534 NA 
HETATM    2  H1  UNL     1     -12.381  16.626  69.951  1.00  0.00     0.000 HD 
HETATM    3  H2  UNL     1     -13.178  16.420  71.529  1.00  0.00     0.000 HD 
HETATM    4  C   UNL     1     -12.581  14.679  70.538  1.00  0.00    -0.350 C  
HETATM    5  N   UNL     1     -13.029  13.921  71.487  1.00  0.00    -0.342 N  
HETATM    6  C   UNL     1     -12.901  12.553  71.386  1.00  0.00    -0.260 C  
HETATM    7  H   UNL     1     -13.474  14.335  72.307  1.00  0.00     0.000 HD 
HETATM    8  N   UNL     1     -12.189  12.030  70.304  1.00  0.00    -0.298 N  
HETATM    9  O   UNL     1     -13.401  11.816  72.233  1.00  0.00    -0.455 OA 
HETATM   10  C   UNL     1     -11.923  14.159  69.324  1.00  0.00    -0.382 C  
HETATM   11  C   UNL     1     -11.747  12.839  69.281  1.00  0.00    -0.319 C  
ENDROOT
BRANCH   8  12
HETATM   12  C   UNL     1     -12.081  10.586  70.208  1.00  0.00    -0.318 C  
HETATM   13  C   UNL     1     -10.999  10.006  71.103  1.00  0.00    -0.183 C  
HETATM   14  C   UNL     1     -11.434   8.568  71.225  1.00  0.00    -0.329 C  
HETATM   15  C   UNL     1     -12.955   8.630  71.113  1.00  0.00    -0.068 C  
HETATM   16  O   UNL     1     -13.302   9.943  70.620  1.00  0.00    -0.249 OA 
BRANCH  15  17
HETATM   17  C   UNL     1     -13.693   8.371  72.427  1.00  0.00    -0.214 C  
HETATM   18  O   UNL     1     -14.310   9.560  72.916  1.00  0.00    -0.816 OA 
HETATM   19  H   UNL     1     -14.768   9.399  73.732  1.00  0.00     0.000 HD 
ENDBRANCH  15  17
ENDBRANCH   8  12
TORSDOF 2
ENDMDL
MODEL      111
REMARK 921   NORMALIZED FREE ENERGY PREDICTED BY IDOCK:   -3.81 KCAL/MOL
REMARK 922        TOTAL FREE ENERGY PREDICTED BY IDOCK:   -4.58 KCAL/MOL
REMARK 923 INTER-LIGAND FREE ENERGY PREDICTED BY IDOCK:   -4.20 KCAL/MOL
REMARK 924 INTRA-LIGAND FREE ENERGY PREDICTED BY IDOCK:   -0.38 KCAL/MOL
REMARK 927      BINDING AFFINITY PREDICTED BY RF-SCORE:    0.00 PKD
ROOT
HETATM    1  N   UNL     1      -8.611  20.110  66.205  1.00  0.00    -0.556 NA 
HETATM    2  H1  UNL     1      -7.756  20.298  65.681  1.00  0.00     0.000 HD 
HETATM    3  H2  UNL     1      -9.264  20.856  66.444  1.00  0.00     0.000 HD 
HETATM    4  C   UNL     1      -8.842  18.812  66.570  1.00  0.00    -0.312 C  
HETATM    5  N   UNL     1      -9.927  18.574  67.235  1.00  0.00    -0.316 N  
HETATM    6  C   UNL     1     -10.213  17.287  67.635  1.00  0.00    -0.333 C  
HETATM    7  H   UNL     1     -10.568  19.335  67.460  1.00  0.00     0.000 HD 
HETATM    8  N   UNL     1      -9.260  16.292  67.406  1.00  0.00    -0.210 N  
HETATM    9  O   UNL     1     -11.282  17.029  68.186  1.00  0.00    -0.272 OA 
HETATM   10  C   UNL     1      -7.864  17.768  66.209  1.00  0.00    -0.299 C  
HETATM   11  C   UNL     1      -8.126  16.546  66.668  1.00  0.00    -0.278 C  
ENDROOT
BRANCH   8  12
HETATM   12  C   UNL     1      -9.590  14.941  67.821  1.00  0.00    -0.208 C  
HETATM   13  C   UNL     1     -10.041  14.056  66.671  1.00  0.00    -0.276 C  
HETATM   14  C   UNL     1      -9.805  12.676  67.229  1.00  0.00    -0.206 C  
HETATM   15  C   UNL     1      -8.621  12.857  68.176  1.00  0.00    -0.188 C  
HETATM   16  O   UNL     1      -8.446  14.275  68.388  1.00  0.00    -0.156 OA 
BRANCH  15  17
HETATM   17  C   UNL     1      -7.310  12.255  67.665  1.00  0.00    -0.127 C  
HETATM   18  O   UNL     1      -6.432  13.269  67.181  1.00  0.00    -0.458 OA 
HETATM   19  H   UNL     1      -5.618  12.895  66.864  1.00  0.00     0.000 HD 
ENDBRANCH  15  17
ENDBRANCH   8  12
TORSDOF 2
ENDMDL
MODEL      112
REMARK 921   NORMALIZED FREE ENERGY PREDICTED BY IDOCK:   -3.80 KCAL/MOL
REMARK 922        TOTAL FREE ENERGY PREDICTED BY IDOCK:   -4.56 KCAL/MOL
REMARK 923 INTER-LIGAND FREE ENERGY PREDICTED BY IDOCK:   -4.28 KCAL/MOL
REMARK 924 INTRA-LIGAND FREE ENERGY PREDICTED BY IDOCK:   -0.28 KCAL/MOL
REMARK 927      BINDING AFFINITY PREDICTED BY RF-SCORE:    0.00 PKD
ROOT
HETATM    1  N   UNL     1     -13.464  10.934  72.277  1.00  0.00    -0.528 NA 
HETATM    2  H1  UNL     1     -13.219  11.871  71.957  1.00  0.00     0.000 HD 
HETATM    3  H2  UNL     1     -14.187  10.782  72.979  1.00  0.00     0.000 HD 
HETATM    4  C   UNL     1     -12.777   9.890  71.720  1.00  0.00    -0.428 C  
HETATM    5  N   UNL     1     -13.088   8.700  72.125  1.00  0.00    -0.367 N  
HETATM    6  C   UNL     1     -12.428   7.609  71.605  1.00  0.00    -0.335 C  
HETATM    7  H   UNL     1     -13.818   8.573  72.826  1.00  0.00     0.000 HD 
HETATM    8  N   UNL     1     -11.362   7.831  70.731  1.00  0.00    -0.279 N  
HETATM    9  O   UNL     1     -12.773   6.469  71.911  1.00  0.00    -0.325 OA 
HETATM   10  C   UNL     1     -11.733  10.159  70.713  1.00  0.00    -0.446 C  
HETATM   11  C   UNL     1     -11.061   9.095  70.278  1.00  0.00    -0.239 C  
ENDROOT
BRANCH   8  12
HETATM   12  C   UNL     1     -10.693   6.665  70.182  1.00  0.00    -0.239 C  
HETATM   13  C   UNL     1     -11.133   6.335  68.766  1.00  0.00    -0.424 C  
HETATM   14  C   UNL     1      -9.983   5.497  68.269  1.00  0.00    -0.201 C  
HETATM   15  C   UNL     1      -8.774   6.043  69.025  1.00  0.00    -0.122 C  
HETATM   16  O   UNL     1      -9.270   6.870  70.100  1.00  0.00    -0.155 OA 
BRANCH  15  17
HETATM   17  C   UNL     1      -7.810   6.858  68.162  1.00  0.00    -0.114 C  
HETATM   18  O   UNL     1      -7.376   6.111  67.027  1.00  0.00    -0.080 OA 
HETATM   19  H   UNL     1      -6.777   6.618  66.491  1.00  0.00     0.000 HD 
ENDBRANCH  15  17
ENDBRANCH   8  12
TORSDOF 2
ENDMDL
MODEL      113
REMARK 921   NORMALIZED FREE ENERGY PREDICTED BY IDOCK:   -3.75 KCAL/MOL
REMARK 922        TOTAL FREE ENERGY PREDICTED BY IDOCK:   -4.51 KCAL/MOL
REMARK 923 INTER-LIGAND FREE ENERGY PREDICTED BY IDOCK:   -4.19 KCAL/MOL
REMARK 924 INTRA-LIGAND FREE ENERGY PREDICTED BY IDOCK:   -0.32 KCAL/MOL
REMARK 927      BINDING AFFINITY PREDICTED BY RF-SCORE:    0.00 PKD
ROOT
HETATM    1  N   UNL     1      -6.908   6.029  71.791  1.00  0.00    -0.066 NA 
HETATM    2  H1  UNL     1      -6.289   6.445  72.486  1.00  0.00     0.000 HD 
HETATM    3  H2  UNL     1      -6.613   5.238  71.219  1.00  0.00     0.000 HD 
HETATM    4  C   UNL     1      -8.152   6.583  71.659  1.00  0.00    -0.108 C  
HETATM    5  N   UNL     1      -8.938   6.056  70.776  1.00  0.00    -0.148 N  
HETATM    6  C   UNL     1     -10.202   6.572  70.593  1.00  0.00    -0.187 C  
HETATM    7  H   UNL     1      -8.623   5.262  70.218  1.00  0.00     0.000 HD 
HETATM    8  N   UNL     1     -10.557   7.726  71.295  1.00  0.00    -0.217 N  
HETATM    9  O   UNL     1     -10.993   6.027  69.825  1.00  0.00    -0.337 OA 
HETATM   10  C   UNL     1      -8.531   7.733  72.502  1.00  0.00    -0.175 C  
HETATM   11  C   UNL     1      -9.730   8.259  72.258  1.00  0.00    -0.292 C  
ENDROOT
BRANCH   8  12
HETATM   12  C   UNL     1     -11.900   8.242  71.100  1.00  0.00    -0.275 C  
HETATM   13  C   UNL     1     -12.655   8.450  72.402  1.00  0.00    -0.372 C  
HETATM   14  C   UNL     1     -13.721   9.433  71.990  1.00  0.00    -0.466 C  
HETATM   15  C   UNL     1     -13.067  10.240  70.871  1.00  0.00    -0.344 C  
HETATM   16  O   UNL     1     -11.876   9.534  70.464  1.00  0.00    -0.256 OA 
BRANCH  15  17
HETATM   17  C   UNL     1     -12.699  11.672  71.262  1.00  0.00    -0.340 C  
HETATM   18  O   UNL     1     -13.478  12.121  72.369  1.00  0.00    -0.610 OA 
HETATM   19  H   UNL     1     -13.249  13.011  72.611  1.00  0.00     0.000 HD 
ENDBRANCH  15  17
ENDBRANCH   8  12
TORSDOF 2
ENDMDL
MODEL      114
REMARK 921   NORMALIZED FREE ENERGY PREDICTED BY IDOCK:   -3.75 KCAL/MOL
REMARK 922        TOTAL FREE ENERGY PREDICTED BY IDOCK:   -4.51 KCAL/MOL
REMARK 923 INTER-LIGAND FREE ENERGY PREDICTED BY IDOCK:   -4.42 KCAL/MOL
REMARK 924 INTRA-LIGAND FREE ENERGY PREDICTED BY IDOCK:   -0.09 KCAL/MOL
REMARK 927      BINDING AFFINITY PREDICTED BY RF-SCORE:    0.00 PKD
ROOT
HETATM    1  N   UNL     1     -12.855  11.739  71.345  1.00  0.00    -0.386 NA 
HETATM    2  H1  UNL     1     -13.141  12.208  72.203  1.00  0.00     0.000 HD 
HETATM    3  H2  UNL     1     -12.912  10.726  71.246  1.00  0.00     0.000 HD 
HETATM    4  C   UNL     1     -12.390  12.531  70.330  1.00  0.00    -0.232 C  
HETATM    5  N   UNL     1     -12.027  11.935  69.240  1.00  0.00    -0.302 N  
HETATM    6  C   UNL     1     -11.546  12.678  68.185  1.00  0.00    -0.338 C  
HETATM    7  H   UNL     1     -12.097  10.921  69.163  1.00  0.00     0.000 HD 
HETATM    8  N   UNL     1     -11.362  14.051  68.367  1.00  0.00    -0.274 N  
HETATM    9  O   UNL     1     -11.284  12.139  67.111  1.00  0.00    -0.275 OA 
HETATM   10  C   UNL     1     -12.317  13.992  70.522  1.00  0.00    -0.437 C  
HETATM   11  C   UNL     1     -11.784  14.682  69.515  1.00  0.00    -0.324 C  
ENDROOT
BRANCH   8  12
HETATM   12  C   UNL     1     -10.871  14.817  67.236  1.00  0.00    -0.309 C  
HETATM   13  C   UNL     1     -10.902  16.318  67.471  1.00  0.00    -0.268 C  
HETATM   14  C   UNL     1      -9.905  16.813  66.455  1.00  0.00    -0.312 C  
HETATM   15  C   UNL     1      -8.907  15.666  66.326  1.00  0.00    -0.329 C  
HETATM   16  O   UNL     1      -9.494  14.504  66.951  1.00  0.00    -0.231 OA 
BRANCH  15  17
HETATM   17  C   UNL     1      -7.543  15.946  66.958  1.00  0.00    -0.229 C  
HETATM   18  O   UNL     1      -7.653  16.886  68.025  1.00  0.00    -0.170 OA 
HETATM   19  H   UNL     1      -6.806  17.060  68.418  1.00  0.00     0.000 HD 
ENDBRANCH  15  17
ENDBRANCH   8  12
TORSDOF 2
ENDMDL
MODEL      115
REMARK 921   NORMALIZED FREE ENERGY PREDICTED BY IDOCK:   -3.73 KCAL/MOL
REMARK 922        TOTAL FREE ENERGY PREDICTED BY IDOCK:   -4.49 KCAL/MOL
REMARK 923 INTER-LIGAND FREE ENERGY PREDICTED BY IDOCK:   -4.91 KCAL/MOL
REMARK 924 INTRA-LIGAND FREE ENERGY PREDICTED BY IDOCK:    0.42 KCAL/MOL
REMARK 927      BINDING AFFINITY PREDICTED BY RF-SCORE:    0.00 PKD
ROOT
HETATM    1  N   UNL     1     -13.307  10.074  72.422  1.00  0.00    -0.595 NA 
HETATM    2  H1  UNL     1     -13.190   9.062  72.443  1.00  0.00     0.000 HD 
HETATM    3  H2  UNL     1     -13.860  10.562  73.127  1.00  0.00     0.000 HD 
HETATM    4  C   UNL     1     -12.689  10.750  71.406  1.00  0.00    -0.439 C  
HETATM    5  N   UNL     1     -12.838  12.036  71.380  1.00  0.00    -0.350 N  
HETATM    6  C   UNL     1     -12.244  12.771  70.379  1.00  0.00    -0.293 C  
HETATM    7  H   UNL     1     -13.393  12.502  72.098  1.00  0.00     0.000 HD 
HETATM    8  N   UNL     1     -11.586  12.088  69.353  1.00  0.00    -0.310 N  
HETATM    9  O   UNL     1     -12.299  14.000  70.391  1.00  0.00    -0.321 OA 
HETATM   10  C   UNL     1     -11.906  10.002  70.404  1.00  0.00    -0.343 C  
HETATM   11  C   UNL     1     -11.401  10.725  69.407  1.00  0.00    -0.285 C  
ENDROOT
BRANCH   8  12
HETATM   12  C   UNL     1     -10.951  12.884  68.318  1.00  0.00    -0.256 C  
HETATM   13  C   UNL     1     -11.938  13.717  67.516  1.00  0.00    -0.393 C  
HETATM   14  C   UNL     1     -11.043  14.780  66.931  1.00  0.00    -0.339 C  
HETATM   15  C   UNL     1      -9.939  14.948  67.970  1.00  0.00    -0.220 C  
HETATM   16  O   UNL     1     -10.023  13.830  68.881  1.00  0.00    -0.160 OA 
BRANCH  15  17
HETATM   17  C   UNL     1     -10.016  16.254  68.763  1.00  0.00    -0.237 C  
HETATM   18  O   UNL     1     -10.600  17.296  67.985  1.00  0.00    -0.368 OA 
HETATM   19  H   UNL     1     -10.648  18.107  68.477  1.00  0.00     0.000 HD 
ENDBRANCH  15  17
ENDBRANCH   8  12
TORSDOF 2
ENDMDL
MODEL      116
REMARK 921   NORMALIZED FREE ENERGY PREDICTED BY IDOCK:   -3.72 KCAL/MOL
REMARK 922        TOTAL FREE ENERGY PREDICTED BY IDOCK:   -4.48 KCAL/MOL
REMARK 923 INTER-LIGAND FREE ENERGY PREDICTED BY IDOCK:   -4.65 KCAL/MOL
REMARK 924 INTRA-LIGAND FREE ENERGY PREDICTED BY IDOCK:    0.17 KCAL/MOL
REMARK 927      BINDING AFFINITY PREDICTED BY RF-SCORE:    0.00 PKD
ROOT
HETATM    1  N   UNL     1     -12.134  11.201  68.317  1.00  0.00    -0.735 NA 
HETATM    2  H1  UNL     1     -12.787  11.979  68.400  1.00  0.00     0.000 HD 
HETATM    3  H2  UNL     1     -11.601  11.041  67.462  1.00  0.00     0.000 HD 
HETATM    4  C   UNL     1     -12.003  10.382  69.405  1.00  0.00    -0.079 C  
HETATM    5  N   UNL     1     -11.173   9.394  69.300  1.00  0.00    -0.442 N  
HETATM    6  C   UNL     1     -11.002   8.532  70.359  1.00  0.00    -0.238 C  
HETATM    7  H   UNL     1     -10.648   9.256  68.436  1.00  0.00     0.000 HD 
HETATM    8  N   UNL     1     -11.817   8.688  71.482  1.00  0.00    -0.289 N  
HETATM    9  O   UNL     1     -10.152   7.644  70.310  1.00  0.00    -0.195 OA 
HETATM   10  C   UNL     1     -12.801  10.648  70.617  1.00  0.00    -0.404 C  
HETATM   11  C   UNL     1     -12.671   9.761  71.601  1.00  0.00    -0.422 C  
ENDROOT
BRANCH   8  12
HETATM   12  C   UNL     1     -11.607   7.779  72.595  1.00  0.00    -0.344 C  
HETATM   13  C   UNL     1     -11.664   6.315  72.189  1.00  0.00    -0.368 C  
HETATM   14  C   UNL     1     -10.923   5.650  73.321  1.00  0.00    -0.316 C  
HETATM   15  C   UNL     1      -9.916   6.704  73.774  1.00  0.00    -0.273 C  
HETATM   16  O   UNL     1     -10.305   7.962  73.181  1.00  0.00    -0.332 OA 
BRANCH  15  17
HETATM   17  C   UNL     1      -8.467   6.392  73.398  1.00  0.00    -0.121 C  
HETATM   18  O   UNL     1      -8.131   6.954  72.131  1.00  0.00    -0.098 OA 
HETATM   19  H   UNL     1      -7.231   6.761  71.897  1.00  0.00     0.000 HD 
ENDBRANCH  15  17
ENDBRANCH   8  12
TORSDOF 2
ENDMDL
MODEL      117
REMARK 921   NORMALIZED FREE ENERGY PREDICTED BY IDOCK:   -3.71 KCAL/MOL
REMARK 922        TOTAL FREE ENERGY PREDICTED BY IDOCK:   -4.47 KCAL/MOL
REMARK 923 INTER-LIGAND FREE ENERGY PREDICTED BY IDOCK:   -4.12 KCAL/MOL
REMARK 924 INTRA-LIGAND FREE ENERGY PREDICTED BY IDOCK:   -0.35 KCAL/MOL
REMARK 927      BINDING AFFINITY PREDICTED BY RF-SCORE:    0.00 PKD
ROOT
HETATM    1  N   UNL     1     -12.346   5.838  72.827  1.00  0.00    -0.488 NA 
HETATM    2  H1  UNL     1     -12.557   6.227  73.745  1.00  0.00     0.000 HD 
HETATM    3  H2  UNL     1     -12.463   4.845  72.628  1.00  0.00     0.000 HD 
HETATM    4  C   UNL     1     -11.898   6.711  71.873  1.00  0.00    -0.332 C  
HETATM    5  N   UNL     1     -11.630   6.217  70.706  1.00  0.00    -0.329 N  
HETATM    6  C   UNL     1     -11.171   7.044  69.705  1.00  0.00    -0.217 C  
HETATM    7  H   UNL     1     -11.759   5.221  70.529  1.00  0.00     0.000 HD 
HETATM    8  N   UNL     1     -10.902   8.379  70.016  1.00  0.00    -0.240 N  
HETATM    9  O   UNL     1     -10.999   6.610  68.567  1.00  0.00    -0.258 OA 
HETATM   10  C   UNL     1     -11.735   8.138  72.209  1.00  0.00    -0.439 C  
HETATM   11  C   UNL     1     -11.223   8.904  71.248  1.00  0.00    -0.298 C  
ENDROOT
BRANCH   8  12
HETATM   12  C   UNL     1     -10.435   9.237  68.942  1.00  0.00    -0.215 C  
HETATM   13  C   UNL     1     -10.839  10.691  69.119  1.00  0.00    -0.279 C  
HETATM   14  C   UNL     1      -9.842  11.400  68.239  1.00  0.00    -0.202 C  
HETATM   15  C   UNL     1      -8.602  10.512  68.295  1.00  0.00    -0.127 C  
HETATM   16  O   UNL     1      -8.997   9.247  68.869  1.00  0.00    -0.133 OA 
BRANCH  15  17
HETATM   17  C   UNL     1      -7.445  11.097  69.107  1.00  0.00    -0.109 C  
HETATM   18  O   UNL     1      -7.409  10.548  70.422  1.00  0.00    -0.451 OA 
HETATM   19  H   UNL     1      -6.691  10.911  70.926  1.00  0.00     0.000 HD 
ENDBRANCH  15  17
ENDBRANCH   8  12
TORSDOF 2
ENDMDL
MODEL      118
REMARK 921   NORMALIZED FREE ENERGY PREDICTED BY IDOCK:   -3.70 KCAL/MOL
REMARK 922        TOTAL FREE ENERGY PREDICTED BY IDOCK:   -4.46 KCAL/MOL
REMARK 923 INTER-LIGAND FREE ENERGY PREDICTED BY IDOCK:   -4.17 KCAL/MOL
REMARK 924 INTRA-LIGAND FREE ENERGY PREDICTED BY IDOCK:   -0.29 KCAL/MOL
REMARK 927      BINDING AFFINITY PREDICTED BY RF-SCORE:    0.00 PKD
ROOT
HETATM    1  N   UNL     1      -9.655   9.790  64.558  1.00  0.00    -0.425 NA 
HETATM    2  H1  UNL     1      -9.126   9.055  64.089  1.00  0.00     0.000 HD 
HETATM    3  H2  UNL     1      -9.932  10.642  64.071  1.00  0.00     0.000 HD 
HETATM    4  C   UNL     1      -9.976   9.580  65.872  1.00  0.00    -0.272 C  
HETATM    5  N   UNL     1     -10.647  10.513  66.468  1.00  0.00    -0.209 N  
HETATM    6  C   UNL     1     -10.996  10.362  67.791  1.00  0.00    -0.309 C  
HETATM    7  H   UNL     1     -10.917  11.355  65.959  1.00  0.00     0.000 HD 
HETATM    8  N   UNL     1     -10.515   9.249  68.483  1.00  0.00    -0.210 N  
HETATM    9  O   UNL     1     -11.711  11.195  68.346  1.00  0.00    -0.402 OA 
HETATM   10  C   UNL     1      -9.546   8.336  66.537  1.00  0.00    -0.312 C  
HETATM   11  C   UNL     1      -9.832   8.245  67.834  1.00  0.00    -0.169 C  
ENDROOT
BRANCH   8  12
HETATM   12  C   UNL     1     -10.909   9.101  69.873  1.00  0.00    -0.228 C  
HETATM   13  C   UNL     1     -11.368   7.695  70.218  1.00  0.00    -0.197 C  
HETATM   14  C   UNL     1     -11.201   7.672  71.716  1.00  0.00    -0.285 C  
HETATM   15  C   UNL     1     -10.035   8.622  71.973  1.00  0.00    -0.329 C  
HETATM   16  O   UNL     1      -9.808   9.372  70.760  1.00  0.00    -0.264 OA 
BRANCH  15  17
HETATM   17  C   UNL     1      -8.738   7.926  72.390  1.00  0.00    -0.152 C  
HETATM   18  O   UNL     1      -8.114   8.607  73.476  1.00  0.00    -0.408 OA 
HETATM   19  H   UNL     1      -7.308   8.175  73.735  1.00  0.00     0.000 HD 
ENDBRANCH  15  17
ENDBRANCH   8  12
TORSDOF 2
ENDMDL
MODEL      119
REMARK 921   NORMALIZED FREE ENERGY PREDICTED BY IDOCK:   -3.70 KCAL/MOL
REMARK 922        TOTAL FREE ENERGY PREDICTED BY IDOCK:   -4.45 KCAL/MOL
REMARK 923 INTER-LIGAND FREE ENERGY PREDICTED BY IDOCK:   -4.13 KCAL/MOL
REMARK 924 INTRA-LIGAND FREE ENERGY PREDICTED BY IDOCK:   -0.32 KCAL/MOL
REMARK 927      BINDING AFFINITY PREDICTED BY RF-SCORE:    0.00 PKD
ROOT
HETATM    1  N   UNL     1     -12.095  15.771  69.250  1.00  0.00    -0.512 NA 
HETATM    2  H1  UNL     1     -11.576  16.648  69.268  1.00  0.00     0.000 HD 
HETATM    3  H2  UNL     1     -13.013  15.685  69.686  1.00  0.00     0.000 HD 
HETATM    4  C   UNL     1     -11.504  14.714  68.613  1.00  0.00    -0.300 C  
HETATM    5  N   UNL     1     -12.163  13.600  68.589  1.00  0.00    -0.373 N  
HETATM    6  C   UNL     1     -11.617  12.499  67.967  1.00  0.00    -0.342 C  
HETATM    7  H   UNL     1     -13.081  13.538  69.029  1.00  0.00     0.000 HD 
HETATM    8  N   UNL     1     -10.314  12.591  67.474  1.00  0.00    -0.218 N  
HETATM    9  O   UNL     1     -12.267  11.461  67.856  1.00  0.00    -0.592 OA 
HETATM   10  C   UNL     1     -10.171  14.884  68.004  1.00  0.00    -0.228 C  
HETATM   11  C   UNL     1      -9.634  13.788  67.471  1.00  0.00    -0.219 C  
ENDROOT
BRANCH   8  12
HETATM   12  C   UNL     1      -9.766  11.423  66.807  1.00  0.00    -0.198 C  
HETATM   13  C   UNL     1      -9.580  11.622  65.312  1.00  0.00    -0.220 C  
HETATM   14  C   UNL     1      -8.565  10.558  64.981  1.00  0.00    -0.184 C  
HETATM   15  C   UNL     1      -7.741  10.422  66.258  1.00  0.00    -0.129 C  
HETATM   16  O   UNL     1      -8.458  11.098  67.314  1.00  0.00    -0.132 OA 
BRANCH  15  17
HETATM   17  C   UNL     1      -6.327  10.998  66.158  1.00  0.00    -0.096 C  
HETATM   18  O   UNL     1      -5.866  11.000  64.808  1.00  0.00    -0.389 OA 
HETATM   19  H   UNL     1      -4.989  11.358  64.746  1.00  0.00     0.000 HD 
ENDBRANCH  15  17
ENDBRANCH   8  12
TORSDOF 2
ENDMDL
MODEL      120
REMARK 921   NORMALIZED FREE ENERGY PREDICTED BY IDOCK:   -3.68 KCAL/MOL
REMARK 922        TOTAL FREE ENERGY PREDICTED BY IDOCK:   -4.43 KCAL/MOL
REMARK 923 INTER-LIGAND FREE ENERGY PREDICTED BY IDOCK:   -4.10 KCAL/MOL
REMARK 924 INTRA-LIGAND FREE ENERGY PREDICTED BY IDOCK:   -0.33 KCAL/MOL
REMARK 927      BINDING AFFINITY PREDICTED BY RF-SCORE:    0.00 PKD
ROOT
HETATM    1  N   UNL     1      -5.786  18.695  67.323  1.00  0.00    -0.154 NA 
HETATM    2  H1  UNL     1      -4.916  18.192  67.492  1.00  0.00     0.000 HD 
HETATM    3  H2  UNL     1      -5.801  19.706  67.187  1.00  0.00     0.000 HD 
HETATM    4  C   UNL     1      -6.934  17.952  67.286  1.00  0.00    -0.186 C  
HETATM    5  N   UNL     1      -8.040  18.590  67.071  1.00  0.00    -0.243 N  
HETATM    6  C   UNL     1      -9.230  17.898  67.028  1.00  0.00    -0.260 C  
HETATM    7  H   UNL     1      -8.030  19.601  66.934  1.00  0.00     0.000 HD 
HETATM    8  N   UNL     1      -9.217  16.534  67.329  1.00  0.00    -0.214 N  
HETATM    9  O   UNL     1     -10.276  18.474  66.734  1.00  0.00    -0.349 OA 
HETATM   10  C   UNL     1      -6.865  16.493  67.497  1.00  0.00    -0.174 C  
HETATM   11  C   UNL     1      -8.035  15.856  67.522  1.00  0.00    -0.145 C  
ENDROOT
BRANCH   8  12
HETATM   12  C   UNL     1     -10.480  15.821  67.260  1.00  0.00    -0.308 C  
HETATM   13  C   UNL     1     -10.316  14.344  66.947  1.00  0.00    -0.265 C  
HETATM   14  C   UNL     1     -11.620  13.773  67.444  1.00  0.00    -0.393 C  
HETATM   15  C   UNL     1     -12.009  14.692  68.599  1.00  0.00    -0.270 C  
HETATM   16  O   UNL     1     -11.176  15.869  68.520  1.00  0.00    -0.323 OA 
BRANCH  15  17
HETATM   17  C   UNL     1     -11.861  14.058  69.983  1.00  0.00    -0.320 C  
HETATM   18  O   UNL     1     -10.803  14.669  70.719  1.00  0.00    -0.495 OA 
HETATM   19  H   UNL     1     -10.712  14.275  71.578  1.00  0.00     0.000 HD 
ENDBRANCH  15  17
ENDBRANCH   8  12
TORSDOF 2
ENDMDL
MODEL      121
REMARK 921   NORMALIZED FREE ENERGY PREDICTED BY IDOCK:   -3.66 KCAL/MOL
REMARK 922        TOTAL FREE ENERGY PREDICTED BY IDOCK:   -4.41 KCAL/MOL
REMARK 923 INTER-LIGAND FREE ENERGY PREDICTED BY IDOCK:   -4.13 KCAL/MOL
REMARK 924 INTRA-LIGAND FREE ENERGY PREDICTED BY IDOCK:   -0.28 KCAL/MOL
REMARK 927      BINDING AFFINITY PREDICTED BY RF-SCORE:    0.00 PKD
ROOT
HETATM    1  N   UNL     1      -9.034   5.897  66.083  1.00  0.00    -0.149 NA 
HETATM    2  H1  UNL     1      -8.618   5.723  65.169  1.00  0.00     0.000 HD 
HETATM    3  H2  UNL     1      -9.206   5.139  66.744  1.00  0.00     0.000 HD 
HETATM    4  C   UNL     1      -9.351   7.193  66.384  1.00  0.00    -0.143 C  
HETATM    5  N   UNL     1      -9.880   7.414  67.545  1.00  0.00    -0.149 N  
HETATM    6  C   UNL     1     -10.226   8.698  67.904  1.00  0.00    -0.219 C  
HETATM    7  H   UNL     1     -10.039   6.640  68.191  1.00  0.00     0.000 HD 
HETATM    8  N   UNL     1     -10.095   9.712  66.953  1.00  0.00    -0.212 N  
HETATM    9  O   UNL     1     -10.643   8.938  69.036  1.00  0.00    -0.226 OA 
HETATM   10  C   UNL     1      -9.092   8.255  65.393  1.00  0.00     0.004 C  
HETATM   11  C   UNL     1      -9.500   9.476  65.735  1.00  0.00    -0.250 C  
ENDROOT
BRANCH   8  12
HETATM   12  C   UNL     1     -10.449  11.060  67.359  1.00  0.00    -0.218 C  
HETATM   13  C   UNL     1      -9.530  12.121  66.776  1.00  0.00    -0.213 C  
HETATM   14  C   UNL     1     -10.377  13.362  66.887  1.00  0.00    -0.257 C  
HETATM   15  C   UNL     1     -11.808  12.847  66.753  1.00  0.00    -0.385 C  
HETATM   16  O   UNL     1     -11.770  11.412  66.908  1.00  0.00    -0.507 OA 
BRANCH  15  17
HETATM   17  C   UNL     1     -12.479  13.197  65.424  1.00  0.00    -0.481 C  
HETATM   18  O   UNL     1     -13.529  14.143  65.610  1.00  0.00    -0.725 OA 
HETATM   19  H   UNL     1     -13.946  14.360  64.785  1.00  0.00     0.000 HD 
ENDBRANCH  15  17
ENDBRANCH   8  12
TORSDOF 2
ENDMDL
MODEL      122
REMARK 921   NORMALIZED FREE ENERGY PREDICTED BY IDOCK:   -3.65 KCAL/MOL
REMARK 922        TOTAL FREE ENERGY PREDICTED BY IDOCK:   -4.40 KCAL/MOL
REMARK 923 INTER-LIGAND FREE ENERGY PREDICTED BY IDOCK:   -4.15 KCAL/MOL
REMARK 924 INTRA-LIGAND FREE ENERGY PREDICTED BY IDOCK:   -0.25 KCAL/MOL
REMARK 927      BINDING AFFINITY PREDICTED BY RF-SCORE:    0.00 PKD
ROOT
HETATM    1  N   UNL     1     -11.922   8.041  72.466  1.00  0.00    -0.520 NA 
HETATM    2  H1  UNL     1     -11.266   7.490  73.019  1.00  0.00     0.000 HD 
HETATM    3  H2  UNL     1     -12.928   7.995  72.628  1.00  0.00     0.000 HD 
HETATM    4  C   UNL     1     -11.390   8.846  71.496  1.00  0.00    -0.325 C  
HETATM    5  N   UNL     1     -12.222   9.546  70.793  1.00  0.00    -0.440 N  
HETATM    6  C   UNL     1     -11.747  10.372  69.798  1.00  0.00    -0.237 C  
HETATM    7  H   UNL     1     -13.223   9.487  70.976  1.00  0.00     0.000 HD 
HETATM    8  N   UNL     1     -10.382  10.343  69.505  1.00  0.00    -0.233 N  
HETATM    9  O   UNL     1     -12.514  11.112  69.184  1.00  0.00    -0.418 OA 
HETATM   10  C   UNL     1      -9.929   8.873  71.292  1.00  0.00    -0.358 C  
HETATM   11  C   UNL     1      -9.500   9.624  70.279  1.00  0.00    -0.248 C  
ENDROOT
BRANCH   8  12
HETATM   12  C   UNL     1      -9.901  11.234  68.464  1.00  0.00    -0.197 C  
HETATM   13  C   UNL     1      -8.415  11.531  68.571  1.00  0.00    -0.143 C  
HETATM   14  C   UNL     1      -8.087  11.987  67.172  1.00  0.00    -0.177 C  
HETATM   15  C   UNL     1      -9.070  11.219  66.293  1.00  0.00    -0.199 C  
HETATM   16  O   UNL     1     -10.082  10.658  67.158  1.00  0.00    -0.191 OA 
BRANCH  15  17
HETATM   17  C   UNL     1      -8.433  10.100  65.466  1.00  0.00    -0.153 C  
HETATM   18  O   UNL     1      -7.271  10.564  64.782  1.00  0.00    -0.314 OA 
HETATM   19  H   UNL     1      -6.875   9.869  64.269  1.00  0.00     0.000 HD 
ENDBRANCH  15  17
ENDBRANCH   8  12
TORSDOF 2
ENDMDL
MODEL      123
REMARK 921   NORMALIZED FREE ENERGY PREDICTED BY IDOCK:   -3.65 KCAL/MOL
REMARK 922        TOTAL FREE ENERGY PREDICTED BY IDOCK:   -4.40 KCAL/MOL
REMARK 923 INTER-LIGAND FREE ENERGY PREDICTED BY IDOCK:   -4.09 KCAL/MOL
REMARK 924 INTRA-LIGAND FREE ENERGY PREDICTED BY IDOCK:   -0.31 KCAL/MOL
REMARK 927      BINDING AFFINITY PREDICTED BY RF-SCORE:    0.00 PKD
ROOT
HETATM    1  N   UNL     1      -9.566   7.149  74.343  1.00  0.00    -0.436 NA 
HETATM    2  H1  UNL     1      -8.586   7.245  74.609  1.00  0.00     0.000 HD 
HETATM    3  H2  UNL     1     -10.226   6.627  74.918  1.00  0.00     0.000 HD 
HETATM    4  C   UNL     1      -9.954   7.756  73.180  1.00  0.00    -0.311 C  
HETATM    5  N   UNL     1     -11.198   7.635  72.842  1.00  0.00    -0.470 N  
HETATM    6  C   UNL     1     -11.649   8.219  71.679  1.00  0.00    -0.284 C  
HETATM    7  H   UNL     1     -11.841   7.110  73.435  1.00  0.00     0.000 HD 
HETATM    8  N   UNL     1     -10.717   8.834  70.839  1.00  0.00    -0.214 N  
HETATM    9  O   UNL     1     -12.844   8.192  71.390  1.00  0.00    -0.308 OA 
HETATM   10  C   UNL     1      -8.961   8.494  72.376  1.00  0.00    -0.284 C  
HETATM   11  C   UNL     1      -9.404   8.989  71.222  1.00  0.00    -0.254 C  
ENDROOT
BRANCH   8  12
HETATM   12  C   UNL     1     -11.217   9.458  69.627  1.00  0.00    -0.074 C  
HETATM   13  C   UNL     1     -10.975  10.957  69.584  1.00  0.00    -0.311 C  
HETATM   14  C   UNL     1     -11.076  11.245  68.107  1.00  0.00    -0.319 C  
HETATM   15  C   UNL     1     -10.591   9.959  67.445  1.00  0.00    -0.277 C  
HETATM   16  O   UNL     1     -10.560   8.931  68.459  1.00  0.00    -0.204 OA 
BRANCH  15  17
HETATM   17  C   UNL     1      -9.211  10.069  66.793  1.00  0.00    -0.148 C  
HETATM   18  O   UNL     1      -8.977  11.387  66.303  1.00  0.00    -0.192 OA 
HETATM   19  H   UNL     1      -8.120  11.456  65.899  1.00  0.00     0.000 HD 
ENDBRANCH  15  17
ENDBRANCH   8  12
TORSDOF 2
ENDMDL
MODEL      124
REMARK 921   NORMALIZED FREE ENERGY PREDICTED BY IDOCK:   -3.64 KCAL/MOL
REMARK 922        TOTAL FREE ENERGY PREDICTED BY IDOCK:   -4.38 KCAL/MOL
REMARK 923 INTER-LIGAND FREE ENERGY PREDICTED BY IDOCK:   -4.01 KCAL/MOL
REMARK 924 INTRA-LIGAND FREE ENERGY PREDICTED BY IDOCK:   -0.37 KCAL/MOL
REMARK 927      BINDING AFFINITY PREDICTED BY RF-SCORE:    0.00 PKD
ROOT
HETATM    1  N   UNL     1     -12.565   6.407  72.292  1.00  0.00    -0.552 NA 
HETATM    2  H1  UNL     1     -12.853   7.037  73.040  1.00  0.00     0.000 HD 
HETATM    3  H2  UNL     1     -12.776   5.409  72.324  1.00  0.00     0.000 HD 
HETATM    4  C   UNL     1     -11.885   6.960  71.242  1.00  0.00    -0.341 C  
HETATM    5  N   UNL     1     -11.520   6.160  70.291  1.00  0.00    -0.352 N  
HETATM    6  C   UNL     1     -10.827   6.658  69.210  1.00  0.00    -0.289 C  
HETATM    7  H   UNL     1     -11.745   5.167  70.344  1.00  0.00     0.000 HD 
HETATM    8  N   UNL     1     -10.442   8.000  69.227  1.00  0.00    -0.221 N  
HETATM    9  O   UNL     1     -10.553   5.930  68.257  1.00  0.00    -0.213 OA 
HETATM   10  C   UNL     1     -11.595   8.407  71.243  1.00  0.00    -0.326 C  
HETATM   11  C   UNL     1     -10.864   8.851  70.223  1.00  0.00    -0.239 C  
ENDROOT
BRANCH   8  12
HETATM   12  C   UNL     1      -9.728   8.507  68.069  1.00  0.00    -0.154 C  
HETATM   13  C   UNL     1     -10.628   9.227  67.080  1.00  0.00    -0.263 C  
HETATM   14  C   UNL     1      -9.639  10.069  66.315  1.00  0.00    -0.256 C  
HETATM   15  C   UNL     1      -8.539  10.364  67.331  1.00  0.00    -0.125 C  
HETATM   16  O   UNL     1      -8.731   9.473  68.451  1.00  0.00    -0.123 OA 
BRANCH  15  17
HETATM   17  C   UNL     1      -8.517  11.810  67.831  1.00  0.00    -0.154 C  
HETATM   18  O   UNL     1      -9.460  12.005  68.883  1.00  0.00    -0.403 OA 
HETATM   19  H   UNL     1      -9.447  12.903  69.193  1.00  0.00     0.000 HD 
ENDBRANCH  15  17
ENDBRANCH   8  12
TORSDOF 2
ENDMDL
MODEL      125
REMARK 921   NORMALIZED FREE ENERGY PREDICTED BY IDOCK:   -3.63 KCAL/MOL
REMARK 922        TOTAL FREE ENERGY PREDICTED BY IDOCK:   -4.38 KCAL/MOL
REMARK 923 INTER-LIGAND FREE ENERGY PREDICTED BY IDOCK:   -4.85 KCAL/MOL
REMARK 924 INTRA-LIGAND FREE ENERGY PREDICTED BY IDOCK:    0.47 KCAL/MOL
REMARK 927      BINDING AFFINITY PREDICTED BY RF-SCORE:    0.00 PKD
ROOT
HETATM    1  N   UNL     1      -8.052  19.241  68.528  1.00  0.00    -0.355 NA 
HETATM    2  H1  UNL     1      -7.081  19.543  68.457  1.00  0.00     0.000 HD 
HETATM    3  H2  UNL     1      -8.767  19.836  68.945  1.00  0.00     0.000 HD 
HETATM    4  C   UNL     1      -8.352  18.000  68.036  1.00  0.00    -0.260 C  
HETATM    5  N   UNL     1      -9.585  17.616  68.125  1.00  0.00    -0.285 N  
HETATM    6  C   UNL     1      -9.949  16.375  67.652  1.00  0.00    -0.252 C  
HETATM    7  H   UNL     1     -10.284  18.230  68.543  1.00  0.00     0.000 HD 
HETATM    8  N   UNL     1      -8.946  15.520  67.188  1.00  0.00    -0.203 N  
HETATM    9  O   UNL     1     -11.130  16.032  67.645  1.00  0.00    -0.317 OA 
HETATM   10  C   UNL     1      -7.282  17.170  67.449  1.00  0.00    -0.178 C  
HETATM   11  C   UNL     1      -7.644  15.948  67.064  1.00  0.00    -0.229 C  
ENDROOT
BRANCH   8  12
HETATM   12  C   UNL     1      -9.354  14.223  66.678  1.00  0.00    -0.284 C  
HETATM   13  C   UNL     1     -10.215  13.441  67.655  1.00  0.00    -0.228 C  
HETATM   14  C   UNL     1     -10.907  12.460  66.744  1.00  0.00    -0.283 C  
HETATM   15  C   UNL     1     -11.020  13.205  65.416  1.00  0.00    -0.279 C  
HETATM   16  O   UNL     1     -10.154  14.358  65.489  1.00  0.00    -0.331 OA 
BRANCH  15  17
HETATM   17  C   UNL     1     -12.439  13.657  65.069  1.00  0.00    -0.414 C  
HETATM   18  O   UNL     1     -12.440  14.535  63.945  1.00  0.00    -0.955 OA 
HETATM   19  H   UNL     1     -13.321  14.816  63.729  1.00  0.00     0.000 HD 
ENDBRANCH  15  17
ENDBRANCH   8  12
TORSDOF 2
ENDMDL
MODEL      126
REMARK 921   NORMALIZED FREE ENERGY PREDICTED BY IDOCK:   -3.62 KCAL/MOL
REMARK 922        TOTAL FREE ENERGY PREDICTED BY IDOCK:   -4.36 KCAL/MOL
REMARK 923 INTER-LIGAND FREE ENERGY PREDICTED BY IDOCK:   -4.08 KCAL/MOL
REMARK 924 INTRA-LIGAND FREE ENERGY PREDICTED BY IDOCK:   -0.28 KCAL/MOL
REMARK 927      BINDING AFFINITY PREDICTED BY RF-SCORE:    0.00 PKD
ROOT
HETATM    1  N   UNL     1      -7.911  18.320  68.584  1.00  0.00    -0.306 NA 
HETATM    2  H1  UNL     1      -7.297  18.387  69.395  1.00  0.00     0.000 HD 
HETATM    3  H2  UNL     1      -8.138  19.138  68.018  1.00  0.00     0.000 HD 
HETATM    4  C   UNL     1      -8.415  17.083  68.287  1.00  0.00    -0.233 C  
HETATM    5  N   UNL     1      -9.193  16.998  67.256  1.00  0.00    -0.219 N  
HETATM    6  C   UNL     1      -9.735  15.780  66.911  1.00  0.00    -0.230 C  
HETATM    7  H   UNL     1      -9.403  17.828  66.703  1.00  0.00     0.000 HD 
HETATM    8  N   UNL     1      -9.514  14.690  67.755  1.00  0.00    -0.202 N  
HETATM    9  O   UNL     1     -10.402  15.664  65.884  1.00  0.00    -0.305 OA 
HETATM   10  C   UNL     1      -8.065  15.931  69.140  1.00  0.00    -0.239 C  
HETATM   11  C   UNL     1      -8.657  14.780  68.828  1.00  0.00    -0.170 C  
ENDROOT
BRANCH   8  12
HETATM   12  C   UNL     1     -10.081  13.412  67.361  1.00  0.00    -0.237 C  
HETATM   13  C   UNL     1      -9.162  12.236  67.649  1.00  0.00    -0.183 C  
HETATM   14  C   UNL     1     -10.130  11.081  67.663  1.00  0.00    -0.208 C  
HETATM   15  C   UNL     1     -11.436  11.698  68.156  1.00  0.00    -0.313 C  
HETATM   16  O   UNL     1     -11.294  13.133  68.085  1.00  0.00    -0.258 OA 
BRANCH  15  17
HETATM   17  C   UNL     1     -11.821  11.297  69.582  1.00  0.00    -0.360 C  
HETATM   18  O   UNL     1     -12.978  10.464  69.588  1.00  0.00    -0.616 OA 
HETATM   19  H   UNL     1     -13.217  10.215  70.473  1.00  0.00     0.000 HD 
ENDBRANCH  15  17
ENDBRANCH   8  12
TORSDOF 2
ENDMDL
MODEL      127
REMARK 921   NORMALIZED FREE ENERGY PREDICTED BY IDOCK:   -3.59 KCAL/MOL
REMARK 922        TOTAL FREE ENERGY PREDICTED BY IDOCK:   -4.33 KCAL/MOL
REMARK 923 INTER-LIGAND FREE ENERGY PREDICTED BY IDOCK:   -4.01 KCAL/MOL
REMARK 924 INTRA-LIGAND FREE ENERGY PREDICTED BY IDOCK:   -0.32 KCAL/MOL
REMARK 927      BINDING AFFINITY PREDICTED BY RF-SCORE:    0.00 PKD
ROOT
HETATM    1  N   UNL     1     -12.336  13.985  69.052  1.00  0.00    -0.501 NA 
HETATM    2  H1  UNL     1     -13.249  14.056  69.500  1.00  0.00     0.000 HD 
HETATM    3  H2  UNL     1     -11.932  14.767  68.536  1.00  0.00     0.000 HD 
HETATM    4  C   UNL     1     -11.676  12.792  69.174  1.00  0.00    -0.322 C  
HETATM    5  N   UNL     1     -10.517  12.702  68.605  1.00  0.00    -0.315 N  
HETATM    6  C   UNL     1      -9.807  11.525  68.689  1.00  0.00    -0.177 C  
HETATM    7  H   UNL     1     -10.132  13.498  68.098  1.00  0.00     0.000 HD 
HETATM    8  N   UNL     1     -10.414  10.423  69.296  1.00  0.00    -0.220 N  
HETATM    9  O   UNL     1      -8.667  11.451  68.234  1.00  0.00    -0.147 OA 
HETATM   10  C   UNL     1     -12.304  11.687  69.923  1.00  0.00    -0.226 C  
HETATM   11  C   UNL     1     -11.631  10.537  69.929  1.00  0.00    -0.307 C  
ENDROOT
BRANCH   8  12
HETATM   12  C   UNL     1      -9.640   9.198  69.389  1.00  0.00    -0.165 C  
HETATM   13  C   UNL     1     -10.070   8.305  70.540  1.00  0.00    -0.210 C  
HETATM   14  C   UNL     1      -9.533   6.964  70.111  1.00  0.00    -0.162 C  
HETATM   15  C   UNL     1      -9.580   7.017  68.586  1.00  0.00    -0.138 C  
HETATM   16  O   UNL     1      -9.793   8.393  68.205  1.00  0.00    -0.158 OA 
BRANCH  15  17
HETATM   17  C   UNL     1     -10.669   6.143  67.961  1.00  0.00    -0.295 C  
HETATM   18  O   UNL     1     -11.648   6.938  67.294  1.00  0.00    -0.668 OA 
HETATM   19  H   UNL     1     -12.323   6.396  66.906  1.00  0.00     0.000 HD 
ENDBRANCH  15  17
ENDBRANCH   8  12
TORSDOF 2
ENDMDL
MODEL      128
REMARK 921   NORMALIZED FREE ENERGY PREDICTED BY IDOCK:   -3.57 KCAL/MOL
REMARK 922        TOTAL FREE ENERGY PREDICTED BY IDOCK:   -4.31 KCAL/MOL
REMARK 923 INTER-LIGAND FREE ENERGY PREDICTED BY IDOCK:   -4.52 KCAL/MOL
REMARK 924 INTRA-LIGAND FREE ENERGY PREDICTED BY IDOCK:    0.21 KCAL/MOL
REMARK 927      BINDING AFFINITY PREDICTED BY RF-SCORE:    0.00 PKD
ROOT
HETATM    1  N   UNL     1     -10.369  19.144  66.491  1.00  0.00    -0.409 NA 
HETATM    2  H1  UNL     1     -10.497  19.591  65.584  1.00  0.00     0.000 HD 
HETATM    3  H2  UNL     1     -10.175  19.687  67.332  1.00  0.00     0.000 HD 
HETATM    4  C   UNL     1     -10.468  17.780  66.529  1.00  0.00    -0.297 C  
HETATM    5  N   UNL     1     -10.306  17.211  67.681  1.00  0.00    -0.333 N  
HETATM    6  C   UNL     1     -10.389  15.840  67.782  1.00  0.00    -0.275 C  
HETATM    7  H   UNL     1     -10.117  17.776  68.509  1.00  0.00     0.000 HD 
HETATM    8  N   UNL     1     -10.538  15.094  66.611  1.00  0.00    -0.298 N  
HETATM    9  O   UNL     1     -10.328  15.292  68.881  1.00  0.00    -0.226 OA 
HETATM   10  C   UNL     1     -10.741  17.034  65.285  1.00  0.00    -0.108 C  
HETATM   11  C   UNL     1     -10.746  15.707  65.396  1.00  0.00    -0.408 C  
ENDROOT
BRANCH   8  12
HETATM   12  C   UNL     1     -10.642  13.652  66.743  1.00  0.00    -0.273 C  
HETATM   13  C   UNL     1      -9.442  13.028  67.437  1.00  0.00    -0.210 C  
HETATM   14  C   UNL     1     -10.006  11.712  67.908  1.00  0.00    -0.190 C  
HETATM   15  C   UNL     1     -11.482  12.009  68.157  1.00  0.00    -0.322 C  
HETATM   16  O   UNL     1     -11.780  13.281  67.542  1.00  0.00    -0.326 OA 
BRANCH  15  17
HETATM   17  C   UNL     1     -11.874  12.055  69.635  1.00  0.00    -0.333 C  
HETATM   18  O   UNL     1     -11.579  13.328  70.206  1.00  0.00    -0.514 OA 
HETATM   19  H   UNL     1     -11.822  13.357  71.124  1.00  0.00     0.000 HD 
ENDBRANCH  15  17
ENDBRANCH   8  12
TORSDOF 2
ENDMDL
MODEL      129
REMARK 921   NORMALIZED FREE ENERGY PREDICTED BY IDOCK:   -3.57 KCAL/MOL
REMARK 922        TOTAL FREE ENERGY PREDICTED BY IDOCK:   -4.31 KCAL/MOL
REMARK 923 INTER-LIGAND FREE ENERGY PREDICTED BY IDOCK:   -4.06 KCAL/MOL
REMARK 924 INTRA-LIGAND FREE ENERGY PREDICTED BY IDOCK:   -0.25 KCAL/MOL
REMARK 927      BINDING AFFINITY PREDICTED BY RF-SCORE:    0.00 PKD
ROOT
HETATM    1  N   UNL     1     -10.766  17.447  68.154  1.00  0.00    -0.373 NA 
HETATM    2  H1  UNL     1     -10.165  17.830  67.425  1.00  0.00     0.000 HD 
HETATM    3  H2  UNL     1     -11.235  18.049  68.831  1.00  0.00     0.000 HD 
HETATM    4  C   UNL     1     -10.916  16.087  68.183  1.00  0.00    -0.339 C  
HETATM    5  N   UNL     1     -11.680  15.600  69.108  1.00  0.00    -0.375 N  
HETATM    6  C   UNL     1     -11.866  14.238  69.191  1.00  0.00    -0.330 C  
HETATM    7  H   UNL     1     -12.141  16.222  69.772  1.00  0.00     0.000 HD 
HETATM    8  N   UNL     1     -11.132  13.413  68.336  1.00  0.00    -0.259 N  
HETATM    9  O   UNL     1     -12.659  13.766  70.005  1.00  0.00    -0.275 OA 
HETATM   10  C   UNL     1     -10.212  15.256  67.188  1.00  0.00    -0.252 C  
HETATM   11  C   UNL     1     -10.351  13.939  67.333  1.00  0.00    -0.252 C  
ENDROOT
BRANCH   8  12
HETATM   12  C   UNL     1     -11.358  11.982  68.430  1.00  0.00    -0.279 C  
HETATM   13  C   UNL     1     -10.957  11.230  67.172  1.00  0.00    -0.348 C  
HETATM   14  C   UNL     1     -10.782   9.826  67.690  1.00  0.00    -0.334 C  
HETATM   15  C   UNL     1     -10.331  10.018  69.136  1.00  0.00    -0.216 C  
HETATM   16  O   UNL     1     -10.575  11.397  69.488  1.00  0.00    -0.128 OA 
BRANCH  15  17
HETATM   17  C   UNL     1      -8.859   9.684  69.385  1.00  0.00    -0.180 C  
HETATM   18  O   UNL     1      -8.519   8.414  68.834  1.00  0.00    -0.122 OA 
HETATM   19  H   UNL     1      -7.605   8.207  68.988  1.00  0.00     0.000 HD 
ENDBRANCH  15  17
ENDBRANCH   8  12
TORSDOF 2
ENDMDL
MODEL      130
REMARK 921   NORMALIZED FREE ENERGY PREDICTED BY IDOCK:   -3.56 KCAL/MOL
REMARK 922        TOTAL FREE ENERGY PREDICTED BY IDOCK:   -4.30 KCAL/MOL
REMARK 923 INTER-LIGAND FREE ENERGY PREDICTED BY IDOCK:   -4.72 KCAL/MOL
REMARK 924 INTRA-LIGAND FREE ENERGY PREDICTED BY IDOCK:    0.43 KCAL/MOL
REMARK 927      BINDING AFFINITY PREDICTED BY RF-SCORE:    0.00 PKD
ROOT
HETATM    1  N   UNL     1     -10.823   8.201  72.700  1.00  0.00    -0.359 NA 
HETATM    2  H1  UNL     1     -10.059   7.626  73.054  1.00  0.00     0.000 HD 
HETATM    3  H2  UNL     1     -11.746   8.188  73.133  1.00  0.00     0.000 HD 
HETATM    4  C   UNL     1     -10.553   8.993  71.617  1.00  0.00    -0.364 C  
HETATM    5  N   UNL     1     -11.522   9.724  71.168  1.00  0.00    -0.373 N  
HETATM    6  C   UNL     1     -11.313  10.538  70.077  1.00  0.00    -0.318 C  
HETATM    7  H   UNL     1     -12.436   9.696  71.619  1.00  0.00     0.000 HD 
HETATM    8  N   UNL     1     -10.083  10.466  69.419  1.00  0.00    -0.228 N  
HETATM    9  O   UNL     1     -12.194  11.305  69.694  1.00  0.00    -0.309 OA 
HETATM   10  C   UNL     1      -9.204   8.973  71.019  1.00  0.00    -0.331 C  
HETATM   11  C   UNL     1      -9.046   9.714  69.924  1.00  0.00    -0.225 C  
ENDROOT
BRANCH   8  12
HETATM   12  C   UNL     1      -9.879  11.346  68.283  1.00  0.00    -0.200 C  
HETATM   13  C   UNL     1     -10.764  11.005  67.096  1.00  0.00    -0.313 C  
HETATM   14  C   UNL     1     -10.758  12.299  66.322  1.00  0.00    -0.293 C  
HETATM   15  C   UNL     1     -10.597  13.371  67.395  1.00  0.00    -0.251 C  
HETATM   16  O   UNL     1     -10.195  12.710  68.615  1.00  0.00    -0.222 OA 
BRANCH  15  17
HETATM   17  C   UNL     1     -11.859  14.194  67.656  1.00  0.00    -0.392 C  
HETATM   18  O   UNL     1     -12.661  14.295  66.481  1.00  0.00    -0.545 OA 
HETATM   19  H   UNL     1     -13.445  14.806  66.643  1.00  0.00     0.000 HD 
ENDBRANCH  15  17
ENDBRANCH   8  12
TORSDOF 2
ENDMDL
MODEL      131
REMARK 921   NORMALIZED FREE ENERGY PREDICTED BY IDOCK:   -3.54 KCAL/MOL
REMARK 922        TOTAL FREE ENERGY PREDICTED BY IDOCK:   -4.27 KCAL/MOL
REMARK 923 INTER-LIGAND FREE ENERGY PREDICTED BY IDOCK:   -3.99 KCAL/MOL
REMARK 924 INTRA-LIGAND FREE ENERGY PREDICTED BY IDOCK:   -0.29 KCAL/MOL
REMARK 927      BINDING AFFINITY PREDICTED BY RF-SCORE:    0.00 PKD
ROOT
HETATM    1  N   UNL     1     -10.488   7.300  71.012  1.00  0.00    -0.214 NA 
HETATM    2  H1  UNL     1     -10.552   7.637  71.972  1.00  0.00     0.000 HD 
HETATM    3  H2  UNL     1     -10.403   6.306  70.800  1.00  0.00     0.000 HD 
HETATM    4  C   UNL     1     -10.522   8.242  70.020  1.00  0.00    -0.231 C  
HETATM    5  N   UNL     1     -10.441   7.814  68.801  1.00  0.00    -0.262 N  
HETATM    6  C   UNL     1     -10.464   8.715  67.759  1.00  0.00    -0.224 C  
HETATM    7  H   UNL     1     -10.360   6.815  68.613  1.00  0.00     0.000 HD 
HETATM    8  N   UNL     1     -10.464  10.079  68.059  1.00  0.00    -0.203 N  
HETATM    9  O   UNL     1     -10.481   8.321  66.595  1.00  0.00    -0.305 OA 
HETATM   10  C   UNL     1     -10.637   9.670  70.375  1.00  0.00    -0.354 C  
HETATM   11  C   UNL     1     -10.586  10.525  69.356  1.00  0.00    -0.240 C  
ENDROOT
BRANCH   8  12
HETATM   12  C   UNL     1     -10.507  11.010  66.946  1.00  0.00    -0.246 C  
HETATM   13  C   UNL     1     -11.742  11.895  66.954  1.00  0.00    -0.291 C  
HETATM   14  C   UNL     1     -11.304  13.048  66.088  1.00  0.00    -0.349 C  
HETATM   15  C   UNL     1      -9.798  13.134  66.319  1.00  0.00    -0.283 C  
HETATM   16  O   UNL     1      -9.389  11.916  66.979  1.00  0.00    -0.179 OA 
BRANCH  15  17
HETATM   17  C   UNL     1      -9.358  14.336  67.155  1.00  0.00    -0.228 C  
HETATM   18  O   UNL     1      -8.246  15.000  66.558  1.00  0.00    -0.378 OA 
HETATM   19  H   UNL     1      -7.973  15.747  67.078  1.00  0.00     0.000 HD 
ENDBRANCH  15  17
ENDBRANCH   8  12
TORSDOF 2
ENDMDL
MODEL      132
REMARK 921   NORMALIZED FREE ENERGY PREDICTED BY IDOCK:   -3.51 KCAL/MOL
REMARK 922        TOTAL FREE ENERGY PREDICTED BY IDOCK:   -4.24 KCAL/MOL
REMARK 923 INTER-LIGAND FREE ENERGY PREDICTED BY IDOCK:   -3.93 KCAL/MOL
REMARK 924 INTRA-LIGAND FREE ENERGY PREDICTED BY IDOCK:   -0.31 KCAL/MOL
REMARK 927      BINDING AFFINITY PREDICTED BY RF-SCORE:    0.00 PKD
ROOT
HETATM    1  N   UNL     1      -8.226  11.541  66.298  1.00  0.00    -0.344 NA 
HETATM    2  H1  UNL     1      -8.928  11.724  65.582  1.00  0.00     0.000 HD 
HETATM    3  H2  UNL     1      -7.238  11.741  66.139  1.00  0.00     0.000 HD 
HETATM    4  C   UNL     1      -8.668  11.016  67.481  1.00  0.00    -0.128 C  
HETATM    5  N   UNL     1      -7.776  10.785  68.390  1.00  0.00    -0.106 N  
HETATM    6  C   UNL     1      -8.159  10.252  69.601  1.00  0.00    -0.145 C  
HETATM    7  H   UNL     1      -6.795  10.996  68.210  1.00  0.00     0.000 HD 
HETATM    8  N   UNL     1      -9.493   9.874  69.769  1.00  0.00    -0.222 N  
HETATM    9  O   UNL     1      -7.340  10.111  70.507  1.00  0.00    -0.292 OA 
HETATM   10  C   UNL     1     -10.105  10.736  67.661  1.00  0.00    -0.205 C  
HETATM   11  C   UNL     1     -10.442  10.156  68.812  1.00  0.00    -0.204 C  
ENDROOT
BRANCH   8  12
HETATM   12  C   UNL     1      -9.878   9.331  71.059  1.00  0.00    -0.285 C  
HETATM   13  C   UNL     1     -11.343   9.559  71.391  1.00  0.00    -0.462 C  
HETATM   14  C   UNL     1     -11.594   8.502  72.436  1.00  0.00    -0.425 C  
HETATM   15  C   UNL     1     -10.639   7.374  72.058  1.00  0.00    -0.208 C  
HETATM   16  O   UNL     1      -9.696   7.903  71.101  1.00  0.00    -0.158 OA 
BRANCH  15  17
HETATM   17  C   UNL     1     -11.325   6.141  71.466  1.00  0.00    -0.280 C  
HETATM   18  O   UNL     1     -11.816   6.406  70.153  1.00  0.00    -0.460 OA 
HETATM   19  H   UNL     1     -12.242   5.640  69.786  1.00  0.00     0.000 HD 
ENDBRANCH  15  17
ENDBRANCH   8  12
TORSDOF 2
ENDMDL
MODEL      133
REMARK 921   NORMALIZED FREE ENERGY PREDICTED BY IDOCK:   -3.49 KCAL/MOL
REMARK 922        TOTAL FREE ENERGY PREDICTED BY IDOCK:   -4.23 KCAL/MOL
REMARK 923 INTER-LIGAND FREE ENERGY PREDICTED BY IDOCK:   -4.45 KCAL/MOL
REMARK 924 INTRA-LIGAND FREE ENERGY PREDICTED BY IDOCK:    0.23 KCAL/MOL
REMARK 927      BINDING AFFINITY PREDICTED BY RF-SCORE:    0.00 PKD
ROOT
HETATM    1  N   UNL     1      -7.434   5.673  69.662  1.00  0.00    -0.073 NA 
HETATM    2  H1  UNL     1      -6.438   5.832  69.814  1.00  0.00     0.000 HD 
HETATM    3  H2  UNL     1      -7.773   4.850  69.165  1.00  0.00     0.000 HD 
HETATM    4  C   UNL     1      -8.294   6.615  70.156  1.00  0.00    -0.135 C  
HETATM    5  N   UNL     1      -9.559   6.413  69.963  1.00  0.00    -0.158 N  
HETATM    6  C   UNL     1     -10.474   7.329  70.433  1.00  0.00    -0.220 C  
HETATM    7  H   UNL     1      -9.875   5.580  69.466  1.00  0.00     0.000 HD 
HETATM    8  N   UNL     1      -9.999   8.509  71.009  1.00  0.00    -0.192 N  
HETATM    9  O   UNL     1     -11.681   7.108  70.339  1.00  0.00    -0.289 OA 
HETATM   10  C   UNL     1      -7.757   7.794  70.861  1.00  0.00    -0.087 C  
HETATM   11  C   UNL     1      -8.656   8.699  71.243  1.00  0.00    -0.187 C  
ENDROOT
BRANCH   8  12
HETATM   12  C   UNL     1     -10.982   9.451  71.513  1.00  0.00    -0.359 C  
HETATM   13  C   UNL     1     -11.812  10.094  70.414  1.00  0.00    -0.373 C  
HETATM   14  C   UNL     1     -13.025  10.564  71.175  1.00  0.00    -0.506 C  
HETATM   15  C   UNL     1     -13.163   9.555  72.312  1.00  0.00    -0.421 C  
HETATM   16  O   UNL     1     -11.933   8.802  72.378  1.00  0.00    -0.359 OA 
BRANCH  15  17
HETATM   17  C   UNL     1     -14.340   8.591  72.156  1.00  0.00    -0.436 C  
HETATM   18  O   UNL     1     -14.337   7.977  70.869  1.00  0.00    -0.657 OA 
HETATM   19  H   UNL     1     -15.068   7.378  70.773  1.00  0.00     0.000 HD 
ENDBRANCH  15  17
ENDBRANCH   8  12
TORSDOF 2
ENDMDL
MODEL      134
REMARK 921   NORMALIZED FREE ENERGY PREDICTED BY IDOCK:   -3.49 KCAL/MOL
REMARK 922        TOTAL FREE ENERGY PREDICTED BY IDOCK:   -4.22 KCAL/MOL
REMARK 923 INTER-LIGAND FREE ENERGY PREDICTED BY IDOCK:   -3.95 KCAL/MOL
REMARK 924 INTRA-LIGAND FREE ENERGY PREDICTED BY IDOCK:   -0.27 KCAL/MOL
REMARK 927      BINDING AFFINITY PREDICTED BY RF-SCORE:    0.00 PKD
ROOT
HETATM    1  N   UNL     1     -13.407  11.618  72.157  1.00  0.00    -0.562 NA 
HETATM    2  H1  UNL     1     -14.002  11.260  72.903  1.00  0.00     0.000 HD 
HETATM    3  H2  UNL     1     -13.448  12.594  71.864  1.00  0.00     0.000 HD 
HETATM    4  C   UNL     1     -12.550  10.729  71.567  1.00  0.00    -0.395 C  
HETATM    5  N   UNL     1     -11.793  11.184  70.620  1.00  0.00    -0.377 N  
HETATM    6  C   UNL     1     -10.913  10.337  69.984  1.00  0.00    -0.311 C  
HETATM    7  H   UNL     1     -11.849  12.165  70.346  1.00  0.00     0.000 HD 
HETATM    8  N   UNL     1     -10.944   8.979  70.310  1.00  0.00    -0.241 N  
HETATM    9  O   UNL     1     -10.124  10.772  69.147  1.00  0.00    -0.213 OA 
HETATM   10  C   UNL     1     -12.531   9.325  72.019  1.00  0.00    -0.451 C  
HETATM   11  C   UNL     1     -11.724   8.510  71.342  1.00  0.00    -0.294 C  
ENDROOT
BRANCH   8  12
HETATM   12  C   UNL     1      -9.995   8.108  69.640  1.00  0.00    -0.193 C  
HETATM   13  C   UNL     1      -8.749   7.834  70.466  1.00  0.00    -0.140 C  
HETATM   14  C   UNL     1      -8.230   6.568  69.835  1.00  0.00    -0.126 C  
HETATM   15  C   UNL     1      -9.487   5.859  69.337  1.00  0.00    -0.130 C  
HETATM   16  O   UNL     1     -10.569   6.814  69.377  1.00  0.00    -0.208 OA 
BRANCH  15  17
HETATM   17  C   UNL     1      -9.873   4.621  70.148  1.00  0.00    -0.236 C  
HETATM   18  O   UNL     1      -8.801   3.682  70.196  1.00  0.00    -0.069 OA 
HETATM   19  H   UNL     1      -9.041   2.913  70.700  1.00  0.00     0.000 HD 
ENDBRANCH  15  17
ENDBRANCH   8  12
TORSDOF 2
ENDMDL
MODEL      135
REMARK 921   NORMALIZED FREE ENERGY PREDICTED BY IDOCK:   -3.49 KCAL/MOL
REMARK 922        TOTAL FREE ENERGY PREDICTED BY IDOCK:   -4.22 KCAL/MOL
REMARK 923 INTER-LIGAND FREE ENERGY PREDICTED BY IDOCK:   -3.90 KCAL/MOL
REMARK 924 INTRA-LIGAND FREE ENERGY PREDICTED BY IDOCK:   -0.31 KCAL/MOL
REMARK 927      BINDING AFFINITY PREDICTED BY RF-SCORE:    0.00 PKD
ROOT
HETATM    1  N   UNL     1     -12.117  12.446  69.673  1.00  0.00    -0.249 NA 
HETATM    2  H1  UNL     1     -11.720  12.846  68.824  1.00  0.00     0.000 HD 
HETATM    3  H2  UNL     1     -12.758  12.976  70.263  1.00  0.00     0.000 HD 
HETATM    4  C   UNL     1     -11.753  11.164  69.983  1.00  0.00    -0.356 C  
HETATM    5  N   UNL     1     -12.259  10.655  71.061  1.00  0.00    -0.370 N  
HETATM    6  C   UNL     1     -11.926   9.371  71.430  1.00  0.00    -0.371 C  
HETATM    7  H   UNL     1     -12.900  11.203  71.635  1.00  0.00     0.000 HD 
HETATM    8  N   UNL     1     -10.962   8.693  70.681  1.00  0.00    -0.235 N  
HETATM    9  O   UNL     1     -12.467   8.840  72.399  1.00  0.00    -0.379 OA 
HETATM   10  C   UNL     1     -10.817  10.439  69.103  1.00  0.00    -0.274 C  
HETATM   11  C   UNL     1     -10.456   9.226  69.518  1.00  0.00    -0.220 C  
ENDROOT
BRANCH   8  12
HETATM   12  C   UNL     1     -10.640   7.333  71.078  1.00  0.00    -0.221 C  
HETATM   13  C   UNL     1     -11.228   6.285  70.149  1.00  0.00    -0.470 C  
HETATM   14  C   UNL     1     -10.356   5.089  70.436  1.00  0.00    -0.297 C  
HETATM   15  C   UNL     1      -9.008   5.698  70.815  1.00  0.00    -0.143 C  
HETATM   16  O   UNL     1      -9.218   7.106  71.057  1.00  0.00    -0.157 OA 
BRANCH  15  17
HETATM   17  C   UNL     1      -7.919   5.522  69.755  1.00  0.00    -0.090 C  
HETATM   18  O   UNL     1      -8.111   4.319  69.014  1.00  0.00    -0.071 OA 
HETATM   19  H   UNL     1      -7.435   4.210  68.356  1.00  0.00     0.000 HD 
ENDBRANCH  15  17
ENDBRANCH   8  12
TORSDOF 2
ENDMDL
MODEL      136
REMARK 921   NORMALIZED FREE ENERGY PREDICTED BY IDOCK:   -3.49 KCAL/MOL
REMARK 922        TOTAL FREE ENERGY PREDICTED BY IDOCK:   -4.21 KCAL/MOL
REMARK 923 INTER-LIGAND FREE ENERGY PREDICTED BY IDOCK:   -4.44 KCAL/MOL
REMARK 924 INTRA-LIGAND FREE ENERGY PREDICTED BY IDOCK:    0.23 KCAL/MOL
REMARK 927      BINDING AFFINITY PREDICTED BY RF-SCORE:    0.00 PKD
ROOT
HETATM    1  N   UNL     1     -14.408   6.780  72.308  1.00  0.00    -0.621 NA 
HETATM    2  H1  UNL     1     -15.093   7.187  72.945  1.00  0.00     0.000 HD 
HETATM    3  H2  UNL     1     -14.436   5.792  72.056  1.00  0.00     0.000 HD 
HETATM    4  C   UNL     1     -13.451   7.619  71.808  1.00  0.00    -0.321 C  
HETATM    5  N   UNL     1     -12.582   7.102  70.999  1.00  0.00    -0.537 N  
HETATM    6  C   UNL     1     -11.591   7.895  70.466  1.00  0.00    -0.144 C  
HETATM    7  H   UNL     1     -12.632   6.112  70.758  1.00  0.00     0.000 HD 
HETATM    8  N   UNL     1     -11.488   9.217  70.905  1.00  0.00    -0.284 N  
HETATM    9  O   UNL     1     -10.814   7.442  69.627  1.00  0.00    -0.239 OA 
HETATM   10  C   UNL     1     -13.445   9.039  72.208  1.00  0.00    -0.529 C  
HETATM   11  C   UNL     1     -12.436   9.769  71.737  1.00  0.00    -0.398 C  
ENDROOT
BRANCH   8  12
HETATM   12  C   UNL     1     -10.446  10.040  70.316  1.00  0.00    -0.272 C  
HETATM   13  C   UNL     1      -9.058   9.440  70.461  1.00  0.00    -0.308 C  
HETATM   14  C   UNL     1      -8.297  10.151  69.372  1.00  0.00    -0.174 C  
HETATM   15  C   UNL     1      -9.351  10.426  68.302  1.00  0.00    -0.149 C  
HETATM   16  O   UNL     1     -10.646  10.201  68.900  1.00  0.00    -0.194 OA 
BRANCH  15  17
HETATM   17  C   UNL     1      -9.214   9.561  67.048  1.00  0.00    -0.139 C  
HETATM   18  O   UNL     1      -9.223   8.173  67.376  1.00  0.00    -0.135 OA 
HETATM   19  H   UNL     1      -9.139   7.636  66.597  1.00  0.00     0.000 HD 
ENDBRANCH  15  17
ENDBRANCH   8  12
TORSDOF 2
ENDMDL
MODEL      137
REMARK 921   NORMALIZED FREE ENERGY PREDICTED BY IDOCK:   -3.48 KCAL/MOL
REMARK 922        TOTAL FREE ENERGY PREDICTED BY IDOCK:   -4.21 KCAL/MOL
REMARK 923 INTER-LIGAND FREE ENERGY PREDICTED BY IDOCK:   -4.67 KCAL/MOL
REMARK 924 INTRA-LIGAND FREE ENERGY PREDICTED BY IDOCK:    0.46 KCAL/MOL
REMARK 927      BINDING AFFINITY PREDICTED BY RF-SCORE:    0.00 PKD
ROOT
HETATM    1  N   UNL     1     -11.015   7.156  70.653  1.00  0.00    -0.249 NA 
HETATM    2  H1  UNL     1     -11.243   7.045  71.641  1.00  0.00     0.000 HD 
HETATM    3  H2  UNL     1     -10.767   6.358  70.070  1.00  0.00     0.000 HD 
HETATM    4  C   UNL     1     -11.056   8.427  70.147  1.00  0.00    -0.182 C  
HETATM    5  N   UNL     1     -10.767   8.568  68.893  1.00  0.00    -0.405 N  
HETATM    6  C   UNL     1     -10.786   9.823  68.326  1.00  0.00    -0.233 C  
HETATM    7  H   UNL     1     -10.525   7.753  68.328  1.00  0.00     0.000 HD 
HETATM    8  N   UNL     1     -11.013  10.924  69.154  1.00  0.00    -0.221 N  
HETATM    9  O   UNL     1     -10.603   9.964  67.117  1.00  0.00    -0.245 OA 
HETATM   10  C   UNL     1     -11.412   9.553  71.031  1.00  0.00    -0.420 C  
HETATM   11  C   UNL     1     -11.355  10.763  70.478  1.00  0.00    -0.199 C  
ENDROOT
BRANCH   8  12
HETATM   12  C   UNL     1     -11.046  12.235  68.532  1.00  0.00    -0.249 C  
HETATM   13  C   UNL     1      -9.780  12.562  67.759  1.00  0.00    -0.202 C  
HETATM   14  C   UNL     1     -10.256  13.648  66.827  1.00  0.00    -0.268 C  
HETATM   15  C   UNL     1     -11.725  13.310  66.585  1.00  0.00    -0.377 C  
HETATM   16  O   UNL     1     -12.115  12.330  67.572  1.00  0.00    -0.514 OA 
BRANCH  15  17
HETATM   17  C   UNL     1     -12.022  12.768  65.186  1.00  0.00    -0.424 C  
HETATM   18  O   UNL     1     -11.516  13.639  64.177  1.00  0.00    -0.476 OA 
HETATM   19  H   UNL     1     -11.700  13.302  63.309  1.00  0.00     0.000 HD 
ENDBRANCH  15  17
ENDBRANCH   8  12
TORSDOF 2
ENDMDL
MODEL      138
REMARK 921   NORMALIZED FREE ENERGY PREDICTED BY IDOCK:   -3.48 KCAL/MOL
REMARK 922        TOTAL FREE ENERGY PREDICTED BY IDOCK:   -4.20 KCAL/MOL
REMARK 923 INTER-LIGAND FREE ENERGY PREDICTED BY IDOCK:   -4.45 KCAL/MOL
REMARK 924 INTRA-LIGAND FREE ENERGY PREDICTED BY IDOCK:    0.25 KCAL/MOL
REMARK 927      BINDING AFFINITY PREDICTED BY RF-SCORE:    0.00 PKD
ROOT
HETATM    1  N   UNL     1     -11.903  11.636  69.602  1.00  0.00    -0.330 NA 
HETATM    2  H1  UNL     1     -12.461  10.950  69.095  1.00  0.00     0.000 HD 
HETATM    3  H2  UNL     1     -11.618  11.482  70.569  1.00  0.00     0.000 HD 
HETATM    4  C   UNL     1     -11.553  12.772  68.926  1.00  0.00    -0.316 C  
HETATM    5  N   UNL     1     -10.844  13.644  69.570  1.00  0.00    -0.447 N  
HETATM    6  C   UNL     1     -10.465  14.810  68.945  1.00  0.00    -0.249 C  
HETATM    7  H   UNL     1     -10.568  13.466  70.536  1.00  0.00     0.000 HD 
HETATM    8  N   UNL     1     -10.955  15.067  67.662  1.00  0.00    -0.295 N  
HETATM    9  O   UNL     1      -9.716  15.606  69.510  1.00  0.00    -0.262 OA 
HETATM   10  C   UNL     1     -11.996  12.956  67.531  1.00  0.00    -0.354 C  
HETATM   11  C   UNL     1     -11.678  14.121  66.971  1.00  0.00    -0.405 C  
ENDROOT
BRANCH   8  12
HETATM   12  C   UNL     1     -10.528  16.295  67.015  1.00  0.00    -0.306 C  
HETATM   13  C   UNL     1     -10.651  17.516  67.911  1.00  0.00    -0.390 C  
HETATM   14  C   UNL     1      -9.701  18.483  67.251  1.00  0.00    -0.313 C  
HETATM   15  C   UNL     1      -8.634  17.587  66.629  1.00  0.00    -0.258 C  
HETATM   16  O   UNL     1      -9.138  16.234  66.643  1.00  0.00    -0.211 OA 
BRANCH  15  17
HETATM   17  C   UNL     1      -7.282  17.631  67.343  1.00  0.00    -0.181 C  
HETATM   18  O   UNL     1      -7.090  16.474  68.155  1.00  0.00    -0.138 OA 
HETATM   19  H   UNL     1      -6.250  16.502  68.598  1.00  0.00     0.000 HD 
ENDBRANCH  15  17
ENDBRANCH   8  12
TORSDOF 2
ENDMDL
MODEL      139
REMARK 921   NORMALIZED FREE ENERGY PREDICTED BY IDOCK:   -3.47 KCAL/MOL
REMARK 922        TOTAL FREE ENERGY PREDICTED BY IDOCK:   -4.19 KCAL/MOL
REMARK 923 INTER-LIGAND FREE ENERGY PREDICTED BY IDOCK:   -3.91 KCAL/MOL
REMARK 924 INTRA-LIGAND FREE ENERGY PREDICTED BY IDOCK:   -0.28 KCAL/MOL
REMARK 927      BINDING AFFINITY PREDICTED BY RF-SCORE:    0.00 PKD
ROOT
HETATM    1  N   UNL     1      -9.204  15.694  66.840  1.00  0.00    -0.223 NA 
HETATM    2  H1  UNL     1      -8.280  16.005  67.137  1.00  0.00     0.000 HD 
HETATM    3  H2  UNL     1      -9.830  16.305  66.315  1.00  0.00     0.000 HD 
HETATM    4  C   UNL     1      -9.568  14.419  67.178  1.00  0.00    -0.250 C  
HETATM    5  N   UNL     1     -10.741  14.023  66.800  1.00  0.00    -0.284 N  
HETATM    6  C   UNL     1     -11.166  12.752  67.114  1.00  0.00    -0.292 C  
HETATM    7  H   UNL     1     -11.348  14.651  66.273  1.00  0.00     0.000 HD 
HETATM    8  N   UNL     1     -10.354  11.962  67.931  1.00  0.00    -0.193 N  
HETATM    9  O   UNL     1     -12.239  12.329  66.686  1.00  0.00    -0.574 OA 
HETATM   10  C   UNL     1      -8.633  13.574  67.945  1.00  0.00    -0.182 C  
HETATM   11  C   UNL     1      -9.093  12.375  68.297  1.00  0.00    -0.183 C  
ENDROOT
BRANCH   8  12
HETATM   12  C   UNL     1     -10.813  10.618  68.234  1.00  0.00    -0.241 C  
HETATM   13  C   UNL     1      -9.684   9.605  68.319  1.00  0.00    -0.162 C  
HETATM   14  C   UNL     1     -10.317   8.501  69.127  1.00  0.00    -0.227 C  
HETATM   15  C   UNL     1     -11.313   9.226  70.028  1.00  0.00    -0.113 C  
HETATM   16  O   UNL     1     -11.469  10.567  69.515  1.00  0.00    -0.246 OA 
BRANCH  15  17
HETATM   17  C   UNL     1     -10.899   9.291  71.499  1.00  0.00    -0.372 C  
HETATM   18  O   UNL     1     -11.877   8.679  72.337  1.00  0.00    -0.372 OA 
HETATM   19  H   UNL     1     -11.619   8.718  73.251  1.00  0.00     0.000 HD 
ENDBRANCH  15  17
ENDBRANCH   8  12
TORSDOF 2
ENDMDL
MODEL      140
REMARK 921   NORMALIZED FREE ENERGY PREDICTED BY IDOCK:   -3.42 KCAL/MOL
REMARK 922        TOTAL FREE ENERGY PREDICTED BY IDOCK:   -4.14 KCAL/MOL
REMARK 923 INTER-LIGAND FREE ENERGY PREDICTED BY IDOCK:   -4.41 KCAL/MOL
REMARK 924 INTRA-LIGAND FREE ENERGY PREDICTED BY IDOCK:    0.27 KCAL/MOL
REMARK 927      BINDING AFFINITY PREDICTED BY RF-SCORE:    0.00 PKD
ROOT
HETATM    1  N   UNL     1      -9.764   7.359  71.642  1.00  0.00    -0.155 NA 
HETATM    2  H1  UNL     1      -8.870   7.205  71.175  1.00  0.00     0.000 HD 
HETATM    3  H2  UNL     1     -10.138   6.687  72.312  1.00  0.00     0.000 HD 
HETATM    4  C   UNL     1     -10.436   8.509  71.330  1.00  0.00    -0.237 C  
HETATM    5  N   UNL     1     -11.570   8.705  71.924  1.00  0.00    -0.325 N  
HETATM    6  C   UNL     1     -12.296   9.842  71.647  1.00  0.00    -0.408 C  
HETATM    7  H   UNL     1     -11.923   8.020  72.592  1.00  0.00     0.000 HD 
HETATM    8  N   UNL     1     -11.835  10.699  70.646  1.00  0.00    -0.339 N  
HETATM    9  O   UNL     1     -13.329  10.088  72.269  1.00  0.00    -0.429 OA 
HETATM   10  C   UNL     1      -9.859   9.447  70.349  1.00  0.00    -0.313 C  
HETATM   11  C   UNL     1     -10.612  10.503  70.046  1.00  0.00    -0.169 C  
ENDROOT
BRANCH   8  12
HETATM   12  C   UNL     1     -12.607  11.900  70.384  1.00  0.00    -0.073 C  
HETATM   13  C   UNL     1     -12.823  12.754  71.622  1.00  0.00    -0.363 C  
HETATM   14  C   UNL     1     -13.141  14.099  71.021  1.00  0.00    -0.370 C  
HETATM   15  C   UNL     1     -12.363  14.111  69.708  1.00  0.00    -0.299 C  
HETATM   16  O   UNL     1     -11.936  12.758  69.442  1.00  0.00    -0.301 OA 
BRANCH  15  17
HETATM   17  C   UNL     1     -11.145  15.036  69.708  1.00  0.00    -0.276 C  
HETATM   18  O   UNL     1     -11.233  16.005  70.751  1.00  0.00    -0.356 OA 
HETATM   19  H   UNL     1     -10.476  16.579  70.751  1.00  0.00     0.000 HD 
ENDBRANCH  15  17
ENDBRANCH   8  12
TORSDOF 2
ENDMDL
MODEL      141
REMARK 921   NORMALIZED FREE ENERGY PREDICTED BY IDOCK:   -3.34 KCAL/MOL
REMARK 922        TOTAL FREE ENERGY PREDICTED BY IDOCK:   -4.05 KCAL/MOL
REMARK 923 INTER-LIGAND FREE ENERGY PREDICTED BY IDOCK:   -3.66 KCAL/MOL
REMARK 924 INTRA-LIGAND FREE ENERGY PREDICTED BY IDOCK:   -0.39 KCAL/MOL
REMARK 927      BINDING AFFINITY PREDICTED BY RF-SCORE:    0.00 PKD
ROOT
HETATM    1  N   UNL     1     -12.931   6.676  72.002  1.00  0.00    -0.523 NA 
HETATM    2  H1  UNL     1     -13.011   5.660  72.011  1.00  0.00     0.000 HD 
HETATM    3  H2  UNL     1     -13.430   7.257  72.675  1.00  0.00     0.000 HD 
HETATM    4  C   UNL     1     -12.122   7.225  71.045  1.00  0.00    -0.324 C  
HETATM    5  N   UNL     1     -12.019   8.516  71.033  1.00  0.00    -0.376 N  
HETATM    6  C   UNL     1     -11.224   9.128  70.090  1.00  0.00    -0.187 C  
HETATM    7  H   UNL     1     -12.525   9.076  71.719  1.00  0.00     0.000 HD 
HETATM    8  N   UNL     1     -10.636   8.337  69.101  1.00  0.00    -0.202 N  
HETATM    9  O   UNL     1     -11.043  10.344  70.122  1.00  0.00    -0.280 OA 
HETATM   10  C   UNL     1     -11.426   6.345  70.086  1.00  0.00    -0.484 C  
HETATM   11  C   UNL     1     -10.720   6.963  69.141  1.00  0.00    -0.234 C  
ENDROOT
BRANCH   8  12
HETATM   12  C   UNL     1      -9.787   9.001  68.128  1.00  0.00    -0.166 C  
HETATM   13  C   UNL     1      -8.304   8.830  68.413  1.00  0.00    -0.126 C  
HETATM   14  C   UNL     1      -7.694   9.115  67.064  1.00  0.00    -0.098 C  
HETATM   15  C   UNL     1      -8.758   8.656  66.071  1.00  0.00    -0.170 C  
HETATM   16  O   UNL     1      -9.986   8.463  66.807  1.00  0.00    -0.233 OA 
BRANCH  15  17
HETATM   17  C   UNL     1      -8.407   7.368  65.324  1.00  0.00    -0.104 C  
HETATM   18  O   UNL     1      -8.879   6.220  66.027  1.00  0.00    -0.151 OA 
HETATM   19  H   UNL     1      -8.661   5.420  65.562  1.00  0.00     0.000 HD 
ENDBRANCH  15  17
ENDBRANCH   8  12
TORSDOF 2
ENDMDL
MODEL      142
REMARK 921   NORMALIZED FREE ENERGY PREDICTED BY IDOCK:   -3.32 KCAL/MOL
REMARK 922        TOTAL FREE ENERGY PREDICTED BY IDOCK:   -4.03 KCAL/MOL
REMARK 923 INTER-LIGAND FREE ENERGY PREDICTED BY IDOCK:   -3.84 KCAL/MOL
REMARK 924 INTRA-LIGAND FREE ENERGY PREDICTED BY IDOCK:   -0.19 KCAL/MOL
REMARK 927      BINDING AFFINITY PREDICTED BY RF-SCORE:    0.00 PKD
ROOT
HETATM    1  N   UNL     1     -14.387   7.335  72.259  1.00  0.00    -0.629 NA 
HETATM    2  H1  UNL     1     -14.719   7.982  72.974  1.00  0.00     0.000 HD 
HETATM    3  H2  UNL     1     -14.929   6.515  71.988  1.00  0.00     0.000 HD 
HETATM    4  C   UNL     1     -13.181   7.618  71.679  1.00  0.00    -0.352 C  
HETATM    5  N   UNL     1     -12.759   6.797  70.771  1.00  0.00    -0.424 N  
HETATM    6  C   UNL     1     -11.550   7.026  70.153  1.00  0.00    -0.225 C  
HETATM    7  H   UNL     1     -13.321   5.985  70.514  1.00  0.00     0.000 HD 
HETATM    8  N   UNL     1     -10.760   8.084  70.609  1.00  0.00    -0.224 N  
HETATM    9  O   UNL     1     -11.178   6.309  69.226  1.00  0.00    -0.372 OA 
HETATM   10  C   UNL     1     -12.428   8.812  72.109  1.00  0.00    -0.460 C  
HETATM   11  C   UNL     1     -11.230   8.973  71.549  1.00  0.00    -0.348 C  
ENDROOT
BRANCH   8  12
HETATM   12  C   UNL     1      -9.497   8.318  69.932  1.00  0.00    -0.167 C  
HETATM   13  C   UNL     1      -8.881   9.666  70.264  1.00  0.00    -0.253 C  
HETATM   14  C   UNL     1      -7.434   9.444  69.905  1.00  0.00    -0.100 C  
HETATM   15  C   UNL     1      -7.212   7.957  70.165  1.00  0.00    -0.058 C  
HETATM   16  O   UNL     1      -8.510   7.343  70.317  1.00  0.00    -0.133 OA 
BRANCH  15  17
HETATM   17  C   UNL     1      -6.360   7.655  71.399  1.00  0.00    -0.035 C  
HETATM   18  O   UNL     1      -6.711   6.397  71.972  1.00  0.00    -0.064 OA 
HETATM   19  H   UNL     1      -6.182   6.210  72.739  1.00  0.00     0.000 HD 
ENDBRANCH  15  17
ENDBRANCH   8  12
TORSDOF 2
ENDMDL
MODEL      143
REMARK 921   NORMALIZED FREE ENERGY PREDICTED BY IDOCK:   -3.30 KCAL/MOL
REMARK 922        TOTAL FREE ENERGY PREDICTED BY IDOCK:   -4.00 KCAL/MOL
REMARK 923 INTER-LIGAND FREE ENERGY PREDICTED BY IDOCK:   -3.78 KCAL/MOL
REMARK 924 INTRA-LIGAND FREE ENERGY PREDICTED BY IDOCK:   -0.23 KCAL/MOL
REMARK 927      BINDING AFFINITY PREDICTED BY RF-SCORE:    0.00 PKD
ROOT
HETATM    1  N   UNL     1     -10.914   6.135  66.232  1.00  0.00    -0.607 NA 
HETATM    2  H1  UNL     1     -11.450   6.990  66.087  1.00  0.00     0.000 HD 
HETATM    3  H2  UNL     1     -10.605   5.560  65.448  1.00  0.00     0.000 HD 
HETATM    4  C   UNL     1     -10.626   5.795  67.526  1.00  0.00    -0.253 C  
HETATM    5  N   UNL     1      -9.945   4.710  67.710  1.00  0.00    -0.128 N  
HETATM    6  C   UNL     1      -9.629   4.312  68.990  1.00  0.00    -0.170 C  
HETATM    7  H   UNL     1      -9.644   4.152  66.911  1.00  0.00     0.000 HD 
HETATM    8  N   UNL     1     -10.152   5.040  70.061  1.00  0.00    -0.256 N  
HETATM    9  O   UNL     1      -8.906   3.336  69.179  1.00  0.00    -0.084 OA 
HETATM   10  C   UNL     1     -11.102   6.654  68.627  1.00  0.00    -0.288 C  
HETATM   11  C   UNL     1     -10.845   6.212  69.857  1.00  0.00    -0.353 C  
ENDROOT
BRANCH   8  12
HETATM   12  C   UNL     1      -9.792   4.614  71.401  1.00  0.00    -0.194 C  
HETATM   13  C   UNL     1      -8.425   5.112  71.839  1.00  0.00    -0.125 C  
HETATM   14  C   UNL     1      -8.523   5.010  73.340  1.00  0.00    -0.110 C  
HETATM   15  C   UNL     1     -10.004   5.239  73.630  1.00  0.00    -0.178 C  
HETATM   16  O   UNL     1     -10.716   5.127  72.379  1.00  0.00    -0.215 OA 
BRANCH  15  17
HETATM   17  C   UNL     1     -10.317   6.592  74.272  1.00  0.00    -0.255 C  
HETATM   18  O   UNL     1     -11.295   7.306  73.518  1.00  0.00    -0.564 OA 
HETATM   19  H   UNL     1     -11.489   8.146  73.917  1.00  0.00     0.000 HD 
ENDBRANCH  15  17
ENDBRANCH   8  12
TORSDOF 2
ENDMDL
MODEL      144
REMARK 921   NORMALIZED FREE ENERGY PREDICTED BY IDOCK:   -3.29 KCAL/MOL
REMARK 922        TOTAL FREE ENERGY PREDICTED BY IDOCK:   -4.00 KCAL/MOL
REMARK 923 INTER-LIGAND FREE ENERGY PREDICTED BY IDOCK:   -4.86 KCAL/MOL
REMARK 924 INTRA-LIGAND FREE ENERGY PREDICTED BY IDOCK:    0.86 KCAL/MOL
REMARK 927      BINDING AFFINITY PREDICTED BY RF-SCORE:    0.00 PKD
ROOT
HETATM    1  N   UNL     1      -9.821  10.096  62.337  1.00  0.00    -0.693 NA 
HETATM    2  H1  UNL     1      -9.053   9.427  62.382  1.00  0.00     0.000 HD 
HETATM    3  H2  UNL     1     -10.421  10.167  61.515  1.00  0.00     0.000 HD 
HETATM    4  C   UNL     1     -10.010  10.897  63.431  1.00  0.00    -0.361 C  
HETATM    5  N   UNL     1     -10.984  11.747  63.374  1.00  0.00    -0.608 N  
HETATM    6  C   UNL     1     -11.222  12.584  64.442  1.00  0.00    -0.339 C  
HETATM    7  H   UNL     1     -11.573  11.797  62.543  1.00  0.00     0.000 HD 
HETATM    8  N   UNL     1     -10.328  12.563  65.515  1.00  0.00    -0.275 N  
HETATM    9  O   UNL     1     -12.198  13.332  64.443  1.00  0.00    -0.391 OA 
HETATM   10  C   UNL     1      -9.111  10.765  64.593  1.00  0.00    -0.223 C  
HETATM   11  C   UNL     1      -9.316  11.632  65.583  1.00  0.00    -0.180 C  
ENDROOT
BRANCH   8  12
HETATM   12  C   UNL     1     -10.608  13.440  66.637  1.00  0.00    -0.282 C  
HETATM   13  C   UNL     1     -12.093  13.657  66.871  1.00  0.00    -0.431 C  
HETATM   14  C   UNL     1     -12.119  14.112  68.308  1.00  0.00    -0.297 C  
HETATM   15  C   UNL     1     -10.922  13.408  68.941  1.00  0.00    -0.248 C  
HETATM   16  O   UNL     1     -10.104  12.890  67.869  1.00  0.00    -0.219 OA 
BRANCH  15  17
HETATM   17  C   UNL     1     -11.294  12.267  69.890  1.00  0.00    -0.007 C  
HETATM   18  O   UNL     1     -12.266  11.404  69.304  1.00  0.00    -0.305 OA 
HETATM   19  H   UNL     1     -12.497  10.696  69.893  1.00  0.00     0.000 HD 
ENDBRANCH  15  17
ENDBRANCH   8  12
TORSDOF 2
ENDMDL
MODEL      145
REMARK 921   NORMALIZED FREE ENERGY PREDICTED BY IDOCK:   -3.28 KCAL/MOL
REMARK 922        TOTAL FREE ENERGY PREDICTED BY IDOCK:   -3.99 KCAL/MOL
REMARK 923 INTER-LIGAND FREE ENERGY PREDICTED BY IDOCK:   -4.38 KCAL/MOL
REMARK 924 INTRA-LIGAND FREE ENERGY PREDICTED BY IDOCK:    0.39 KCAL/MOL
REMARK 927      BINDING AFFINITY PREDICTED BY RF-SCORE:    0.00 PKD
ROOT
HETATM    1  N   UNL     1     -10.133  11.946  62.905  1.00  0.00    -0.509 NA 
HETATM    2  H1  UNL     1     -10.421  12.728  62.317  1.00  0.00     0.000 HD 
HETATM    3  H2  UNL     1      -9.752  11.089  62.504  1.00  0.00     0.000 HD 
HETATM    4  C   UNL     1     -10.281  12.099  64.256  1.00  0.00    -0.324 C  
HETATM    5  N   UNL     1      -9.916  11.107  65.003  1.00  0.00    -0.255 N  
HETATM    6  C   UNL     1     -10.046  11.199  66.371  1.00  0.00    -0.226 C  
HETATM    7  H   UNL     1      -9.534  10.261  64.580  1.00  0.00     0.000 HD 
HETATM    8  N   UNL     1     -10.674  12.326  66.905  1.00  0.00    -0.227 N  
HETATM    9  O   UNL     1      -9.620  10.304  67.099  1.00  0.00    -0.162 OA 
HETATM   10  C   UNL     1     -10.846  13.354  64.790  1.00  0.00    -0.387 C  
HETATM   11  C   UNL     1     -11.027  13.391  66.109  1.00  0.00    -0.276 C  
ENDROOT
BRANCH   8  12
HETATM   12  C   UNL     1     -10.784  12.410  68.350  1.00  0.00    -0.235 C  
HETATM   13  C   UNL     1     -11.857  13.381  68.813  1.00  0.00    -0.386 C  
HETATM   14  C   UNL     1     -12.125  12.903  70.218  1.00  0.00    -0.377 C  
HETATM   15  C   UNL     1     -11.846  11.404  70.158  1.00  0.00    -0.355 C  
HETATM   16  O   UNL     1     -11.148  11.139  68.922  1.00  0.00    -0.199 OA 
BRANCH  15  17
HETATM   17  C   UNL     1     -13.098  10.528  70.231  1.00  0.00     0.034 C  
HETATM   18  O   UNL     1     -12.776   9.202  70.646  1.00  0.00    -0.495 OA 
HETATM   19  H   UNL     1     -13.554   8.659  70.691  1.00  0.00     0.000 HD 
ENDBRANCH  15  17
ENDBRANCH   8  12
TORSDOF 2
ENDMDL
MODEL      146
REMARK 921   NORMALIZED FREE ENERGY PREDICTED BY IDOCK:   -3.28 KCAL/MOL
REMARK 922        TOTAL FREE ENERGY PREDICTED BY IDOCK:   -3.98 KCAL/MOL
REMARK 923 INTER-LIGAND FREE ENERGY PREDICTED BY IDOCK:   -3.80 KCAL/MOL
REMARK 924 INTRA-LIGAND FREE ENERGY PREDICTED BY IDOCK:   -0.18 KCAL/MOL
REMARK 927      BINDING AFFINITY PREDICTED BY RF-SCORE:    0.00 PKD
ROOT
HETATM    1  N   UNL     1     -11.282   6.032  71.253  1.00  0.00    -0.282 NA 
HETATM    2  H1  UNL     1     -11.821   5.223  70.945  1.00  0.00     0.000 HD 
HETATM    3  H2  UNL     1     -11.093   6.203  72.241  1.00  0.00     0.000 HD 
HETATM    4  C   UNL     1     -10.822   6.878  70.281  1.00  0.00    -0.257 C  
HETATM    5  N   UNL     1     -10.137   7.905  70.672  1.00  0.00    -0.194 N  
HETATM    6  C   UNL     1      -9.652   8.795  69.741  1.00  0.00    -0.172 C  
HETATM    7  H   UNL     1      -9.958   8.053  71.665  1.00  0.00     0.000 HD 
HETATM    8  N   UNL     1     -10.011   8.620  68.402  1.00  0.00    -0.177 N  
HETATM    9  O   UNL     1      -8.924   9.724  70.087  1.00  0.00    -0.226 OA 
HETATM   10  C   UNL     1     -11.127   6.595  68.865  1.00  0.00    -0.312 C  
HETATM   11  C   UNL     1     -10.708   7.507  67.990  1.00  0.00    -0.106 C  
ENDROOT
BRANCH   8  12
HETATM   12  C   UNL     1      -9.473   9.560  67.436  1.00  0.00    -0.135 C  
HETATM   13  C   UNL     1      -9.681   9.122  65.996  1.00  0.00    -0.358 C  
HETATM   14  C   UNL     1      -9.545  10.425  65.251  1.00  0.00    -0.316 C  
HETATM   15  C   UNL     1     -10.045  11.472  66.242  1.00  0.00    -0.226 C  
HETATM   16  O   UNL     1     -10.119  10.843  67.540  1.00  0.00    -0.177 OA 
BRANCH  15  17
HETATM   17  C   UNL     1     -11.408  12.070  65.890  1.00  0.00    -0.337 C  
HETATM   18  O   UNL     1     -12.263  12.112  67.031  1.00  0.00    -0.522 OA 
HETATM   19  H   UNL     1     -13.109  12.483  66.813  1.00  0.00     0.000 HD 
ENDBRANCH  15  17
ENDBRANCH   8  12
TORSDOF 2
ENDMDL
MODEL      147
REMARK 921   NORMALIZED FREE ENERGY PREDICTED BY IDOCK:   -3.26 KCAL/MOL
REMARK 922        TOTAL FREE ENERGY PREDICTED BY IDOCK:   -3.97 KCAL/MOL
REMARK 923 INTER-LIGAND FREE ENERGY PREDICTED BY IDOCK:   -3.58 KCAL/MOL
REMARK 924 INTRA-LIGAND FREE ENERGY PREDICTED BY IDOCK:   -0.38 KCAL/MOL
REMARK 927      BINDING AFFINITY PREDICTED BY RF-SCORE:    0.00 PKD
ROOT
HETATM    1  N   UNL     1     -12.876  14.073  66.267  1.00  0.00    -0.432 NA 
HETATM    2  H1  UNL     1     -13.452  13.336  66.675  1.00  0.00     0.000 HD 
HETATM    3  H2  UNL     1     -13.251  14.722  65.576  1.00  0.00     0.000 HD 
HETATM    4  C   UNL     1     -11.578  14.150  66.692  1.00  0.00    -0.384 C  
HETATM    5  N   UNL     1     -10.847  15.085  66.175  1.00  0.00    -0.324 N  
HETATM    6  C   UNL     1      -9.530  15.211  66.558  1.00  0.00    -0.283 C  
HETATM    7  H   UNL     1     -11.244  15.726  65.487  1.00  0.00     0.000 HD 
HETATM    8  N   UNL     1      -8.992  14.250  67.417  1.00  0.00    -0.191 N  
HETATM    9  O   UNL     1      -8.848  16.148  66.147  1.00  0.00    -0.315 OA 
HETATM   10  C   UNL     1     -11.078  13.184  67.688  1.00  0.00    -0.295 C  
HETATM   11  C   UNL     1      -9.785  13.281  67.990  1.00  0.00    -0.223 C  
ENDROOT
BRANCH   8  12
HETATM   12  C   UNL     1      -7.608  14.412  67.822  1.00  0.00    -0.164 C  
HETATM   13  C   UNL     1      -7.457  15.012  69.210  1.00  0.00    -0.188 C  
HETATM   14  C   UNL     1      -6.058  14.591  69.581  1.00  0.00    -0.118 C  
HETATM   15  C   UNL     1      -5.863  13.267  68.848  1.00  0.00    -0.076 C  
HETATM   16  O   UNL     1      -6.928  13.144  67.879  1.00  0.00    -0.099 OA 
BRANCH  15  17
HETATM   17  C   UNL     1      -5.863  12.038  69.759  1.00  0.00    -0.125 C  
HETATM   18  O   UNL     1      -7.189  11.565  69.985  1.00  0.00    -0.368 OA 
HETATM   19  H   UNL     1      -7.189  10.802  70.551  1.00  0.00     0.000 HD 
ENDBRANCH  15  17
ENDBRANCH   8  12
TORSDOF 2
ENDMDL
MODEL      148
REMARK 921   NORMALIZED FREE ENERGY PREDICTED BY IDOCK:   -3.25 KCAL/MOL
REMARK 922        TOTAL FREE ENERGY PREDICTED BY IDOCK:   -3.95 KCAL/MOL
REMARK 923 INTER-LIGAND FREE ENERGY PREDICTED BY IDOCK:   -3.66 KCAL/MOL
REMARK 924 INTRA-LIGAND FREE ENERGY PREDICTED BY IDOCK:   -0.29 KCAL/MOL
REMARK 927      BINDING AFFINITY PREDICTED BY RF-SCORE:    0.00 PKD
ROOT
HETATM    1  N   UNL     1     -11.280  19.424  67.796  1.00  0.00    -0.165 NA 
HETATM    2  H1  UNL     1     -12.008  19.488  68.507  1.00  0.00     0.000 HD 
HETATM    3  H2  UNL     1     -11.050  20.215  67.195  1.00  0.00     0.000 HD 
HETATM    4  C   UNL     1     -10.626  18.228  67.685  1.00  0.00    -0.405 C  
HETATM    5  N   UNL     1      -9.701  18.146  66.782  1.00  0.00    -0.309 N  
HETATM    6  C   UNL     1      -9.011  16.966  66.619  1.00  0.00    -0.252 C  
HETATM    7  H   UNL     1      -9.486  18.952  66.195  1.00  0.00     0.000 HD 
HETATM    8  N   UNL     1      -9.408  15.854  67.364  1.00  0.00    -0.209 N  
HETATM    9  O   UNL     1      -8.069  16.899  65.830  1.00  0.00    -0.453 OA 
HETATM   10  C   UNL     1     -10.999  17.108  68.571  1.00  0.00    -0.204 C  
HETATM   11  C   UNL     1     -10.367  15.958  68.346  1.00  0.00    -0.240 C  
ENDROOT
BRANCH   8  12
HETATM   12  C   UNL     1      -8.654  14.625  67.189  1.00  0.00    -0.223 C  
HETATM   13  C   UNL     1      -8.369  13.907  68.497  1.00  0.00    -0.132 C  
HETATM   14  C   UNL     1      -8.088  12.503  68.026  1.00  0.00    -0.164 C  
HETATM   15  C   UNL     1      -8.941  12.356  66.769  1.00  0.00    -0.205 C  
HETATM   16  O   UNL     1      -9.380  13.677  66.384  1.00  0.00    -0.256 OA 
BRANCH  15  17
HETATM   17  C   UNL     1     -10.159  11.447  66.940  1.00  0.00    -0.214 C  
HETATM   18  O   UNL     1     -10.691  11.055  65.676  1.00  0.00    -0.231 OA 
HETATM   19  H   UNL     1     -11.447  10.490  65.782  1.00  0.00     0.000 HD 
ENDBRANCH  15  17
ENDBRANCH   8  12
TORSDOF 2
ENDMDL
MODEL      149
REMARK 921   NORMALIZED FREE ENERGY PREDICTED BY IDOCK:   -3.25 KCAL/MOL
REMARK 922        TOTAL FREE ENERGY PREDICTED BY IDOCK:   -3.95 KCAL/MOL
REMARK 923 INTER-LIGAND FREE ENERGY PREDICTED BY IDOCK:   -4.17 KCAL/MOL
REMARK 924 INTRA-LIGAND FREE ENERGY PREDICTED BY IDOCK:    0.22 KCAL/MOL
REMARK 927      BINDING AFFINITY PREDICTED BY RF-SCORE:    0.00 PKD
ROOT
HETATM    1  N   UNL     1      -9.248   7.586  66.064  1.00  0.00    -0.359 NA 
HETATM    2  H1  UNL     1      -9.034   7.120  65.183  1.00  0.00     0.000 HD 
HETATM    3  H2  UNL     1      -9.254   7.079  66.949  1.00  0.00     0.000 HD 
HETATM    4  C   UNL     1      -9.527   8.924  66.006  1.00  0.00    -0.252 C  
HETATM    5  N   UNL     1      -9.798   9.517  67.125  1.00  0.00    -0.174 N  
HETATM    6  C   UNL     1     -10.092  10.862  67.130  1.00  0.00    -0.198 C  
HETATM    7  H   UNL     1      -9.795   8.989  67.998  1.00  0.00     0.000 HD 
HETATM    8  N   UNL     1     -10.196  11.525  65.905  1.00  0.00    -0.235 N  
HETATM    9  O   UNL     1     -10.263  11.459  68.192  1.00  0.00    -0.176 OA 
HETATM   10  C   UNL     1      -9.515   9.615  64.702  1.00  0.00    -0.221 C  
HETATM   11  C   UNL     1      -9.871  10.898  64.724  1.00  0.00    -0.288 C  
ENDROOT
BRANCH   8  12
HETATM   12  C   UNL     1     -10.490  12.947  65.936  1.00  0.00    -0.279 C  
HETATM   13  C   UNL     1     -11.865  13.261  66.500  1.00  0.00    -0.450 C  
HETATM   14  C   UNL     1     -11.712  14.704  66.907  1.00  0.00    -0.366 C  
HETATM   15  C   UNL     1     -10.236  14.830  67.275  1.00  0.00    -0.241 C  
HETATM   16  O   UNL     1      -9.561  13.654  66.780  1.00  0.00    -0.258 OA 
BRANCH  15  17
HETATM   17  C   UNL     1      -9.973  14.972  68.775  1.00  0.00    -0.228 C  
HETATM   18  O   UNL     1     -10.652  13.959  69.515  1.00  0.00    -0.443 OA 
HETATM   19  H   UNL     1     -10.488  14.047  70.447  1.00  0.00     0.000 HD 
ENDBRANCH  15  17
ENDBRANCH   8  12
TORSDOF 2
ENDMDL
MODEL      150
REMARK 921   NORMALIZED FREE ENERGY PREDICTED BY IDOCK:   -3.24 KCAL/MOL
REMARK 922        TOTAL FREE ENERGY PREDICTED BY IDOCK:   -3.94 KCAL/MOL
REMARK 923 INTER-LIGAND FREE ENERGY PREDICTED BY IDOCK:   -3.56 KCAL/MOL
REMARK 924 INTRA-LIGAND FREE ENERGY PREDICTED BY IDOCK:   -0.37 KCAL/MOL
REMARK 927      BINDING AFFINITY PREDICTED BY RF-SCORE:    0.00 PKD
ROOT
HETATM    1  N   UNL     1     -10.753   6.887  66.829  1.00  0.00    -0.518 NA 
HETATM    2  H1  UNL     1     -11.053   6.509  67.727  1.00  0.00     0.000 HD 
HETATM    3  H2  UNL     1     -10.748   6.316  65.984  1.00  0.00     0.000 HD 
HETATM    4  C   UNL     1     -10.358   8.197  66.809  1.00  0.00    -0.291 C  
HETATM    5  N   UNL     1      -9.977   8.678  65.668  1.00  0.00    -0.318 N  
HETATM    6  C   UNL     1      -9.563   9.988  65.585  1.00  0.00    -0.252 C  
HETATM    7  H   UNL     1      -9.984   8.088  64.836  1.00  0.00     0.000 HD 
HETATM    8  N   UNL     1      -9.462  10.730  66.764  1.00  0.00    -0.171 N  
HETATM    9  O   UNL     1      -9.286  10.486  64.495  1.00  0.00    -0.209 OA 
HETATM   10  C   UNL     1     -10.373   8.982  68.058  1.00  0.00    -0.275 C  
HETATM   11  C   UNL     1      -9.902  10.224  67.966  1.00  0.00    -0.150 C  
ENDROOT
BRANCH   8  12
HETATM   12  C   UNL     1      -9.041  12.115  66.650  1.00  0.00    -0.206 C  
HETATM   13  C   UNL     1      -9.863  13.062  67.507  1.00  0.00    -0.209 C  
HETATM   14  C   UNL     1      -8.943  14.251  67.628  1.00  0.00    -0.194 C  
HETATM   15  C   UNL     1      -7.544  13.644  67.561  1.00  0.00    -0.170 C  
HETATM   16  O   UNL     1      -7.681  12.285  67.092  1.00  0.00    -0.160 OA 
BRANCH  15  17
HETATM   17  C   UNL     1      -6.794  13.647  68.894  1.00  0.00    -0.110 C  
HETATM   18  O   UNL     1      -7.143  12.513  69.685  1.00  0.00    -0.330 OA 
HETATM   19  H   UNL     1      -6.676  12.515  70.512  1.00  0.00     0.000 HD 
ENDBRANCH  15  17
ENDBRANCH   8  12
TORSDOF 2
ENDMDL
MODEL      151
REMARK 921   NORMALIZED FREE ENERGY PREDICTED BY IDOCK:   -3.23 KCAL/MOL
REMARK 922        TOTAL FREE ENERGY PREDICTED BY IDOCK:   -3.93 KCAL/MOL
REMARK 923 INTER-LIGAND FREE ENERGY PREDICTED BY IDOCK:   -3.64 KCAL/MOL
REMARK 924 INTRA-LIGAND FREE ENERGY PREDICTED BY IDOCK:   -0.29 KCAL/MOL
REMARK 927      BINDING AFFINITY PREDICTED BY RF-SCORE:    0.00 PKD
ROOT
HETATM    1  N   UNL     1     -12.050  10.755  71.040  1.00  0.00    -0.352 NA 
HETATM    2  H1  UNL     1     -12.409  10.298  71.878  1.00  0.00     0.000 HD 
HETATM    3  H2  UNL     1     -12.217  11.745  70.859  1.00  0.00     0.000 HD 
HETATM    4  C   UNL     1     -11.334   9.980  70.170  1.00  0.00    -0.291 C  
HETATM    5  N   UNL     1     -10.877  10.560  69.106  1.00  0.00    -0.220 N  
HETATM    6  C   UNL     1     -10.153   9.830  68.190  1.00  0.00    -0.165 C  
HETATM    7  H   UNL     1     -11.054  11.552  68.948  1.00  0.00     0.000 HD 
HETATM    8  N   UNL     1     -10.027   8.453  68.386  1.00  0.00    -0.181 N  
HETATM    9  O   UNL     1      -9.635  10.384  67.221  1.00  0.00    -0.153 OA 
HETATM   10  C   UNL     1     -11.125   8.550  70.470  1.00  0.00    -0.265 C  
HETATM   11  C   UNL     1     -10.483   7.851  69.536  1.00  0.00    -0.226 C  
ENDROOT
BRANCH   8  12
HETATM   12  C   UNL     1      -9.244   7.708  67.417  1.00  0.00    -0.132 C  
HETATM   13  C   UNL     1      -8.368   6.639  68.050  1.00  0.00    -0.117 C  
HETATM   14  C   UNL     1      -8.108   5.719  66.885  1.00  0.00    -0.102 C  
HETATM   15  C   UNL     1      -9.360   5.850  66.023  1.00  0.00    -0.097 C  
HETATM   16  O   UNL     1     -10.092   7.005  66.490  1.00  0.00    -0.173 OA 
BRANCH  15  17
HETATM   17  C   UNL     1     -10.275   4.625  66.052  1.00  0.00    -0.277 C  
HETATM   18  O   UNL     1     -11.473   4.858  65.315  1.00  0.00    -0.885 OA 
HETATM   19  H   UNL     1     -12.040   4.096  65.333  1.00  0.00     0.000 HD 
ENDBRANCH  15  17
ENDBRANCH   8  12
TORSDOF 2
ENDMDL
MODEL      152
REMARK 921   NORMALIZED FREE ENERGY PREDICTED BY IDOCK:   -3.23 KCAL/MOL
REMARK 922        TOTAL FREE ENERGY PREDICTED BY IDOCK:   -3.93 KCAL/MOL
REMARK 923 INTER-LIGAND FREE ENERGY PREDICTED BY IDOCK:   -4.54 KCAL/MOL
REMARK 924 INTRA-LIGAND FREE ENERGY PREDICTED BY IDOCK:    0.61 KCAL/MOL
REMARK 927      BINDING AFFINITY PREDICTED BY RF-SCORE:    0.00 PKD
ROOT
HETATM    1  N   UNL     1     -13.619  12.626  72.806  1.00  0.00    -0.642 NA 
HETATM    2  H1  UNL     1     -13.858  13.519  73.234  1.00  0.00     0.000 HD 
HETATM    3  H2  UNL     1     -13.820  11.740  73.270  1.00  0.00     0.000 HD 
HETATM    4  C   UNL     1     -13.015  12.668  71.579  1.00  0.00    -0.282 C  
HETATM    5  N   UNL     1     -12.711  11.533  71.035  1.00  0.00    -0.361 N  
HETATM    6  C   UNL     1     -12.096  11.511  69.803  1.00  0.00    -0.306 C  
HETATM    7  H   UNL     1     -12.925  10.660  71.517  1.00  0.00     0.000 HD 
HETATM    8  N   UNL     1     -11.719  12.725  69.225  1.00  0.00    -0.307 N  
HETATM    9  O   UNL     1     -11.884  10.442  69.231  1.00  0.00    -0.200 OA 
HETATM   10  C   UNL     1     -12.735  13.973  70.949  1.00  0.00    -0.420 C  
HETATM   11  C   UNL     1     -12.077  13.927  69.792  1.00  0.00    -0.345 C  
ENDROOT
BRANCH   8  12
HETATM   12  C   UNL     1     -11.089  12.678  67.918  1.00  0.00    -0.247 C  
HETATM   13  C   UNL     1      -9.588  12.449  67.986  1.00  0.00    -0.211 C  
HETATM   14  C   UNL     1      -9.290  11.928  66.603  1.00  0.00    -0.210 C  
HETATM   15  C   UNL     1     -10.571  11.203  66.198  1.00  0.00    -0.248 C  
HETATM   16  O   UNL     1     -11.605  11.591  67.128  1.00  0.00    -0.516 OA 
BRANCH  15  17
HETATM   17  C   UNL     1     -10.451   9.678  66.180  1.00  0.00    -0.041 C  
HETATM   18  O   UNL     1      -9.283   9.261  65.476  1.00  0.00    -0.206 OA 
HETATM   19  H   UNL     1      -9.209   8.314  65.466  1.00  0.00     0.000 HD 
ENDBRANCH  15  17
ENDBRANCH   8  12
TORSDOF 2
ENDMDL
MODEL      153
REMARK 921   NORMALIZED FREE ENERGY PREDICTED BY IDOCK:   -3.20 KCAL/MOL
REMARK 922        TOTAL FREE ENERGY PREDICTED BY IDOCK:   -3.90 KCAL/MOL
REMARK 923 INTER-LIGAND FREE ENERGY PREDICTED BY IDOCK:   -3.60 KCAL/MOL
REMARK 924 INTRA-LIGAND FREE ENERGY PREDICTED BY IDOCK:   -0.30 KCAL/MOL
REMARK 927      BINDING AFFINITY PREDICTED BY RF-SCORE:    0.00 PKD
ROOT
HETATM    1  N   UNL     1      -6.190   8.170  73.362  1.00  0.00    -0.085 NA 
HETATM    2  H1  UNL     1      -6.067   8.082  74.371  1.00  0.00     0.000 HD 
HETATM    3  H2  UNL     1      -5.402   8.360  72.743  1.00  0.00     0.000 HD 
HETATM    4  C   UNL     1      -7.461   8.022  72.878  1.00  0.00    -0.119 C  
HETATM    5  N   UNL     1      -7.618   8.134  71.598  1.00  0.00    -0.079 N  
HETATM    6  C   UNL     1      -8.874   8.000  71.051  1.00  0.00    -0.139 C  
HETATM    7  H   UNL     1      -6.814   8.321  70.998  1.00  0.00     0.000 HD 
HETATM    8  N   UNL     1      -9.963   7.856  71.913  1.00  0.00    -0.170 N  
HETATM    9  O   UNL     1      -9.027   8.013  69.830  1.00  0.00    -0.143 OA 
HETATM   10  C   UNL     1      -8.571   7.757  73.813  1.00  0.00    -0.306 C  
HETATM   11  C   UNL     1      -9.785   7.702  73.269  1.00  0.00    -0.288 C  
ENDROOT
BRANCH   8  12
HETATM   12  C   UNL     1     -11.276   7.699  71.314  1.00  0.00    -0.254 C  
HETATM   13  C   UNL     1     -12.153   6.698  72.048  1.00  0.00    -0.353 C  
HETATM   14  C   UNL     1     -13.533   7.102  71.596  1.00  0.00    -0.397 C  
HETATM   15  C   UNL     1     -13.418   8.605  71.354  1.00  0.00    -0.232 C  
HETATM   16  O   UNL     1     -12.012   8.936  71.335  1.00  0.00    -0.282 OA 
BRANCH  15  17
HETATM   17  C   UNL     1     -14.127   9.466  72.401  1.00  0.00    -0.196 C  
HETATM   18  O   UNL     1     -13.624  10.800  72.398  1.00  0.00    -0.553 OA 
HETATM   19  H   UNL     1     -14.065  11.334  73.048  1.00  0.00     0.000 HD 
ENDBRANCH  15  17
ENDBRANCH   8  12
TORSDOF 2
ENDMDL
MODEL      154
REMARK 921   NORMALIZED FREE ENERGY PREDICTED BY IDOCK:   -3.18 KCAL/MOL
REMARK 922        TOTAL FREE ENERGY PREDICTED BY IDOCK:   -3.88 KCAL/MOL
REMARK 923 INTER-LIGAND FREE ENERGY PREDICTED BY IDOCK:   -4.49 KCAL/MOL
REMARK 924 INTRA-LIGAND FREE ENERGY PREDICTED BY IDOCK:    0.61 KCAL/MOL
REMARK 927      BINDING AFFINITY PREDICTED BY RF-SCORE:    0.00 PKD
ROOT
HETATM    1  N   UNL     1      -9.910   9.403  65.346  1.00  0.00    -0.445 NA 
HETATM    2  H1  UNL     1      -9.601   8.748  64.628  1.00  0.00     0.000 HD 
HETATM    3  H2  UNL     1     -10.045  10.393  65.142  1.00  0.00     0.000 HD 
HETATM    4  C   UNL     1     -10.137   8.893  66.595  1.00  0.00    -0.287 C  
HETATM    5  N   UNL     1     -10.531   9.724  67.506  1.00  0.00    -0.235 N  
HETATM    6  C   UNL     1     -10.771   9.272  68.784  1.00  0.00    -0.154 C  
HETATM    7  H   UNL     1     -10.662  10.710  67.277  1.00  0.00     0.000 HD 
HETATM    8  N   UNL     1     -10.474   7.940  69.085  1.00  0.00    -0.220 N  
HETATM    9  O   UNL     1     -11.232  10.028  69.637  1.00  0.00    -0.244 OA 
HETATM   10  C   UNL     1      -9.921   7.455  66.845  1.00  0.00    -0.307 C  
HETATM   11  C   UNL     1     -10.091   7.055  68.104  1.00  0.00    -0.169 C  
ENDROOT
BRANCH   8  12
HETATM   12  C   UNL     1     -10.752   7.481  70.434  1.00  0.00    -0.239 C  
HETATM   13  C   UNL     1     -10.366   8.491  71.501  1.00  0.00    -0.321 C  
HETATM   14  C   UNL     1     -11.201   8.040  72.672  1.00  0.00    -0.462 C  
HETATM   15  C   UNL     1     -12.443   7.429  72.029  1.00  0.00    -0.247 C  
HETATM   16  O   UNL     1     -12.159   7.242  70.625  1.00  0.00    -0.274 OA 
BRANCH  15  17
HETATM   17  C   UNL     1     -13.709   8.274  72.181  1.00  0.00    -0.282 C  
HETATM   18  O   UNL     1     -13.400   9.591  72.632  1.00  0.00    -0.602 OA 
HETATM   19  H   UNL     1     -14.186  10.115  72.727  1.00  0.00     0.000 HD 
ENDBRANCH  15  17
ENDBRANCH   8  12
TORSDOF 2
ENDMDL
MODEL      155
REMARK 921   NORMALIZED FREE ENERGY PREDICTED BY IDOCK:   -3.18 KCAL/MOL
REMARK 922        TOTAL FREE ENERGY PREDICTED BY IDOCK:   -3.87 KCAL/MOL
REMARK 923 INTER-LIGAND FREE ENERGY PREDICTED BY IDOCK:   -3.71 KCAL/MOL
REMARK 924 INTRA-LIGAND FREE ENERGY PREDICTED BY IDOCK:   -0.16 KCAL/MOL
REMARK 927      BINDING AFFINITY PREDICTED BY RF-SCORE:    0.00 PKD
ROOT
HETATM    1  N   UNL     1     -11.553  15.005  67.130  1.00  0.00    -0.311 NA 
HETATM    2  H1  UNL     1     -12.565  15.002  67.008  1.00  0.00     0.000 HD 
HETATM    3  H2  UNL     1     -11.049  15.855  67.386  1.00  0.00     0.000 HD 
HETATM    4  C   UNL     1     -10.901  13.818  66.936  1.00  0.00    -0.285 C  
HETATM    5  N   UNL     1      -9.616  13.822  67.092  1.00  0.00    -0.236 N  
HETATM    6  C   UNL     1      -8.903  12.659  66.905  1.00  0.00    -0.201 C  
HETATM    7  H   UNL     1      -9.134  14.683  67.351  1.00  0.00     0.000 HD 
HETATM    8  N   UNL     1      -9.582  11.530  66.444  1.00  0.00    -0.203 N  
HETATM    9  O   UNL     1      -7.696  12.624  67.138  1.00  0.00    -0.158 OA 
HETATM   10  C   UNL     1     -11.671  12.618  66.559  1.00  0.00    -0.463 C  
HETATM   11  C   UNL     1     -10.952  11.523  66.315  1.00  0.00    -0.275 C  
ENDROOT
BRANCH   8  12
HETATM   12  C   UNL     1      -8.814  10.310  66.271  1.00  0.00    -0.146 C  
HETATM   13  C   UNL     1      -9.682   9.076  66.095  1.00  0.00    -0.354 C  
HETATM   14  C   UNL     1      -8.728   8.115  65.432  1.00  0.00    -0.128 C  
HETATM   15  C   UNL     1      -7.793   9.017  64.630  1.00  0.00    -0.121 C  
HETATM   16  O   UNL     1      -7.995  10.371  65.088  1.00  0.00    -0.150 OA 
BRANCH  15  17
HETATM   17  C   UNL     1      -8.008   8.956  63.117  1.00  0.00    -0.155 C  
HETATM   18  O   UNL     1      -9.387   9.111  62.785  1.00  0.00    -0.525 OA 
HETATM   19  H   UNL     1      -9.520   9.073  61.846  1.00  0.00     0.000 HD 
ENDBRANCH  15  17
ENDBRANCH   8  12
TORSDOF 2
ENDMDL
MODEL      156
REMARK 921   NORMALIZED FREE ENERGY PREDICTED BY IDOCK:   -3.17 KCAL/MOL
REMARK 922        TOTAL FREE ENERGY PREDICTED BY IDOCK:   -3.86 KCAL/MOL
REMARK 923 INTER-LIGAND FREE ENERGY PREDICTED BY IDOCK:   -3.78 KCAL/MOL
REMARK 924 INTRA-LIGAND FREE ENERGY PREDICTED BY IDOCK:   -0.08 KCAL/MOL
REMARK 927      BINDING AFFINITY PREDICTED BY RF-SCORE:    0.00 PKD
ROOT
HETATM    1  N   UNL     1      -9.311   7.566  74.376  1.00  0.00    -0.407 NA 
HETATM    2  H1  UNL     1      -9.126   8.533  74.641  1.00  0.00     0.000 HD 
HETATM    3  H2  UNL     1      -9.406   6.830  75.075  1.00  0.00     0.000 HD 
HETATM    4  C   UNL     1      -9.427   7.302  73.038  1.00  0.00    -0.168 C  
HETATM    5  N   UNL     1      -9.663   6.075  72.701  1.00  0.00    -0.156 N  
HETATM    6  C   UNL     1      -9.785   5.745  71.369  1.00  0.00    -0.167 C  
HETATM    7  H   UNL     1      -9.757   5.355  73.418  1.00  0.00     0.000 HD 
HETATM    8  N   UNL     1      -9.540   6.734  70.414  1.00  0.00    -0.169 N  
HETATM    9  O   UNL     1     -10.099   4.604  71.036  1.00  0.00    -0.203 OA 
HETATM   10  C   UNL     1      -9.274   8.399  72.063  1.00  0.00    -0.304 C  
HETATM   11  C   UNL     1      -9.326   8.044  70.781  1.00  0.00    -0.157 C  
ENDROOT
BRANCH   8  12
HETATM   12  C   UNL     1      -9.692   6.369  69.017  1.00  0.00    -0.134 C  
HETATM   13  C   UNL     1     -11.144   6.284  68.576  1.00  0.00    -0.397 C  
HETATM   14  C   UNL     1     -11.024   6.427  67.080  1.00  0.00    -0.476 C  
HETATM   15  C   UNL     1      -9.789   7.303  66.890  1.00  0.00    -0.214 C  
HETATM   16  O   UNL     1      -9.088   7.348  68.152  1.00  0.00    -0.132 OA 
BRANCH  15  17
HETATM   17  C   UNL     1     -10.095   8.729  66.430  1.00  0.00    -0.243 C  
HETATM   18  O   UNL     1      -9.480   9.009  65.174  1.00  0.00    -0.451 OA 
HETATM   19  H   UNL     1      -9.671   9.894  64.888  1.00  0.00     0.000 HD 
ENDBRANCH  15  17
ENDBRANCH   8  12
TORSDOF 2
ENDMDL
MODEL      157
REMARK 921   NORMALIZED FREE ENERGY PREDICTED BY IDOCK:   -3.16 KCAL/MOL
REMARK 922        TOTAL FREE ENERGY PREDICTED BY IDOCK:   -3.86 KCAL/MOL
REMARK 923 INTER-LIGAND FREE ENERGY PREDICTED BY IDOCK:   -3.77 KCAL/MOL
REMARK 924 INTRA-LIGAND FREE ENERGY PREDICTED BY IDOCK:   -0.09 KCAL/MOL
REMARK 927      BINDING AFFINITY PREDICTED BY RF-SCORE:    0.00 PKD
ROOT
HETATM    1  N   UNL     1      -7.079   9.701  69.136  1.00  0.00    -0.061 NA 
HETATM    2  H1  UNL     1      -7.405   8.790  68.815  1.00  0.00     0.000 HD 
HETATM    3  H2  UNL     1      -6.279   9.792  69.762  1.00  0.00     0.000 HD 
HETATM    4  C   UNL     1      -7.764  10.798  68.690  1.00  0.00    -0.114 C  
HETATM    5  N   UNL     1      -7.350  11.955  69.097  1.00  0.00    -0.301 N  
HETATM    6  C   UNL     1      -8.002  13.096  68.686  1.00  0.00    -0.033 C  
HETATM    7  H   UNL     1      -6.545  12.021  69.720  1.00  0.00     0.000 HD 
HETATM    8  N   UNL     1      -9.165  12.960  67.924  1.00  0.00    -0.200 N  
HETATM    9  O   UNL     1      -7.567  14.206  68.989  1.00  0.00    -0.120 OA 
HETATM   10  C   UNL     1      -8.922  10.618  67.793  1.00  0.00    -0.140 C  
HETATM   11  C   UNL     1      -9.579  11.730  67.466  1.00  0.00    -0.177 C  
ENDROOT
BRANCH   8  12
HETATM   12  C   UNL     1      -9.826  14.177  67.487  1.00  0.00    -0.235 C  
HETATM   13  C   UNL     1      -9.120  14.856  66.325  1.00  0.00    -0.262 C  
HETATM   14  C   UNL     1     -10.220  15.711  65.750  1.00  0.00    -0.391 C  
HETATM   15  C   UNL     1     -11.495  14.928  66.053  1.00  0.00    -0.275 C  
HETATM   16  O   UNL     1     -11.160  13.907  67.017  1.00  0.00    -0.291 OA 
BRANCH  15  17
HETATM   17  C   UNL     1     -12.139  14.277  64.828  1.00  0.00    -0.446 C  
HETATM   18  O   UNL     1     -13.279  13.504  65.194  1.00  0.00    -0.720 OA 
HETATM   19  H   UNL     1     -13.678  13.100  64.433  1.00  0.00     0.000 HD 
ENDBRANCH  15  17
ENDBRANCH   8  12
TORSDOF 2
ENDMDL
MODEL      158
REMARK 921   NORMALIZED FREE ENERGY PREDICTED BY IDOCK:   -3.10 KCAL/MOL
REMARK 922        TOTAL FREE ENERGY PREDICTED BY IDOCK:   -3.79 KCAL/MOL
REMARK 923 INTER-LIGAND FREE ENERGY PREDICTED BY IDOCK:   -4.32 KCAL/MOL
REMARK 924 INTRA-LIGAND FREE ENERGY PREDICTED BY IDOCK:    0.54 KCAL/MOL
REMARK 927      BINDING AFFINITY PREDICTED BY RF-SCORE:    0.00 PKD
ROOT
HETATM    1  N   UNL     1      -7.509   9.811  68.310  1.00  0.00    -0.080 NA 
HETATM    2  H1  UNL     1      -6.963   8.966  68.143  1.00  0.00     0.000 HD 
HETATM    3  H2  UNL     1      -7.492  10.287  69.212  1.00  0.00     0.000 HD 
HETATM    4  C   UNL     1      -8.264  10.277  67.269  1.00  0.00    -0.121 C  
HETATM    5  N   UNL     1      -8.956  11.350  67.481  1.00  0.00    -0.148 N  
HETATM    6  C   UNL     1      -9.740  11.866  66.473  1.00  0.00    -0.210 C  
HETATM    7  H   UNL     1      -8.922  11.811  68.390  1.00  0.00     0.000 HD 
HETATM    8  N   UNL     1      -9.848  11.147  65.280  1.00  0.00    -0.234 N  
HETATM    9  O   UNL     1     -10.332  12.933  66.627  1.00  0.00    -0.246 OA 
HETATM   10  C   UNL     1      -8.262   9.550  65.985  1.00  0.00    -0.115 C  
HETATM   11  C   UNL     1      -9.082  10.027  65.049  1.00  0.00    -0.211 C  
ENDROOT
BRANCH   8  12
HETATM   12  C   UNL     1     -10.666  11.718  64.225  1.00  0.00    -0.342 C  
HETATM   13  C   UNL     1     -12.156  11.525  64.453  1.00  0.00     0.070 C  
HETATM   14  C   UNL     1     -12.746  12.604  63.580  1.00  0.00    -0.329 C  
HETATM   15  C   UNL     1     -11.690  13.706  63.589  1.00  0.00    -0.163 C  
HETATM   16  O   UNL     1     -10.476  13.142  64.130  1.00  0.00    -0.421 OA 
BRANCH  15  17
HETATM   17  C   UNL     1     -12.080  14.943  64.400  1.00  0.00    -0.401 C  
HETATM   18  O   UNL     1     -11.987  16.127  63.611  1.00  0.00    -1.375 OA 
HETATM   19  H   UNL     1     -12.229  16.895  64.115  1.00  0.00     0.000 HD 
ENDBRANCH  15  17
ENDBRANCH   8  12
TORSDOF 2
ENDMDL
MODEL      159
REMARK 921   NORMALIZED FREE ENERGY PREDICTED BY IDOCK:   -3.08 KCAL/MOL
REMARK 922        TOTAL FREE ENERGY PREDICTED BY IDOCK:   -3.76 KCAL/MOL
REMARK 923 INTER-LIGAND FREE ENERGY PREDICTED BY IDOCK:   -4.27 KCAL/MOL
REMARK 924 INTRA-LIGAND FREE ENERGY PREDICTED BY IDOCK:    0.51 KCAL/MOL
REMARK 927      BINDING AFFINITY PREDICTED BY RF-SCORE:    0.00 PKD
ROOT
HETATM    1  N   UNL     1      -9.473   5.955  66.523  1.00  0.00    -0.152 NA 
HETATM    2  H1  UNL     1      -9.591   5.271  67.269  1.00  0.00     0.000 HD 
HETATM    3  H2  UNL     1      -9.078   5.695  65.619  1.00  0.00     0.000 HD 
HETATM    4  C   UNL     1      -9.869   7.237  66.788  1.00  0.00    -0.212 C  
HETATM    5  N   UNL     1      -9.720   8.106  65.840  1.00  0.00    -0.447 N  
HETATM    6  C   UNL     1     -10.095   9.414  66.049  1.00  0.00    -0.231 C  
HETATM    7  H   UNL     1      -9.325   7.822  64.943  1.00  0.00     0.000 HD 
HETATM    8  N   UNL     1     -10.527   9.787  67.324  1.00  0.00    -0.255 N  
HETATM    9  O   UNL     1     -10.045  10.231  65.131  1.00  0.00    -0.310 OA 
HETATM   10  C   UNL     1     -10.428   7.567  68.113  1.00  0.00    -0.233 C  
HETATM   11  C   UNL     1     -10.718   8.851  68.315  1.00  0.00    -0.082 C  
ENDROOT
BRANCH   8  12
HETATM   12  C   UNL     1     -10.935  11.167  67.516  1.00  0.00    -0.275 C  
HETATM   13  C   UNL     1      -9.762  12.121  67.671  1.00  0.00    -0.188 C  
HETATM   14  C   UNL     1     -10.391  13.446  67.324  1.00  0.00    -0.244 C  
HETATM   15  C   UNL     1     -11.487  13.086  66.324  1.00  0.00    -0.337 C  
HETATM   16  O   UNL     1     -11.676  11.656  66.382  1.00  0.00    -0.472 OA 
BRANCH  15  17
HETATM   17  C   UNL     1     -11.183  13.499  64.883  1.00  0.00    -0.342 C  
HETATM   18  O   UNL     1     -10.097  14.422  64.830  1.00  0.00    -0.489 OA 
HETATM   19  H   UNL     1      -9.908  14.679  63.935  1.00  0.00     0.000 HD 
ENDBRANCH  15  17
ENDBRANCH   8  12
TORSDOF 2
ENDMDL
MODEL      160
REMARK 921   NORMALIZED FREE ENERGY PREDICTED BY IDOCK:   -3.08 KCAL/MOL
REMARK 922        TOTAL FREE ENERGY PREDICTED BY IDOCK:   -3.76 KCAL/MOL
REMARK 923 INTER-LIGAND FREE ENERGY PREDICTED BY IDOCK:   -3.47 KCAL/MOL
REMARK 924 INTRA-LIGAND FREE ENERGY PREDICTED BY IDOCK:   -0.29 KCAL/MOL
REMARK 927      BINDING AFFINITY PREDICTED BY RF-SCORE:    0.00 PKD
ROOT
HETATM    1  N   UNL     1     -12.267   5.732  72.344  1.00  0.00    -0.366 NA 
HETATM    2  H1  UNL     1     -12.742   4.969  71.862  1.00  0.00     0.000 HD 
HETATM    3  H2  UNL     1     -12.399   5.898  73.341  1.00  0.00     0.000 HD 
HETATM    4  C   UNL     1     -11.443   6.523  71.590  1.00  0.00    -0.297 C  
HETATM    5  N   UNL     1     -10.840   7.492  72.201  1.00  0.00    -0.229 N  
HETATM    6  C   UNL     1     -10.001   8.325  71.495  1.00  0.00    -0.199 C  
HETATM    7  H   UNL     1     -10.985   7.636  73.200  1.00  0.00     0.000 HD 
HETATM    8  N   UNL     1      -9.914   8.164  70.110  1.00  0.00    -0.185 N  
HETATM    9  O   UNL     1      -9.350   9.192  72.076  1.00  0.00    -0.337 OA 
HETATM   10  C   UNL     1     -11.290   6.249  70.148  1.00  0.00    -0.476 C  
HETATM   11  C   UNL     1     -10.530   7.111  69.474  1.00  0.00    -0.225 C  
ENDROOT
BRANCH   8  12
HETATM   12  C   UNL     1      -9.011   9.042  69.389  1.00  0.00    -0.145 C  
HETATM   13  C   UNL     1      -8.305   8.355  68.232  1.00  0.00    -0.131 C  
HETATM   14  C   UNL     1      -7.890   9.527  67.380  1.00  0.00    -0.102 C  
HETATM   15  C   UNL     1      -8.969  10.574  67.640  1.00  0.00    -0.138 C  
HETATM   16  O   UNL     1      -9.718  10.150  68.800  1.00  0.00    -0.159 OA 
BRANCH  15  17
HETATM   17  C   UNL     1      -9.929  10.792  66.469  1.00  0.00    -0.213 C  
HETATM   18  O   UNL     1     -10.969  11.703  66.818  1.00  0.00    -0.264 OA 
HETATM   19  H   UNL     1     -11.564  11.839  66.091  1.00  0.00     0.000 HD 
ENDBRANCH  15  17
ENDBRANCH   8  12
TORSDOF 2
ENDMDL
MODEL      161
REMARK 921   NORMALIZED FREE ENERGY PREDICTED BY IDOCK:   -3.04 KCAL/MOL
REMARK 922        TOTAL FREE ENERGY PREDICTED BY IDOCK:   -3.72 KCAL/MOL
REMARK 923 INTER-LIGAND FREE ENERGY PREDICTED BY IDOCK:   -3.42 KCAL/MOL
REMARK 924 INTRA-LIGAND FREE ENERGY PREDICTED BY IDOCK:   -0.30 KCAL/MOL
REMARK 927      BINDING AFFINITY PREDICTED BY RF-SCORE:    0.00 PKD
ROOT
HETATM    1  N   UNL     1     -10.993   3.706  74.034  1.00  0.00    -0.190 NA 
HETATM    2  H1  UNL     1     -11.589   4.165  74.722  1.00  0.00     0.000 HD 
HETATM    3  H2  UNL     1     -10.589   2.786  74.207  1.00  0.00     0.000 HD 
HETATM    4  C   UNL     1     -10.760   4.381  72.867  1.00  0.00    -0.186 C  
HETATM    5  N   UNL     1     -10.004   3.798  71.993  1.00  0.00    -0.175 N  
HETATM    6  C   UNL     1      -9.728   4.429  70.800  1.00  0.00    -0.201 C  
HETATM    7  H   UNL     1      -9.613   2.875  72.187  1.00  0.00     0.000 HD 
HETATM    8  N   UNL     1     -10.189   5.735  70.617  1.00  0.00    -0.205 N  
HETATM    9  O   UNL     1      -9.088   3.852  69.922  1.00  0.00    -0.095 OA 
HETATM   10  C   UNL     1     -11.359   5.714  72.664  1.00  0.00    -0.356 C  
HETATM   11  C   UNL     1     -11.021   6.334  71.535  1.00  0.00    -0.271 C  
ENDROOT
BRANCH   8  12
HETATM   12  C   UNL     1      -9.902   6.374  69.345  1.00  0.00    -0.149 C  
HETATM   13  C   UNL     1     -11.120   6.486  68.444  1.00  0.00    -0.340 C  
HETATM   14  C   UNL     1     -10.712   7.591  67.504  1.00  0.00    -0.296 C  
HETATM   15  C   UNL     1      -9.789   8.470  68.344  1.00  0.00    -0.173 C  
HETATM   16  O   UNL     1      -9.441   7.725  69.532  1.00  0.00    -0.160 OA 
BRANCH  15  17
HETATM   17  C   UNL     1     -10.398   9.813  68.749  1.00  0.00    -0.208 C  
HETATM   18  O   UNL     1      -9.584  10.479  69.712  1.00  0.00    -0.418 OA 
HETATM   19  H   UNL     1      -9.962  11.313  69.963  1.00  0.00     0.000 HD 
ENDBRANCH  15  17
ENDBRANCH   8  12
TORSDOF 2
ENDMDL
MODEL      162
REMARK 921   NORMALIZED FREE ENERGY PREDICTED BY IDOCK:   -3.04 KCAL/MOL
REMARK 922        TOTAL FREE ENERGY PREDICTED BY IDOCK:   -3.72 KCAL/MOL
REMARK 923 INTER-LIGAND FREE ENERGY PREDICTED BY IDOCK:   -3.42 KCAL/MOL
REMARK 924 INTRA-LIGAND FREE ENERGY PREDICTED BY IDOCK:   -0.30 KCAL/MOL
REMARK 927      BINDING AFFINITY PREDICTED BY RF-SCORE:    0.00 PKD
ROOT
HETATM    1  N   UNL     1     -12.000   6.310  71.502  1.00  0.00    -0.260 NA 
HETATM    2  H1  UNL     1     -11.743   5.819  72.358  1.00  0.00     0.000 HD 
HETATM    3  H2  UNL     1     -12.780   6.966  71.476  1.00  0.00     0.000 HD 
HETATM    4  C   UNL     1     -11.247   6.050  70.389  1.00  0.00    -0.310 C  
HETATM    5  N   UNL     1     -11.572   6.674  69.302  1.00  0.00    -0.646 N  
HETATM    6  C   UNL     1     -10.855   6.450  68.147  1.00  0.00    -0.308 C  
HETATM    7  H   UNL     1     -12.355   7.328  69.301  1.00  0.00     0.000 HD 
HETATM    8  N   UNL     1      -9.863   5.467  68.160  1.00  0.00    -0.135 N  
HETATM    9  O   UNL     1     -11.092   7.101  67.131  1.00  0.00    -0.326 OA 
HETATM   10  C   UNL     1     -10.132   5.087  70.472  1.00  0.00    -0.323 C  
HETATM   11  C   UNL     1      -9.500   4.835  69.328  1.00  0.00    -0.153 C  
ENDROOT
BRANCH   8  12
HETATM   12  C   UNL     1      -9.109   5.260  66.937  1.00  0.00    -0.113 C  
HETATM   13  C   UNL     1      -7.770   4.579  67.168  1.00  0.00    -0.090 C  
HETATM   14  C   UNL     1      -7.463   4.024  65.801  1.00  0.00    -0.081 C  
HETATM   15  C   UNL     1      -8.837   3.740  65.200  1.00  0.00    -0.123 C  
HETATM   16  O   UNL     1      -9.819   4.405  66.023  1.00  0.00    -0.190 OA 
BRANCH  15  17
HETATM   17  C   UNL     1      -9.183   2.253  65.099  1.00  0.00    -0.099 C  
HETATM   18  O   UNL     1      -9.710   1.762  66.330  1.00  0.00    -0.262 OA 
HETATM   19  H   UNL     1      -9.925   0.839  66.267  1.00  0.00     0.000 HD 
ENDBRANCH  15  17
ENDBRANCH   8  12
TORSDOF 2
ENDMDL
MODEL      163
REMARK 921   NORMALIZED FREE ENERGY PREDICTED BY IDOCK:   -3.03 KCAL/MOL
REMARK 922        TOTAL FREE ENERGY PREDICTED BY IDOCK:   -3.71 KCAL/MOL
REMARK 923 INTER-LIGAND FREE ENERGY PREDICTED BY IDOCK:   -3.34 KCAL/MOL
REMARK 924 INTRA-LIGAND FREE ENERGY PREDICTED BY IDOCK:   -0.37 KCAL/MOL
REMARK 927      BINDING AFFINITY PREDICTED BY RF-SCORE:    0.00 PKD
ROOT
HETATM    1  N   UNL     1      -6.199   6.911  70.363  1.00  0.00    -0.027 NA 
HETATM    2  H1  UNL     1      -5.380   7.485  70.560  1.00  0.00     0.000 HD 
HETATM    3  H2  UNL     1      -6.128   5.901  70.247  1.00  0.00     0.000 HD 
HETATM    4  C   UNL     1      -7.400   7.559  70.264  1.00  0.00    -0.076 C  
HETATM    5  N   UNL     1      -8.441   6.831  70.014  1.00  0.00    -0.138 N  
HETATM    6  C   UNL     1      -9.677   7.426  69.897  1.00  0.00    -0.171 C  
HETATM    7  H   UNL     1      -8.346   5.821  69.905  1.00  0.00     0.000 HD 
HETATM    8  N   UNL     1      -9.752   8.820  69.943  1.00  0.00    -0.174 N  
HETATM    9  O   UNL     1     -10.688   6.741  69.752  1.00  0.00    -0.220 OA 
HETATM   10  C   UNL     1      -7.454   9.024  70.431  1.00  0.00    -0.089 C  
HETATM   11  C   UNL     1      -8.647   9.585  70.244  1.00  0.00    -0.226 C  
ENDROOT
BRANCH   8  12
HETATM   12  C   UNL     1     -11.067   9.425  69.835  1.00  0.00    -0.200 C  
HETATM   13  C   UNL     1     -11.417  10.309  71.020  1.00  0.00    -0.386 C  
HETATM   14  C   UNL     1     -12.504  11.183  70.447  1.00  0.00    -0.382 C  
HETATM   15  C   UNL     1     -12.148  11.291  68.966  1.00  0.00    -0.257 C  
HETATM   16  O   UNL     1     -11.155  10.282  68.681  1.00  0.00    -0.243 OA 
BRANCH  15  17
HETATM   17  C   UNL     1     -11.613  12.661  68.547  1.00  0.00    -0.323 C  
HETATM   18  O   UNL     1     -10.260  12.835  68.963  1.00  0.00    -0.428 OA 
HETATM   19  H   UNL     1      -9.928  13.686  68.703  1.00  0.00     0.000 HD 
ENDBRANCH  15  17
ENDBRANCH   8  12
TORSDOF 2
ENDMDL
MODEL      164
REMARK 921   NORMALIZED FREE ENERGY PREDICTED BY IDOCK:   -3.03 KCAL/MOL
REMARK 922        TOTAL FREE ENERGY PREDICTED BY IDOCK:   -3.70 KCAL/MOL
REMARK 923 INTER-LIGAND FREE ENERGY PREDICTED BY IDOCK:   -3.50 KCAL/MOL
REMARK 924 INTRA-LIGAND FREE ENERGY PREDICTED BY IDOCK:   -0.21 KCAL/MOL
REMARK 927      BINDING AFFINITY PREDICTED BY RF-SCORE:    0.00 PKD
ROOT
HETATM    1  N   UNL     1      -9.584  11.341  66.516  1.00  0.00    -0.187 NA 
HETATM    2  H1  UNL     1     -10.125  11.859  65.824  1.00  0.00     0.000 HD 
HETATM    3  H2  UNL     1      -8.633  11.027  66.323  1.00  0.00     0.000 HD 
HETATM    4  C   UNL     1     -10.191  11.088  67.715  1.00  0.00    -0.183 C  
HETATM    5  N   UNL     1      -9.504  10.431  68.594  1.00  0.00    -0.159 N  
HETATM    6  C   UNL     1     -10.063  10.142  69.819  1.00  0.00    -0.231 C  
HETATM    7  H   UNL     1      -8.553  10.130  68.380  1.00  0.00     0.000 HD 
HETATM    8  N   UNL     1     -11.402  10.473  70.034  1.00  0.00    -0.295 N  
HETATM    9  O   UNL     1      -9.393   9.600  70.697  1.00  0.00    -0.239 OA 
HETATM   10  C   UNL     1     -11.571  11.556  67.946  1.00  0.00    -0.352 C  
HETATM   11  C   UNL     1     -12.115  11.202  69.109  1.00  0.00    -0.283 C  
ENDROOT
BRANCH   8  12
HETATM   12  C   UNL     1     -11.965  10.175  71.338  1.00  0.00    -0.358 C  
HETATM   13  C   UNL     1     -13.271  10.903  71.607  1.00  0.00    -0.471 C  
HETATM   14  C   UNL     1     -13.879  10.061  72.700  1.00  0.00     0.281 C  
HETATM   15  C   UNL     1     -13.356   8.655  72.418  1.00  0.00    -0.343 C  
HETATM   16  O   UNL     1     -12.277   8.775  71.465  1.00  0.00    -0.301 OA 
BRANCH  15  17
HETATM   17  C   UNL     1     -14.410   7.691  71.872  1.00  0.00    -0.404 C  
HETATM   18  O   UNL     1     -13.805   6.622  71.147  1.00  0.00     0.030 OA 
HETATM   19  H   UNL     1     -14.460   6.023  70.808  1.00  0.00     0.000 HD 
ENDBRANCH  15  17
ENDBRANCH   8  12
TORSDOF 2
ENDMDL
MODEL      165
REMARK 921   NORMALIZED FREE ENERGY PREDICTED BY IDOCK:   -3.03 KCAL/MOL
REMARK 922        TOTAL FREE ENERGY PREDICTED BY IDOCK:   -3.70 KCAL/MOL
REMARK 923 INTER-LIGAND FREE ENERGY PREDICTED BY IDOCK:   -3.82 KCAL/MOL
REMARK 924 INTRA-LIGAND FREE ENERGY PREDICTED BY IDOCK:    0.12 KCAL/MOL
REMARK 927      BINDING AFFINITY PREDICTED BY RF-SCORE:    0.00 PKD
ROOT
HETATM    1  N   UNL     1     -12.184  11.237  68.279  1.00  0.00    -0.635 NA 
HETATM    2  H1  UNL     1     -12.529  12.085  68.727  1.00  0.00     0.000 HD 
HETATM    3  H2  UNL     1     -12.293  11.080  67.278  1.00  0.00     0.000 HD 
HETATM    4  C   UNL     1     -11.566  10.319  69.083  1.00  0.00    -0.099 C  
HETATM    5  N   UNL     1     -11.127   9.242  68.514  1.00  0.00    -0.464 N  
HETATM    6  C   UNL     1     -10.500   8.277  69.272  1.00  0.00    -0.210 C  
HETATM    7  H   UNL     1     -11.245   9.108  67.510  1.00  0.00     0.000 HD 
HETATM    8  N   UNL     1     -10.456   8.445  70.658  1.00  0.00    -0.197 N  
HETATM    9  O   UNL     1      -9.997   7.292  68.735  1.00  0.00    -0.158 OA 
HETATM   10  C   UNL     1     -11.438  10.585  70.529  1.00  0.00    -0.433 C  
HETATM   11  C   UNL     1     -10.892   9.608  71.251  1.00  0.00    -0.296 C  
ENDROOT
BRANCH   8  12
HETATM   12  C   UNL     1      -9.775   7.425  71.435  1.00  0.00    -0.167 C  
HETATM   13  C   UNL     1      -8.287   7.343  71.139  1.00  0.00    -0.114 C  
HETATM   14  C   UNL     1      -7.763   6.653  72.373  1.00  0.00    -0.095 C  
HETATM   15  C   UNL     1      -8.717   7.095  73.479  1.00  0.00    -0.145 C  
HETATM   16  O   UNL     1      -9.869   7.693  72.846  1.00  0.00    -0.195 OA 
BRANCH  15  17
HETATM   17  C   UNL     1      -8.111   8.089  74.471  1.00  0.00    -0.225 C  
HETATM   18  O   UNL     1      -7.167   8.945  73.831  1.00  0.00    -0.389 OA 
HETATM   19  H   UNL     1      -6.790   9.563  74.447  1.00  0.00     0.000 HD 
ENDBRANCH  15  17
ENDBRANCH   8  12
TORSDOF 2
ENDMDL
MODEL      166
REMARK 921   NORMALIZED FREE ENERGY PREDICTED BY IDOCK:   -3.00 KCAL/MOL
REMARK 922        TOTAL FREE ENERGY PREDICTED BY IDOCK:   -3.68 KCAL/MOL
REMARK 923 INTER-LIGAND FREE ENERGY PREDICTED BY IDOCK:   -3.46 KCAL/MOL
REMARK 924 INTRA-LIGAND FREE ENERGY PREDICTED BY IDOCK:   -0.21 KCAL/MOL
REMARK 927      BINDING AFFINITY PREDICTED BY RF-SCORE:    0.00 PKD
ROOT
HETATM    1  N   UNL     1     -11.161   4.546  65.424  1.00  0.00    -0.953 NA 
HETATM    2  H1  UNL     1     -12.101   4.848  65.168  1.00  0.00     0.000 HD 
HETATM    3  H2  UNL     1     -10.701   3.771  64.946  1.00  0.00     0.000 HD 
HETATM    4  C   UNL     1     -10.545   5.227  66.437  1.00  0.00    -0.276 C  
HETATM    5  N   UNL     1      -9.352   4.844  66.762  1.00  0.00    -0.131 N  
HETATM    6  C   UNL     1      -8.682   5.488  67.779  1.00  0.00    -0.106 C  
HETATM    7  H   UNL     1      -8.910   4.069  66.267  1.00  0.00     0.000 HD 
HETATM    8  N   UNL     1      -9.360   6.469  68.505  1.00  0.00    -0.125 N  
HETATM    9  O   UNL     1      -7.516   5.197  68.038  1.00  0.00    -0.074 OA 
HETATM   10  C   UNL     1     -11.253   6.336  67.105  1.00  0.00    -0.260 C  
HETATM   11  C   UNL     1     -10.614   6.896  68.131  1.00  0.00    -0.216 C  
ENDROOT
BRANCH   8  12
HETATM   12  C   UNL     1      -8.629   7.147  69.560  1.00  0.00    -0.134 C  
HETATM   13  C   UNL     1      -9.269   8.458  69.984  1.00  0.00    -0.158 C  
HETATM   14  C   UNL     1      -8.677   8.664  71.355  1.00  0.00    -0.262 C  
HETATM   15  C   UNL     1      -8.448   7.248  71.876  1.00  0.00    -0.107 C  
HETATM   16  O   UNL     1      -8.573   6.346  70.755  1.00  0.00    -0.133 OA 
BRANCH  15  17
HETATM   17  C   UNL     1      -9.415   6.820  72.981  1.00  0.00    -0.140 C  
HETATM   18  O   UNL     1      -9.440   7.774  74.041  1.00  0.00    -0.388 OA 
HETATM   19  H   UNL     1     -10.041   7.508  74.727  1.00  0.00     0.000 HD 
ENDBRANCH  15  17
ENDBRANCH   8  12
TORSDOF 2
ENDMDL
MODEL      167
REMARK 921   NORMALIZED FREE ENERGY PREDICTED BY IDOCK:   -3.00 KCAL/MOL
REMARK 922        TOTAL FREE ENERGY PREDICTED BY IDOCK:   -3.67 KCAL/MOL
REMARK 923 INTER-LIGAND FREE ENERGY PREDICTED BY IDOCK:   -3.49 KCAL/MOL
REMARK 924 INTRA-LIGAND FREE ENERGY PREDICTED BY IDOCK:   -0.18 KCAL/MOL
REMARK 927      BINDING AFFINITY PREDICTED BY RF-SCORE:    0.00 PKD
ROOT
HETATM    1  N   UNL     1      -8.950   4.937  64.512  1.00  0.00    -0.256 NA 
HETATM    2  H1  UNL     1      -8.922   3.918  64.474  1.00  0.00     0.000 HD 
HETATM    3  H2  UNL     1      -8.633   5.509  63.730  1.00  0.00     0.000 HD 
HETATM    4  C   UNL     1      -9.433   5.501  65.661  1.00  0.00     0.002 C  
HETATM    5  N   UNL     1      -9.469   6.795  65.710  1.00  0.00    -0.375 N  
HETATM    6  C   UNL     1      -9.941   7.422  66.842  1.00  0.00    -0.236 C  
HETATM    7  H   UNL     1      -9.150   7.346  64.913  1.00  0.00     0.000 HD 
HETATM    8  N   UNL     1     -10.264   6.637  67.951  1.00  0.00    -0.157 N  
HETATM    9  O   UNL     1     -10.067   8.645  66.870  1.00  0.00    -0.232 OA 
HETATM   10  C   UNL     1      -9.872   4.633  66.771  1.00  0.00    -0.237 C  
HETATM   11  C   UNL     1     -10.257   5.262  67.880  1.00  0.00    -0.145 C  
ENDROOT
BRANCH   8  12
HETATM   12  C   UNL     1     -10.776   7.318  69.127  1.00  0.00    -0.185 C  
HETATM   13  C   UNL     1     -11.444   6.379  70.117  1.00  0.00    -0.484 C  
HETATM   14  C   UNL     1     -11.392   7.183  71.391  1.00  0.00    -0.288 C  
HETATM   15  C   UNL     1     -10.131   8.029  71.244  1.00  0.00    -0.185 C  
HETATM   16  O   UNL     1      -9.716   7.957  69.863  1.00  0.00    -0.175 OA 
BRANCH  15  17
HETATM   17  C   UNL     1      -8.973   7.593  72.144  1.00  0.00    -0.133 C  
HETATM   18  O   UNL     1      -8.454   8.694  72.887  1.00  0.00    -0.403 OA 
HETATM   19  H   UNL     1      -7.736   8.423  73.446  1.00  0.00     0.000 HD 
ENDBRANCH  15  17
ENDBRANCH   8  12
TORSDOF 2
ENDMDL
MODEL      168
REMARK 921   NORMALIZED FREE ENERGY PREDICTED BY IDOCK:   -2.99 KCAL/MOL
REMARK 922        TOTAL FREE ENERGY PREDICTED BY IDOCK:   -3.67 KCAL/MOL
REMARK 923 INTER-LIGAND FREE ENERGY PREDICTED BY IDOCK:   -4.15 KCAL/MOL
REMARK 924 INTRA-LIGAND FREE ENERGY PREDICTED BY IDOCK:    0.48 KCAL/MOL
REMARK 927      BINDING AFFINITY PREDICTED BY RF-SCORE:    0.00 PKD
ROOT
HETATM    1  N   UNL     1     -10.939   4.338  73.793  1.00  0.00    -0.270 NA 
HETATM    2  H1  UNL     1     -11.554   4.736  74.503  1.00  0.00     0.000 HD 
HETATM    3  H2  UNL     1     -10.376   3.509  73.980  1.00  0.00     0.000 HD 
HETATM    4  C   UNL     1     -10.907   4.966  72.578  1.00  0.00    -0.170 C  
HETATM    5  N   UNL     1     -10.127   4.461  71.677  1.00  0.00    -0.182 N  
HETATM    6  C   UNL     1     -10.047   5.052  70.436  1.00  0.00    -0.260 C  
HETATM    7  H   UNL     1      -9.575   3.629  71.885  1.00  0.00     0.000 HD 
HETATM    8  N   UNL     1     -10.732   6.251  70.224  1.00  0.00    -0.255 N  
HETATM    9  O   UNL     1      -9.383   4.533  69.540  1.00  0.00    -0.122 OA 
HETATM   10  C   UNL     1     -11.734   6.168  72.358  1.00  0.00    -0.319 C  
HETATM   11  C   UNL     1     -11.586   6.762  71.175  1.00  0.00    -0.329 C  
ENDROOT
BRANCH   8  12
HETATM   12  C   UNL     1     -10.647   6.847  68.903  1.00  0.00    -0.221 C  
HETATM   13  C   UNL     1      -9.218   7.050  68.429  1.00  0.00    -0.129 C  
HETATM   14  C   UNL     1      -9.397   7.153  66.936  1.00  0.00    -0.189 C  
HETATM   15  C   UNL     1     -10.616   6.281  66.648  1.00  0.00    -0.198 C  
HETATM   16  O   UNL     1     -11.262   6.005  67.910  1.00  0.00    -0.245 OA 
BRANCH  15  17
HETATM   17  C   UNL     1     -10.293   4.961  65.946  1.00  0.00    -0.236 C  
HETATM   18  O   UNL     1     -11.340   4.581  65.055  1.00  0.00    -1.027 OA 
HETATM   19  H   UNL     1     -11.139   3.762  64.619  1.00  0.00     0.000 HD 
ENDBRANCH  15  17
ENDBRANCH   8  12
TORSDOF 2
ENDMDL
MODEL      169
REMARK 921   NORMALIZED FREE ENERGY PREDICTED BY IDOCK:   -2.98 KCAL/MOL
REMARK 922        TOTAL FREE ENERGY PREDICTED BY IDOCK:   -3.65 KCAL/MOL
REMARK 923 INTER-LIGAND FREE ENERGY PREDICTED BY IDOCK:   -3.34 KCAL/MOL
REMARK 924 INTRA-LIGAND FREE ENERGY PREDICTED BY IDOCK:   -0.31 KCAL/MOL
REMARK 927      BINDING AFFINITY PREDICTED BY RF-SCORE:    0.00 PKD
ROOT
HETATM    1  N   UNL     1      -8.836   8.723  67.967  1.00  0.00    -0.140 NA 
HETATM    2  H1  UNL     1      -9.700   8.183  68.010  1.00  0.00     0.000 HD 
HETATM    3  H2  UNL     1      -7.930   8.297  68.165  1.00  0.00     0.000 HD 
HETATM    4  C   UNL     1      -8.947  10.044  67.630  1.00  0.00    -0.131 C  
HETATM    5  N   UNL     1      -7.851  10.730  67.575  1.00  0.00    -0.108 N  
HETATM    6  C   UNL     1      -7.898  12.066  67.247  1.00  0.00    -0.170 C  
HETATM    7  H   UNL     1      -6.956  10.282  67.773  1.00  0.00     0.000 HD 
HETATM    8  N   UNL     1      -9.148  12.669  67.091  1.00  0.00    -0.202 N  
HETATM    9  O   UNL     1      -6.860  12.710  67.100  1.00  0.00    -0.132 OA 
HETATM   10  C   UNL     1     -10.280  10.618  67.361  1.00  0.00    -0.243 C  
HETATM   11  C   UNL     1     -10.307  11.926  67.116  1.00  0.00    -0.210 C  
ENDROOT
BRANCH   8  12
HETATM   12  C   UNL     1      -9.174  14.074  66.727  1.00  0.00    -0.265 C  
HETATM   13  C   UNL     1     -10.328  14.433  65.806  1.00  0.00    -0.340 C  
HETATM   14  C   UNL     1     -10.442  15.921  66.015  1.00  0.00    -0.357 C  
HETATM   15  C   UNL     1      -9.982  16.129  67.456  1.00  0.00    -0.243 C  
HETATM   16  O   UNL     1      -9.338  14.911  67.888  1.00  0.00    -0.187 OA 
BRANCH  15  17
HETATM   17  C   UNL     1     -11.108  16.481  68.430  1.00  0.00    -0.333 C  
HETATM   18  O   UNL     1     -10.865  15.924  69.720  1.00  0.00    -0.271 OA 
HETATM   19  H   UNL     1     -11.564  16.142  70.325  1.00  0.00     0.000 HD 
ENDBRANCH  15  17
ENDBRANCH   8  12
TORSDOF 2
ENDMDL
MODEL      170
REMARK 921   NORMALIZED FREE ENERGY PREDICTED BY IDOCK:   -2.98 KCAL/MOL
REMARK 922        TOTAL FREE ENERGY PREDICTED BY IDOCK:   -3.65 KCAL/MOL
REMARK 923 INTER-LIGAND FREE ENERGY PREDICTED BY IDOCK:   -3.33 KCAL/MOL
REMARK 924 INTRA-LIGAND FREE ENERGY PREDICTED BY IDOCK:   -0.32 KCAL/MOL
REMARK 927      BINDING AFFINITY PREDICTED BY RF-SCORE:    0.00 PKD
ROOT
HETATM    1  N   UNL     1      -9.881  11.366  65.749  1.00  0.00    -0.223 NA 
HETATM    2  H1  UNL     1      -9.390  12.229  65.982  1.00  0.00     0.000 HD 
HETATM    3  H2  UNL     1     -10.369  11.253  64.861  1.00  0.00     0.000 HD 
HETATM    4  C   UNL     1      -9.853  10.366  66.682  1.00  0.00    -0.202 C  
HETATM    5  N   UNL     1     -10.475   9.270  66.386  1.00  0.00    -0.158 N  
HETATM    6  C   UNL     1     -10.488   8.228  67.287  1.00  0.00    -0.303 C  
HETATM    7  H   UNL     1     -10.954   9.178  65.490  1.00  0.00     0.000 HD 
HETATM    8  N   UNL     1      -9.917   8.430  68.546  1.00  0.00    -0.182 N  
HETATM    9  O   UNL     1     -10.995   7.149  66.986  1.00  0.00    -0.369 OA 
HETATM   10  C   UNL     1      -9.140  10.578  67.957  1.00  0.00    -0.138 C  
HETATM   11  C   UNL     1      -9.226   9.584  68.839  1.00  0.00    -0.145 C  
ENDROOT
BRANCH   8  12
HETATM   12  C   UNL     1      -9.925   7.313  69.473  1.00  0.00    -0.170 C  
HETATM   13  C   UNL     1      -8.733   7.308  70.414  1.00  0.00    -0.146 C  
HETATM   14  C   UNL     1      -9.230   6.441  71.542  1.00  0.00    -0.145 C  
HETATM   15  C   UNL     1     -10.737   6.683  71.558  1.00  0.00    -0.230 C  
HETATM   16  O   UNL     1     -11.084   7.351  70.326  1.00  0.00    -0.259 OA 
BRANCH  15  17
HETATM   17  C   UNL     1     -11.226   7.518  72.743  1.00  0.00    -0.352 C  
HETATM   18  O   UNL     1     -10.163   7.796  73.652  1.00  0.00    -0.309 OA 
HETATM   19  H   UNL     1     -10.467   8.315  74.387  1.00  0.00     0.000 HD 
ENDBRANCH  15  17
ENDBRANCH   8  12
TORSDOF 2
ENDMDL
MODEL      171
REMARK 921   NORMALIZED FREE ENERGY PREDICTED BY IDOCK:   -2.92 KCAL/MOL
REMARK 922        TOTAL FREE ENERGY PREDICTED BY IDOCK:   -3.58 KCAL/MOL
REMARK 923 INTER-LIGAND FREE ENERGY PREDICTED BY IDOCK:   -3.24 KCAL/MOL
REMARK 924 INTRA-LIGAND FREE ENERGY PREDICTED BY IDOCK:   -0.35 KCAL/MOL
REMARK 927      BINDING AFFINITY PREDICTED BY RF-SCORE:    0.00 PKD
ROOT
HETATM    1  N   UNL     1      -6.858   8.728  69.853  1.00  0.00    -0.041 NA 
HETATM    2  H1  UNL     1      -7.244   8.128  70.582  1.00  0.00     0.000 HD 
HETATM    3  H2  UNL     1      -5.886   8.648  69.555  1.00  0.00     0.000 HD 
HETATM    4  C   UNL     1      -7.704   9.645  69.293  1.00  0.00    -0.095 C  
HETATM    5  N   UNL     1      -7.215  10.407  68.368  1.00  0.00    -0.078 N  
HETATM    6  C   UNL     1      -8.016  11.354  67.770  1.00  0.00    -0.119 C  
HETATM    7  H   UNL     1      -6.240  10.307  68.084  1.00  0.00     0.000 HD 
HETATM    8  N   UNL     1      -9.310  11.537  68.262  1.00  0.00    -0.185 N  
HETATM    9  O   UNL     1      -7.594  12.023  66.828  1.00  0.00    -0.102 OA 
HETATM   10  C   UNL     1      -9.100   9.731  69.763  1.00  0.00    -0.246 C  
HETATM   11  C   UNL     1      -9.835  10.700  69.220  1.00  0.00    -0.180 C  
ENDROOT
BRANCH   8  12
HETATM   12  C   UNL     1     -10.143  12.528  67.604  1.00  0.00    -0.217 C  
HETATM   13  C   UNL     1     -11.619  12.166  67.606  1.00  0.00    -0.413 C  
HETATM   14  C   UNL     1     -12.269  13.507  67.381  1.00  0.00    -0.278 C  
HETATM   15  C   UNL     1     -11.304  14.499  68.023  1.00  0.00    -0.306 C  
HETATM   16  O   UNL     1     -10.063  13.802  68.270  1.00  0.00    -0.227 OA 
BRANCH  15  17
HETATM   17  C   UNL     1     -11.810  15.111  69.330  1.00  0.00    -0.330 C  
HETATM   18  O   UNL     1     -11.650  14.205  70.420  1.00  0.00    -0.420 OA 
HETATM   19  H   UNL     1     -11.965  14.585  71.231  1.00  0.00     0.000 HD 
ENDBRANCH  15  17
ENDBRANCH   8  12
TORSDOF 2
ENDMDL
MODEL      172
REMARK 921   NORMALIZED FREE ENERGY PREDICTED BY IDOCK:   -2.90 KCAL/MOL
REMARK 922        TOTAL FREE ENERGY PREDICTED BY IDOCK:   -3.56 KCAL/MOL
REMARK 923 INTER-LIGAND FREE ENERGY PREDICTED BY IDOCK:   -3.50 KCAL/MOL
REMARK 924 INTRA-LIGAND FREE ENERGY PREDICTED BY IDOCK:   -0.06 KCAL/MOL
REMARK 927      BINDING AFFINITY PREDICTED BY RF-SCORE:    0.00 PKD
ROOT
HETATM    1  N   UNL     1     -11.477  12.003  69.711  1.00  0.00    -0.476 NA 
HETATM    2  H1  UNL     1     -12.463  12.220  69.852  1.00  0.00     0.000 HD 
HETATM    3  H2  UNL     1     -10.838  12.676  69.288  1.00  0.00     0.000 HD 
HETATM    4  C   UNL     1     -11.050  10.767  70.114  1.00  0.00    -0.223 C  
HETATM    5  N   UNL     1      -9.798  10.492  69.935  1.00  0.00    -0.413 N  
HETATM    6  C   UNL     1      -9.309   9.262  70.316  1.00  0.00    -0.239 C  
HETATM    7  H   UNL     1      -9.177  11.182  69.513  1.00  0.00     0.000 HD 
HETATM    8  N   UNL     1     -10.210   8.305  70.787  1.00  0.00    -0.190 N  
HETATM    9  O   UNL     1      -8.106   9.018  70.238  1.00  0.00    -0.105 OA 
HETATM   10  C   UNL     1     -12.013   9.823  70.713  1.00  0.00    -0.382 C  
HETATM   11  C   UNL     1     -11.533   8.617  71.008  1.00  0.00    -0.278 C  
ENDROOT
BRANCH   8  12
HETATM   12  C   UNL     1      -9.670   7.022  71.199  1.00  0.00    -0.172 C  
HETATM   13  C   UNL     1     -10.715   6.101  71.807  1.00  0.00    -0.289 C  
HETATM   14  C   UNL     1     -10.068   4.749  71.649  1.00  0.00    -0.264 C  
HETATM   15  C   UNL     1      -9.219   4.890  70.389  1.00  0.00    -0.134 C  
HETATM   16  O   UNL     1      -9.130   6.297  70.078  1.00  0.00    -0.146 OA 
BRANCH  15  17
HETATM   17  C   UNL     1      -9.767   4.137  69.175  1.00  0.00    -0.135 C  
HETATM   18  O   UNL     1      -9.759   2.728  69.396  1.00  0.00    -0.055 OA 
HETATM   19  H   UNL     1     -10.100   2.261  68.642  1.00  0.00     0.000 HD 
ENDBRANCH  15  17
ENDBRANCH   8  12
TORSDOF 2
ENDMDL
MODEL      173
REMARK 921   NORMALIZED FREE ENERGY PREDICTED BY IDOCK:   -2.89 KCAL/MOL
REMARK 922        TOTAL FREE ENERGY PREDICTED BY IDOCK:   -3.55 KCAL/MOL
REMARK 923 INTER-LIGAND FREE ENERGY PREDICTED BY IDOCK:   -3.26 KCAL/MOL
REMARK 924 INTRA-LIGAND FREE ENERGY PREDICTED BY IDOCK:   -0.29 KCAL/MOL
REMARK 927      BINDING AFFINITY PREDICTED BY RF-SCORE:    0.00 PKD
ROOT
HETATM    1  N   UNL     1      -9.333  11.393  63.383  1.00  0.00    -0.461 NA 
HETATM    2  H1  UNL     1     -10.124  11.076  62.823  1.00  0.00     0.000 HD 
HETATM    3  H2  UNL     1      -8.592  11.968  62.983  1.00  0.00     0.000 HD 
HETATM    4  C   UNL     1      -9.313  11.014  64.697  1.00  0.00    -0.205 C  
HETATM    5  N   UNL     1      -8.310  11.418  65.410  1.00  0.00    -0.360 N  
HETATM    6  C   UNL     1      -8.231  11.064  66.738  1.00  0.00    -0.149 C  
HETATM    7  H   UNL     1      -7.582  11.995  64.988  1.00  0.00     0.000 HD 
HETATM    8  N   UNL     1      -9.187  10.183  67.250  1.00  0.00    -0.138 N  
HETATM    9  O   UNL     1      -7.335  11.513  67.451  1.00  0.00    -0.107 OA 
HETATM   10  C   UNL     1     -10.404  10.175  65.230  1.00  0.00    -0.154 C  
HETATM   11  C   UNL     1     -10.269   9.787  66.497  1.00  0.00    -0.219 C  
ENDROOT
BRANCH   8  12
HETATM   12  C   UNL     1      -9.094   9.838  68.657  1.00  0.00    -0.130 C  
HETATM   13  C   UNL     1     -10.274  10.337  69.474  1.00  0.00    -0.261 C  
HETATM   14  C   UNL     1     -10.215   9.442  70.685  1.00  0.00    -0.353 C  
HETATM   15  C   UNL     1      -9.623   8.140  70.155  1.00  0.00    -0.168 C  
HETATM   16  O   UNL     1      -9.077   8.411  68.845  1.00  0.00    -0.146 OA 
BRANCH  15  17
HETATM   17  C   UNL     1     -10.624   6.987  70.058  1.00  0.00    -0.230 C  
HETATM   18  O   UNL     1      -9.962   5.725  70.103  1.00  0.00    -0.177 OA 
HETATM   19  H   UNL     1     -10.584   5.009  70.043  1.00  0.00     0.000 HD 
ENDBRANCH  15  17
ENDBRANCH   8  12
TORSDOF 2
ENDMDL
MODEL      174
REMARK 921   NORMALIZED FREE ENERGY PREDICTED BY IDOCK:   -2.88 KCAL/MOL
REMARK 922        TOTAL FREE ENERGY PREDICTED BY IDOCK:   -3.54 KCAL/MOL
REMARK 923 INTER-LIGAND FREE ENERGY PREDICTED BY IDOCK:   -3.26 KCAL/MOL
REMARK 924 INTRA-LIGAND FREE ENERGY PREDICTED BY IDOCK:   -0.28 KCAL/MOL
REMARK 927      BINDING AFFINITY PREDICTED BY RF-SCORE:    0.00 PKD
ROOT
HETATM    1  N   UNL     1      -7.080   6.615  66.534  1.00  0.00    -0.066 NA 
HETATM    2  H1  UNL     1      -7.220   7.341  65.833  1.00  0.00     0.000 HD 
HETATM    3  H2  UNL     1      -6.408   5.860  66.393  1.00  0.00     0.000 HD 
HETATM    4  C   UNL     1      -7.833   6.699  67.673  1.00  0.00    -0.111 C  
HETATM    5  N   UNL     1      -7.655   5.776  68.564  1.00  0.00    -0.088 N  
HETATM    6  C   UNL     1      -8.388   5.803  69.729  1.00  0.00    -0.112 C  
HETATM    7  H   UNL     1      -6.975   5.033  68.403  1.00  0.00     0.000 HD 
HETATM    8  N   UNL     1      -9.386   6.771  69.865  1.00  0.00    -0.157 N  
HETATM    9  O   UNL     1      -8.166   4.989  70.624  1.00  0.00    -0.097 OA 
HETATM   10  C   UNL     1      -8.799   7.803  67.828  1.00  0.00    -0.126 C  
HETATM   11  C   UNL     1      -9.545   7.769  68.930  1.00  0.00    -0.154 C  
ENDROOT
BRANCH   8  12
HETATM   12  C   UNL     1     -10.134   6.792  71.109  1.00  0.00    -0.181 C  
HETATM   13  C   UNL     1     -10.262   8.183  71.706  1.00  0.00    -0.275 C  
HETATM   14  C   UNL     1     -11.454   8.023  72.615  1.00  0.00    -0.465 C  
HETATM   15  C   UNL     1     -12.304   6.958  71.927  1.00  0.00    -0.325 C  
HETATM   16  O   UNL     1     -11.485   6.334  70.914  1.00  0.00    -0.327 OA 
BRANCH  15  17
HETATM   17  C   UNL     1     -13.584   7.495  71.285  1.00  0.00    -0.247 C  
HETATM   18  O   UNL     1     -13.421   8.846  70.861  1.00  0.00    -0.529 OA 
HETATM   19  H   UNL     1     -14.216   9.179  70.461  1.00  0.00     0.000 HD 
ENDBRANCH  15  17
ENDBRANCH   8  12
TORSDOF 2
ENDMDL
MODEL      175
REMARK 921   NORMALIZED FREE ENERGY PREDICTED BY IDOCK:   -2.86 KCAL/MOL
REMARK 922        TOTAL FREE ENERGY PREDICTED BY IDOCK:   -3.52 KCAL/MOL
REMARK 923 INTER-LIGAND FREE ENERGY PREDICTED BY IDOCK:   -3.94 KCAL/MOL
REMARK 924 INTRA-LIGAND FREE ENERGY PREDICTED BY IDOCK:    0.42 KCAL/MOL
REMARK 927      BINDING AFFINITY PREDICTED BY RF-SCORE:    0.00 PKD
ROOT
HETATM    1  N   UNL     1     -12.468  10.682  69.508  1.00  0.00    -0.638 NA 
HETATM    2  H1  UNL     1     -13.102  11.429  69.789  1.00  0.00     0.000 HD 
HETATM    3  H2  UNL     1     -12.108  10.617  68.556  1.00  0.00     0.000 HD 
HETATM    4  C   UNL     1     -12.122   9.769  70.467  1.00  0.00    -0.168 C  
HETATM    5  N   UNL     1     -11.316   8.820  70.111  1.00  0.00    -0.430 N  
HETATM    6  C   UNL     1     -10.935   7.868  71.030  1.00  0.00    -0.244 C  
HETATM    7  H   UNL     1     -10.966   8.778  69.154  1.00  0.00     0.000 HD 
HETATM    8  N   UNL     1     -11.522   7.895  72.297  1.00  0.00    -0.322 N  
HETATM    9  O   UNL     1     -10.101   7.015  70.734  1.00  0.00    -0.194 OA 
HETATM   10  C   UNL     1     -12.675   9.898  71.829  1.00  0.00    -0.523 C  
HETATM   11  C   UNL     1     -12.349   8.927  72.680  1.00  0.00    -0.147 C  
ENDROOT
BRANCH   8  12
HETATM   12  C   UNL     1     -11.092   6.893  73.256  1.00  0.00    -0.152 C  
HETATM   13  C   UNL     1     -11.386   5.471  72.807  1.00  0.00    -0.359 C  
HETATM   14  C   UNL     1     -10.421   4.674  73.647  1.00  0.00    -0.281 C  
HETATM   15  C   UNL     1      -9.240   5.619  73.852  1.00  0.00    -0.126 C  
HETATM   16  O   UNL     1      -9.667   6.941  73.459  1.00  0.00    -0.179 OA 
BRANCH  15  17
HETATM   17  C   UNL     1      -7.985   5.237  73.066  1.00  0.00    -0.102 C  
HETATM   18  O   UNL     1      -7.850   3.821  72.967  1.00  0.00    -0.075 OA 
HETATM   19  H   UNL     1      -7.071   3.583  72.479  1.00  0.00     0.000 HD 
ENDBRANCH  15  17
ENDBRANCH   8  12
TORSDOF 2
ENDMDL
MODEL      176
REMARK 921   NORMALIZED FREE ENERGY PREDICTED BY IDOCK:   -2.85 KCAL/MOL
REMARK 922        TOTAL FREE ENERGY PREDICTED BY IDOCK:   -3.50 KCAL/MOL
REMARK 923 INTER-LIGAND FREE ENERGY PREDICTED BY IDOCK:   -3.65 KCAL/MOL
REMARK 924 INTRA-LIGAND FREE ENERGY PREDICTED BY IDOCK:    0.14 KCAL/MOL
REMARK 927      BINDING AFFINITY PREDICTED BY RF-SCORE:    0.00 PKD
ROOT
HETATM    1  N   UNL     1     -10.990   9.386  67.557  1.00  0.00    -0.445 NA 
HETATM    2  H1  UNL     1     -10.573  10.256  67.228  1.00  0.00     0.000 HD 
HETATM    3  H2  UNL     1     -11.672   8.875  66.997  1.00  0.00     0.000 HD 
HETATM    4  C   UNL     1     -10.593   8.935  68.786  1.00  0.00    -0.157 C  
HETATM    5  N   UNL     1     -11.121   7.830  69.205  1.00  0.00    -0.428 N  
HETATM    6  C   UNL     1     -10.765   7.327  70.437  1.00  0.00    -0.236 C  
HETATM    7  H   UNL     1     -11.799   7.334  68.625  1.00  0.00     0.000 HD 
HETATM    8  N   UNL     1      -9.921   8.090  71.247  1.00  0.00    -0.172 N  
HETATM    9  O   UNL     1     -11.187   6.234  70.810  1.00  0.00    -0.293 OA 
HETATM   10  C   UNL     1      -9.610   9.713  69.565  1.00  0.00    -0.211 C  
HETATM   11  C   UNL     1      -9.335   9.245  70.781  1.00  0.00    -0.258 C  
ENDROOT
BRANCH   8  12
HETATM   12  C   UNL     1      -9.544   7.532  72.534  1.00  0.00    -0.165 C  
HETATM   13  C   UNL     1     -10.735   7.252  73.435  1.00  0.00    -0.415 C  
HETATM   14  C   UNL     1     -10.163   6.245  74.401  1.00  0.00    -0.339 C  
HETATM   15  C   UNL     1      -9.110   5.503  73.583  1.00  0.00    -0.124 C  
HETATM   16  O   UNL     1      -8.876   6.266  72.379  1.00  0.00    -0.132 OA 
BRANCH  15  17
HETATM   17  C   UNL     1      -9.500   4.072  73.208  1.00  0.00    -0.111 C  
HETATM   18  O   UNL     1      -9.868   3.981  71.834  1.00  0.00    -0.161 OA 
HETATM   19  H   UNL     1     -10.110   3.092  71.601  1.00  0.00     0.000 HD 
ENDBRANCH  15  17
ENDBRANCH   8  12
TORSDOF 2
ENDMDL
MODEL      177
REMARK 921   NORMALIZED FREE ENERGY PREDICTED BY IDOCK:   -2.84 KCAL/MOL
REMARK 922        TOTAL FREE ENERGY PREDICTED BY IDOCK:   -3.49 KCAL/MOL
REMARK 923 INTER-LIGAND FREE ENERGY PREDICTED BY IDOCK:   -3.23 KCAL/MOL
REMARK 924 INTRA-LIGAND FREE ENERGY PREDICTED BY IDOCK:   -0.26 KCAL/MOL
REMARK 927      BINDING AFFINITY PREDICTED BY RF-SCORE:    0.00 PKD
ROOT
HETATM    1  N   UNL     1      -9.715  14.707  67.835  1.00  0.00    -0.213 NA 
HETATM    2  H1  UNL     1      -8.757  15.037  67.717  1.00  0.00     0.000 HD 
HETATM    3  H2  UNL     1     -10.508  15.347  67.796  1.00  0.00     0.000 HD 
HETATM    4  C   UNL     1      -9.887  13.366  68.047  1.00  0.00    -0.229 C  
HETATM    5  N   UNL     1     -11.103  12.947  68.196  1.00  0.00    -0.239 N  
HETATM    6  C   UNL     1     -11.340  11.609  68.417  1.00  0.00    -0.279 C  
HETATM    7  H   UNL     1     -11.881  13.605  68.150  1.00  0.00     0.000 HD 
HETATM    8  N   UNL     1     -10.246  10.758  68.584  1.00  0.00    -0.177 N  
HETATM    9  O   UNL     1     -12.492  11.180  68.470  1.00  0.00    -0.452 OA 
HETATM   10  C   UNL     1      -8.709  12.480  68.104  1.00  0.00    -0.190 C  
HETATM   11  C   UNL     1      -8.958  11.203  68.389  1.00  0.00    -0.165 C  
ENDROOT
BRANCH   8  12
HETATM   12  C   UNL     1     -10.520   9.348  68.799  1.00  0.00    -0.212 C  
HETATM   13  C   UNL     1     -10.479   8.530  67.519  1.00  0.00    -0.328 C  
HETATM   14  C   UNL     1     -10.260   7.135  68.048  1.00  0.00    -0.223 C  
HETATM   15  C   UNL     1      -9.461   7.347  69.331  1.00  0.00    -0.155 C  
HETATM   16  O   UNL     1      -9.536   8.751  69.664  1.00  0.00    -0.167 OA 
BRANCH  15  17
HETATM   17  C   UNL     1      -7.993   6.927  69.234  1.00  0.00    -0.116 C  
HETATM   18  O   UNL     1      -7.444   6.670  70.524  1.00  0.00    -0.083 OA 
HETATM   19  H   UNL     1      -6.533   6.409  70.464  1.00  0.00     0.000 HD 
ENDBRANCH  15  17
ENDBRANCH   8  12
TORSDOF 2
ENDMDL
MODEL      178
REMARK 921   NORMALIZED FREE ENERGY PREDICTED BY IDOCK:   -2.83 KCAL/MOL
REMARK 922        TOTAL FREE ENERGY PREDICTED BY IDOCK:   -3.49 KCAL/MOL
REMARK 923 INTER-LIGAND FREE ENERGY PREDICTED BY IDOCK:   -3.74 KCAL/MOL
REMARK 924 INTRA-LIGAND FREE ENERGY PREDICTED BY IDOCK:    0.25 KCAL/MOL
REMARK 927      BINDING AFFINITY PREDICTED BY RF-SCORE:    0.00 PKD
ROOT
HETATM    1  N   UNL     1     -10.230  14.754  66.010  1.00  0.00    -0.288 NA 
HETATM    2  H1  UNL     1      -9.478  15.433  65.895  1.00  0.00     0.000 HD 
HETATM    3  H2  UNL     1     -11.145  14.893  65.583  1.00  0.00     0.000 HD 
HETATM    4  C   UNL     1      -9.955  13.646  66.765  1.00  0.00    -0.270 C  
HETATM    5  N   UNL     1     -10.909  12.783  66.911  1.00  0.00    -0.250 N  
HETATM    6  C   UNL     1     -10.694  11.650  67.664  1.00  0.00    -0.207 C  
HETATM    7  H   UNL     1     -11.815  12.943  66.471  1.00  0.00     0.000 HD 
HETATM    8  N   UNL     1      -9.479  11.522  68.341  1.00  0.00    -0.192 N  
HETATM    9  O   UNL     1     -11.558  10.778  67.738  1.00  0.00    -0.521 OA 
HETATM   10  C   UNL     1      -8.618  13.492  67.371  1.00  0.00    -0.209 C  
HETATM   11  C   UNL     1      -8.457  12.425  68.152  1.00  0.00    -0.180 C  
ENDROOT
BRANCH   8  12
HETATM   12  C   UNL     1      -9.268  10.311  69.114  1.00  0.00    -0.194 C  
HETATM   13  C   UNL     1     -10.355  10.064  70.146  1.00  0.00    -0.321 C  
HETATM   14  C   UNL     1     -10.209   8.585  70.403  1.00  0.00    -0.215 C  
HETATM   15  C   UNL     1      -9.701   8.027  69.076  1.00  0.00    -0.159 C  
HETATM   16  O   UNL     1      -9.271   9.145  68.269  1.00  0.00    -0.132 OA 
BRANCH  15  17
HETATM   17  C   UNL     1     -10.737   7.211  68.300  1.00  0.00    -0.153 C  
HETATM   18  O   UNL     1     -10.898   7.710  66.974  1.00  0.00    -0.451 OA 
HETATM   19  H   UNL     1     -11.541   7.203  66.493  1.00  0.00     0.000 HD 
ENDBRANCH  15  17
ENDBRANCH   8  12
TORSDOF 2
ENDMDL
MODEL      179
REMARK 921   NORMALIZED FREE ENERGY PREDICTED BY IDOCK:   -2.80 KCAL/MOL
REMARK 922        TOTAL FREE ENERGY PREDICTED BY IDOCK:   -3.44 KCAL/MOL
REMARK 923 INTER-LIGAND FREE ENERGY PREDICTED BY IDOCK:   -3.97 KCAL/MOL
REMARK 924 INTRA-LIGAND FREE ENERGY PREDICTED BY IDOCK:    0.52 KCAL/MOL
REMARK 927      BINDING AFFINITY PREDICTED BY RF-SCORE:    0.00 PKD
ROOT
HETATM    1  N   UNL     1     -12.355  14.392  63.704  1.00  0.00    -1.106 NA 
HETATM    2  H1  UNL     1     -12.805  15.299  63.824  1.00  0.00     0.000 HD 
HETATM    3  H2  UNL     1     -12.588  13.780  62.922  1.00  0.00     0.000 HD 
HETATM    4  C   UNL     1     -11.425  14.033  64.641  1.00  0.00    -0.383 C  
HETATM    5  N   UNL     1     -10.854  12.881  64.489  1.00  0.00    -0.340 N  
HETATM    6  C   UNL     1      -9.912  12.461  65.402  1.00  0.00    -0.236 C  
HETATM    7  H   UNL     1     -11.100  12.287  63.697  1.00  0.00     0.000 HD 
HETATM    8  N   UNL     1      -9.683  13.250  66.532  1.00  0.00    -0.268 N  
HETATM    9  O   UNL     1      -9.295  11.413  65.224  1.00  0.00    -0.217 OA 
HETATM   10  C   UNL     1     -11.128  14.947  65.760  1.00  0.00    -0.342 C  
HETATM   11  C   UNL     1     -10.268  14.489  66.668  1.00  0.00    -0.275 C  
ENDROOT
BRANCH   8  12
HETATM   12  C   UNL     1      -8.674  12.797  67.472  1.00  0.00    -0.185 C  
HETATM   13  C   UNL     1      -9.136  11.630  68.328  1.00  0.00    -0.187 C  
HETATM   14  C   UNL     1      -7.826  11.042  68.786  1.00  0.00    -0.138 C  
HETATM   15  C   UNL     1      -6.862  11.350  67.643  1.00  0.00    -0.080 C  
HETATM   16  O   UNL     1      -7.497  12.326  66.789  1.00  0.00    -0.036 OA 
BRANCH  15  17
HETATM   17  C   UNL     1      -6.466  10.130  66.809  1.00  0.00    -0.071 C  
HETATM   18  O   UNL     1      -7.417   9.880  65.776  1.00  0.00    -0.101 OA 
HETATM   19  H   UNL     1      -7.170   9.123  65.258  1.00  0.00     0.000 HD 
ENDBRANCH  15  17
ENDBRANCH   8  12
TORSDOF 2
ENDMDL
MODEL      180
REMARK 921   NORMALIZED FREE ENERGY PREDICTED BY IDOCK:   -2.76 KCAL/MOL
REMARK 922        TOTAL FREE ENERGY PREDICTED BY IDOCK:   -3.41 KCAL/MOL
REMARK 923 INTER-LIGAND FREE ENERGY PREDICTED BY IDOCK:   -3.86 KCAL/MOL
REMARK 924 INTRA-LIGAND FREE ENERGY PREDICTED BY IDOCK:    0.45 KCAL/MOL
REMARK 927      BINDING AFFINITY PREDICTED BY RF-SCORE:    0.00 PKD
ROOT
HETATM    1  N   UNL     1     -11.532   6.610  69.717  1.00  0.00    -0.557 NA 
HETATM    2  H1  UNL     1     -11.444   5.685  69.295  1.00  0.00     0.000 HD 
HETATM    3  H2  UNL     1     -11.925   6.735  70.650  1.00  0.00     0.000 HD 
HETATM    4  C   UNL     1     -11.098   7.674  68.975  1.00  0.00     0.177 C  
HETATM    5  N   UNL     1     -11.209   8.847  69.510  1.00  0.00    -0.436 N  
HETATM    6  C   UNL     1     -10.794   9.958  68.810  1.00  0.00    -0.208 C  
HETATM    7  H   UNL     1     -11.602   8.948  70.446  1.00  0.00     0.000 HD 
HETATM    8  N   UNL     1     -10.365   9.791  67.491  1.00  0.00    -0.220 N  
HETATM    9  O   UNL     1     -10.808  11.069  69.338  1.00  0.00    -0.230 OA 
HETATM   10  C   UNL     1     -10.544   7.444  67.627  1.00  0.00    -0.309 C  
HETATM   11  C   UNL     1     -10.216   8.538  66.942  1.00  0.00    -0.305 C  
ENDROOT
BRANCH   8  12
HETATM   12  C   UNL     1      -9.916  10.974  66.779  1.00  0.00    -0.203 C  
HETATM   13  C   UNL     1     -11.046  11.928  66.432  1.00  0.00    -0.359 C  
HETATM   14  C   UNL     1     -10.305  13.222  66.213  1.00  0.00    -0.290 C  
HETATM   15  C   UNL     1      -9.099  13.120  67.143  1.00  0.00    -0.230 C  
HETATM   16  O   UNL     1      -8.997  11.745  67.574  1.00  0.00    -0.160 OA 
BRANCH  15  17
HETATM   17  C   UNL     1      -9.174  14.031  68.370  1.00  0.00    -0.196 C  
HETATM   18  O   UNL     1      -8.080  13.794  69.254  1.00  0.00    -0.329 OA 
HETATM   19  H   UNL     1      -8.126  14.360  70.016  1.00  0.00     0.000 HD 
ENDBRANCH  15  17
ENDBRANCH   8  12
TORSDOF 2
ENDMDL
MODEL      181
REMARK 921   NORMALIZED FREE ENERGY PREDICTED BY IDOCK:   -2.75 KCAL/MOL
REMARK 922        TOTAL FREE ENERGY PREDICTED BY IDOCK:   -3.40 KCAL/MOL
REMARK 923 INTER-LIGAND FREE ENERGY PREDICTED BY IDOCK:   -3.63 KCAL/MOL
REMARK 924 INTRA-LIGAND FREE ENERGY PREDICTED BY IDOCK:    0.23 KCAL/MOL
REMARK 927      BINDING AFFINITY PREDICTED BY RF-SCORE:    0.00 PKD
ROOT
HETATM    1  N   UNL     1      -8.763  11.512  66.143  1.00  0.00    -0.296 NA 
HETATM    2  H1  UNL     1      -8.916  11.474  65.136  1.00  0.00     0.000 HD 
HETATM    3  H2  UNL     1      -8.241  12.274  66.576  1.00  0.00     0.000 HD 
HETATM    4  C   UNL     1      -9.291  10.494  66.889  1.00  0.00    -0.159 C  
HETATM    5  N   UNL     1      -9.098  10.542  68.168  1.00  0.00    -0.138 N  
HETATM    6  C   UNL     1      -9.601   9.543  68.972  1.00  0.00    -0.166 C  
HETATM    7  H   UNL     1      -8.576  11.316  68.579  1.00  0.00     0.000 HD 
HETATM    8  N   UNL     1     -10.213   8.445  68.364  1.00  0.00    -0.202 N  
HETATM    9  O   UNL     1      -9.506   9.620  70.196  1.00  0.00    -0.229 OA 
HETATM   10  C   UNL     1     -10.032   9.408  66.219  1.00  0.00    -0.353 C  
HETATM   11  C   UNL     1     -10.447   8.418  67.007  1.00  0.00    -0.305 C  
ENDROOT
BRANCH   8  12
HETATM   12  C   UNL     1     -10.752   7.412  69.231  1.00  0.00    -0.185 C  
HETATM   13  C   UNL     1      -9.678   6.646  69.985  1.00  0.00    -0.172 C  
HETATM   14  C   UNL     1     -10.461   6.064  71.134  1.00  0.00    -0.284 C  
HETATM   15  C   UNL     1     -11.568   7.085  71.383  1.00  0.00    -0.292 C  
HETATM   16  O   UNL     1     -11.603   7.975  70.247  1.00  0.00    -0.156 OA 
BRANCH  15  17
HETATM   17  C   UNL     1     -11.391   7.904  72.663  1.00  0.00    -0.408 C  
HETATM   18  O   UNL     1     -10.129   8.569  72.679  1.00  0.00    -0.282 OA 
HETATM   19  H   UNL     1     -10.020   9.077  73.474  1.00  0.00     0.000 HD 
ENDBRANCH  15  17
ENDBRANCH   8  12
TORSDOF 2
ENDMDL
MODEL      182
REMARK 921   NORMALIZED FREE ENERGY PREDICTED BY IDOCK:   -2.75 KCAL/MOL
REMARK 922        TOTAL FREE ENERGY PREDICTED BY IDOCK:   -3.39 KCAL/MOL
REMARK 923 INTER-LIGAND FREE ENERGY PREDICTED BY IDOCK:   -3.14 KCAL/MOL
REMARK 924 INTRA-LIGAND FREE ENERGY PREDICTED BY IDOCK:   -0.26 KCAL/MOL
REMARK 927      BINDING AFFINITY PREDICTED BY RF-SCORE:    0.00 PKD
ROOT
HETATM    1  N   UNL     1      -8.717   8.231  74.271  1.00  0.00    -0.312 NA 
HETATM    2  H1  UNL     1      -8.215   9.118  74.226  1.00  0.00     0.000 HD 
HETATM    3  H2  UNL     1      -8.857   7.742  75.155  1.00  0.00     0.000 HD 
HETATM    4  C   UNL     1      -9.195   7.728  73.092  1.00  0.00    -0.242 C  
HETATM    5  N   UNL     1      -9.832   6.603  73.149  1.00  0.00    -0.163 N  
HETATM    6  C   UNL     1     -10.332   6.043  71.995  1.00  0.00    -0.202 C  
HETATM    7  H   UNL     1      -9.963   6.133  74.045  1.00  0.00     0.000 HD 
HETATM    8  N   UNL     1     -10.038   6.658  70.776  1.00  0.00    -0.184 N  
HETATM    9  O   UNL     1     -11.018   5.023  72.043  1.00  0.00    -0.141 OA 
HETATM   10  C   UNL     1      -8.961   8.468  71.837  1.00  0.00    -0.301 C  
HETATM   11  C   UNL     1      -9.391   7.872  70.726  1.00  0.00    -0.157 C  
ENDROOT
BRANCH   8  12
HETATM   12  C   UNL     1     -10.591   6.061  69.573  1.00  0.00    -0.296 C  
HETATM   13  C   UNL     1     -10.755   7.053  68.434  1.00  0.00    -0.224 C  
HETATM   14  C   UNL     1     -10.814   6.143  67.235  1.00  0.00    -0.438 C  
HETATM   15  C   UNL     1      -9.953   4.947  67.634  1.00  0.00    -0.141 C  
HETATM   16  O   UNL     1      -9.728   5.030  69.059  1.00  0.00    -0.143 OA 
BRANCH  15  17
HETATM   17  C   UNL     1      -8.607   4.873  66.912  1.00  0.00    -0.104 C  
HETATM   18  O   UNL     1      -8.104   3.539  66.897  1.00  0.00    -0.087 OA 
HETATM   19  H   UNL     1      -7.268   3.493  66.448  1.00  0.00     0.000 HD 
ENDBRANCH  15  17
ENDBRANCH   8  12
TORSDOF 2
ENDMDL
MODEL      183
REMARK 921   NORMALIZED FREE ENERGY PREDICTED BY IDOCK:   -2.75 KCAL/MOL
REMARK 922        TOTAL FREE ENERGY PREDICTED BY IDOCK:   -3.39 KCAL/MOL
REMARK 923 INTER-LIGAND FREE ENERGY PREDICTED BY IDOCK:   -3.63 KCAL/MOL
REMARK 924 INTRA-LIGAND FREE ENERGY PREDICTED BY IDOCK:    0.24 KCAL/MOL
REMARK 927      BINDING AFFINITY PREDICTED BY RF-SCORE:    0.00 PKD
ROOT
HETATM    1  N   UNL     1      -6.467   8.403  67.127  1.00  0.00    -0.057 NA 
HETATM    2  H1  UNL     1      -5.517   8.741  67.273  1.00  0.00     0.000 HD 
HETATM    3  H2  UNL     1      -6.732   7.904  66.278  1.00  0.00     0.000 HD 
HETATM    4  C   UNL     1      -7.373   8.650  68.122  1.00  0.00    -0.091 C  
HETATM    5  N   UNL     1      -8.580   8.220  67.937  1.00  0.00    -0.131 N  
HETATM    6  C   UNL     1      -9.538   8.442  68.901  1.00  0.00    -0.153 C  
HETATM    7  H   UNL     1      -8.820   7.720  67.081  1.00  0.00     0.000 HD 
HETATM    8  N   UNL     1      -9.200   9.226  70.007  1.00  0.00    -0.192 N  
HETATM    9  O   UNL     1     -10.664   7.963  68.783  1.00  0.00    -0.164 OA 
HETATM   10  C   UNL     1      -6.947   9.384  69.329  1.00  0.00    -0.053 C  
HETATM   11  C   UNL     1      -7.906   9.648  70.214  1.00  0.00    -0.178 C  
ENDROOT
BRANCH   8  12
HETATM   12  C   UNL     1     -10.220   9.432  71.019  1.00  0.00    -0.299 C  
HETATM   13  C   UNL     1     -11.466  10.114  70.481  1.00  0.00    -0.417 C  
HETATM   14  C   UNL     1     -12.498   9.736  71.514  1.00  0.00    -0.495 C  
HETATM   15  C   UNL     1     -12.032   8.374  72.021  1.00  0.00    -0.357 C  
HETATM   16  O   UNL     1     -10.676   8.180  71.564  1.00  0.00    -0.221 OA 
BRANCH  15  17
HETATM   17  C   UNL     1     -12.897   7.201  71.556  1.00  0.00    -0.391 C  
HETATM   18  O   UNL     1     -12.698   6.932  70.169  1.00  0.00    -0.430 OA 
HETATM   19  H   UNL     1     -13.235   6.204  69.881  1.00  0.00     0.000 HD 
ENDBRANCH  15  17
ENDBRANCH   8  12
TORSDOF 2
ENDMDL
MODEL      184
REMARK 921   NORMALIZED FREE ENERGY PREDICTED BY IDOCK:   -2.72 KCAL/MOL
REMARK 922        TOTAL FREE ENERGY PREDICTED BY IDOCK:   -3.36 KCAL/MOL
REMARK 923 INTER-LIGAND FREE ENERGY PREDICTED BY IDOCK:   -3.80 KCAL/MOL
REMARK 924 INTRA-LIGAND FREE ENERGY PREDICTED BY IDOCK:    0.45 KCAL/MOL
REMARK 927      BINDING AFFINITY PREDICTED BY RF-SCORE:    0.00 PKD
ROOT
HETATM    1  N   UNL     1     -12.082   6.594  71.119  1.00  0.00    -0.363 NA 
HETATM    2  H1  UNL     1     -12.350   6.815  72.078  1.00  0.00     0.000 HD 
HETATM    3  H2  UNL     1     -12.225   5.664  70.727  1.00  0.00     0.000 HD 
HETATM    4  C   UNL     1     -11.524   7.603  70.383  1.00  0.00    -0.174 C  
HETATM    5  N   UNL     1     -11.185   7.323  69.166  1.00  0.00    -0.454 N  
HETATM    6  C   UNL     1     -10.613   8.296  68.376  1.00  0.00    -0.099 C  
HETATM    7  H   UNL     1     -11.340   6.386  68.793  1.00  0.00     0.000 HD 
HETATM    8  N   UNL     1     -10.315   9.532  68.954  1.00  0.00    -0.202 N  
HETATM    9  O   UNL     1     -10.369   8.074  67.191  1.00  0.00    -0.267 OA 
HETATM   10  C   UNL     1     -11.330   8.931  70.997  1.00  0.00    -0.350 C  
HETATM   11  C   UNL     1     -10.711   9.834  70.238  1.00  0.00    -0.302 C  
ENDROOT
BRANCH   8  12
HETATM   12  C   UNL     1      -9.730  10.548  68.099  1.00  0.00    -0.153 C  
HETATM   13  C   UNL     1      -8.381  10.144  67.528  1.00  0.00    -0.118 C  
HETATM   14  C   UNL     1      -8.261  11.058  66.335  1.00  0.00    -0.166 C  
HETATM   15  C   UNL     1      -9.705  11.278  65.891  1.00  0.00    -0.224 C  
HETATM   16  O   UNL     1     -10.564  10.813  66.956  1.00  0.00    -0.235 OA 
BRANCH  15  17
HETATM   17  C   UNL     1     -10.079  10.565  64.591  1.00  0.00    -0.338 C  
HETATM   18  O   UNL     1     -10.553  11.490  63.614  1.00  0.00    -0.357 OA 
HETATM   19  H   UNL     1     -10.785  11.047  62.806  1.00  0.00     0.000 HD 
ENDBRANCH  15  17
ENDBRANCH   8  12
TORSDOF 2
ENDMDL
MODEL      185
REMARK 921   NORMALIZED FREE ENERGY PREDICTED BY IDOCK:   -2.69 KCAL/MOL
REMARK 922        TOTAL FREE ENERGY PREDICTED BY IDOCK:   -3.33 KCAL/MOL
REMARK 923 INTER-LIGAND FREE ENERGY PREDICTED BY IDOCK:   -3.02 KCAL/MOL
REMARK 924 INTRA-LIGAND FREE ENERGY PREDICTED BY IDOCK:   -0.31 KCAL/MOL
REMARK 927      BINDING AFFINITY PREDICTED BY RF-SCORE:    0.00 PKD
ROOT
HETATM    1  N   UNL     1      -7.803  12.708  68.855  1.00  0.00    -0.326 NA 
HETATM    2  H1  UNL     1      -8.373  13.260  68.214  1.00  0.00     0.000 HD 
HETATM    3  H2  UNL     1      -6.935  13.073  69.245  1.00  0.00     0.000 HD 
HETATM    4  C   UNL     1      -8.257  11.456  69.168  1.00  0.00     0.108 C  
HETATM    5  N   UNL     1      -7.534  10.756  69.982  1.00  0.00    -0.323 N  
HETATM    6  C   UNL     1      -7.936   9.486  70.331  1.00  0.00    -0.178 C  
HETATM    7  H   UNL     1      -6.671  11.144  70.363  1.00  0.00     0.000 HD 
HETATM    8  N   UNL     1      -9.063   8.949  69.704  1.00  0.00    -0.147 N  
HETATM    9  O   UNL     1      -7.310   8.844  71.172  1.00  0.00    -0.091 OA 
HETATM   10  C   UNL     1      -9.515  10.967  68.571  1.00  0.00    -0.188 C  
HETATM   11  C   UNL     1      -9.846   9.712  68.868  1.00  0.00    -0.174 C  
ENDROOT
BRANCH   8  12
HETATM   12  C   UNL     1      -9.478   7.616  70.101  1.00  0.00    -0.161 C  
HETATM   13  C   UNL     1     -10.987   7.466  70.205  1.00  0.00    -0.272 C  
HETATM   14  C   UNL     1     -11.160   5.973  70.094  1.00  0.00    -0.432 C  
HETATM   15  C   UNL     1      -9.995   5.530  69.213  1.00  0.00    -0.196 C  
HETATM   16  O   UNL     1      -9.064   6.631  69.136  1.00  0.00    -0.137 OA 
BRANCH  15  17
HETATM   17  C   UNL     1     -10.401   5.109  67.799  1.00  0.00    -0.094 C  
HETATM   18  O   UNL     1     -11.032   6.182  67.104  1.00  0.00    -0.408 OA 
HETATM   19  H   UNL     1     -11.284   5.921  66.226  1.00  0.00     0.000 HD 
ENDBRANCH  15  17
ENDBRANCH   8  12
TORSDOF 2
ENDMDL
MODEL      186
REMARK 921   NORMALIZED FREE ENERGY PREDICTED BY IDOCK:   -2.69 KCAL/MOL
REMARK 922        TOTAL FREE ENERGY PREDICTED BY IDOCK:   -3.32 KCAL/MOL
REMARK 923 INTER-LIGAND FREE ENERGY PREDICTED BY IDOCK:   -3.73 KCAL/MOL
REMARK 924 INTRA-LIGAND FREE ENERGY PREDICTED BY IDOCK:    0.41 KCAL/MOL
REMARK 927      BINDING AFFINITY PREDICTED BY RF-SCORE:    0.00 PKD
ROOT
HETATM    1  N   UNL     1     -10.555  12.709  66.869  1.00  0.00    -0.239 NA 
HETATM    2  H1  UNL     1     -11.301  13.385  66.709  1.00  0.00     0.000 HD 
HETATM    3  H2  UNL     1      -9.738  12.661  66.260  1.00  0.00     0.000 HD 
HETATM    4  C   UNL     1     -10.698  11.870  67.940  1.00  0.00    -0.204 C  
HETATM    5  N   UNL     1      -9.751  11.011  68.144  1.00  0.00    -0.168 N  
HETATM    6  C   UNL     1      -9.840  10.136  69.204  1.00  0.00    -0.214 C  
HETATM    7  H   UNL     1      -8.942  10.984  67.524  1.00  0.00     0.000 HD 
HETATM    8  N   UNL     1     -11.012  10.129  69.964  1.00  0.00    -0.286 N  
HETATM    9  O   UNL     1      -8.909   9.377  69.466  1.00  0.00    -0.141 OA 
HETATM   10  C   UNL     1     -11.901  11.971  68.789  1.00  0.00    -0.358 C  
HETATM   11  C   UNL     1     -11.999  11.068  69.763  1.00  0.00    -0.356 C  
ENDROOT
BRANCH   8  12
HETATM   12  C   UNL     1     -11.078   9.211  71.086  1.00  0.00    -0.323 C  
HETATM   13  C   UNL     1     -11.113   7.752  70.663  1.00  0.00    -0.264 C  
HETATM   14  C   UNL     1     -10.653   7.053  71.916  1.00  0.00    -0.239 C  
HETATM   15  C   UNL     1      -9.717   8.059  72.579  1.00  0.00    -0.258 C  
HETATM   16  O   UNL     1      -9.918   9.334  71.930  1.00  0.00    -0.228 OA 
BRANCH  15  17
HETATM   17  C   UNL     1      -8.236   7.682  72.508  1.00  0.00    -0.118 C  
HETATM   18  O   UNL     1      -7.404   8.825  72.694  1.00  0.00    -0.336 OA 
HETATM   19  H   UNL     1      -6.484   8.591  72.650  1.00  0.00     0.000 HD 
ENDBRANCH  15  17
ENDBRANCH   8  12
TORSDOF 2
ENDMDL
MODEL      187
REMARK 921   NORMALIZED FREE ENERGY PREDICTED BY IDOCK:   -2.67 KCAL/MOL
REMARK 922        TOTAL FREE ENERGY PREDICTED BY IDOCK:   -3.31 KCAL/MOL
REMARK 923 INTER-LIGAND FREE ENERGY PREDICTED BY IDOCK:   -3.52 KCAL/MOL
REMARK 924 INTRA-LIGAND FREE ENERGY PREDICTED BY IDOCK:    0.21 KCAL/MOL
REMARK 927      BINDING AFFINITY PREDICTED BY RF-SCORE:    0.00 PKD
ROOT
HETATM    1  N   UNL     1      -5.852  15.951  67.171  1.00  0.00    -0.333 NA 
HETATM    2  H1  UNL     1      -5.891  16.870  66.731  1.00  0.00     0.000 HD 
HETATM    3  H2  UNL     1      -4.989  15.591  67.579  1.00  0.00     0.000 HD 
HETATM    4  C   UNL     1      -7.009  15.222  67.189  1.00  0.00    -0.002 C  
HETATM    5  N   UNL     1      -6.959  14.055  67.748  1.00  0.00    -0.163 N  
HETATM    6  C   UNL     1      -8.091  13.272  67.793  1.00  0.00    -0.166 C  
HETATM    7  H   UNL     1      -6.086  13.718  68.153  1.00  0.00     0.000 HD 
HETATM    8  N   UNL     1      -9.237  13.720  67.131  1.00  0.00    -0.234 N  
HETATM    9  O   UNL     1      -8.085  12.202  68.399  1.00  0.00    -0.151 OA 
HETATM   10  C   UNL     1      -8.231  15.779  66.578  1.00  0.00    -0.278 C  
HETATM   11  C   UNL     1      -9.293  14.975  66.571  1.00  0.00    -0.281 C  
ENDROOT
BRANCH   8  12
HETATM   12  C   UNL     1     -10.423  12.886  67.207  1.00  0.00    -0.234 C  
HETATM   13  C   UNL     1     -10.192  11.470  66.706  1.00  0.00    -0.254 C  
HETATM   14  C   UNL     1     -11.325  10.720  67.358  1.00  0.00    -0.239 C  
HETATM   15  C   UNL     1     -11.571  11.479  68.659  1.00  0.00    -0.313 C  
HETATM   16  O   UNL     1     -10.873  12.740  68.567  1.00  0.00    -0.237 OA 
BRANCH  15  17
HETATM   17  C   UNL     1     -11.112  10.736  69.915  1.00  0.00    -0.271 C  
HETATM   18  O   UNL     1      -9.689  10.665  69.981  1.00  0.00    -0.366 OA 
HETATM   19  H   UNL     1      -9.404  10.204  70.761  1.00  0.00     0.000 HD 
ENDBRANCH  15  17
ENDBRANCH   8  12
TORSDOF 2
ENDMDL
MODEL      188
REMARK 921   NORMALIZED FREE ENERGY PREDICTED BY IDOCK:   -2.64 KCAL/MOL
REMARK 922        TOTAL FREE ENERGY PREDICTED BY IDOCK:   -3.27 KCAL/MOL
REMARK 923 INTER-LIGAND FREE ENERGY PREDICTED BY IDOCK:   -2.92 KCAL/MOL
REMARK 924 INTRA-LIGAND FREE ENERGY PREDICTED BY IDOCK:   -0.35 KCAL/MOL
REMARK 927      BINDING AFFINITY PREDICTED BY RF-SCORE:    0.00 PKD
ROOT
HETATM    1  N   UNL     1      -5.805  15.442  68.837  1.00  0.00    -0.097 NA 
HETATM    2  H1  UNL     1      -6.057  16.427  68.764  1.00  0.00     0.000 HD 
HETATM    3  H2  UNL     1      -4.926  15.147  69.263  1.00  0.00     0.000 HD 
HETATM    4  C   UNL     1      -6.698  14.534  68.337  1.00  0.00    -0.105 C  
HETATM    5  N   UNL     1      -6.377  13.283  68.430  1.00  0.00    -0.078 N  
HETATM    6  C   UNL     1      -7.233  12.322  67.941  1.00  0.00    -0.106 C  
HETATM    7  H   UNL     1      -5.495  13.012  68.864  1.00  0.00     0.000 HD 
HETATM    8  N   UNL     1      -8.377  12.736  67.256  1.00  0.00    -0.185 N  
HETATM    9  O   UNL     1      -6.987  11.128  68.103  1.00  0.00    -0.066 OA 
HETATM   10  C   UNL     1      -7.952  15.009  67.721  1.00  0.00    -0.155 C  
HETATM   11  C   UNL     1      -8.729  14.065  67.192  1.00  0.00    -0.221 C  
ENDROOT
BRANCH   8  12
HETATM   12  C   UNL     1      -9.274  11.706  66.764  1.00  0.00    -0.186 C  
HETATM   13  C   UNL     1     -10.724  12.156  66.700  1.00  0.00    -0.281 C  
HETATM   14  C   UNL     1     -11.310  11.177  65.715  1.00  0.00     0.122 C  
HETATM   15  C   UNL     1     -10.144  10.839  64.790  1.00  0.00    -0.331 C  
HETATM   16  O   UNL     1      -8.936  11.317  65.419  1.00  0.00    -0.181 OA 
BRANCH  15  17
HETATM   17  C   UNL     1     -10.259  11.444  63.389  1.00  0.00    -0.411 C  
HETATM   18  O   UNL     1      -9.794  12.792  63.370  1.00  0.00    -0.644 OA 
HETATM   19  H   UNL     1      -9.865  13.167  62.500  1.00  0.00     0.000 HD 
ENDBRANCH  15  17
ENDBRANCH   8  12
TORSDOF 2
ENDMDL
MODEL      189
REMARK 921   NORMALIZED FREE ENERGY PREDICTED BY IDOCK:   -2.62 KCAL/MOL
REMARK 922        TOTAL FREE ENERGY PREDICTED BY IDOCK:   -3.25 KCAL/MOL
REMARK 923 INTER-LIGAND FREE ENERGY PREDICTED BY IDOCK:   -3.06 KCAL/MOL
REMARK 924 INTRA-LIGAND FREE ENERGY PREDICTED BY IDOCK:   -0.19 KCAL/MOL
REMARK 927      BINDING AFFINITY PREDICTED BY RF-SCORE:    0.00 PKD
ROOT
HETATM    1  N   UNL     1     -11.450  10.789  67.622  1.00  0.00    -0.532 NA 
HETATM    2  H1  UNL     1     -11.284  11.697  68.056  1.00  0.00     0.000 HD 
HETATM    3  H2  UNL     1     -12.112  10.678  66.854  1.00  0.00     0.000 HD 
HETATM    4  C   UNL     1     -10.745   9.727  68.117  1.00  0.00    -0.233 C  
HETATM    5  N   UNL     1     -10.955   8.574  67.566  1.00  0.00    -0.466 N  
HETATM    6  C   UNL     1     -10.278   7.466  68.024  1.00  0.00    -0.191 C  
HETATM    7  H   UNL     1     -11.619   8.488  66.797  1.00  0.00     0.000 HD 
HETATM    8  N   UNL     1      -9.462   7.603  69.149  1.00  0.00    -0.154 N  
HETATM    9  O   UNL     1     -10.398   6.383  67.454  1.00  0.00    -0.152 OA 
HETATM   10  C   UNL     1      -9.804   9.934  69.235  1.00  0.00    -0.217 C  
HETATM   11  C   UNL     1      -9.216   8.837  69.707  1.00  0.00    -0.155 C  
ENDROOT
BRANCH   8  12
HETATM   12  C   UNL     1      -8.745   6.425  69.604  1.00  0.00    -0.138 C  
HETATM   13  C   UNL     1      -7.715   6.730  70.678  1.00  0.00    -0.097 C  
HETATM   14  C   UNL     1      -7.524   5.379  71.319  1.00  0.00    -0.093 C  
HETATM   15  C   UNL     1      -8.878   4.696  71.153  1.00  0.00    -0.118 C  
HETATM   16  O   UNL     1      -9.639   5.465  70.196  1.00  0.00    -0.158 OA 
BRANCH  15  17
HETATM   17  C   UNL     1      -9.679   4.565  72.449  1.00  0.00    -0.159 C  
HETATM   18  O   UNL     1     -10.649   5.604  72.563  1.00  0.00    -0.203 OA 
HETATM   19  H   UNL     1     -11.146   5.522  73.368  1.00  0.00     0.000 HD 
ENDBRANCH  15  17
ENDBRANCH   8  12
TORSDOF 2
ENDMDL
MODEL      190
REMARK 921   NORMALIZED FREE ENERGY PREDICTED BY IDOCK:   -2.59 KCAL/MOL
REMARK 922        TOTAL FREE ENERGY PREDICTED BY IDOCK:   -3.22 KCAL/MOL
REMARK 923 INTER-LIGAND FREE ENERGY PREDICTED BY IDOCK:   -2.93 KCAL/MOL
REMARK 924 INTRA-LIGAND FREE ENERGY PREDICTED BY IDOCK:   -0.28 KCAL/MOL
REMARK 927      BINDING AFFINITY PREDICTED BY RF-SCORE:    0.00 PKD
ROOT
HETATM    1  N   UNL     1      -6.252  12.975  68.841  1.00  0.00    -0.082 NA 
HETATM    2  H1  UNL     1      -5.998  13.464  67.983  1.00  0.00     0.000 HD 
HETATM    3  H2  UNL     1      -5.930  13.296  69.754  1.00  0.00     0.000 HD 
HETATM    4  C   UNL     1      -7.045  11.868  68.711  1.00  0.00    -0.111 C  
HETATM    5  N   UNL     1      -7.368  11.246  69.800  1.00  0.00    -0.353 N  
HETATM    6  C   UNL     1      -8.160  10.122  69.734  1.00  0.00    -0.154 C  
HETATM    7  H   UNL     1      -7.037  11.588  70.703  1.00  0.00     0.000 HD 
HETATM    8  N   UNL     1      -8.501   9.621  68.476  1.00  0.00    -0.117 N  
HETATM    9  O   UNL     1      -8.551   9.573  70.764  1.00  0.00    -0.220 OA 
HETATM   10  C   UNL     1      -7.479  11.435  67.369  1.00  0.00    -0.120 C  
HETATM   11  C   UNL     1      -8.185  10.307  67.325  1.00  0.00    -0.121 C  
ENDROOT
BRANCH   8  12
HETATM   12  C   UNL     1      -9.351   8.445  68.430  1.00  0.00    -0.135 C  
HETATM   13  C   UNL     1     -10.445   8.539  67.380  1.00  0.00    -0.351 C  
HETATM   14  C   UNL     1     -10.804   7.089  67.175  1.00  0.00    -0.427 C  
HETATM   15  C   UNL     1      -9.501   6.343  67.448  1.00  0.00    -0.116 C  
HETATM   16  O   UNL     1      -8.596   7.267  68.090  1.00  0.00    -0.123 OA 
BRANCH  15  17
HETATM   17  C   UNL     1      -8.834   5.765  66.199  1.00  0.00    -0.145 C  
HETATM   18  O   UNL     1      -8.799   6.723  65.144  1.00  0.00    -0.363 OA 
HETATM   19  H   UNL     1      -8.384   6.364  64.368  1.00  0.00     0.000 HD 
ENDBRANCH  15  17
ENDBRANCH   8  12
TORSDOF 2
ENDMDL
MODEL      191
REMARK 921   NORMALIZED FREE ENERGY PREDICTED BY IDOCK:   -2.56 KCAL/MOL
REMARK 922        TOTAL FREE ENERGY PREDICTED BY IDOCK:   -3.18 KCAL/MOL
REMARK 923 INTER-LIGAND FREE ENERGY PREDICTED BY IDOCK:   -3.37 KCAL/MOL
REMARK 924 INTRA-LIGAND FREE ENERGY PREDICTED BY IDOCK:    0.19 KCAL/MOL
REMARK 927      BINDING AFFINITY PREDICTED BY RF-SCORE:    0.00 PKD
ROOT
HETATM    1  N   UNL     1      -8.696   5.827  64.159  1.00  0.00    -0.349 NA 
HETATM    2  H1  UNL     1      -8.150   5.139  63.641  1.00  0.00     0.000 HD 
HETATM    3  H2  UNL     1      -9.119   6.631  63.695  1.00  0.00     0.000 HD 
HETATM    4  C   UNL     1      -8.837   5.621  65.504  1.00  0.00    -0.130 C  
HETATM    5  N   UNL     1      -9.531   6.494  66.162  1.00  0.00    -0.353 N  
HETATM    6  C   UNL     1      -9.705   6.344  67.519  1.00  0.00    -0.121 C  
HETATM    7  H   UNL     1      -9.948   7.289  65.676  1.00  0.00     0.000 HD 
HETATM    8  N   UNL     1      -9.029   5.307  68.166  1.00  0.00    -0.108 N  
HETATM    9  O   UNL     1     -10.436   7.112  68.143  1.00  0.00    -0.188 OA 
HETATM   10  C   UNL     1      -8.201   4.448  66.132  1.00  0.00    -0.102 C  
HETATM   11  C   UNL     1      -8.322   4.363  67.455  1.00  0.00    -0.099 C  
ENDROOT
BRANCH   8  12
HETATM   12  C   UNL     1      -9.240   5.157  69.594  1.00  0.00    -0.119 C  
HETATM   13  C   UNL     1      -8.568   6.245  70.415  1.00  0.00    -0.142 C  
HETATM   14  C   UNL     1      -9.342   6.182  71.708  1.00  0.00    -0.159 C  
HETATM   15  C   UNL     1     -10.734   5.723  71.284  1.00  0.00    -0.258 C  
HETATM   16  O   UNL     1     -10.639   5.238  69.927  1.00  0.00    -0.306 OA 
BRANCH  15  17
HETATM   17  C   UNL     1     -11.805   6.813  71.358  1.00  0.00    -0.338 C  
HETATM   18  O   UNL     1     -12.535   6.902  70.137  1.00  0.00    -0.602 OA 
HETATM   19  H   UNL     1     -13.200   7.579  70.183  1.00  0.00     0.000 HD 
ENDBRANCH  15  17
ENDBRANCH   8  12
TORSDOF 2
ENDMDL
MODEL      192
REMARK 921   NORMALIZED FREE ENERGY PREDICTED BY IDOCK:   -2.55 KCAL/MOL
REMARK 922        TOTAL FREE ENERGY PREDICTED BY IDOCK:   -3.17 KCAL/MOL
REMARK 923 INTER-LIGAND FREE ENERGY PREDICTED BY IDOCK:   -3.00 KCAL/MOL
REMARK 924 INTRA-LIGAND FREE ENERGY PREDICTED BY IDOCK:   -0.17 KCAL/MOL
REMARK 927      BINDING AFFINITY PREDICTED BY RF-SCORE:    0.00 PKD
ROOT
HETATM    1  N   UNL     1     -12.367  15.043  69.198  1.00  0.00    -0.587 NA 
HETATM    2  H1  UNL     1     -11.946  15.971  69.180  1.00  0.00     0.000 HD 
HETATM    3  H2  UNL     1     -13.355  14.909  69.415  1.00  0.00     0.000 HD 
HETATM    4  C   UNL     1     -11.548  13.984  68.915  1.00  0.00    -0.315 C  
HETATM    5  N   UNL     1     -12.083  12.806  68.936  1.00  0.00    -0.218 N  
HETATM    6  C   UNL     1     -11.308  11.700  68.665  1.00  0.00    -0.267 C  
HETATM    7  H   UNL     1     -13.074  12.697  69.153  1.00  0.00     0.000 HD 
HETATM    8  N   UNL     1      -9.935  11.879  68.482  1.00  0.00    -0.208 N  
HETATM    9  O   UNL     1     -11.819  10.584  68.591  1.00  0.00    -0.318 OA 
HETATM   10  C   UNL     1     -10.124  14.226  68.614  1.00  0.00    -0.238 C  
HETATM   11  C   UNL     1      -9.380  13.137  68.425  1.00  0.00    -0.154 C  
ENDROOT
BRANCH   8  12
HETATM   12  C   UNL     1      -9.141  10.702  68.180  1.00  0.00    -0.148 C  
HETATM   13  C   UNL     1      -7.750  11.035  67.666  1.00  0.00    -0.112 C  
HETATM   14  C   UNL     1      -7.003   9.754  67.937  1.00  0.00    -0.078 C  
HETATM   15  C   UNL     1      -7.690   9.179  69.173  1.00  0.00    -0.081 C  
HETATM   16  O   UNL     1      -8.929   9.898  69.356  1.00  0.00    -0.167 OA 
BRANCH  15  17
HETATM   17  C   UNL     1      -6.858   9.268  70.453  1.00  0.00    -0.075 C  
HETATM   18  O   UNL     1      -6.121   8.067  70.673  1.00  0.00    -0.033 OA 
HETATM   19  H   UNL     1      -5.605   8.123  71.468  1.00  0.00     0.000 HD 
ENDBRANCH  15  17
ENDBRANCH   8  12
TORSDOF 2
ENDMDL
MODEL      193
REMARK 921   NORMALIZED FREE ENERGY PREDICTED BY IDOCK:   -2.48 KCAL/MOL
REMARK 922        TOTAL FREE ENERGY PREDICTED BY IDOCK:   -3.10 KCAL/MOL
REMARK 923 INTER-LIGAND FREE ENERGY PREDICTED BY IDOCK:   -2.85 KCAL/MOL
REMARK 924 INTRA-LIGAND FREE ENERGY PREDICTED BY IDOCK:   -0.24 KCAL/MOL
REMARK 927      BINDING AFFINITY PREDICTED BY RF-SCORE:    0.00 PKD
ROOT
HETATM    1  N   UNL     1      -8.628  11.164  65.249  1.00  0.00    -0.379 NA 
HETATM    2  H1  UNL     1      -9.036  11.012  64.327  1.00  0.00     0.000 HD 
HETATM    3  H2  UNL     1      -8.026  11.964  65.441  1.00  0.00     0.000 HD 
HETATM    4  C   UNL     1      -8.925  10.245  66.218  1.00  0.00    -0.153 C  
HETATM    5  N   UNL     1      -8.408  10.437  67.389  1.00  0.00    -0.121 N  
HETATM    6  C   UNL     1      -8.667   9.544  68.404  1.00  0.00    -0.124 C  
HETATM    7  H   UNL     1      -7.812  11.248  67.558  1.00  0.00     0.000 HD 
HETATM    8  N   UNL     1      -9.395   8.390  68.105  1.00  0.00    -0.134 N  
HETATM    9  O   UNL     1      -8.259   9.760  69.544  1.00  0.00    -0.114 OA 
HETATM   10  C   UNL     1      -9.794   9.097  65.891  1.00  0.00    -0.305 C  
HETATM   11  C   UNL     1      -9.972   8.210  66.868  1.00  0.00    -0.273 C  
ENDROOT
BRANCH   8  12
HETATM   12  C   UNL     1      -9.671   7.471  69.195  1.00  0.00    -0.166 C  
HETATM   13  C   UNL     1     -10.873   6.579  68.934  1.00  0.00    -0.354 C  
HETATM   14  C   UNL     1     -10.626   5.437  69.887  1.00  0.00    -0.351 C  
HETATM   15  C   UNL     1      -9.105   5.358  69.982  1.00  0.00    -0.130 C  
HETATM   16  O   UNL     1      -8.568   6.571  69.410  1.00  0.00    -0.132 OA 
BRANCH  15  17
HETATM   17  C   UNL     1      -8.493   4.149  69.273  1.00  0.00    -0.076 C  
HETATM   18  O   UNL     1      -7.229   3.806  69.836  1.00  0.00    -0.041 OA 
HETATM   19  H   UNL     1      -6.849   3.055  69.395  1.00  0.00     0.000 HD 
ENDBRANCH  15  17
ENDBRANCH   8  12
TORSDOF 2
ENDMDL
MODEL      194
REMARK 921   NORMALIZED FREE ENERGY PREDICTED BY IDOCK:   -2.48 KCAL/MOL
REMARK 922        TOTAL FREE ENERGY PREDICTED BY IDOCK:   -3.09 KCAL/MOL
REMARK 923 INTER-LIGAND FREE ENERGY PREDICTED BY IDOCK:   -2.81 KCAL/MOL
REMARK 924 INTRA-LIGAND FREE ENERGY PREDICTED BY IDOCK:   -0.28 KCAL/MOL
REMARK 927      BINDING AFFINITY PREDICTED BY RF-SCORE:    0.00 PKD
ROOT
HETATM    1  N   UNL     1      -8.883  14.099  66.767  1.00  0.00    -0.387 NA 
HETATM    2  H1  UNL     1      -8.143  14.729  67.074  1.00  0.00     0.000 HD 
HETATM    3  H2  UNL     1      -9.552  14.371  66.047  1.00  0.00     0.000 HD 
HETATM    4  C   UNL     1      -8.939  12.870  67.366  1.00  0.00    -0.199 C  
HETATM    5  N   UNL     1      -9.878  12.069  66.976  1.00  0.00    -0.193 N  
HETATM    6  C   UNL     1      -9.989  10.820  67.546  1.00  0.00    -0.174 C  
HETATM    7  H   UNL     1     -10.533  12.362  66.252  1.00  0.00     0.000 HD 
HETATM    8  N   UNL     1      -9.145  10.497  68.610  1.00  0.00    -0.151 N  
HETATM    9  O   UNL     1     -10.817  10.014  67.124  1.00  0.00    -0.243 OA 
HETATM   10  C   UNL     1      -7.955  12.523  68.410  1.00  0.00    -0.139 C  
HETATM   11  C   UNL     1      -8.126  11.339  68.994  1.00  0.00    -0.042 C  
ENDROOT
BRANCH   8  12
HETATM   12  C   UNL     1      -9.267   9.168  69.183  1.00  0.00    -0.144 C  
HETATM   13  C   UNL     1      -7.950   8.412  69.226  1.00  0.00    -0.113 C  
HETATM   14  C   UNL     1      -8.221   7.374  70.284  1.00  0.00    -0.132 C  
HETATM   15  C   UNL     1      -9.215   8.052  71.222  1.00  0.00    -0.150 C  
HETATM   16  O   UNL     1      -9.716   9.228  70.550  1.00  0.00    -0.221 OA 
BRANCH  15  17
HETATM   17  C   UNL     1      -8.628   8.454  72.576  1.00  0.00    -0.184 C  
HETATM   18  O   UNL     1      -7.347   9.063  72.422  1.00  0.00    -0.337 OA 
HETATM   19  H   UNL     1      -6.982   9.313  73.262  1.00  0.00     0.000 HD 
ENDBRANCH  15  17
ENDBRANCH   8  12
TORSDOF 2
ENDMDL
MODEL      195
REMARK 921   NORMALIZED FREE ENERGY PREDICTED BY IDOCK:   -2.45 KCAL/MOL
REMARK 922        TOTAL FREE ENERGY PREDICTED BY IDOCK:   -3.06 KCAL/MOL
REMARK 923 INTER-LIGAND FREE ENERGY PREDICTED BY IDOCK:   -2.78 KCAL/MOL
REMARK 924 INTRA-LIGAND FREE ENERGY PREDICTED BY IDOCK:   -0.28 KCAL/MOL
REMARK 927      BINDING AFFINITY PREDICTED BY RF-SCORE:    0.00 PKD
ROOT
HETATM    1  N   UNL     1      -6.199   7.848  67.144  1.00  0.00    -0.053 NA 
HETATM    2  H1  UNL     1      -5.364   8.096  67.673  1.00  0.00     0.000 HD 
HETATM    3  H2  UNL     1      -6.230   7.928  66.127  1.00  0.00     0.000 HD 
HETATM    4  C   UNL     1      -7.277   7.402  67.859  1.00  0.00    -0.091 C  
HETATM    5  N   UNL     1      -8.337   7.086  67.188  1.00  0.00    -0.120 N  
HETATM    6  C   UNL     1      -9.456   6.635  67.852  1.00  0.00    -0.117 C  
HETATM    7  H   UNL     1      -8.344   7.170  66.171  1.00  0.00     0.000 HD 
HETATM    8  N   UNL     1      -9.446   6.638  69.249  1.00  0.00    -0.142 N  
HETATM    9  O   UNL     1     -10.439   6.245  67.224  1.00  0.00    -0.184 OA 
HETATM   10  C   UNL     1      -7.188   7.311  69.329  1.00  0.00    -0.081 C  
HETATM   11  C   UNL     1      -8.304   6.941  69.954  1.00  0.00    -0.139 C  
ENDROOT
BRANCH   8  12
HETATM   12  C   UNL     1     -10.630   6.142  69.928  1.00  0.00    -0.265 C  
HETATM   13  C   UNL     1     -10.319   5.460  71.250  1.00  0.00    -0.296 C  
HETATM   14  C   UNL     1     -11.649   5.530  71.956  1.00  0.00    -0.058 C  
HETATM   15  C   UNL     1     -12.288   6.806  71.417  1.00  0.00    -0.353 C  
HETATM   16  O   UNL     1     -11.532   7.216  70.256  1.00  0.00    -0.286 OA 
BRANCH  15  17
HETATM   17  C   UNL     1     -12.337   7.958  72.422  1.00  0.00    -0.208 C  
HETATM   18  O   UNL     1     -13.525   8.731  72.263  1.00  0.00    -0.388 OA 
HETATM   19  H   UNL     1     -13.555   9.446  72.888  1.00  0.00     0.000 HD 
ENDBRANCH  15  17
ENDBRANCH   8  12
TORSDOF 2
ENDMDL
MODEL      196
REMARK 921   NORMALIZED FREE ENERGY PREDICTED BY IDOCK:   -2.44 KCAL/MOL
REMARK 922        TOTAL FREE ENERGY PREDICTED BY IDOCK:   -3.04 KCAL/MOL
REMARK 923 INTER-LIGAND FREE ENERGY PREDICTED BY IDOCK:   -2.75 KCAL/MOL
REMARK 924 INTRA-LIGAND FREE ENERGY PREDICTED BY IDOCK:   -0.30 KCAL/MOL
REMARK 927      BINDING AFFINITY PREDICTED BY RF-SCORE:    0.00 PKD
ROOT
HETATM    1  N   UNL     1     -11.684   4.934  73.422  1.00  0.00    -0.435 NA 
HETATM    2  H1  UNL     1     -12.521   5.471  73.644  1.00  0.00     0.000 HD 
HETATM    3  H2  UNL     1     -11.495   4.033  73.861  1.00  0.00     0.000 HD 
HETATM    4  C   UNL     1     -10.825   5.476  72.505  1.00  0.00    -0.252 C  
HETATM    5  N   UNL     1      -9.762   4.793  72.221  1.00  0.00    -0.154 N  
HETATM    6  C   UNL     1      -8.857   5.289  71.310  1.00  0.00    -0.136 C  
HETATM    7  H   UNL     1      -9.596   3.893  72.671  1.00  0.00     0.000 HD 
HETATM    8  N   UNL     1      -9.062   6.573  70.799  1.00  0.00    -0.154 N  
HETATM    9  O   UNL     1      -7.890   4.613  70.961  1.00  0.00    -0.077 OA 
HETATM   10  C   UNL     1     -11.135   6.786  71.901  1.00  0.00    -0.279 C  
HETATM   11  C   UNL     1     -10.211   7.277  71.077  1.00  0.00    -0.192 C  
ENDROOT
BRANCH   8  12
HETATM   12  C   UNL     1      -8.104   7.068  69.826  1.00  0.00    -0.126 C  
HETATM   13  C   UNL     1      -8.739   7.431  68.494  1.00  0.00    -0.127 C  
HETATM   14  C   UNL     1      -7.712   8.362  67.904  1.00  0.00    -0.103 C  
HETATM   15  C   UNL     1      -7.074   9.028  69.120  1.00  0.00    -0.063 C  
HETATM   16  O   UNL     1      -7.468   8.274  70.286  1.00  0.00    -0.063 OA 
BRANCH  15  17
HETATM   17  C   UNL     1      -7.463  10.496  69.309  1.00  0.00    -0.122 C  
HETATM   18  O   UNL     1      -7.022  10.987  70.573  1.00  0.00    -0.465 OA 
HETATM   19  H   UNL     1      -7.264  11.898  70.690  1.00  0.00     0.000 HD 
ENDBRANCH  15  17
ENDBRANCH   8  12
TORSDOF 2
ENDMDL
MODEL      197
REMARK 921   NORMALIZED FREE ENERGY PREDICTED BY IDOCK:   -2.43 KCAL/MOL
REMARK 922        TOTAL FREE ENERGY PREDICTED BY IDOCK:   -3.03 KCAL/MOL
REMARK 923 INTER-LIGAND FREE ENERGY PREDICTED BY IDOCK:   -2.73 KCAL/MOL
REMARK 924 INTRA-LIGAND FREE ENERGY PREDICTED BY IDOCK:   -0.30 KCAL/MOL
REMARK 927      BINDING AFFINITY PREDICTED BY RF-SCORE:    0.00 PKD
ROOT
HETATM    1  N   UNL     1     -13.024  11.409  71.020  1.00  0.00    -0.262 NA 
HETATM    2  H1  UNL     1     -13.460  10.816  71.726  1.00  0.00     0.000 HD 
HETATM    3  H2  UNL     1     -13.324  12.372  70.872  1.00  0.00     0.000 HD 
HETATM    4  C   UNL     1     -12.016  10.853  70.281  1.00  0.00    -0.361 C  
HETATM    5  N   UNL     1     -11.462  11.605  69.384  1.00  0.00    -0.283 N  
HETATM    6  C   UNL     1     -10.445  11.100  68.605  1.00  0.00    -0.197 C  
HETATM    7  H   UNL     1     -11.777  12.567  69.257  1.00  0.00     0.000 HD 
HETATM    8  N   UNL     1     -10.117   9.749  68.732  1.00  0.00    -0.167 N  
HETATM    9  O   UNL     1      -9.847  11.827  67.813  1.00  0.00    -0.175 OA 
HETATM   10  C   UNL     1     -11.621   9.452  70.524  1.00  0.00    -0.291 C  
HETATM   11  C   UNL     1     -10.686   8.965  69.711  1.00  0.00    -0.225 C  
ENDROOT
BRANCH   8  12
HETATM   12  C   UNL     1      -9.031   9.243  67.913  1.00  0.00    -0.127 C  
HETATM   13  C   UNL     1      -7.806   8.849  68.721  1.00  0.00    -0.101 C  
HETATM   14  C   UNL     1      -7.096   7.914  67.775  1.00  0.00    -0.086 C  
HETATM   15  C   UNL     1      -8.224   7.277  66.969  1.00  0.00    -0.117 C  
HETATM   16  O   UNL     1      -9.421   8.050  67.207  1.00  0.00    -0.144 OA 
BRANCH  15  17
HETATM   17  C   UNL     1      -8.492   5.810  67.313  1.00  0.00    -0.107 C  
HETATM   18  O   UNL     1      -7.828   5.435  68.519  1.00  0.00    -0.086 OA 
HETATM   19  H   UNL     1      -7.995   4.524  68.732  1.00  0.00     0.000 HD 
ENDBRANCH  15  17
ENDBRANCH   8  12
TORSDOF 2
ENDMDL
MODEL      198
REMARK 921   NORMALIZED FREE ENERGY PREDICTED BY IDOCK:   -2.40 KCAL/MOL
REMARK 922        TOTAL FREE ENERGY PREDICTED BY IDOCK:   -3.00 KCAL/MOL
REMARK 923 INTER-LIGAND FREE ENERGY PREDICTED BY IDOCK:   -3.49 KCAL/MOL
REMARK 924 INTRA-LIGAND FREE ENERGY PREDICTED BY IDOCK:    0.49 KCAL/MOL
REMARK 927      BINDING AFFINITY PREDICTED BY RF-SCORE:    0.00 PKD
ROOT
HETATM    1  N   UNL     1     -12.434   6.862  72.343  1.00  0.00    -0.513 NA 
HETATM    2  H1  UNL     1     -12.513   6.092  73.006  1.00  0.00     0.000 HD 
HETATM    3  H2  UNL     1     -12.990   7.711  72.442  1.00  0.00     0.000 HD 
HETATM    4  C   UNL     1     -11.546   6.705  71.314  1.00  0.00    -0.323 C  
HETATM    5  N   UNL     1     -11.445   7.684  70.472  1.00  0.00    -0.381 N  
HETATM    6  C   UNL     1     -10.572   7.583  69.411  1.00  0.00    -0.223 C  
HETATM    7  H   UNL     1     -12.010   8.525  70.594  1.00  0.00     0.000 HD 
HETATM    8  N   UNL     1      -9.900   6.375  69.216  1.00  0.00    -0.146 N  
HETATM    9  O   UNL     1     -10.397   8.537  68.656  1.00  0.00    -0.202 OA 
HETATM   10  C   UNL     1     -10.769   5.456  71.206  1.00  0.00    -0.249 C  
HETATM   11  C   UNL     1      -9.985   5.353  70.134  1.00  0.00    -0.232 C  
ENDROOT
BRANCH   8  12
HETATM   12  C   UNL     1      -8.972   6.297  68.102  1.00  0.00    -0.115 C  
HETATM   13  C   UNL     1      -9.581   5.672  66.858  1.00  0.00    -0.151 C  
HETATM   14  C   UNL     1      -8.664   6.179  65.774  1.00  0.00    -0.151 C  
HETATM   15  C   UNL     1      -8.188   7.532  66.295  1.00  0.00    -0.125 C  
HETATM   16  O   UNL     1      -8.534   7.607  67.695  1.00  0.00    -0.117 OA 
BRANCH  15  17
HETATM   17  C   UNL     1      -8.787   8.733  65.560  1.00  0.00    -0.188 C  
HETATM   18  O   UNL     1     -10.113   9.003  66.009  1.00  0.00    -0.380 OA 
HETATM   19  H   UNL     1     -10.485   9.749  65.553  1.00  0.00     0.000 HD 
ENDBRANCH  15  17
ENDBRANCH   8  12
TORSDOF 2
ENDMDL
MODEL      199
REMARK 921   NORMALIZED FREE ENERGY PREDICTED BY IDOCK:   -2.37 KCAL/MOL
REMARK 922        TOTAL FREE ENERGY PREDICTED BY IDOCK:   -2.97 KCAL/MOL
REMARK 923 INTER-LIGAND FREE ENERGY PREDICTED BY IDOCK:   -2.69 KCAL/MOL
REMARK 924 INTRA-LIGAND FREE ENERGY PREDICTED BY IDOCK:   -0.28 KCAL/MOL
REMARK 927      BINDING AFFINITY PREDICTED BY RF-SCORE:    0.00 PKD
ROOT
HETATM    1  N   UNL     1      -6.958   9.672  67.650  1.00  0.00    -0.086 NA 
HETATM    2  H1  UNL     1      -5.969   9.923  67.665  1.00  0.00     0.000 HD 
HETATM    3  H2  UNL     1      -7.261   8.701  67.577  1.00  0.00     0.000 HD 
HETATM    4  C   UNL     1      -7.859  10.698  67.732  1.00  0.00    -0.108 C  
HETATM    5  N   UNL     1      -9.114  10.380  67.713  1.00  0.00    -0.131 N  
HETATM    6  C   UNL     1     -10.069  11.369  67.787  1.00  0.00    -0.181 C  
HETATM    7  H   UNL     1      -9.393   9.401  67.643  1.00  0.00     0.000 HD 
HETATM    8  N   UNL     1      -9.650  12.701  67.770  1.00  0.00    -0.191 N  
HETATM    9  O   UNL     1     -11.262  11.078  67.863  1.00  0.00    -0.268 OA 
HETATM   10  C   UNL     1      -7.374  12.088  67.827  1.00  0.00    -0.113 C  
HETATM   11  C   UNL     1      -8.315  13.030  67.826  1.00  0.00    -0.175 C  
ENDROOT
BRANCH   8  12
HETATM   12  C   UNL     1     -10.674  13.726  67.866  1.00  0.00    -0.247 C  
HETATM   13  C   UNL     1     -10.240  14.928  68.690  1.00  0.00    -0.236 C  
HETATM   14  C   UNL     1     -11.190  15.994  68.208  1.00  0.00    -0.350 C  
HETATM   15  C   UNL     1     -11.479  15.606  66.760  1.00  0.00     0.113 C  
HETATM   16  O   UNL     1     -11.009  14.254  66.569  1.00  0.00    -0.307 OA 
BRANCH  15  17
HETATM   17  C   UNL     1     -10.826  16.521  65.722  1.00  0.00    -0.134 C  
HETATM   18  O   UNL     1      -9.675  17.170  66.259  1.00  0.00    -0.276 OA 
HETATM   19  H   UNL     1      -9.270  17.737  65.614  1.00  0.00     0.000 HD 
ENDBRANCH  15  17
ENDBRANCH   8  12
TORSDOF 2
ENDMDL
MODEL      200
REMARK 921   NORMALIZED FREE ENERGY PREDICTED BY IDOCK:   -2.32 KCAL/MOL
REMARK 922        TOTAL FREE ENERGY PREDICTED BY IDOCK:   -2.91 KCAL/MOL
REMARK 923 INTER-LIGAND FREE ENERGY PREDICTED BY IDOCK:   -2.56 KCAL/MOL
REMARK 924 INTRA-LIGAND FREE ENERGY PREDICTED BY IDOCK:   -0.35 KCAL/MOL
REMARK 927      BINDING AFFINITY PREDICTED BY RF-SCORE:    0.00 PKD
ROOT
HETATM    1  N   UNL     1     -10.610   4.469  65.889  1.00  0.00    -0.467 NA 
HETATM    2  H1  UNL     1     -10.066   3.944  65.206  1.00  0.00     0.000 HD 
HETATM    3  H2  UNL     1     -11.583   4.236  66.090  1.00  0.00     0.000 HD 
HETATM    4  C   UNL     1      -9.976   5.501  66.526  1.00  0.00    -0.185 C  
HETATM    5  N   UNL     1     -10.667   6.167  67.395  1.00  0.00    -0.285 N  
HETATM    6  C   UNL     1     -10.086   7.220  68.065  1.00  0.00    -0.172 C  
HETATM    7  H   UNL     1     -11.638   5.914  67.581  1.00  0.00     0.000 HD 
HETATM    8  N   UNL     1      -8.794   7.607  67.704  1.00  0.00    -0.125 N  
HETATM    9  O   UNL     1     -10.698   7.805  68.958  1.00  0.00    -0.195 OA 
HETATM   10  C   UNL     1      -8.571   5.806  66.198  1.00  0.00    -0.135 C  
HETATM   11  C   UNL     1      -8.053   6.872  66.806  1.00  0.00    -0.109 C  
ENDROOT
BRANCH   8  12
HETATM   12  C   UNL     1      -8.194   8.708  68.436  1.00  0.00    -0.122 C  
HETATM   13  C   UNL     1      -6.704   8.527  68.674  1.00  0.00    -0.059 C  
HETATM   14  C   UNL     1      -6.257   9.943  68.937  1.00  0.00    -0.041 C  
HETATM   15  C   UNL     1      -7.219  10.794  68.113  1.00  0.00    -0.083 C  
HETATM   16  O   UNL     1      -8.317   9.946  67.711  1.00  0.00    -0.114 OA 
BRANCH  15  17
HETATM   17  C   UNL     1      -6.590  11.430  66.872  1.00  0.00    -0.141 C  
HETATM   18  O   UNL     1      -7.181  10.923  65.677  1.00  0.00    -0.329 OA 
HETATM   19  H   UNL     1      -6.790  11.318  64.907  1.00  0.00     0.000 HD 
ENDBRANCH  15  17
ENDBRANCH   8  12
TORSDOF 2
ENDMDL
MODEL      201
REMARK 921   NORMALIZED FREE ENERGY PREDICTED BY IDOCK:   -2.30 KCAL/MOL
REMARK 922        TOTAL FREE ENERGY PREDICTED BY IDOCK:   -2.89 KCAL/MOL
REMARK 923 INTER-LIGAND FREE ENERGY PREDICTED BY IDOCK:   -3.07 KCAL/MOL
REMARK 924 INTRA-LIGAND FREE ENERGY PREDICTED BY IDOCK:    0.18 KCAL/MOL
REMARK 927      BINDING AFFINITY PREDICTED BY RF-SCORE:    0.00 PKD
ROOT
HETATM    1  N   UNL     1      -9.792   4.996  72.405  1.00  0.00    -0.164 NA 
HETATM    2  H1  UNL     1      -9.251   4.740  73.231  1.00  0.00     0.000 HD 
HETATM    3  H2  UNL     1     -10.539   4.400  72.050  1.00  0.00     0.000 HD 
HETATM    4  C   UNL     1      -9.470   6.178  71.797  1.00  0.00    -0.150 C  
HETATM    5  N   UNL     1     -10.157   6.505  70.749  1.00  0.00    -0.184 N  
HETATM    6  C   UNL     1      -9.876   7.681  70.089  1.00  0.00    -0.184 C  
HETATM    7  H   UNL     1     -10.902   5.894  70.414  1.00  0.00     0.000 HD 
HETATM    8  N   UNL     1      -8.779   8.435  70.511  1.00  0.00    -0.140 N  
HETATM    9  O   UNL     1     -10.577   8.050  69.148  1.00  0.00    -0.219 OA 
HETATM   10  C   UNL     1      -8.375   7.004  72.342  1.00  0.00    -0.120 C  
HETATM   11  C   UNL     1      -8.076   8.100  71.646  1.00  0.00    -0.124 C  
ENDROOT
BRANCH   8  12
HETATM   12  C   UNL     1      -8.513   9.679  69.812  1.00  0.00    -0.190 C  
HETATM   13  C   UNL     1      -7.994   9.472  68.399  1.00  0.00    -0.093 C  
HETATM   14  C   UNL     1      -8.304  10.800  67.756  1.00  0.00    -0.113 C  
HETATM   15  C   UNL     1      -9.553  11.284  68.489  1.00  0.00    -0.198 C  
HETATM   16  O   UNL     1      -9.711  10.464  69.667  1.00  0.00    -0.205 OA 
BRANCH  15  17
HETATM   17  C   UNL     1     -10.833  11.225  67.654  1.00  0.00    -0.238 C  
HETATM   18  O   UNL     1     -11.820  10.408  68.281  1.00  0.00    -0.747 OA 
HETATM   19  H   UNL     1     -12.615  10.371  67.763  1.00  0.00     0.000 HD 
ENDBRANCH  15  17
ENDBRANCH   8  12
TORSDOF 2
ENDMDL
MODEL      202
REMARK 921   NORMALIZED FREE ENERGY PREDICTED BY IDOCK:   -2.27 KCAL/MOL
REMARK 922        TOTAL FREE ENERGY PREDICTED BY IDOCK:   -2.86 KCAL/MOL
REMARK 923 INTER-LIGAND FREE ENERGY PREDICTED BY IDOCK:   -2.78 KCAL/MOL
REMARK 924 INTRA-LIGAND FREE ENERGY PREDICTED BY IDOCK:   -0.07 KCAL/MOL
REMARK 927      BINDING AFFINITY PREDICTED BY RF-SCORE:    0.00 PKD
ROOT
HETATM    1  N   UNL     1      -7.639  10.447  64.185  1.00  0.00    -0.318 NA 
HETATM    2  H1  UNL     1      -6.661  10.726  64.101  1.00  0.00     0.000 HD 
HETATM    3  H2  UNL     1      -8.334  10.725  63.493  1.00  0.00     0.000 HD 
HETATM    4  C   UNL     1      -7.974   9.683  65.269  1.00  0.00    -0.115 C  
HETATM    5  N   UNL     1      -9.215   9.328  65.375  1.00  0.00    -0.256 N  
HETATM    6  C   UNL     1      -9.616   8.562  66.448  1.00  0.00    -0.245 C  
HETATM    7  H   UNL     1      -9.892   9.615  64.669  1.00  0.00     0.000 HD 
HETATM    8  N   UNL     1      -8.685   8.283  67.450  1.00  0.00    -0.124 N  
HETATM    9  O   UNL     1     -10.769   8.141  66.516  1.00  0.00    -0.081 OA 
HETATM   10  C   UNL     1      -6.936   9.312  66.249  1.00  0.00    -0.087 C  
HETATM   11  C   UNL     1      -7.360   8.632  67.313  1.00  0.00    -0.088 C  
ENDROOT
BRANCH   8  12
HETATM   12  C   UNL     1      -9.124   7.459  68.562  1.00  0.00    -0.136 C  
HETATM   13  C   UNL     1      -8.000   7.094  69.516  1.00  0.00    -0.128 C  
HETATM   14  C   UNL     1      -8.758   6.739  70.770  1.00  0.00    -0.146 C  
HETATM   15  C   UNL     1     -10.006   7.616  70.708  1.00  0.00    -0.181 C  
HETATM   16  O   UNL     1     -10.099   8.147  69.368  1.00  0.00    -0.185 OA 
BRANCH  15  17
HETATM   17  C   UNL     1     -10.014   8.770  71.712  1.00  0.00    -0.326 C  
HETATM   18  O   UNL     1      -8.697   9.053  72.181  1.00  0.00    -0.368 OA 
HETATM   19  H   UNL     1      -8.702   9.770  72.805  1.00  0.00     0.000 HD 
ENDBRANCH  15  17
ENDBRANCH   8  12
TORSDOF 2
ENDMDL
MODEL      203
REMARK 921   NORMALIZED FREE ENERGY PREDICTED BY IDOCK:   -2.26 KCAL/MOL
REMARK 922        TOTAL FREE ENERGY PREDICTED BY IDOCK:   -2.84 KCAL/MOL
REMARK 923 INTER-LIGAND FREE ENERGY PREDICTED BY IDOCK:   -2.73 KCAL/MOL
REMARK 924 INTRA-LIGAND FREE ENERGY PREDICTED BY IDOCK:   -0.11 KCAL/MOL
REMARK 927      BINDING AFFINITY PREDICTED BY RF-SCORE:    0.00 PKD
ROOT
HETATM    1  N   UNL     1      -5.792  12.486  67.689  1.00  0.00    -0.119 NA 
HETATM    2  H1  UNL     1      -6.161  13.372  67.346  1.00  0.00     0.000 HD 
HETATM    3  H2  UNL     1      -4.805  12.247  67.595  1.00  0.00     0.000 HD 
HETATM    4  C   UNL     1      -6.681  11.631  68.281  1.00  0.00    -0.064 C  
HETATM    5  N   UNL     1      -6.213  10.506  68.716  1.00  0.00    -0.046 N  
HETATM    6  C   UNL     1      -7.060   9.601  69.317  1.00  0.00    -0.063 C  
HETATM    7  H   UNL     1      -5.221  10.290  68.614  1.00  0.00     0.000 HD 
HETATM    8  N   UNL     1      -8.427   9.884  69.339  1.00  0.00    -0.151 N  
HETATM    9  O   UNL     1      -6.616   8.569  69.817  1.00  0.00    -0.038 OA 
HETATM   10  C   UNL     1      -8.101  12.017  68.387  1.00  0.00    -0.154 C  
HETATM   11  C   UNL     1      -8.913  11.097  68.907  1.00  0.00    -0.081 C  
ENDROOT
BRANCH   8  12
HETATM   12  C   UNL     1      -9.300   8.925  69.993  1.00  0.00    -0.174 C  
HETATM   13  C   UNL     1      -9.157   8.922  71.506  1.00  0.00    -0.299 C  
HETATM   14  C   UNL     1     -10.457   8.295  71.940  1.00  0.00    -0.342 C  
HETATM   15  C   UNL     1     -11.448   8.710  70.856  1.00  0.00    -0.275 C  
HETATM   16  O   UNL     1     -10.686   9.223  69.742  1.00  0.00    -0.222 OA 
BRANCH  15  17
HETATM   17  C   UNL     1     -12.464   9.762  71.303  1.00  0.00    -0.367 C  
HETATM   18  O   UNL     1     -12.163  11.039  70.744  1.00  0.00    -0.329 OA 
HETATM   19  H   UNL     1     -12.794  11.692  71.022  1.00  0.00     0.000 HD 
ENDBRANCH  15  17
ENDBRANCH   8  12
TORSDOF 2
ENDMDL
MODEL      204
REMARK 921   NORMALIZED FREE ENERGY PREDICTED BY IDOCK:   -2.25 KCAL/MOL
REMARK 922        TOTAL FREE ENERGY PREDICTED BY IDOCK:   -2.84 KCAL/MOL
REMARK 923 INTER-LIGAND FREE ENERGY PREDICTED BY IDOCK:   -3.28 KCAL/MOL
REMARK 924 INTRA-LIGAND FREE ENERGY PREDICTED BY IDOCK:    0.44 KCAL/MOL
REMARK 927      BINDING AFFINITY PREDICTED BY RF-SCORE:    0.00 PKD
ROOT
HETATM    1  N   UNL     1     -11.556   9.750  71.137  1.00  0.00    -0.362 NA 
HETATM    2  H1  UNL     1     -11.997   9.579  72.041  1.00  0.00     0.000 HD 
HETATM    3  H2  UNL     1     -11.347  10.695  70.816  1.00  0.00     0.000 HD 
HETATM    4  C   UNL     1     -11.259   8.653  70.375  1.00  0.00    -0.218 C  
HETATM    5  N   UNL     1     -10.699   8.870  69.228  1.00  0.00    -0.345 N  
HETATM    6  C   UNL     1     -10.380   7.806  68.414  1.00  0.00    -0.196 C  
HETATM    7  H   UNL     1     -10.496   9.824  68.929  1.00  0.00     0.000 HD 
HETATM    8  N   UNL     1     -10.774   6.526  68.807  1.00  0.00    -0.244 N  
HETATM    9  O   UNL     1      -9.766   7.988  67.363  1.00  0.00    -0.148 OA 
HETATM   10  C   UNL     1     -11.589   7.306  70.878  1.00  0.00    -0.331 C  
HETATM   11  C   UNL     1     -11.336   6.299  70.043  1.00  0.00    -0.416 C  
ENDROOT
BRANCH   8  12
HETATM   12  C   UNL     1     -10.412   5.418  67.942  1.00  0.00    -0.133 C  
HETATM   13  C   UNL     1     -10.866   5.609  66.504  1.00  0.00    -0.239 C  
HETATM   14  C   UNL     1      -9.955   4.664  65.762  1.00  0.00    -0.246 C  
HETATM   15  C   UNL     1      -8.678   4.648  66.597  1.00  0.00    -0.111 C  
HETATM   16  O   UNL     1      -8.983   5.255  67.872  1.00  0.00    -0.109 OA 
BRANCH  15  17
HETATM   17  C   UNL     1      -7.499   5.382  65.955  1.00  0.00    -0.082 C  
HETATM   18  O   UNL     1      -7.788   5.739  64.605  1.00  0.00    -0.101 OA 
HETATM   19  H   UNL     1      -7.056   6.195  64.207  1.00  0.00     0.000 HD 
ENDBRANCH  15  17
ENDBRANCH   8  12
TORSDOF 2
ENDMDL
MODEL      205
REMARK 921   NORMALIZED FREE ENERGY PREDICTED BY IDOCK:   -2.25 KCAL/MOL
REMARK 922        TOTAL FREE ENERGY PREDICTED BY IDOCK:   -2.84 KCAL/MOL
REMARK 923 INTER-LIGAND FREE ENERGY PREDICTED BY IDOCK:   -3.01 KCAL/MOL
REMARK 924 INTRA-LIGAND FREE ENERGY PREDICTED BY IDOCK:    0.17 KCAL/MOL
REMARK 927      BINDING AFFINITY PREDICTED BY RF-SCORE:    0.00 PKD
ROOT
HETATM    1  N   UNL     1     -10.992   5.963  66.364  1.00  0.00    -0.734 NA 
HETATM    2  H1  UNL     1     -11.608   6.746  66.144  1.00  0.00     0.000 HD 
HETATM    3  H2  UNL     1     -10.583   5.384  65.630  1.00  0.00     0.000 HD 
HETATM    4  C   UNL     1     -10.739   5.726  67.687  1.00  0.00    -0.229 C  
HETATM    5  N   UNL     1      -9.957   4.732  67.966  1.00  0.00    -0.124 N  
HETATM    6  C   UNL     1      -9.668   4.440  69.280  1.00  0.00    -0.182 C  
HETATM    7  H   UNL     1      -9.557   4.169  67.216  1.00  0.00     0.000 HD 
HETATM    8  N   UNL     1     -10.321   5.163  70.281  1.00  0.00    -0.275 N  
HETATM    9  O   UNL     1      -8.857   3.559  69.559  1.00  0.00    -0.073 OA 
HETATM   10  C   UNL     1     -11.360   6.585  68.713  1.00  0.00    -0.237 C  
HETATM   11  C   UNL     1     -11.123   6.240  69.977  1.00  0.00    -0.388 C  
ENDROOT
BRANCH   8  12
HETATM   12  C   UNL     1      -9.988   4.850  71.659  1.00  0.00    -0.190 C  
HETATM   13  C   UNL     1     -10.157   3.377  71.995  1.00  0.00    -0.179 C  
HETATM   14  C   UNL     1      -9.287   3.236  73.218  1.00  0.00    -0.112 C  
HETATM   15  C   UNL     1      -8.187   4.274  73.012  1.00  0.00    -0.091 C  
HETATM   16  O   UNL     1      -8.609   5.150  71.945  1.00  0.00    -0.126 OA 
BRANCH  15  17
HETATM   17  C   UNL     1      -6.819   3.681  72.670  1.00  0.00    -0.042 C  
HETATM   18  O   UNL     1      -6.639   3.582  71.259  1.00  0.00    -0.025 OA 
HETATM   19  H   UNL     1      -5.790   3.214  71.046  1.00  0.00     0.000 HD 
ENDBRANCH  15  17
ENDBRANCH   8  12
TORSDOF 2
ENDMDL
MODEL      206
REMARK 921   NORMALIZED FREE ENERGY PREDICTED BY IDOCK:   -2.19 KCAL/MOL
REMARK 922        TOTAL FREE ENERGY PREDICTED BY IDOCK:   -2.77 KCAL/MOL
REMARK 923 INTER-LIGAND FREE ENERGY PREDICTED BY IDOCK:   -3.37 KCAL/MOL
REMARK 924 INTRA-LIGAND FREE ENERGY PREDICTED BY IDOCK:    0.60 KCAL/MOL
REMARK 927      BINDING AFFINITY PREDICTED BY RF-SCORE:    0.00 PKD
ROOT
HETATM    1  N   UNL     1      -7.804   9.874  63.389  1.00  0.00    -0.146 NA 
HETATM    2  H1  UNL     1      -7.072  10.536  63.135  1.00  0.00     0.000 HD 
HETATM    3  H2  UNL     1      -8.360   9.396  62.680  1.00  0.00     0.000 HD 
HETATM    4  C   UNL     1      -8.006   9.655  64.724  1.00  0.00    -0.129 C  
HETATM    5  N   UNL     1      -8.936   8.813  65.046  1.00  0.00    -0.403 N  
HETATM    6  C   UNL     1      -9.190   8.554  66.375  1.00  0.00    -0.199 C  
HETATM    7  H   UNL     1      -9.477   8.345  64.320  1.00  0.00     0.000 HD 
HETATM    8  N   UNL     1      -8.506   9.296  67.340  1.00  0.00    -0.121 N  
HETATM    9  O   UNL     1     -10.006   7.692  66.697  1.00  0.00    -0.232 OA 
HETATM   10  C   UNL     1      -7.183  10.375  65.713  1.00  0.00    -0.143 C  
HETATM   11  C   UNL     1      -7.494  10.162  66.991  1.00  0.00    -0.092 C  
ENDROOT
BRANCH   8  12
HETATM   12  C   UNL     1      -8.777   8.994  68.734  1.00  0.00    -0.136 C  
HETATM   13  C   UNL     1      -9.978   9.743  69.285  1.00  0.00    -0.201 C  
HETATM   14  C   UNL     1     -10.349   8.901  70.479  1.00  0.00    -0.246 C  
HETATM   15  C   UNL     1      -9.929   7.489  70.081  1.00  0.00    -0.192 C  
HETATM   16  O   UNL     1      -9.082   7.599  68.916  1.00  0.00    -0.141 OA 
BRANCH  15  17
HETATM   17  C   UNL     1     -11.096   6.550  69.772  1.00  0.00    -0.370 C  
HETATM   18  O   UNL     1     -12.291   6.982  70.420  1.00  0.00    -0.615 OA 
HETATM   19  H   UNL     1     -13.015   6.398  70.227  1.00  0.00     0.000 HD 
ENDBRANCH  15  17
ENDBRANCH   8  12
TORSDOF 2
ENDMDL
MODEL      207
REMARK 921   NORMALIZED FREE ENERGY PREDICTED BY IDOCK:   -2.16 KCAL/MOL
REMARK 922        TOTAL FREE ENERGY PREDICTED BY IDOCK:   -2.73 KCAL/MOL
REMARK 923 INTER-LIGAND FREE ENERGY PREDICTED BY IDOCK:   -3.18 KCAL/MOL
REMARK 924 INTRA-LIGAND FREE ENERGY PREDICTED BY IDOCK:    0.45 KCAL/MOL
REMARK 927      BINDING AFFINITY PREDICTED BY RF-SCORE:    0.00 PKD
ROOT
HETATM    1  N   UNL     1     -13.185   7.373  71.120  1.00  0.00    -0.585 NA 
HETATM    2  H1  UNL     1     -13.241   7.711  72.080  1.00  0.00     0.000 HD 
HETATM    3  H2  UNL     1     -14.008   7.337  70.518  1.00  0.00     0.000 HD 
HETATM    4  C   UNL     1     -11.956   6.970  70.675  1.00  0.00    -0.313 C  
HETATM    5  N   UNL     1     -11.884   6.541  69.456  1.00  0.00    -0.589 N  
HETATM    6  C   UNL     1     -10.675   6.116  68.952  1.00  0.00    -0.312 C  
HETATM    7  H   UNL     1     -12.720   6.517  68.871  1.00  0.00     0.000 HD 
HETATM    8  N   UNL     1      -9.578   6.059  69.815  1.00  0.00    -0.148 N  
HETATM    9  O   UNL     1     -10.571   5.793  67.770  1.00  0.00    -0.231 OA 
HETATM   10  C   UNL     1     -10.796   7.032  71.585  1.00  0.00    -0.249 C  
HETATM   11  C   UNL     1      -9.653   6.550  71.099  1.00  0.00    -0.171 C  
ENDROOT
BRANCH   8  12
HETATM   12  C   UNL     1      -8.309   5.626  69.259  1.00  0.00    -0.107 C  
HETATM   13  C   UNL     1      -8.323   4.178  68.796  1.00  0.00    -0.093 C  
HETATM   14  C   UNL     1      -7.165   4.149  67.831  1.00  0.00    -0.064 C  
HETATM   15  C   UNL     1      -7.123   5.564  67.259  1.00  0.00    -0.074 C  
HETATM   16  O   UNL     1      -7.960   6.395  68.093  1.00  0.00    -0.106 OA 
BRANCH  15  17
HETATM   17  C   UNL     1      -7.592   5.668  65.807  1.00  0.00    -0.086 C  
HETATM   18  O   UNL     1      -6.930   6.732  65.127  1.00  0.00    -0.052 OA 
HETATM   19  H   UNL     1      -7.220   6.797  64.225  1.00  0.00     0.000 HD 
ENDBRANCH  15  17
ENDBRANCH   8  12
TORSDOF 2
ENDMDL
MODEL      208
REMARK 921   NORMALIZED FREE ENERGY PREDICTED BY IDOCK:   -2.13 KCAL/MOL
REMARK 922        TOTAL FREE ENERGY PREDICTED BY IDOCK:   -2.70 KCAL/MOL
REMARK 923 INTER-LIGAND FREE ENERGY PREDICTED BY IDOCK:   -3.31 KCAL/MOL
REMARK 924 INTRA-LIGAND FREE ENERGY PREDICTED BY IDOCK:    0.62 KCAL/MOL
REMARK 927      BINDING AFFINITY PREDICTED BY RF-SCORE:    0.00 PKD
ROOT
HETATM    1  N   UNL     1     -11.940  10.734  68.119  1.00  0.00    -0.801 NA 
HETATM    2  H1  UNL     1     -11.848  11.570  68.696  1.00  0.00     0.000 HD 
HETATM    3  H2  UNL     1     -12.677  10.647  67.420  1.00  0.00     0.000 HD 
HETATM    4  C   UNL     1     -11.029   9.735  68.326  1.00  0.00    -0.164 C  
HETATM    5  N   UNL     1     -11.145   8.674  67.593  1.00  0.00    -0.403 N  
HETATM    6  C   UNL     1     -10.260   7.631  67.758  1.00  0.00    -0.201 C  
HETATM    7  H   UNL     1     -11.889   8.611  66.898  1.00  0.00     0.000 HD 
HETATM    8  N   UNL     1      -9.327   7.709  68.794  1.00  0.00    -0.149 N  
HETATM    9  O   UNL     1     -10.300   6.656  67.010  1.00  0.00    -0.205 OA 
HETATM   10  C   UNL     1      -9.984   9.903  69.355  1.00  0.00    -0.227 C  
HETATM   11  C   UNL     1      -9.186   8.854  69.544  1.00  0.00    -0.150 C  
ENDROOT
BRANCH   8  12
HETATM   12  C   UNL     1      -8.393   6.606  68.937  1.00  0.00    -0.120 C  
HETATM   13  C   UNL     1      -8.612   5.799  70.206  1.00  0.00    -0.133 C  
HETATM   14  C   UNL     1      -7.936   4.495  69.865  1.00  0.00    -0.060 C  
HETATM   15  C   UNL     1      -8.106   4.374  68.353  1.00  0.00    -0.082 C  
HETATM   16  O   UNL     1      -8.527   5.664  67.858  1.00  0.00    -0.104 OA 
BRANCH  15  17
HETATM   17  C   UNL     1      -9.114   3.310  67.917  1.00  0.00    -0.169 C  
HETATM   18  O   UNL     1     -10.023   3.827  66.948  1.00  0.00    -0.347 OA 
HETATM   19  H   UNL     1     -10.649   3.166  66.677  1.00  0.00     0.000 HD 
ENDBRANCH  15  17
ENDBRANCH   8  12
TORSDOF 2
ENDMDL
MODEL      209
REMARK 921   NORMALIZED FREE ENERGY PREDICTED BY IDOCK:   -1.97 KCAL/MOL
REMARK 922        TOTAL FREE ENERGY PREDICTED BY IDOCK:   -2.52 KCAL/MOL
REMARK 923 INTER-LIGAND FREE ENERGY PREDICTED BY IDOCK:   -2.23 KCAL/MOL
REMARK 924 INTRA-LIGAND FREE ENERGY PREDICTED BY IDOCK:   -0.29 KCAL/MOL
REMARK 927      BINDING AFFINITY PREDICTED BY RF-SCORE:    0.00 PKD
ROOT
HETATM    1  N   UNL     1      -8.570  11.812  65.949  1.00  0.00    -0.393 NA 
HETATM    2  H1  UNL     1      -9.242  12.177  65.274  1.00  0.00     0.000 HD 
HETATM    3  H2  UNL     1      -7.814  12.390  66.316  1.00  0.00     0.000 HD 
HETATM    4  C   UNL     1      -8.730  10.511  66.340  1.00  0.00    -0.145 C  
HETATM    5  N   UNL     1      -7.878  10.046  67.197  1.00  0.00    -0.099 N  
HETATM    6  C   UNL     1      -7.984   8.742  67.626  1.00  0.00    -0.106 C  
HETATM    7  H   UNL     1      -7.132  10.644  67.553  1.00  0.00     0.000 HD 
HETATM    8  N   UNL     1      -8.948   7.923  67.034  1.00  0.00    -0.125 N  
HETATM    9  O   UNL     1      -7.240   8.313  68.506  1.00  0.00    -0.084 OA 
HETATM   10  C   UNL     1      -9.834   9.710  65.775  1.00  0.00    -0.373 C  
HETATM   11  C   UNL     1      -9.873   8.433  66.150  1.00  0.00    -0.113 C  
ENDROOT
BRANCH   8  12
HETATM   12  C   UNL     1      -9.053   6.557  67.513  1.00  0.00    -0.115 C  
HETATM   13  C   UNL     1     -10.489   6.075  67.635  1.00  0.00    -0.297 C  
HETATM   14  C   UNL     1     -10.317   4.578  67.617  1.00  0.00     0.098 C  
HETATM   15  C   UNL     1      -9.075   4.358  66.758  1.00  0.00    -0.128 C  
HETATM   16  O   UNL     1      -8.417   5.635  66.608  1.00  0.00    -0.112 OA 
BRANCH  15  17
HETATM   17  C   UNL     1      -9.362   3.771  65.375  1.00  0.00    -0.159 C  
HETATM   18  O   UNL     1      -8.284   2.951  64.929  1.00  0.00    -0.086 OA 
HETATM   19  H   UNL     1      -8.463   2.587  64.070  1.00  0.00     0.000 HD 
ENDBRANCH  15  17
ENDBRANCH   8  12
TORSDOF 2
ENDMDL
MODEL      210
REMARK 921   NORMALIZED FREE ENERGY PREDICTED BY IDOCK:   -1.91 KCAL/MOL
REMARK 922        TOTAL FREE ENERGY PREDICTED BY IDOCK:   -2.46 KCAL/MOL
REMARK 923 INTER-LIGAND FREE ENERGY PREDICTED BY IDOCK:   -2.64 KCAL/MOL
REMARK 924 INTRA-LIGAND FREE ENERGY PREDICTED BY IDOCK:    0.18 KCAL/MOL
REMARK 927      BINDING AFFINITY PREDICTED BY RF-SCORE:    0.00 PKD
ROOT
HETATM    1  N   UNL     1     -10.918   4.445  73.794  1.00  0.00    -0.284 NA 
HETATM    2  H1  UNL     1     -11.510   5.008  74.404  1.00  0.00     0.000 HD 
HETATM    3  H2  UNL     1     -10.512   3.564  74.109  1.00  0.00     0.000 HD 
HETATM    4  C   UNL     1     -10.692   4.925  72.533  1.00  0.00    -0.196 C  
HETATM    5  N   UNL     1      -9.940   4.211  71.758  1.00  0.00    -0.184 N  
HETATM    6  C   UNL     1      -9.673   4.644  70.479  1.00  0.00    -0.214 C  
HETATM    7  H   UNL     1      -9.549   3.331  72.094  1.00  0.00     0.000 HD 
HETATM    8  N   UNL     1     -10.135   5.904  70.093  1.00  0.00    -0.189 N  
HETATM    9  O   UNL     1      -9.037   3.935  69.701  1.00  0.00    -0.094 OA 
HETATM   10  C   UNL     1     -11.293   6.209  72.124  1.00  0.00    -0.347 C  
HETATM   11  C   UNL     1     -10.963   6.642  70.909  1.00  0.00    -0.268 C  
ENDROOT
BRANCH   8  12
HETATM   12  C   UNL     1      -9.856   6.333  68.735  1.00  0.00    -0.137 C  
HETATM   13  C   UNL     1     -10.208   7.790  68.483  1.00  0.00    -0.227 C  
HETATM   14  C   UNL     1      -9.374   8.107  67.269  1.00  0.00    -0.174 C  
HETATM   15  C   UNL     1      -8.152   7.203  67.413  1.00  0.00    -0.112 C  
HETATM   16  O   UNL     1      -8.453   6.223  68.429  1.00  0.00    -0.115 OA 
BRANCH  15  17
HETATM   17  C   UNL     1      -6.865   7.941  67.785  1.00  0.00    -0.069 C  
HETATM   18  O   UNL     1      -5.728   7.333  67.177  1.00  0.00    -0.027 OA 
HETATM   19  H   UNL     1      -4.929   7.791  67.409  1.00  0.00     0.000 HD 
ENDBRANCH  15  17
ENDBRANCH   8  12
TORSDOF 2
ENDMDL
MODEL      211
REMARK 921   NORMALIZED FREE ENERGY PREDICTED BY IDOCK:   -1.90 KCAL/MOL
REMARK 922        TOTAL FREE ENERGY PREDICTED BY IDOCK:   -2.45 KCAL/MOL
REMARK 923 INTER-LIGAND FREE ENERGY PREDICTED BY IDOCK:   -2.17 KCAL/MOL
REMARK 924 INTRA-LIGAND FREE ENERGY PREDICTED BY IDOCK:   -0.28 KCAL/MOL
REMARK 927      BINDING AFFINITY PREDICTED BY RF-SCORE:    0.00 PKD
ROOT
HETATM    1  N   UNL     1      -6.619   3.279  65.902  1.00  0.00    -0.039 NA 
HETATM    2  H1  UNL     1      -5.721   2.851  66.124  1.00  0.00     0.000 HD 
HETATM    3  H2  UNL     1      -6.912   3.433  64.937  1.00  0.00     0.000 HD 
HETATM    4  C   UNL     1      -7.414   3.635  66.956  1.00  0.00    -0.075 C  
HETATM    5  N   UNL     1      -8.555   4.178  66.674  1.00  0.00    -0.111 N  
HETATM    6  C   UNL     1      -9.398   4.563  67.693  1.00  0.00    -0.147 C  
HETATM    7  H   UNL     1      -8.828   4.319  65.701  1.00  0.00     0.000 HD 
HETATM    8  N   UNL     1      -8.943   4.455  69.009  1.00  0.00    -0.101 N  
HETATM    9  O   UNL     1     -10.522   4.995  67.442  1.00  0.00    -0.153 OA 
HETATM   10  C   UNL     1      -6.945   3.400  68.335  1.00  0.00    -0.050 C  
HETATM   11  C   UNL     1      -7.745   3.844  69.302  1.00  0.00    -0.053 C  
ENDROOT
BRANCH   8  12
HETATM   12  C   UNL     1      -9.855   4.850  70.067  1.00  0.00    -0.233 C  
HETATM   13  C   UNL     1      -9.664   4.055  71.348  1.00  0.00    -0.253 C  
HETATM   14  C   UNL     1     -10.295   4.962  72.374  1.00  0.00    -0.262 C  
HETATM   15  C   UNL     1     -10.065   6.365  71.819  1.00  0.00    -0.185 C  
HETATM   16  O   UNL     1      -9.657   6.226  70.441  1.00  0.00    -0.163 OA 
BRANCH  15  17
HETATM   17  C   UNL     1      -9.016   7.177  72.579  1.00  0.00    -0.127 C  
HETATM   18  O   UNL     1      -9.588   8.352  73.150  1.00  0.00    -0.221 OA 
HETATM   19  H   UNL     1      -8.936   8.856  73.623  1.00  0.00     0.000 HD 
ENDBRANCH  15  17
ENDBRANCH   8  12
TORSDOF 2
ENDMDL
MODEL      212
REMARK 921   NORMALIZED FREE ENERGY PREDICTED BY IDOCK:   -1.87 KCAL/MOL
REMARK 922        TOTAL FREE ENERGY PREDICTED BY IDOCK:   -2.41 KCAL/MOL
REMARK 923 INTER-LIGAND FREE ENERGY PREDICTED BY IDOCK:   -2.19 KCAL/MOL
REMARK 924 INTRA-LIGAND FREE ENERGY PREDICTED BY IDOCK:   -0.22 KCAL/MOL
REMARK 927      BINDING AFFINITY PREDICTED BY RF-SCORE:    0.00 PKD
ROOT
HETATM    1  N   UNL     1      -8.379  12.008  67.977  1.00  0.00    -0.153 NA 
HETATM    2  H1  UNL     1      -8.510  12.684  68.729  1.00  0.00     0.000 HD 
HETATM    3  H2  UNL     1      -8.032  12.290  67.060  1.00  0.00     0.000 HD 
HETATM    4  C   UNL     1      -8.688  10.705  68.255  1.00  0.00    -0.135 C  
HETATM    5  N   UNL     1      -8.520   9.845  67.301  1.00  0.00    -0.121 N  
HETATM    6  C   UNL     1      -8.819   8.519  67.518  1.00  0.00    -0.135 C  
HETATM    7  H   UNL     1      -8.169  10.150  66.393  1.00  0.00     0.000 HD 
HETATM    8  N   UNL     1      -9.402   8.159  68.735  1.00  0.00    -0.144 N  
HETATM    9  O   UNL     1      -8.580   7.677  66.654  1.00  0.00    -0.123 OA 
HETATM   10  C   UNL     1      -9.195  10.345  69.593  1.00  0.00    -0.085 C  
HETATM   11  C   UNL     1      -9.544   9.070  69.756  1.00  0.00    -0.175 C  
ENDROOT
BRANCH   8  12
HETATM   12  C   UNL     1      -9.692   6.752  68.948  1.00  0.00    -0.137 C  
HETATM   13  C   UNL     1      -8.537   5.992  69.578  1.00  0.00    -0.119 C  
HETATM   14  C   UNL     1      -9.235   4.789  70.158  1.00  0.00    -0.195 C  
HETATM   15  C   UNL     1     -10.630   5.302  70.505  1.00  0.00    -0.202 C  
HETATM   16  O   UNL     1     -10.800   6.579  69.852  1.00  0.00    -0.233 OA 
BRANCH  15  17
HETATM   17  C   UNL     1     -10.886   5.462  72.005  1.00  0.00    -0.202 C  
HETATM   18  O   UNL     1     -11.043   4.194  72.639  1.00  0.00    -0.031 OA 
HETATM   19  H   UNL     1     -11.201   4.294  73.570  1.00  0.00     0.000 HD 
ENDBRANCH  15  17
ENDBRANCH   8  12
TORSDOF 2
ENDMDL
MODEL      213
REMARK 921   NORMALIZED FREE ENERGY PREDICTED BY IDOCK:   -1.81 KCAL/MOL
REMARK 922        TOTAL FREE ENERGY PREDICTED BY IDOCK:   -2.35 KCAL/MOL
REMARK 923 INTER-LIGAND FREE ENERGY PREDICTED BY IDOCK:   -2.16 KCAL/MOL
REMARK 924 INTRA-LIGAND FREE ENERGY PREDICTED BY IDOCK:   -0.19 KCAL/MOL
REMARK 927      BINDING AFFINITY PREDICTED BY RF-SCORE:    0.00 PKD
ROOT
HETATM    1  N   UNL     1      -5.197   5.230  66.992  1.00  0.00    -0.008 NA 
HETATM    2  H1  UNL     1      -4.352   5.428  67.526  1.00  0.00     0.000 HD 
HETATM    3  H2  UNL     1      -5.204   4.541  66.240  1.00  0.00     0.000 HD 
HETATM    4  C   UNL     1      -6.324   5.929  67.330  1.00  0.00    -0.042 C  
HETATM    5  N   UNL     1      -7.397   5.676  66.652  1.00  0.00    -0.081 N  
HETATM    6  C   UNL     1      -8.562   6.352  66.942  1.00  0.00    -0.110 C  
HETATM    7  H   UNL     1      -7.380   4.980  65.907  1.00  0.00     0.000 HD 
HETATM    8  N   UNL     1      -8.518   7.374  67.893  1.00  0.00    -0.122 N  
HETATM    9  O   UNL     1      -9.611   6.059  66.371  1.00  0.00    -0.157 OA 
HETATM   10  C   UNL     1      -6.265   6.922  68.420  1.00  0.00    -0.034 C  
HETATM   11  C   UNL     1      -7.383   7.612  68.634  1.00  0.00    -0.091 C  
ENDROOT
BRANCH   8  12
HETATM   12  C   UNL     1      -9.761   8.061  68.196  1.00  0.00    -0.160 C  
HETATM   13  C   UNL     1      -9.701   8.866  69.483  1.00  0.00    -0.173 C  
HETATM   14  C   UNL     1     -10.832   9.844  69.291  1.00  0.00    -0.255 C  
HETATM   15  C   UNL     1     -10.891  10.050  67.780  1.00  0.00    -0.282 C  
HETATM   16  O   UNL     1     -10.097   9.011  67.167  1.00  0.00    -0.202 OA 
BRANCH  15  17
HETATM   17  C   UNL     1     -10.387  11.416  67.312  1.00  0.00    -0.198 C  
HETATM   18  O   UNL     1     -10.453  11.531  65.892  1.00  0.00    -0.241 OA 
HETATM   19  H   UNL     1     -10.140  12.380  65.602  1.00  0.00     0.000 HD 
ENDBRANCH  15  17
ENDBRANCH   8  12
TORSDOF 2
ENDMDL
MODEL      214
REMARK 921   NORMALIZED FREE ENERGY PREDICTED BY IDOCK:   -1.74 KCAL/MOL
REMARK 922        TOTAL FREE ENERGY PREDICTED BY IDOCK:   -2.27 KCAL/MOL
REMARK 923 INTER-LIGAND FREE ENERGY PREDICTED BY IDOCK:   -2.55 KCAL/MOL
REMARK 924 INTRA-LIGAND FREE ENERGY PREDICTED BY IDOCK:    0.29 KCAL/MOL
REMARK 927      BINDING AFFINITY PREDICTED BY RF-SCORE:    0.00 PKD
ROOT
HETATM    1  N   UNL     1      -7.845   8.749  69.472  1.00  0.00    -0.089 NA 
HETATM    2  H1  UNL     1      -6.999   8.969  69.998  1.00  0.00     0.000 HD 
HETATM    3  H2  UNL     1      -8.665   9.354  69.502  1.00  0.00     0.000 HD 
HETATM    4  C   UNL     1      -7.828   7.604  68.723  1.00  0.00    -0.120 C  
HETATM    5  N   UNL     1      -8.901   7.324  68.055  1.00  0.00    -0.130 N  
HETATM    6  C   UNL     1      -8.948   6.182  67.287  1.00  0.00    -0.112 C  
HETATM    7  H   UNL     1      -9.708   7.947  68.098  1.00  0.00     0.000 HD 
HETATM    8  N   UNL     1      -7.867   5.299  67.341  1.00  0.00    -0.099 N  
HETATM    9  O   UNL     1      -9.924   5.949  66.575  1.00  0.00    -0.162 OA 
HETATM   10  C   UNL     1      -6.622   6.754  68.718  1.00  0.00    -0.051 C  
HETATM   11  C   UNL     1      -6.717   5.620  68.025  1.00  0.00    -0.055 C  
ENDROOT
BRANCH   8  12
HETATM   12  C   UNL     1      -7.931   4.111  66.509  1.00  0.00    -0.098 C  
HETATM   13  C   UNL     1      -8.867   3.047  67.057  1.00  0.00    -0.158 C  
HETATM   14  C   UNL     1      -9.156   2.224  65.828  1.00  0.00    -0.076 C  
HETATM   15  C   UNL     1      -9.061   3.226  64.680  1.00  0.00    -0.135 C  
HETATM   16  O   UNL     1      -8.431   4.419  65.195  1.00  0.00    -0.116 OA 
BRANCH  15  17
HETATM   17  C   UNL     1     -10.407   3.593  64.054  1.00  0.00    -0.255 C  
HETATM   18  O   UNL     1     -11.288   4.159  65.022  1.00  0.00    -0.898 OA 
HETATM   19  H   UNL     1     -12.124   4.388  64.633  1.00  0.00     0.000 HD 
ENDBRANCH  15  17
ENDBRANCH   8  12
TORSDOF 2
ENDMDL
MODEL      215
REMARK 921   NORMALIZED FREE ENERGY PREDICTED BY IDOCK:   -1.72 KCAL/MOL
REMARK 922        TOTAL FREE ENERGY PREDICTED BY IDOCK:   -2.24 KCAL/MOL
REMARK 923 INTER-LIGAND FREE ENERGY PREDICTED BY IDOCK:   -2.98 KCAL/MOL
REMARK 924 INTRA-LIGAND FREE ENERGY PREDICTED BY IDOCK:    0.74 KCAL/MOL
REMARK 927      BINDING AFFINITY PREDICTED BY RF-SCORE:    0.00 PKD
ROOT
HETATM    1  N   UNL     1      -9.875  11.394  65.743  1.00  0.00    -0.223 NA 
HETATM    2  H1  UNL     1      -9.429  12.300  65.887  1.00  0.00     0.000 HD 
HETATM    3  H2  UNL     1     -10.299  11.144  64.850  1.00  0.00     0.000 HD 
HETATM    4  C   UNL     1      -9.876  10.529  66.803  1.00  0.00    -0.193 C  
HETATM    5  N   UNL     1     -10.441   9.378  66.620  1.00  0.00    -0.208 N  
HETATM    6  C   UNL     1     -10.480   8.466  67.651  1.00  0.00    -0.239 C  
HETATM    7  H   UNL     1     -10.856   9.149  65.717  1.00  0.00     0.000 HD 
HETATM    8  N   UNL     1     -10.001   8.857  68.903  1.00  0.00    -0.185 N  
HETATM    9  O   UNL     1     -10.930   7.336  67.467  1.00  0.00    -0.226 OA 
HETATM   10  C   UNL     1      -9.258  10.937  68.078  1.00  0.00    -0.156 C  
HETATM   11  C   UNL     1      -9.370  10.067  69.080  1.00  0.00    -0.193 C  
ENDROOT
BRANCH   8  12
HETATM   12  C   UNL     1     -10.035   7.873  69.971  1.00  0.00    -0.191 C  
HETATM   13  C   UNL     1     -11.233   6.944  69.889  1.00  0.00    -0.334 C  
HETATM   14  C   UNL     1     -10.772   5.768  70.712  1.00  0.00    -0.342 C  
HETATM   15  C   UNL     1      -9.258   5.751  70.517  1.00  0.00    -0.147 C  
HETATM   16  O   UNL     1      -8.881   7.013  69.925  1.00  0.00    -0.141 OA 
BRANCH  15  17
HETATM   17  C   UNL     1      -8.751   4.607  69.637  1.00  0.00    -0.081 C  
HETATM   18  O   UNL     1      -9.812   3.724  69.277  1.00  0.00    -0.119 OA 
HETATM   19  H   UNL     1      -9.497   3.014  68.730  1.00  0.00     0.000 HD 
ENDBRANCH  15  17
ENDBRANCH   8  12
TORSDOF 2
ENDMDL
MODEL      216
REMARK 921   NORMALIZED FREE ENERGY PREDICTED BY IDOCK:   -1.63 KCAL/MOL
REMARK 922        TOTAL FREE ENERGY PREDICTED BY IDOCK:   -2.15 KCAL/MOL
REMARK 923 INTER-LIGAND FREE ENERGY PREDICTED BY IDOCK:   -3.12 KCAL/MOL
REMARK 924 INTRA-LIGAND FREE ENERGY PREDICTED BY IDOCK:    0.97 KCAL/MOL
REMARK 927      BINDING AFFINITY PREDICTED BY RF-SCORE:    0.00 PKD
ROOT
HETATM    1  N   UNL     1      -5.273  13.409  71.161  1.00  0.00    -0.155 NA 
HETATM    2  H1  UNL     1      -4.853  14.328  71.301  1.00  0.00     0.000 HD 
HETATM    3  H2  UNL     1      -5.049  12.622  71.770  1.00  0.00     0.000 HD 
HETATM    4  C   UNL     1      -6.150  13.281  70.120  1.00  0.00    -0.107 C  
HETATM    5  N   UNL     1      -6.684  12.115  69.942  1.00  0.00    -0.358 N  
HETATM    6  C   UNL     1      -7.572  11.922  68.907  1.00  0.00    -0.036 C  
HETATM    7  H   UNL     1      -6.448  11.343  70.567  1.00  0.00     0.000 HD 
HETATM    8  N   UNL     1      -7.784  12.970  68.009  1.00  0.00    -0.130 N  
HETATM    9  O   UNL     1      -8.157  10.847  68.780  1.00  0.00    -0.130 OA 
HETATM   10  C   UNL     1      -6.436  14.445  69.260  1.00  0.00    -0.117 C  
HETATM   11  C   UNL     1      -7.241  14.216  68.224  1.00  0.00    -0.116 C  
ENDROOT
BRANCH   8  12
HETATM   12  C   UNL     1      -8.737  12.750  66.936  1.00  0.00    -0.168 C  
HETATM   13  C   UNL     1      -9.745  11.656  67.247  1.00  0.00    -0.192 C  
HETATM   14  C   UNL     1     -10.864  11.984  66.292  1.00  0.00    -0.316 C  
HETATM   15  C   UNL     1     -10.788  13.500  66.139  1.00  0.00    -0.281 C  
HETATM   16  O   UNL     1      -9.522  13.930  66.683  1.00  0.00    -0.270 OA 
BRANCH  15  17
HETATM   17  C   UNL     1     -11.921  14.259  66.832  1.00  0.00    -0.438 C  
HETATM   18  O   UNL     1     -11.541  14.669  68.143  1.00  0.00    -0.305 OA 
HETATM   19  H   UNL     1     -12.244  15.141  68.573  1.00  0.00     0.000 HD 
ENDBRANCH  15  17
ENDBRANCH   8  12
TORSDOF 2
ENDMDL
MODEL      217
REMARK 921   NORMALIZED FREE ENERGY PREDICTED BY IDOCK:   -1.63 KCAL/MOL
REMARK 922        TOTAL FREE ENERGY PREDICTED BY IDOCK:   -2.14 KCAL/MOL
REMARK 923 INTER-LIGAND FREE ENERGY PREDICTED BY IDOCK:   -2.08 KCAL/MOL
REMARK 924 INTRA-LIGAND FREE ENERGY PREDICTED BY IDOCK:   -0.06 KCAL/MOL
REMARK 927      BINDING AFFINITY PREDICTED BY RF-SCORE:    0.00 PKD
ROOT
HETATM    1  N   UNL     1      -6.552  12.294  69.617  1.00  0.00    -0.310 NA 
HETATM    2  H1  UNL     1      -7.247  12.824  69.092  1.00  0.00     0.000 HD 
HETATM    3  H2  UNL     1      -5.668  12.712  69.906  1.00  0.00     0.000 HD 
HETATM    4  C   UNL     1      -6.860  10.995  69.917  1.00  0.00    -0.095 C  
HETATM    5  N   UNL     1      -5.978  10.322  70.584  1.00  0.00    -0.101 N  
HETATM    6  C   UNL     1      -6.227   9.008  70.912  1.00  0.00    -0.053 C  
HETATM    7  H   UNL     1      -5.102  10.763  70.865  1.00  0.00     0.000 HD 
HETATM    8  N   UNL     1      -7.386   8.407  70.415  1.00  0.00    -0.053 N  
HETATM    9  O   UNL     1      -5.442   8.382  71.623  1.00  0.00    -0.034 OA 
HETATM   10  C   UNL     1      -8.147  10.429  69.471  1.00  0.00    -0.145 C  
HETATM   11  C   UNL     1      -8.335   9.138  69.738  1.00  0.00    -0.136 C  
ENDROOT
BRANCH   8  12
HETATM   12  C   UNL     1      -7.638   7.027  70.788  1.00  0.00    -0.090 C  
HETATM   13  C   UNL     1      -8.004   6.861  72.253  1.00  0.00    -0.093 C  
HETATM   14  C   UNL     1      -8.702   5.524  72.250  1.00  0.00    -0.129 C  
HETATM   15  C   UNL     1      -9.338   5.442  70.865  1.00  0.00    -0.156 C  
HETATM   16  O   UNL     1      -8.750   6.482  70.053  1.00  0.00    -0.138 OA 
BRANCH  15  17
HETATM   17  C   UNL     1     -10.860   5.596  70.862  1.00  0.00    -0.224 C  
HETATM   18  O   UNL     1     -11.277   6.571  69.909  1.00  0.00    -0.329 OA 
HETATM   19  H   UNL     1     -12.222   6.666  69.907  1.00  0.00     0.000 HD 
ENDBRANCH  15  17
ENDBRANCH   8  12
TORSDOF 2
ENDMDL
MODEL      218
REMARK 921   NORMALIZED FREE ENERGY PREDICTED BY IDOCK:   -1.59 KCAL/MOL
REMARK 922        TOTAL FREE ENERGY PREDICTED BY IDOCK:   -2.10 KCAL/MOL
REMARK 923 INTER-LIGAND FREE ENERGY PREDICTED BY IDOCK:   -2.24 KCAL/MOL
REMARK 924 INTRA-LIGAND FREE ENERGY PREDICTED BY IDOCK:    0.14 KCAL/MOL
REMARK 927      BINDING AFFINITY PREDICTED BY RF-SCORE:    0.00 PKD
ROOT
HETATM    1  N   UNL     1      -5.687  13.131  71.455  1.00  0.00    -0.524 NA 
HETATM    2  H1  UNL     1      -5.466  14.126  71.482  1.00  0.00     0.000 HD 
HETATM    3  H2  UNL     1      -5.388  12.497  72.196  1.00  0.00     0.000 HD 
HETATM    4  C   UNL     1      -6.405  12.684  70.379  1.00  0.00     0.266 C  
HETATM    5  N   UNL     1      -6.687  11.421  70.345  1.00  0.00    -0.137 N  
HETATM    6  C   UNL     1      -7.402  10.911  69.285  1.00  0.00    -0.125 C  
HETATM    7  H   UNL     1      -6.380  10.807  71.100  1.00  0.00     0.000 HD 
HETATM    8  N   UNL     1      -7.708  11.760  68.219  1.00  0.00    -0.122 N  
HETATM    9  O   UNL     1      -7.757   9.733  69.281  1.00  0.00    -0.085 OA 
HETATM   10  C   UNL     1      -6.808  13.637  69.327  1.00  0.00    -0.063 C  
HETATM   11  C   UNL     1      -7.437  13.108  68.279  1.00  0.00    -0.129 C  
ENDROOT
BRANCH   8  12
HETATM   12  C   UNL     1      -8.479  11.205  67.120  1.00  0.00    -0.137 C  
HETATM   13  C   UNL     1      -7.770  10.064  66.410  1.00  0.00    -0.103 C  
HETATM   14  C   UNL     1      -8.917   9.359  65.732  1.00  0.00    -0.227 C  
HETATM   15  C   UNL     1     -10.104   9.607  66.660  1.00  0.00    -0.239 C  
HETATM   16  O   UNL     1      -9.724  10.651  67.583  1.00  0.00    -0.162 OA 
BRANCH  15  17
HETATM   17  C   UNL     1     -10.556   8.375  67.445  1.00  0.00    -0.243 C  
HETATM   18  O   UNL     1     -10.350   8.552  68.845  1.00  0.00    -0.208 OA 
HETATM   19  H   UNL     1     -10.631   7.787  69.332  1.00  0.00     0.000 HD 
ENDBRANCH  15  17
ENDBRANCH   8  12
TORSDOF 2
ENDMDL
MODEL      219
REMARK 921   NORMALIZED FREE ENERGY PREDICTED BY IDOCK:   -1.55 KCAL/MOL
REMARK 922        TOTAL FREE ENERGY PREDICTED BY IDOCK:   -2.06 KCAL/MOL
REMARK 923 INTER-LIGAND FREE ENERGY PREDICTED BY IDOCK:   -2.48 KCAL/MOL
REMARK 924 INTRA-LIGAND FREE ENERGY PREDICTED BY IDOCK:    0.42 KCAL/MOL
REMARK 927      BINDING AFFINITY PREDICTED BY RF-SCORE:    0.00 PKD
ROOT
HETATM    1  N   UNL     1      -6.124   5.483  67.147  1.00  0.00    -0.029 NA 
HETATM    2  H1  UNL     1      -5.105   5.514  67.145  1.00  0.00     0.000 HD 
HETATM    3  H2  UNL     1      -6.650   5.183  66.326  1.00  0.00     0.000 HD 
HETATM    4  C   UNL     1      -6.754   5.860  68.302  1.00  0.00    -0.057 C  
HETATM    5  N   UNL     1      -8.048   5.820  68.305  1.00  0.00    -0.107 N  
HETATM    6  C   UNL     1      -8.739   6.193  69.436  1.00  0.00    -0.123 C  
HETATM    7  H   UNL     1      -8.553   5.513  67.473  1.00  0.00     0.000 HD 
HETATM    8  N   UNL     1      -8.019   6.711  70.515  1.00  0.00    -0.110 N  
HETATM    9  O   UNL     1      -9.962   6.073  69.486  1.00  0.00    -0.163 OA 
HETATM   10  C   UNL     1      -5.951   6.294  69.461  1.00  0.00    -0.021 C  
HETATM   11  C   UNL     1      -6.643   6.717  70.518  1.00  0.00    -0.052 C  
ENDROOT
BRANCH   8  12
HETATM   12  C   UNL     1      -8.767   7.080  71.703  1.00  0.00    -0.116 C  
HETATM   13  C   UNL     1      -9.801   8.164  71.446  1.00  0.00    -0.223 C  
HETATM   14  C   UNL     1     -10.739   7.981  72.611  1.00  0.00    -0.426 C  
HETATM   15  C   UNL     1     -10.655   6.490  72.924  1.00  0.00    -0.241 C  
HETATM   16  O   UNL     1      -9.509   5.961  72.223  1.00  0.00    -0.148 OA 
BRANCH  15  17
HETATM   17  C   UNL     1     -11.901   5.694  72.531  1.00  0.00    -0.134 C  
HETATM   18  O   UNL     1     -13.048   6.538  72.451  1.00  0.00    -0.527 OA 
HETATM   19  H   UNL     1     -13.821   6.044  72.206  1.00  0.00     0.000 HD 
ENDBRANCH  15  17
ENDBRANCH   8  12
TORSDOF 2
ENDMDL
MODEL      220
REMARK 921   NORMALIZED FREE ENERGY PREDICTED BY IDOCK:   -1.50 KCAL/MOL
REMARK 922        TOTAL FREE ENERGY PREDICTED BY IDOCK:   -1.99 KCAL/MOL
REMARK 923 INTER-LIGAND FREE ENERGY PREDICTED BY IDOCK:   -1.68 KCAL/MOL
REMARK 924 INTRA-LIGAND FREE ENERGY PREDICTED BY IDOCK:   -0.31 KCAL/MOL
REMARK 927      BINDING AFFINITY PREDICTED BY RF-SCORE:    0.00 PKD
ROOT
HETATM    1  N   UNL     1      -7.520   8.250  73.191  1.00  0.00    -0.216 NA 
HETATM    2  H1  UNL     1      -7.758   9.237  73.280  1.00  0.00     0.000 HD 
HETATM    3  H2  UNL     1      -7.074   7.738  73.952  1.00  0.00     0.000 HD 
HETATM    4  C   UNL     1      -7.827   7.642  72.004  1.00  0.00    -0.096 C  
HETATM    5  N   UNL     1      -7.526   6.388  71.891  1.00  0.00    -0.092 N  
HETATM    6  C   UNL     1      -7.806   5.722  70.719  1.00  0.00    -0.101 C  
HETATM    7  H   UNL     1      -7.083   5.896  72.667  1.00  0.00     0.000 HD 
HETATM    8  N   UNL     1      -8.310   6.455  69.642  1.00  0.00    -0.125 N  
HETATM    9  O   UNL     1      -7.611   4.512  70.627  1.00  0.00    -0.051 OA 
HETATM   10  C   UNL     1      -8.465   8.425  70.928  1.00  0.00    -0.158 C  
HETATM   11  C   UNL     1      -8.661   7.779  69.781  1.00  0.00    -0.134 C  
ENDROOT
BRANCH   8  12
HETATM   12  C   UNL     1      -8.614   5.730  68.422  1.00  0.00    -0.112 C  
HETATM   13  C   UNL     1      -9.812   6.292  67.675  1.00  0.00    -0.135 C  
HETATM   14  C   UNL     1      -9.591   5.756  66.283  1.00  0.00    -0.159 C  
HETATM   15  C   UNL     1      -8.073   5.658  66.162  1.00  0.00    -0.108 C  
HETATM   16  O   UNL     1      -7.519   5.794  67.489  1.00  0.00    -0.076 OA 
BRANCH  15  17
HETATM   17  C   UNL     1      -7.447   6.709  65.242  1.00  0.00    -0.082 C  
HETATM   18  O   UNL     1      -6.169   7.119  65.724  1.00  0.00    -0.036 OA 
HETATM   19  H   UNL     1      -5.780   7.771  65.153  1.00  0.00     0.000 HD 
ENDBRANCH  15  17
ENDBRANCH   8  12
TORSDOF 2
ENDMDL
MODEL      221
REMARK 921   NORMALIZED FREE ENERGY PREDICTED BY IDOCK:   -1.44 KCAL/MOL
REMARK 922        TOTAL FREE ENERGY PREDICTED BY IDOCK:   -1.93 KCAL/MOL
REMARK 923 INTER-LIGAND FREE ENERGY PREDICTED BY IDOCK:   -2.15 KCAL/MOL
REMARK 924 INTRA-LIGAND FREE ENERGY PREDICTED BY IDOCK:    0.22 KCAL/MOL
REMARK 927      BINDING AFFINITY PREDICTED BY RF-SCORE:    0.00 PKD
ROOT
HETATM    1  N   UNL     1      -5.574  12.424  70.017  1.00  0.00    -0.110 NA 
HETATM    2  H1  UNL     1      -5.471  13.256  69.435  1.00  0.00     0.000 HD 
HETATM    3  H2  UNL     1      -5.008  12.285  70.854  1.00  0.00     0.000 HD 
HETATM    4  C   UNL     1      -6.506  11.504  69.623  1.00  0.00    -0.129 C  
HETATM    5  N   UNL     1      -6.638  10.448  70.361  1.00  0.00    -0.142 N  
HETATM    6  C   UNL     1      -7.556   9.483  70.013  1.00  0.00    -0.133 C  
HETATM    7  H   UNL     1      -6.063  10.333  71.196  1.00  0.00     0.000 HD 
HETATM    8  N   UNL     1      -8.244   9.624  68.805  1.00  0.00    -0.103 N  
HETATM    9  O   UNL     1      -7.758   8.520  70.751  1.00  0.00    -0.071 OA 
HETATM   10  C   UNL     1      -7.295  11.744  68.399  1.00  0.00    -0.094 C  
HETATM   11  C   UNL     1      -8.125  10.765  68.045  1.00  0.00    -0.114 C  
ENDROOT
BRANCH   8  12
HETATM   12  C   UNL     1      -9.220   8.604  68.468  1.00  0.00    -0.138 C  
HETATM   13  C   UNL     1      -8.602   7.231  68.260  1.00  0.00    -0.123 C  
HETATM   14  C   UNL     1      -9.790   6.323  68.456  1.00  0.00    -0.152 C  
HETATM   15  C   UNL     1     -10.671   7.075  69.450  1.00  0.00    -0.238 C  
HETATM   16  O   UNL     1     -10.183   8.432  69.524  1.00  0.00    -0.197 OA 
BRANCH  15  17
HETATM   17  C   UNL     1     -10.694   6.467  70.853  1.00  0.00    -0.250 C  
HETATM   18  O   UNL     1      -9.378   6.357  71.389  1.00  0.00    -0.153 OA 
HETATM   19  H   UNL     1      -9.392   5.980  72.261  1.00  0.00     0.000 HD 
ENDBRANCH  15  17
ENDBRANCH   8  12
TORSDOF 2
ENDMDL
MODEL      222
REMARK 921   NORMALIZED FREE ENERGY PREDICTED BY IDOCK:   -1.37 KCAL/MOL
REMARK 922        TOTAL FREE ENERGY PREDICTED BY IDOCK:   -1.86 KCAL/MOL
REMARK 923 INTER-LIGAND FREE ENERGY PREDICTED BY IDOCK:   -2.31 KCAL/MOL
REMARK 924 INTRA-LIGAND FREE ENERGY PREDICTED BY IDOCK:    0.45 KCAL/MOL
REMARK 927      BINDING AFFINITY PREDICTED BY RF-SCORE:    0.00 PKD
ROOT
HETATM    1  N   UNL     1      -7.673   8.848  72.143  1.00  0.00    -0.351 NA 
HETATM    2  H1  UNL     1      -6.887   8.982  72.779  1.00  0.00     0.000 HD 
HETATM    3  H2  UNL     1      -8.408   9.548  72.049  1.00  0.00     0.000 HD 
HETATM    4  C   UNL     1      -7.696   7.686  71.422  1.00  0.00    -0.081 C  
HETATM    5  N   UNL     1      -8.693   7.515  70.614  1.00  0.00    -0.140 N  
HETATM    6  C   UNL     1      -8.775   6.363  69.865  1.00  0.00    -0.142 C  
HETATM    7  H   UNL     1      -9.415   8.232  70.534  1.00  0.00     0.000 HD 
HETATM    8  N   UNL     1      -7.829   5.359  70.084  1.00  0.00    -0.080 N  
HETATM    9  O   UNL     1      -9.664   6.226  69.027  1.00  0.00    -0.129 OA 
HETATM   10  C   UNL     1      -6.615   6.697  71.599  1.00  0.00    -0.054 C  
HETATM   11  C   UNL     1      -6.752   5.562  70.917  1.00  0.00    -0.044 C  
ENDROOT
BRANCH   8  12
HETATM   12  C   UNL     1      -7.923   4.160  69.270  1.00  0.00    -0.056 C  
HETATM   13  C   UNL     1      -9.305   3.528  69.296  1.00  0.00    -0.242 C  
HETATM   14  C   UNL     1      -9.290   2.695  68.040  1.00  0.00    -0.255 C  
HETATM   15  C   UNL     1      -8.369   3.465  67.096  1.00  0.00    -0.092 C  
HETATM   16  O   UNL     1      -7.663   4.448  67.883  1.00  0.00    -0.079 OA 
BRANCH  15  17
HETATM   17  C   UNL     1      -9.093   4.163  65.944  1.00  0.00    -0.136 C  
HETATM   18  O   UNL     1     -10.506   4.004  66.051  1.00  0.00    -0.424 OA 
HETATM   19  H   UNL     1     -10.956   4.437  65.335  1.00  0.00     0.000 HD 
ENDBRANCH  15  17
ENDBRANCH   8  12
TORSDOF 2
ENDMDL
MODEL      223
REMARK 921   NORMALIZED FREE ENERGY PREDICTED BY IDOCK:   -1.34 KCAL/MOL
REMARK 922        TOTAL FREE ENERGY PREDICTED BY IDOCK:   -1.82 KCAL/MOL
REMARK 923 INTER-LIGAND FREE ENERGY PREDICTED BY IDOCK:   -2.05 KCAL/MOL
REMARK 924 INTRA-LIGAND FREE ENERGY PREDICTED BY IDOCK:    0.23 KCAL/MOL
REMARK 927      BINDING AFFINITY PREDICTED BY RF-SCORE:    0.00 PKD
ROOT
HETATM    1  N   UNL     1     -11.000   8.687  67.398  1.00  0.00    -0.428 NA 
HETATM    2  H1  UNL     1     -10.860   9.690  67.283  1.00  0.00     0.000 HD 
HETATM    3  H2  UNL     1     -11.676   8.174  66.831  1.00  0.00     0.000 HD 
HETATM    4  C   UNL     1     -10.240   8.059  68.347  1.00  0.00    -0.207 C  
HETATM    5  N   UNL     1     -10.419   6.785  68.492  1.00  0.00    -0.190 N  
HETATM    6  C   UNL     1      -9.687   6.098  69.435  1.00  0.00    -0.145 C  
HETATM    7  H   UNL     1     -11.098   6.293  67.912  1.00  0.00     0.000 HD 
HETATM    8  N   UNL     1      -8.849   6.823  70.285  1.00  0.00    -0.151 N  
HETATM    9  O   UNL     1      -9.777   4.874  69.524  1.00  0.00    -0.158 OA 
HETATM   10  C   UNL     1      -9.282   8.843  69.148  1.00  0.00    -0.144 C  
HETATM   11  C   UNL     1      -8.638   8.171  70.100  1.00  0.00    -0.129 C  
ENDROOT
BRANCH   8  12
HETATM   12  C   UNL     1      -8.073   6.076  71.259  1.00  0.00    -0.118 C  
HETATM   13  C   UNL     1      -8.921   5.147  72.112  1.00  0.00    -0.139 C  
HETATM   14  C   UNL     1      -7.896   4.163  72.614  1.00  0.00    -0.080 C  
HETATM   15  C   UNL     1      -6.857   4.109  71.497  1.00  0.00    -0.031 C  
HETATM   16  O   UNL     1      -7.106   5.225  70.616  1.00  0.00    -0.056 OA 
BRANCH  15  17
HETATM   17  C   UNL     1      -6.873   2.811  70.688  1.00  0.00    -0.033 C  
HETATM   18  O   UNL     1      -8.092   2.670  69.963  1.00  0.00    -0.042 OA 
HETATM   19  H   UNL     1      -8.102   1.864  69.460  1.00  0.00     0.000 HD 
ENDBRANCH  15  17
ENDBRANCH   8  12
TORSDOF 2
ENDMDL
MODEL      224
REMARK 921   NORMALIZED FREE ENERGY PREDICTED BY IDOCK:   -0.51 KCAL/MOL
REMARK 922        TOTAL FREE ENERGY PREDICTED BY IDOCK:   -0.89 KCAL/MOL
REMARK 923 INTER-LIGAND FREE ENERGY PREDICTED BY IDOCK:   -1.22 KCAL/MOL
REMARK 924 INTRA-LIGAND FREE ENERGY PREDICTED BY IDOCK:    0.33 KCAL/MOL
REMARK 927      BINDING AFFINITY PREDICTED BY RF-SCORE:    0.00 PKD
ROOT
HETATM    1  N   UNL     1      -7.082   9.254  69.565  1.00  0.00    -0.058 NA 
HETATM    2  H1  UNL     1      -6.150   9.463  69.923  1.00  0.00     0.000 HD 
HETATM    3  H2  UNL     1      -7.855   9.910  69.674  1.00  0.00     0.000 HD 
HETATM    4  C   UNL     1      -7.247   8.053  68.931  1.00  0.00    -0.075 C  
HETATM    5  N   UNL     1      -8.430   7.787  68.477  1.00  0.00    -0.128 N  
HETATM    6  C   UNL     1      -8.660   6.592  67.834  1.00  0.00    -0.117 C  
HETATM    7  H   UNL     1      -9.187   8.461  68.594  1.00  0.00     0.000 HD 
HETATM    8  N   UNL     1      -7.629   5.650  67.790  1.00  0.00    -0.088 N  
HETATM    9  O   UNL     1      -9.752   6.363  67.316  1.00  0.00    -0.122 OA 
HETATM   10  C   UNL     1      -6.101   7.132  68.805  1.00  0.00    -0.030 C  
HETATM   11  C   UNL     1      -6.366   5.954  68.243  1.00  0.00    -0.044 C  
ENDROOT
BRANCH   8  12
HETATM   12  C   UNL     1      -7.889   4.404  67.092  1.00  0.00    -0.097 C  
HETATM   13  C   UNL     1      -6.898   3.306  67.440  1.00  0.00    -0.046 C  
HETATM   14  C   UNL     1      -7.658   2.065  67.045  1.00  0.00    -0.061 C  
HETATM   15  C   UNL     1      -9.120   2.440  67.269  1.00  0.00    -0.150 C  
HETATM   16  O   UNL     1      -9.183   3.873  67.435  1.00  0.00    -0.144 OA 
BRANCH  15  17
HETATM   17  C   UNL     1      -9.765   1.760  68.478  1.00  0.00     0.022 C  
HETATM   18  O   UNL     1      -9.056   2.063  69.678  1.00  0.00    -0.086 OA 
HETATM   19  H   UNL     1      -9.457   1.642  70.429  1.00  0.00     0.000 HD 
ENDBRANCH  15  17
ENDBRANCH   8  12
TORSDOF 2
ENDMDL
MODEL      225
REMARK 921   NORMALIZED FREE ENERGY PREDICTED BY IDOCK:   -0.34 KCAL/MOL
REMARK 922        TOTAL FREE ENERGY PREDICTED BY IDOCK:   -0.70 KCAL/MOL
REMARK 923 INTER-LIGAND FREE ENERGY PREDICTED BY IDOCK:   -1.19 KCAL/MOL
REMARK 924 INTRA-LIGAND FREE ENERGY PREDICTED BY IDOCK:    0.49 KCAL/MOL
REMARK 927      BINDING AFFINITY PREDICTED BY RF-SCORE:    0.00 PKD
ROOT
HETATM    1  N   UNL     1      -7.865   9.236  71.186  1.00  0.00    -0.329 NA 
HETATM    2  H1  UNL     1      -7.248   9.542  71.937  1.00  0.00     0.000 HD 
HETATM    3  H2  UNL     1      -8.738   9.722  70.980  1.00  0.00     0.000 HD 
HETATM    4  C   UNL     1      -7.469   8.142  70.465  1.00  0.00    -0.063 C  
HETATM    5  N   UNL     1      -8.253   7.752  69.511  1.00  0.00    -0.126 N  
HETATM    6  C   UNL     1      -7.911   6.654  68.754  1.00  0.00    -0.118 C  
HETATM    7  H   UNL     1      -9.119   8.256  69.322  1.00  0.00     0.000 HD 
HETATM    8  N   UNL     1      -6.776   5.925  69.114  1.00  0.00    -0.058 N  
HETATM    9  O   UNL     1      -8.597   6.326  67.787  1.00  0.00    -0.116 OA 
HETATM   10  C   UNL     1      -6.203   7.466  70.805  1.00  0.00    -0.035 C  
HETATM   11  C   UNL     1      -5.929   6.365  70.106  1.00  0.00    -0.022 C  
ENDROOT
BRANCH   8  12
HETATM   12  C   UNL     1      -6.425   4.781  68.291  1.00  0.00    -0.038 C  
HETATM   13  C   UNL     1      -7.561   3.784  68.138  1.00  0.00    -0.065 C  
HETATM   14  C   UNL     1      -7.156   3.040  66.891  1.00  0.00    -0.054 C  
HETATM   15  C   UNL     1      -6.385   4.075  66.076  1.00  0.00    -0.033 C  
HETATM   16  O   UNL     1      -6.089   5.186  66.951  1.00  0.00    -0.028 OA 
BRANCH  15  17
HETATM   17  C   UNL     1      -7.131   4.586  64.842  1.00  0.00    -0.062 C  
HETATM   18  O   UNL     1      -6.772   3.844  63.679  1.00  0.00    -0.040 OA 
HETATM   19  H   UNL     1      -7.235   4.162  62.913  1.00  0.00     0.000 HD 
ENDBRANCH  15  17
ENDBRANCH   8  12
TORSDOF 2
ENDMDL
MODEL      226
REMARK 921   NORMALIZED FREE ENERGY PREDICTED BY IDOCK:   17.86 KCAL/MOL
REMARK 922        TOTAL FREE ENERGY PREDICTED BY IDOCK:   19.62 KCAL/MOL
REMARK 923 INTER-LIGAND FREE ENERGY PREDICTED BY IDOCK:   19.32 KCAL/MOL
REMARK 924 INTRA-LIGAND FREE ENERGY PREDICTED BY IDOCK:    0.30 KCAL/MOL
REMARK 927      BINDING AFFINITY PREDICTED BY RF-SCORE:    0.00 PKD
ROOT
HETATM    1  N   UNL     1      -7.303   8.468  73.327  1.00  0.00    -0.332 NA 
HETATM    2  H1  UNL     1      -7.467   9.474  73.343  1.00  0.00     0.000 HD 
HETATM    3  H2  UNL     1      -6.452   8.060  73.713  1.00  0.00     0.000 HD 
HETATM    4  C   UNL     1      -8.277   7.690  72.765  1.00  0.00    -0.121 C  
HETATM    5  N   UNL     1      -8.069   6.412  72.745  1.00  0.00    -0.108 N  
HETATM    6  C   UNL     1      -9.011   5.576  72.187  1.00  0.00    -0.137 C  
HETATM    7  H   UNL     1      -7.211   6.026  73.140  1.00  0.00     0.000 HD 
HETATM    8  N   UNL     1     -10.119   6.148  71.558  1.00  0.00    -0.190 N  
HETATM    9  O   UNL     1      -8.872   4.355  72.242  1.00  0.00    -0.111 OA 
HETATM   10  C   UNL     1      -9.489   8.325  72.211  1.00  0.00    -0.341 C  
HETATM   11  C   UNL     1     -10.351   7.504  71.615  1.00  0.00    -0.192 C  
ENDROOT
BRANCH   8  12
HETATM   12  C   UNL     1     -11.108   5.248  70.993  1.00  0.00     0.163 C  
HETATM   13  C   UNL     1     -10.605   4.501  69.769  1.00  0.00     0.687 C  
HETATM   14  C   UNL     1     -11.545   3.323  69.716  1.00  0.00    10.431 C  
HETATM   15  C   UNL     1     -11.907   3.072  71.178  1.00  0.00     7.434 C  
HETATM   16  O   UNL     1     -11.484   4.227  71.935  1.00  0.00     0.848 OA 
BRANCH  15  17
HETATM   17  C   UNL     1     -11.273   1.814  71.775  1.00  0.00     1.438 C  
HETATM   18  O   UNL     1     -10.954   2.002  73.152  1.00  0.00    -0.151 OA 
HETATM   19  H   UNL     1     -10.562   1.221  73.523  1.00  0.00     0.000 HD 
ENDBRANCH  15  17
ENDBRANCH   8  12
TORSDOF 2
ENDMDL
