MODEL        1
REMARK 921   NORMALIZED FREE ENERGY PREDICTED BY IDOCK:   -6.70 KCAL/MOL
REMARK 922        TOTAL FREE ENERGY PREDICTED BY IDOCK:  -10.26 KCAL/MOL
REMARK 923 INTER-LIGAND FREE ENERGY PREDICTED BY IDOCK:   -8.66 KCAL/MOL
REMARK 924 INTRA-LIGAND FREE ENERGY PREDICTED BY IDOCK:   -1.59 KCAL/MOL
REMARK 927      BINDING AFFINITY PREDICTED BY RF-SCORE:    0.00 PKD
ROOT
HETATM    1  C   UNL     1     -10.026  16.360  65.996  1.00  0.00    -0.345 C  
HETATM    2  O   UNL     1      -8.865  17.135  65.683  1.00  0.00    -0.482 OA 
HETATM    3  O   UNL     1      -6.958  18.800  65.168  1.00  0.00    -0.502 OA 
HETATM    4  C   UNL     1      -6.588  17.894  66.102  1.00  0.00    -0.271 C  
HETATM    5  C   UNL     1      -9.961  15.401  67.229  1.00  0.00    -0.226 C  
HETATM    6  C   UNL     1      -7.695  16.923  66.360  1.00  0.00    -0.310 C  
HETATM    7  C   UNL     1      -8.523  14.927  67.576  1.00  0.00    -0.185 C  
HETATM    8  C   UNL     1      -7.489  15.924  67.219  1.00  0.00    -0.244 C  
HETATM    9  O   UNL     1      -5.510  17.904  66.676  1.00  0.00    -0.134 OA 
ENDROOT
BRANCH   1  10
HETATM   10  C   UNL     1     -10.546  15.607  64.739  1.00  0.00    -0.183 C  
HETATM   11  O   UNL     1     -11.484  16.403  63.993  1.00  0.00    -1.465 OA 
HETATM   12  H   UNL     1     -11.801  15.943  63.225  1.00  0.00     0.000 HD 
BRANCH  10  13
HETATM   13  C   UNL     1     -11.195  14.222  65.019  1.00  0.00    -0.364 C  
HETATM   14  H   UNL     1     -10.754  12.306  64.720  1.00  0.00     0.000 HD 
HETATM   15  O   UNL     1     -10.357  13.152  64.550  1.00  0.00    -0.381 OA 
BRANCH  13  16
HETATM   16  C   UNL     1     -12.588  14.066  64.380  1.00  0.00    -0.164 C  
HETATM   17  O   UNL     1     -12.508  13.815  62.972  1.00  0.00    -1.068 OA 
HETATM   18  H   UNL     1     -13.367  13.718  62.579  1.00  0.00     0.000 HD 
ENDBRANCH  13  16
ENDBRANCH  10  13
ENDBRANCH   1  10
BRANCH   7  19
HETATM   19  N   UNL     1      -8.242  13.672  66.871  1.00  0.00    -0.410 NA 
HETATM   20  H2  UNL     1      -9.087  13.085  69.276  1.00  0.00     0.000 HD 
HETATM   21  H   UNL     1      -7.870  13.691  65.921  1.00  0.00     0.000 HD 
HETATM   22  C   UNL     1      -8.465  12.553  67.453  1.00  0.00    -0.181 C  
HETATM   23  H1  UNL     1      -8.416  10.503  67.259  1.00  0.00     0.000 HD 
HETATM   24  N   UNL     1      -8.902  12.266  68.696  1.00  0.00    -0.373 NA 
HETATM   25  H2  UNL     1      -7.890  11.410  65.837  1.00  0.00     0.000 HD 
HETATM   26  N   UNL     1      -8.238  11.394  66.795  1.00  0.00    -0.157 NA 
HETATM   27  H1  UNL     1      -9.080  11.375  69.160  1.00  0.00     0.000 HD 
ENDBRANCH   7  19
BRANCH   5  28
HETATM   28  N   UNL     1     -10.614  15.980  68.429  1.00  0.00    -0.258 N  
HETATM   29  C   UNL     1     -11.189  15.173  69.390  1.00  0.00    -0.283 C  
HETATM   30  H   UNL     1     -10.639  16.994  68.546  1.00  0.00     0.000 HD 
HETATM   31  C   UNL     1     -11.627  15.925  70.616  1.00  0.00    -0.426 C  
HETATM   32  O   UNL     1     -11.315  13.959  69.275  1.00  0.00    -0.253 OA 
ENDBRANCH   5  28
TORSDOF 5
ENDMDL
MODEL        2
REMARK 921   NORMALIZED FREE ENERGY PREDICTED BY IDOCK:   -6.70 KCAL/MOL
REMARK 922        TOTAL FREE ENERGY PREDICTED BY IDOCK:  -10.25 KCAL/MOL
REMARK 923 INTER-LIGAND FREE ENERGY PREDICTED BY IDOCK:   -8.39 KCAL/MOL
REMARK 924 INTRA-LIGAND FREE ENERGY PREDICTED BY IDOCK:   -1.86 KCAL/MOL
REMARK 927      BINDING AFFINITY PREDICTED BY RF-SCORE:    0.00 PKD
ROOT
HETATM    1  C   UNL     1     -11.494  14.852  67.826  1.00  0.00    -0.338 C  
HETATM    2  O   UNL     1     -12.017  13.990  66.810  1.00  0.00    -0.402 OA 
HETATM    3  O   UNL     1     -13.251  12.580  65.032  1.00  0.00    -0.700 OA 
HETATM    4  C   UNL     1     -12.145  13.167  64.521  1.00  0.00    -0.404 C  
HETATM    5  C   UNL     1     -10.359  15.852  67.430  1.00  0.00    -0.288 C  
HETATM    6  C   UNL     1     -11.431  13.950  65.574  1.00  0.00    -0.316 C  
HETATM    7  C   UNL     1      -9.513  15.385  66.214  1.00  0.00    -0.309 C  
HETATM    8  C   UNL     1     -10.286  14.557  65.261  1.00  0.00    -0.431 C  
HETATM    9  O   UNL     1     -11.810  13.092  63.349  1.00  0.00    -0.524 OA 
ENDROOT
BRANCH   1  10
HETATM   10  C   UNL     1     -11.097  14.041  69.092  1.00  0.00    -0.259 C  
HETATM   11  O   UNL     1      -9.903  13.268  68.874  1.00  0.00    -0.420 OA 
HETATM   12  H   UNL     1      -9.660  12.773  69.647  1.00  0.00     0.000 HD 
BRANCH  10  13
HETATM   13  C   UNL     1     -12.199  13.093  69.644  1.00  0.00    -0.181 C  
HETATM   14  H   UNL     1     -12.988  12.629  71.409  1.00  0.00     0.000 HD 
HETATM   15  O   UNL     1     -12.315  13.209  71.072  1.00  0.00    -0.358 OA 
BRANCH  13  16
HETATM   16  C   UNL     1     -11.956  11.613  69.293  1.00  0.00    -0.317 C  
HETATM   17  O   UNL     1     -12.152  11.352  67.899  1.00  0.00    -0.646 OA 
HETATM   18  H   UNL     1     -12.002  10.440  67.683  1.00  0.00     0.000 HD 
ENDBRANCH  13  16
ENDBRANCH  10  13
ENDBRANCH   1  10
BRANCH   7  19
HETATM   19  N   UNL     1      -8.359  14.617  66.691  1.00  0.00    -0.403 NA 
HETATM   20  H2  UNL     1      -7.748  17.158  66.802  1.00  0.00     0.000 HD 
HETATM   21  H   UNL     1      -8.389  13.597  66.695  1.00  0.00     0.000 HD 
HETATM   22  C   UNL     1      -7.312  15.231  67.103  1.00  0.00    -0.143 C  
HETATM   23  H1  UNL     1      -5.426  15.017  67.902  1.00  0.00     0.000 HD 
HETATM   24  N   UNL     1      -7.012  16.545  67.154  1.00  0.00    -0.175 NA 
HETATM   25  H2  UNL     1      -6.296  13.509  67.601  1.00  0.00     0.000 HD 
HETATM   26  N   UNL     1      -6.259  14.528  67.574  1.00  0.00    -0.338 NA 
HETATM   27  H1  UNL     1      -6.179  17.035  67.482  1.00  0.00     0.000 HD 
ENDBRANCH   7  19
BRANCH   5  28
HETATM   28  N   UNL     1     -10.872  17.225  67.203  1.00  0.00    -0.167 N  
HETATM   29  C   UNL     1     -10.188  18.330  67.671  1.00  0.00    -0.382 C  
HETATM   30  H   UNL     1     -11.746  17.356  66.692  1.00  0.00     0.000 HD 
HETATM   31  C   UNL     1     -10.757  19.633  67.182  1.00  0.00    -0.587 C  
HETATM   32  O   UNL     1      -9.202  18.266  68.396  1.00  0.00    -0.301 OA 
ENDBRANCH   5  28
TORSDOF 5
ENDMDL
MODEL        3
REMARK 921   NORMALIZED FREE ENERGY PREDICTED BY IDOCK:   -6.61 KCAL/MOL
REMARK 922        TOTAL FREE ENERGY PREDICTED BY IDOCK:  -10.13 KCAL/MOL
REMARK 923 INTER-LIGAND FREE ENERGY PREDICTED BY IDOCK:   -8.18 KCAL/MOL
REMARK 924 INTRA-LIGAND FREE ENERGY PREDICTED BY IDOCK:   -1.95 KCAL/MOL
REMARK 927      BINDING AFFINITY PREDICTED BY RF-SCORE:    0.00 PKD
ROOT
HETATM    1  C   UNL     1     -12.018  14.339  66.767  1.00  0.00    -0.436 C  
HETATM    2  O   UNL     1     -11.106  15.332  66.288  1.00  0.00    -0.330 OA 
HETATM    3  O   UNL     1      -9.703  17.344  65.477  1.00  0.00    -0.485 OA 
HETATM    4  C   UNL     1      -9.048  16.628  66.419  1.00  0.00    -0.292 C  
HETATM    5  C   UNL     1     -11.619  13.526  68.041  1.00  0.00    -0.337 C  
HETATM    6  C   UNL     1      -9.865  15.453  66.850  1.00  0.00    -0.244 C  
HETATM    7  C   UNL     1     -10.084  13.428  68.263  1.00  0.00    -0.247 C  
HETATM    8  C   UNL     1      -9.352  14.604  67.741  1.00  0.00    -0.197 C  
HETATM    9  O   UNL     1      -7.957  16.935  66.876  1.00  0.00    -0.176 OA 
ENDROOT
BRANCH   1  10
HETATM   10  C   UNL     1     -12.452  13.384  65.619  1.00  0.00    -0.464 C  
HETATM   11  O   UNL     1     -12.274  12.003  65.982  1.00  0.00    -0.546 OA 
HETATM   12  H   UNL     1     -12.539  11.419  65.280  1.00  0.00     0.000 HD 
BRANCH  10  13
HETATM   13  C   UNL     1     -11.748  13.626  64.255  1.00  0.00    -0.403 C  
HETATM   14  H   UNL     1     -12.275  13.876  62.353  1.00  0.00     0.000 HD 
HETATM   15  O   UNL     1     -12.706  13.728  63.187  1.00  0.00    -0.743 OA 
BRANCH  13  16
HETATM   16  C   UNL     1     -10.732  12.526  63.893  1.00  0.00    -0.437 C  
HETATM   17  O   UNL     1      -9.583  12.555  64.747  1.00  0.00    -0.475 OA 
HETATM   18  H   UNL     1      -8.957  11.877  64.525  1.00  0.00     0.000 HD 
ENDBRANCH  13  16
ENDBRANCH  10  13
ENDBRANCH   1  10
BRANCH   7  19
HETATM   19  N   UNL     1      -9.575  12.218  67.608  1.00  0.00    -0.186 NA 
HETATM   20  H2  UNL     1     -10.066  11.645  70.114  1.00  0.00     0.000 HD 
HETATM   21  H   UNL     1      -9.295  12.245  66.628  1.00  0.00     0.000 HD 
HETATM   22  C   UNL     1      -9.485  11.126  68.273  1.00  0.00    -0.182 C  
HETATM   23  H1  UNL     1      -8.975   9.132  68.196  1.00  0.00     0.000 HD 
HETATM   24  N   UNL     1      -9.742  10.846  69.568  1.00  0.00    -0.431 NA 
HETATM   25  H2  UNL     1      -8.790  10.020  66.680  1.00  0.00     0.000 HD 
HETATM   26  N   UNL     1      -9.047  10.001  67.666  1.00  0.00    -0.134 NA 
HETATM   27  H1  UNL     1      -9.670   9.978  70.098  1.00  0.00     0.000 HD 
ENDBRANCH   7  19
BRANCH   5  28
HETATM   28  N   UNL     1     -12.282  14.036  69.267  1.00  0.00    -0.446 N  
HETATM   29  C   UNL     1     -12.462  13.228  70.372  1.00  0.00    -0.225 C  
HETATM   30  H   UNL     1     -12.613  15.002  69.292  1.00  0.00     0.000 HD 
HETATM   31  C   UNL     1     -12.975  13.970  71.574  1.00  0.00    -0.427 C  
HETATM   32  O   UNL     1     -12.210  12.029  70.388  1.00  0.00    -0.334 OA 
ENDBRANCH   5  28
TORSDOF 5
ENDMDL
MODEL        4
REMARK 921   NORMALIZED FREE ENERGY PREDICTED BY IDOCK:   -6.59 KCAL/MOL
REMARK 922        TOTAL FREE ENERGY PREDICTED BY IDOCK:  -10.10 KCAL/MOL
REMARK 923 INTER-LIGAND FREE ENERGY PREDICTED BY IDOCK:   -8.44 KCAL/MOL
REMARK 924 INTRA-LIGAND FREE ENERGY PREDICTED BY IDOCK:   -1.66 KCAL/MOL
REMARK 927      BINDING AFFINITY PREDICTED BY RF-SCORE:    0.00 PKD
ROOT
HETATM    1  C   UNL     1     -12.314  13.982  66.667  1.00  0.00    -0.371 C  
HETATM    2  O   UNL     1     -11.777  15.047  65.875  1.00  0.00    -0.248 OA 
HETATM    3  O   UNL     1     -11.111  17.102  64.459  1.00  0.00    -1.105 OA 
HETATM    4  C   UNL     1     -10.265  16.919  65.499  1.00  0.00    -0.126 C  
HETATM    5  C   UNL     1     -11.681  13.720  68.072  1.00  0.00    -0.355 C  
HETATM    6  C   UNL     1     -10.652  15.707  66.285  1.00  0.00    -0.307 C  
HETATM    7  C   UNL     1     -10.202  14.183  68.187  1.00  0.00    -0.241 C  
HETATM    8  C   UNL     1      -9.896  15.343  67.321  1.00  0.00    -0.217 C  
HETATM    9  O   UNL     1      -9.342  17.671  65.771  1.00  0.00    -0.511 OA 
ENDROOT
BRANCH   1  10
HETATM   10  C   UNL     1     -12.396  12.665  65.845  1.00  0.00    -0.176 C  
HETATM   11  O   UNL     1     -11.629  11.611  66.454  1.00  0.00    -0.447 OA 
HETATM   12  H   UNL     1     -11.679  10.806  65.952  1.00  0.00     0.000 HD 
BRANCH  10  13
HETATM   13  C   UNL     1     -11.965  12.785  64.357  1.00  0.00    -0.399 C  
HETATM   14  H   UNL     1     -12.655  12.224  62.577  1.00  0.00     0.000 HD 
HETATM   15  O   UNL     1     -12.918  12.150  63.487  1.00  0.00    -0.794 OA 
BRANCH  13  16
HETATM   16  C   UNL     1     -10.575  12.183  64.077  1.00  0.00    -0.389 C  
HETATM   17  O   UNL     1      -9.548  12.827  64.840  1.00  0.00    -0.489 OA 
HETATM   18  H   UNL     1      -8.691  12.455  64.668  1.00  0.00     0.000 HD 
ENDBRANCH  13  16
ENDBRANCH  10  13
ENDBRANCH   1  10
BRANCH   7  19
HETATM   19  N   UNL     1      -9.316  13.071  67.830  1.00  0.00    -0.204 NA 
HETATM   20  H2  UNL     1      -8.096  14.548  69.612  1.00  0.00     0.000 HD 
HETATM   21  H   UNL     1      -9.602  12.395  67.122  1.00  0.00     0.000 HD 
HETATM   22  C   UNL     1      -8.180  12.951  68.413  1.00  0.00    -0.121 C  
HETATM   23  H1  UNL     1      -6.470  11.815  68.575  1.00  0.00     0.000 HD 
HETATM   24  N   UNL     1      -7.564  13.723  69.331  1.00  0.00    -0.322 NA 
HETATM   25  H2  UNL     1      -7.668  11.220  67.420  1.00  0.00     0.000 HD 
HETATM   26  N   UNL     1      -7.374  11.910  68.111  1.00  0.00    -0.085 NA 
HETATM   27  H1  UNL     1      -6.660  13.629  69.795  1.00  0.00     0.000 HD 
ENDBRANCH   7  19
BRANCH   5  28
HETATM   28  N   UNL     1     -12.489  14.302  69.172  1.00  0.00    -0.528 N  
HETATM   29  C   UNL     1     -12.597  13.667  70.394  1.00  0.00    -0.227 C  
HETATM   30  H   UNL     1     -12.973  15.187  69.023  1.00  0.00     0.000 HD 
HETATM   31  C   UNL     1     -13.293  14.496  71.436  1.00  0.00    -0.427 C  
HETATM   32  O   UNL     1     -12.153  12.547  70.622  1.00  0.00    -0.356 OA 
ENDBRANCH   5  28
TORSDOF 5
ENDMDL
MODEL        5
REMARK 921   NORMALIZED FREE ENERGY PREDICTED BY IDOCK:   -6.58 KCAL/MOL
REMARK 922        TOTAL FREE ENERGY PREDICTED BY IDOCK:  -10.10 KCAL/MOL
REMARK 923 INTER-LIGAND FREE ENERGY PREDICTED BY IDOCK:   -8.10 KCAL/MOL
REMARK 924 INTRA-LIGAND FREE ENERGY PREDICTED BY IDOCK:   -2.00 KCAL/MOL
REMARK 927      BINDING AFFINITY PREDICTED BY RF-SCORE:    0.00 PKD
ROOT
HETATM    1  C   UNL     1     -11.766  12.236  67.944  1.00  0.00    -0.347 C  
HETATM    2  O   UNL     1     -12.141  12.276  66.564  1.00  0.00    -0.616 OA 
HETATM    3  O   UNL     1     -13.106  12.223  64.169  1.00  0.00    -0.749 OA 
HETATM    4  C   UNL     1     -12.618  13.445  64.481  1.00  0.00    -0.226 C  
HETATM    5  C   UNL     1     -11.404  13.584  68.649  1.00  0.00    -0.288 C  
HETATM    6  C   UNL     1     -12.037  13.443  65.858  1.00  0.00    -0.439 C  
HETATM    7  C   UNL     1     -10.885  14.677  67.674  1.00  0.00    -0.284 C  
HETATM    8  C   UNL     1     -11.462  14.556  66.316  1.00  0.00    -0.358 C  
HETATM    9  O   UNL     1     -12.687  14.417  63.745  1.00  0.00    -0.785 OA 
ENDROOT
BRANCH   1  10
HETATM   10  C   UNL     1     -10.658  11.172  68.189  1.00  0.00    -0.193 C  
HETATM   11  O   UNL     1      -9.507  11.744  68.835  1.00  0.00    -0.394 OA 
HETATM   12  H   UNL     1      -8.830  11.094  68.985  1.00  0.00     0.000 HD 
BRANCH  10  13
HETATM   13  C   UNL     1     -10.179  10.412  66.921  1.00  0.00    -0.227 C  
HETATM   14  H   UNL     1      -9.764   8.537  66.401  1.00  0.00     0.000 HD 
HETATM   15  O   UNL     1     -10.056   9.002  67.176  1.00  0.00    -0.202 OA 
BRANCH  13  16
HETATM   16  C   UNL     1      -8.833  10.927  66.377  1.00  0.00    -0.171 C  
HETATM   17  O   UNL     1      -8.953  12.229  65.794  1.00  0.00    -0.426 OA 
HETATM   18  H   UNL     1      -8.123  12.547  65.460  1.00  0.00     0.000 HD 
ENDBRANCH  13  16
ENDBRANCH  10  13
ENDBRANCH   1  10
BRANCH   7  19
HETATM   19  N   UNL     1      -9.424  14.593  67.583  1.00  0.00    -0.202 NA 
HETATM   20  H2  UNL     1     -10.027  16.345  69.429  1.00  0.00     0.000 HD 
HETATM   21  H   UNL     1      -8.988  13.981  66.893  1.00  0.00     0.000 HD 
HETATM   22  C   UNL     1      -8.697  15.291  68.374  1.00  0.00    -0.170 C  
HETATM   23  H1  UNL     1      -6.772  15.749  68.946  1.00  0.00     0.000 HD 
HETATM   24  N   UNL     1      -9.024  16.193  69.323  1.00  0.00    -0.234 NA 
HETATM   25  H2  UNL     1      -6.913  14.564  67.644  1.00  0.00     0.000 HD 
HETATM   26  N   UNL     1      -7.350  15.193  68.316  1.00  0.00    -0.108 NA 
HETATM   27  H1  UNL     1      -8.446  16.749  69.953  1.00  0.00     0.000 HD 
ENDBRANCH   7  19
BRANCH   5  28
HETATM   28  N   UNL     1     -12.525  14.113  69.464  1.00  0.00    -0.481 N  
HETATM   29  C   UNL     1     -12.291  14.839  70.615  1.00  0.00    -0.337 C  
HETATM   30  H   UNL     1     -13.486  13.937  69.169  1.00  0.00     0.000 HD 
HETATM   31  C   UNL     1     -13.535  15.450  71.197  1.00  0.00    -0.565 C  
HETATM   32  O   UNL     1     -11.180  14.994  71.110  1.00  0.00    -0.297 OA 
ENDBRANCH   5  28
TORSDOF 5
ENDMDL
MODEL        6
REMARK 921   NORMALIZED FREE ENERGY PREDICTED BY IDOCK:   -6.47 KCAL/MOL
REMARK 922        TOTAL FREE ENERGY PREDICTED BY IDOCK:   -9.96 KCAL/MOL
REMARK 923 INTER-LIGAND FREE ENERGY PREDICTED BY IDOCK:   -8.68 KCAL/MOL
REMARK 924 INTRA-LIGAND FREE ENERGY PREDICTED BY IDOCK:   -1.28 KCAL/MOL
REMARK 927      BINDING AFFINITY PREDICTED BY RF-SCORE:    0.00 PKD
ROOT
HETATM    1  C   UNL     1     -10.326  15.963  66.129  1.00  0.00    -0.328 C  
HETATM    2  O   UNL     1     -11.150  15.240  65.210  1.00  0.00    -0.355 OA 
HETATM    3  O   UNL     1     -12.375  13.931  63.350  1.00  0.00    -0.760 OA 
HETATM    4  C   UNL     1     -12.485  13.313  64.549  1.00  0.00    -0.319 C  
HETATM    5  C   UNL     1     -10.058  15.329  67.533  1.00  0.00    -0.232 C  
HETATM    6  C   UNL     1     -11.796  14.104  65.613  1.00  0.00    -0.375 C  
HETATM    7  C   UNL     1     -11.173  14.353  68.000  1.00  0.00    -0.280 C  
HETATM    8  C   UNL     1     -11.846  13.669  66.873  1.00  0.00    -0.451 C  
HETATM    9  O   UNL     1     -13.038  12.237  64.715  1.00  0.00    -0.724 OA 
ENDROOT
BRANCH   1  10
HETATM   10  C   UNL     1     -10.811  17.434  66.273  1.00  0.00     0.057 C  
HETATM   11  O   UNL     1     -10.919  18.084  64.994  1.00  0.00    -0.748 OA 
HETATM   12  H   UNL     1     -11.216  18.982  65.082  1.00  0.00     0.000 HD 
BRANCH  10  13
HETATM   13  C   UNL     1      -9.947  18.328  67.205  1.00  0.00    -0.337 C  
HETATM   14  H   UNL     1     -10.228  19.841  68.464  1.00  0.00     0.000 HD 
HETATM   15  O   UNL     1     -10.757  19.295  67.895  1.00  0.00    -0.398 OA 
BRANCH  13  16
HETATM   16  C   UNL     1      -8.826  19.076  66.458  1.00  0.00    -0.327 C  
HETATM   17  O   UNL     1      -9.253  20.365  66.002  1.00  0.00    -0.609 OA 
HETATM   18  H   UNL     1      -8.562  20.826  65.542  1.00  0.00     0.000 HD 
ENDBRANCH  13  16
ENDBRANCH  10  13
ENDBRANCH   1  10
BRANCH   7  19
HETATM   19  N   UNL     1     -12.173  15.094  68.777  1.00  0.00    -0.598 NA 
HETATM   20  H2  UNL     1     -10.365  14.182  70.433  1.00  0.00     0.000 HD 
HETATM   21  H   UNL     1     -12.982  15.504  68.311  1.00  0.00     0.000 HD 
HETATM   22  C   UNL     1     -12.025  15.224  70.043  1.00  0.00    -0.343 C  
HETATM   23  H1  UNL     1     -12.808  16.036  71.766  1.00  0.00     0.000 HD 
HETATM   24  N   UNL     1     -11.085  14.746  70.884  1.00  0.00    -0.525 NA 
HETATM   25  H2  UNL     1     -13.723  16.364  70.290  1.00  0.00     0.000 HD 
HETATM   26  N   UNL     1     -12.926  15.933  70.758  1.00  0.00    -0.398 NA 
HETATM   27  H1  UNL     1     -10.966  14.850  71.892  1.00  0.00     0.000 HD 
ENDBRANCH   7  19
BRANCH   5  28
HETATM   28  N   UNL     1      -8.732  14.667  67.609  1.00  0.00    -0.168 N  
HETATM   29  C   UNL     1      -7.983  14.697  68.769  1.00  0.00    -0.151 C  
HETATM   30  H   UNL     1      -8.366  14.182  66.789  1.00  0.00     0.000 HD 
HETATM   31  C   UNL     1      -6.766  13.817  68.715  1.00  0.00    -0.103 C  
HETATM   32  O   UNL     1      -8.284  15.356  69.758  1.00  0.00    -0.209 OA 
ENDBRANCH   5  28
TORSDOF 5
ENDMDL
MODEL        7
REMARK 921   NORMALIZED FREE ENERGY PREDICTED BY IDOCK:   -6.43 KCAL/MOL
REMARK 922        TOTAL FREE ENERGY PREDICTED BY IDOCK:   -9.90 KCAL/MOL
REMARK 923 INTER-LIGAND FREE ENERGY PREDICTED BY IDOCK:   -7.95 KCAL/MOL
REMARK 924 INTRA-LIGAND FREE ENERGY PREDICTED BY IDOCK:   -1.95 KCAL/MOL
REMARK 927      BINDING AFFINITY PREDICTED BY RF-SCORE:    0.00 PKD
ROOT
HETATM    1  C   UNL     1      -9.426  14.548  66.951  1.00  0.00    -0.252 C  
HETATM    2  O   UNL     1     -10.269  15.229  66.017  1.00  0.00    -0.279 OA 
HETATM    3  O   UNL     1     -11.512  16.571  64.193  1.00  0.00    -1.059 OA 
HETATM    4  C   UNL     1     -11.932  15.286  64.238  1.00  0.00    -0.223 C  
HETATM    5  C   UNL     1      -9.515  12.988  67.020  1.00  0.00    -0.237 C  
HETATM    6  C   UNL     1     -11.222  14.538  65.320  1.00  0.00    -0.352 C  
HETATM    7  C   UNL     1     -10.888  12.420  66.564  1.00  0.00    -0.250 C  
HETATM    8  C   UNL     1     -11.547  13.265  65.543  1.00  0.00    -0.351 C  
HETATM    9  O   UNL     1     -12.748  14.806  63.467  1.00  0.00    -0.593 OA 
ENDROOT
BRANCH   1  10
HETATM   10  C   UNL     1      -9.552  15.169  68.371  1.00  0.00    -0.212 C  
HETATM   11  O   UNL     1      -9.734  14.158  69.378  1.00  0.00    -0.396 OA 
HETATM   12  H   UNL     1      -9.810  14.538  70.246  1.00  0.00     0.000 HD 
BRANCH  10  13
HETATM   13  C   UNL     1     -10.679  16.228  68.532  1.00  0.00    -0.307 C  
HETATM   14  H   UNL     1     -10.832  18.144  69.044  1.00  0.00     0.000 HD 
HETATM   15  O   UNL     1     -10.143  17.497  68.945  1.00  0.00    -0.338 OA 
BRANCH  13  16
HETATM   16  C   UNL     1     -11.766  15.807  69.539  1.00  0.00    -0.360 C  
HETATM   17  O   UNL     1     -12.655  14.827  68.991  1.00  0.00    -0.568 OA 
HETATM   18  H   UNL     1     -13.325  14.567  69.612  1.00  0.00     0.000 HD 
ENDBRANCH  13  16
ENDBRANCH  10  13
ENDBRANCH   1  10
BRANCH   7  19
HETATM   19  N   UNL     1     -11.772  12.296  67.728  1.00  0.00    -0.407 NA 
HETATM   20  H2  UNL     1     -10.605   9.987  67.340  1.00  0.00     0.000 HD 
HETATM   21  H   UNL     1     -12.343  13.088  68.024  1.00  0.00     0.000 HD 
HETATM   22  C   UNL     1     -11.824  11.189  68.371  1.00  0.00    -0.232 C  
HETATM   23  H1  UNL     1     -12.653  10.199  69.975  1.00  0.00     0.000 HD 
HETATM   24  N   UNL     1     -11.215  10.004  68.158  1.00  0.00    -0.502 NA 
HETATM   25  H2  UNL     1     -13.166  11.877  69.775  1.00  0.00     0.000 HD 
HETATM   26  N   UNL     1     -12.613  11.080  69.463  1.00  0.00    -0.256 NA 
HETATM   27  H1  UNL     1     -11.255   9.123  68.670  1.00  0.00     0.000 HD 
ENDBRANCH   7  19
BRANCH   5  28
HETATM   28  N   UNL     1      -8.414  12.327  66.276  1.00  0.00    -0.393 N  
HETATM   29  C   UNL     1      -7.930  11.093  66.663  1.00  0.00    -0.159 C  
HETATM   30  H   UNL     1      -8.007  12.793  65.465  1.00  0.00     0.000 HD 
HETATM   31  C   UNL     1      -6.955  10.502  65.683  1.00  0.00    -0.113 C  
HETATM   32  O   UNL     1      -8.271  10.518  67.690  1.00  0.00    -0.110 OA 
ENDBRANCH   5  28
TORSDOF 5
ENDMDL
MODEL        8
REMARK 921   NORMALIZED FREE ENERGY PREDICTED BY IDOCK:   -6.39 KCAL/MOL
REMARK 922        TOTAL FREE ENERGY PREDICTED BY IDOCK:   -9.85 KCAL/MOL
REMARK 923 INTER-LIGAND FREE ENERGY PREDICTED BY IDOCK:   -8.47 KCAL/MOL
REMARK 924 INTRA-LIGAND FREE ENERGY PREDICTED BY IDOCK:   -1.38 KCAL/MOL
REMARK 927      BINDING AFFINITY PREDICTED BY RF-SCORE:    0.00 PKD
ROOT
HETATM    1  C   UNL     1     -11.051  13.561  67.892  1.00  0.00    -0.265 C  
HETATM    2  O   UNL     1      -9.703  13.336  68.314  1.00  0.00    -0.222 OA 
HETATM    3  O   UNL     1      -7.362  12.621  69.139  1.00  0.00    -0.009 OA 
HETATM    4  C   UNL     1      -7.302  13.213  67.924  1.00  0.00    -0.131 C  
HETATM    5  C   UNL     1     -11.296  14.003  66.412  1.00  0.00    -0.333 C  
HETATM    6  C   UNL     1      -8.662  13.646  67.482  1.00  0.00    -0.198 C  
HETATM    7  C   UNL     1     -10.087  14.741  65.774  1.00  0.00    -0.339 C  
HETATM    8  C   UNL     1      -8.787  14.296  66.324  1.00  0.00     0.124 C  
HETATM    9  O   UNL     1      -6.276  13.333  67.271  1.00  0.00    -0.309 OA 
ENDROOT
BRANCH   1  10
HETATM   10  C   UNL     1     -11.792  14.507  68.879  1.00  0.00    -0.324 C  
HETATM   11  O   UNL     1     -11.174  15.805  68.934  1.00  0.00    -0.287 OA 
HETATM   12  H   UNL     1     -11.627  16.384  69.537  1.00  0.00     0.000 HD 
BRANCH  10  13
HETATM   13  C   UNL     1     -11.934  13.971  70.330  1.00  0.00    -0.328 C  
HETATM   14  H   UNL     1     -12.242  12.222  71.227  1.00  0.00     0.000 HD 
HETATM   15  O   UNL     1     -12.155  12.550  70.340  1.00  0.00    -0.362 OA 
BRANCH  13  16
HETATM   16  C   UNL     1     -13.073  14.646  71.118  1.00  0.00    -0.366 C  
HETATM   17  O   UNL     1     -13.681  15.710  70.376  1.00  0.00    -0.758 OA 
HETATM   18  H   UNL     1     -14.383  16.126  70.862  1.00  0.00     0.000 HD 
ENDBRANCH  13  16
ENDBRANCH  10  13
ENDBRANCH   1  10
BRANCH   7  19
HETATM   19  N   UNL     1     -10.230  16.185  65.991  1.00  0.00    -0.336 NA 
HETATM   20  H2  UNL     1     -11.286  15.599  63.670  1.00  0.00     0.000 HD 
HETATM   21  H   UNL     1      -9.850  16.616  66.833  1.00  0.00     0.000 HD 
HETATM   22  C   UNL     1     -10.835  16.901  65.117  1.00  0.00    -0.094 C  
HETATM   23  H1  UNL     1     -11.479  18.796  64.632  1.00  0.00     0.000 HD 
HETATM   24  N   UNL     1     -11.375  16.584  63.923  1.00  0.00    -1.559 NA 
HETATM   25  H2  UNL     1     -10.639  18.656  66.180  1.00  0.00     0.000 HD 
HETATM   26  N   UNL     1     -10.997  18.226  65.328  1.00  0.00    -0.429 NA 
HETATM   27  H1  UNL     1     -11.857  17.154  63.227  1.00  0.00     0.000 HD 
ENDBRANCH   7  19
BRANCH   5  28
HETATM   28  N   UNL     1     -11.721  12.873  65.549  1.00  0.00    -0.361 N  
HETATM   29  C   UNL     1     -12.381  13.094  64.357  1.00  0.00    -0.360 C  
HETATM   30  H   UNL     1     -11.522  11.916  65.843  1.00  0.00     0.000 HD 
HETATM   31  C   UNL     1     -12.559  11.847  63.535  1.00  0.00    -0.579 C  
HETATM   32  O   UNL     1     -12.769  14.195  63.985  1.00  0.00    -0.646 OA 
ENDBRANCH   5  28
TORSDOF 5
ENDMDL
MODEL        9
REMARK 921   NORMALIZED FREE ENERGY PREDICTED BY IDOCK:   -6.36 KCAL/MOL
REMARK 922        TOTAL FREE ENERGY PREDICTED BY IDOCK:   -9.82 KCAL/MOL
REMARK 923 INTER-LIGAND FREE ENERGY PREDICTED BY IDOCK:   -8.43 KCAL/MOL
REMARK 924 INTRA-LIGAND FREE ENERGY PREDICTED BY IDOCK:   -1.39 KCAL/MOL
REMARK 927      BINDING AFFINITY PREDICTED BY RF-SCORE:    0.00 PKD
ROOT
HETATM    1  C   UNL     1      -9.413  15.374  66.535  1.00  0.00    -0.273 C  
HETATM    2  O   UNL     1      -8.287  14.742  67.151  1.00  0.00    -0.195 OA 
HETATM    3  O   UNL     1      -6.069  13.755  68.035  1.00  0.00    -0.112 OA 
HETATM    4  C   UNL     1      -6.782  14.341  69.024  1.00  0.00    -0.106 C  
HETATM    5  C   UNL     1     -10.278  16.344  67.404  1.00  0.00    -0.281 C  
HETATM    6  C   UNL     1      -8.074  14.876  68.495  1.00  0.00    -0.147 C  
HETATM    7  C   UNL     1     -10.221  16.037  68.926  1.00  0.00    -0.231 C  
HETATM    8  C   UNL     1      -8.931  15.445  69.344  1.00  0.00    -0.258 C  
HETATM    9  O   UNL     1      -6.393  14.447  70.177  1.00  0.00    -0.153 OA 
ENDROOT
BRANCH   1  10
HETATM   10  C   UNL     1     -10.312  14.329  65.816  1.00  0.00    -0.327 C  
HETATM   11  O   UNL     1      -9.897  14.120  64.454  1.00  0.00    -0.623 OA 
HETATM   12  H   UNL     1     -10.446  13.481  64.014  1.00  0.00     0.000 HD 
BRANCH  10  13
HETATM   13  C   UNL     1     -11.833  14.650  65.819  1.00  0.00    -0.274 C  
HETATM   14  H   UNL     1     -13.489  13.907  66.631  1.00  0.00     0.000 HD 
HETATM   15  O   UNL     1     -12.560  13.710  66.629  1.00  0.00    -0.306 OA 
BRANCH  13  16
HETATM   16  C   UNL     1     -12.453  14.660  64.409  1.00  0.00    -0.288 C  
HETATM   17  O   UNL     1     -12.181  15.881  63.711  1.00  0.00    -1.213 OA 
HETATM   18  H   UNL     1     -12.564  15.886  62.842  1.00  0.00     0.000 HD 
ENDBRANCH  13  16
ENDBRANCH  10  13
ENDBRANCH   1  10
BRANCH   7  19
HETATM   19  N   UNL     1     -11.307  15.116  69.278  1.00  0.00    -0.281 NA 
HETATM   20  H2  UNL     1     -11.225  17.008  71.083  1.00  0.00     0.000 HD 
HETATM   21  H   UNL     1     -11.482  14.289  68.707  1.00  0.00     0.000 HD 
HETATM   22  C   UNL     1     -12.036  15.356  70.304  1.00  0.00    -0.369 C  
HETATM   23  H1  UNL     1     -13.639  14.719  71.430  1.00  0.00     0.000 HD 
HETATM   24  N   UNL     1     -11.981  16.338  71.228  1.00  0.00    -0.622 NA 
HETATM   25  H2  UNL     1     -13.250  13.714  70.030  1.00  0.00     0.000 HD 
HETATM   26  N   UNL     1     -13.059  14.528  70.613  1.00  0.00    -0.319 NA 
HETATM   27  H1  UNL     1     -12.561  16.529  72.045  1.00  0.00     0.000 HD 
ENDBRANCH   7  19
BRANCH   5  28
HETATM   28  N   UNL     1      -9.950  17.769  67.155  1.00  0.00    -0.309 N  
HETATM   29  C   UNL     1     -10.338  18.399  65.989  1.00  0.00    -0.375 C  
HETATM   30  H   UNL     1      -9.429  18.294  67.858  1.00  0.00     0.000 HD 
HETATM   31  C   UNL     1     -10.085  19.881  66.000  1.00  0.00    -0.589 C  
HETATM   32  O   UNL     1     -10.856  17.820  65.041  1.00  0.00    -0.774 OA 
ENDBRANCH   5  28
TORSDOF 5
ENDMDL
MODEL       10
REMARK 921   NORMALIZED FREE ENERGY PREDICTED BY IDOCK:   -6.35 KCAL/MOL
REMARK 922        TOTAL FREE ENERGY PREDICTED BY IDOCK:   -9.81 KCAL/MOL
REMARK 923 INTER-LIGAND FREE ENERGY PREDICTED BY IDOCK:   -8.38 KCAL/MOL
REMARK 924 INTRA-LIGAND FREE ENERGY PREDICTED BY IDOCK:   -1.43 KCAL/MOL
REMARK 927      BINDING AFFINITY PREDICTED BY RF-SCORE:    0.00 PKD
ROOT
HETATM    1  C   UNL     1     -11.906  13.194  67.482  1.00  0.00    -0.360 C  
HETATM    2  O   UNL     1     -12.053  13.632  66.128  1.00  0.00    -0.389 OA 
HETATM    3  O   UNL     1     -12.640  14.354  63.718  1.00  0.00    -0.829 OA 
HETATM    4  C   UNL     1     -11.949  15.316  64.371  1.00  0.00    -0.277 C  
HETATM    5  C   UNL     1     -11.368  14.219  68.533  1.00  0.00    -0.282 C  
HETATM    6  C   UNL     1     -11.594  14.864  65.751  1.00  0.00    -0.234 C  
HETATM    7  C   UNL     1     -10.485  15.339  67.917  1.00  0.00    -0.253 C  
HETATM    8  C   UNL     1     -10.865  15.669  66.525  1.00  0.00    -0.260 C  
HETATM    9  O   UNL     1     -11.695  16.414  63.901  1.00  0.00    -1.085 OA 
ENDROOT
BRANCH   1  10
HETATM   10  C   UNL     1     -11.105  11.863  67.552  1.00  0.00    -0.273 C  
HETATM   11  O   UNL     1     -11.970  10.734  67.776  1.00  0.00    -0.692 OA 
HETATM   12  H   UNL     1     -11.481   9.921  67.818  1.00  0.00     0.000 HD 
BRANCH  10  13
HETATM   13  C   UNL     1      -9.971  11.827  68.614  1.00  0.00    -0.172 C  
HETATM   14  H   UNL     1      -7.987  11.959  68.649  1.00  0.00     0.000 HD 
HETATM   15  O   UNL     1      -8.680  11.981  68.000  1.00  0.00    -0.160 OA 
BRANCH  13  16
HETATM   16  C   UNL     1      -9.962  10.532  69.448  1.00  0.00    -0.196 C  
HETATM   17  O   UNL     1     -10.869  10.601  70.555  1.00  0.00    -0.436 OA 
HETATM   18  H   UNL     1     -10.864   9.802  71.069  1.00  0.00     0.000 HD 
ENDBRANCH  13  16
ENDBRANCH  10  13
ENDBRANCH   1  10
BRANCH   7  19
HETATM   19  N   UNL     1      -9.080  14.919  67.942  1.00  0.00    -0.179 NA 
HETATM   20  H2  UNL     1      -9.183  17.459  68.557  1.00  0.00     0.000 HD 
HETATM   21  H   UNL     1      -8.827  13.961  67.698  1.00  0.00     0.000 HD 
HETATM   22  C   UNL     1      -8.171  15.760  68.273  1.00  0.00    -0.143 C  
HETATM   23  H1  UNL     1      -6.156  16.038  68.593  1.00  0.00     0.000 HD 
HETATM   24  N   UNL     1      -8.240  17.070  68.588  1.00  0.00    -0.255 NA 
HETATM   25  H2  UNL     1      -6.627  14.406  68.109  1.00  0.00     0.000 HD 
HETATM   26  N   UNL     1      -6.879  15.369  68.329  1.00  0.00    -0.111 NA 
HETATM   27  H1  UNL     1      -7.517  17.739  68.851  1.00  0.00     0.000 HD 
ENDBRANCH   7  19
BRANCH   5  28
HETATM   28  N   UNL     1     -12.455  14.814  69.349  1.00  0.00    -0.573 N  
HETATM   29  C   UNL     1     -12.797  14.286  70.579  1.00  0.00    -0.275 C  
HETATM   30  H   UNL     1     -12.959  15.627  68.996  1.00  0.00     0.000 HD 
HETATM   31  C   UNL     1     -13.782  15.131  71.336  1.00  0.00    -0.577 C  
HETATM   32  O   UNL     1     -12.333  13.243  71.026  1.00  0.00    -0.362 OA 
ENDBRANCH   5  28
TORSDOF 5
ENDMDL
MODEL       11
REMARK 921   NORMALIZED FREE ENERGY PREDICTED BY IDOCK:   -6.26 KCAL/MOL
REMARK 922        TOTAL FREE ENERGY PREDICTED BY IDOCK:   -9.68 KCAL/MOL
REMARK 923 INTER-LIGAND FREE ENERGY PREDICTED BY IDOCK:   -8.20 KCAL/MOL
REMARK 924 INTRA-LIGAND FREE ENERGY PREDICTED BY IDOCK:   -1.48 KCAL/MOL
REMARK 927      BINDING AFFINITY PREDICTED BY RF-SCORE:    0.00 PKD
ROOT
HETATM    1  C   UNL     1      -9.545  15.148  66.763  1.00  0.00    -0.245 C  
HETATM    2  O   UNL     1     -10.570  14.727  67.669  1.00  0.00    -0.256 OA 
HETATM    3  O   UNL     1     -12.212  13.724  69.392  1.00  0.00    -0.334 OA 
HETATM    4  C   UNL     1     -12.033  15.050  69.589  1.00  0.00    -0.321 C  
HETATM    5  C   UNL     1      -8.949  16.583  66.943  1.00  0.00    -0.219 C  
HETATM    6  C   UNL     1     -11.104  15.614  68.563  1.00  0.00    -0.322 C  
HETATM    7  C   UNL     1      -9.924  17.582  67.626  1.00  0.00    -0.309 C  
HETATM    8  C   UNL     1     -10.851  16.923  68.573  1.00  0.00    -0.335 C  
HETATM    9  O   UNL     1     -12.534  15.679  70.509  1.00  0.00    -0.415 OA 
ENDROOT
BRANCH   1  10
HETATM   10  C   UNL     1      -9.975  14.911  65.288  1.00  0.00    -0.293 C  
HETATM   11  O   UNL     1     -10.662  16.053  64.745  1.00  0.00    -0.674 OA 
HETATM   12  H   UNL     1     -10.924  15.909  63.844  1.00  0.00     0.000 HD 
BRANCH  10  13
HETATM   13  C   UNL     1     -10.855  13.653  65.049  1.00  0.00    -0.352 C  
HETATM   14  H   UNL     1     -10.835  12.048  63.874  1.00  0.00     0.000 HD 
HETATM   15  O   UNL     1     -10.297  12.817  64.020  1.00  0.00    -0.415 OA 
BRANCH  13  16
HETATM   16  C   UNL     1     -12.308  13.993  64.665  1.00  0.00    -0.397 C  
HETATM   17  O   UNL     1     -12.475  14.109  63.248  1.00  0.00    -1.146 OA 
HETATM   18  H   UNL     1     -13.371  14.319  63.011  1.00  0.00     0.000 HD 
ENDBRANCH  13  16
ENDBRANCH  10  13
ENDBRANCH   1  10
BRANCH   7  19
HETATM   19  N   UNL     1     -10.703  18.280  66.598  1.00  0.00    -0.276 NA 
HETATM   20  H2  UNL     1      -8.719  19.829  67.309  1.00  0.00     0.000 HD 
HETATM   21  H   UNL     1     -11.543  17.849  66.212  1.00  0.00     0.000 HD 
HETATM   22  C   UNL     1     -10.325  19.433  66.188  1.00  0.00    -0.504 C  
HETATM   23  H1  UNL     1     -10.720  20.984  64.891  1.00  0.00     0.000 HD 
HETATM   24  N   UNL     1      -9.297  20.221  66.565  1.00  0.00    -0.576 NA 
HETATM   25  H2  UNL     1     -11.848  19.626  64.814  1.00  0.00     0.000 HD 
HETATM   26  N   UNL     1     -11.022  20.066  65.218  1.00  0.00    -0.174 NA 
HETATM   27  H1  UNL     1      -8.995  21.139  66.238  1.00  0.00     0.000 HD 
ENDBRANCH   7  19
BRANCH   5  28
HETATM   28  N   UNL     1      -7.647  16.568  67.653  1.00  0.00    -0.142 N  
HETATM   29  C   UNL     1      -6.703  17.553  67.438  1.00  0.00    -0.160 C  
HETATM   30  H   UNL     1      -7.445  15.816  68.314  1.00  0.00     0.000 HD 
HETATM   31  C   UNL     1      -5.536  17.476  68.382  1.00  0.00    -0.151 C  
HETATM   32  O   UNL     1      -6.807  18.420  66.578  1.00  0.00    -0.188 OA 
ENDBRANCH   5  28
TORSDOF 5
ENDMDL
MODEL       12
REMARK 921   NORMALIZED FREE ENERGY PREDICTED BY IDOCK:   -6.24 KCAL/MOL
REMARK 922        TOTAL FREE ENERGY PREDICTED BY IDOCK:   -9.66 KCAL/MOL
REMARK 923 INTER-LIGAND FREE ENERGY PREDICTED BY IDOCK:   -8.79 KCAL/MOL
REMARK 924 INTRA-LIGAND FREE ENERGY PREDICTED BY IDOCK:   -0.87 KCAL/MOL
REMARK 927      BINDING AFFINITY PREDICTED BY RF-SCORE:    0.00 PKD
ROOT
HETATM    1  C   UNL     1     -11.653  15.175  67.579  1.00  0.00    -0.257 C  
HETATM    2  O   UNL     1     -12.263  15.295  68.867  1.00  0.00    -0.226 OA 
HETATM    3  O   UNL     1     -13.630  15.625  71.034  1.00  0.00    -0.588 OA 
HETATM    4  C   UNL     1     -13.115  14.376  70.956  1.00  0.00    -0.353 C  
HETATM    5  C   UNL     1     -11.195  13.755  67.111  1.00  0.00    -0.311 C  
HETATM    6  C   UNL     1     -12.303  14.219  69.711  1.00  0.00    -0.292 C  
HETATM    7  C   UNL     1     -10.872  12.786  68.281  1.00  0.00    -0.248 C  
HETATM    8  C   UNL     1     -11.675  13.064  69.494  1.00  0.00    -0.381 C  
HETATM    9  O   UNL     1     -13.327  13.497  71.776  1.00  0.00    -0.380 OA 
ENDROOT
BRANCH   1  10
HETATM   10  C   UNL     1     -10.502  16.208  67.410  1.00  0.00    -0.310 C  
HETATM   11  O   UNL     1     -10.861  17.494  67.946  1.00  0.00    -0.374 OA 
HETATM   12  H   UNL     1     -10.158  18.125  67.843  1.00  0.00     0.000 HD 
BRANCH  10  13
HETATM   13  C   UNL     1     -10.000  16.407  65.953  1.00  0.00    -0.332 C  
HETATM   14  H   UNL     1      -8.415  17.187  65.039  1.00  0.00     0.000 HD 
HETATM   15  O   UNL     1      -8.721  17.065  65.930  1.00  0.00    -0.524 OA 
BRANCH  13  16
HETATM   16  C   UNL     1     -10.979  17.215  65.080  1.00  0.00     0.048 C  
HETATM   17  O   UNL     1     -11.426  16.468  63.943  1.00  0.00    -1.608 OA 
HETATM   18  H   UNL     1     -12.030  16.966  63.405  1.00  0.00     0.000 HD 
ENDBRANCH  13  16
ENDBRANCH  10  13
ENDBRANCH   1  10
BRANCH   7  19
HETATM   19  N   UNL     1      -9.448  12.887  68.616  1.00  0.00    -0.407 NA 
HETATM   20  H2  UNL     1      -9.665  12.733  66.014  1.00  0.00     0.000 HD 
HETATM   21  H   UNL     1      -9.153  12.926  69.592  1.00  0.00     0.000 HD 
HETATM   22  C   UNL     1      -8.576  12.925  67.678  1.00  0.00    -0.182 C  
HETATM   23  H1  UNL     1      -6.571  13.081  67.234  1.00  0.00     0.000 HD 
HETATM   24  N   UNL     1      -8.704  12.844  66.338  1.00  0.00    -0.424 NA 
HETATM   25  H2  UNL     1      -6.969  13.114  68.955  1.00  0.00     0.000 HD 
HETATM   26  N   UNL     1      -7.265  13.050  67.981  1.00  0.00    -0.103 NA 
HETATM   27  H1  UNL     1      -8.010  12.875  65.590  1.00  0.00     0.000 HD 
ENDBRANCH   7  19
BRANCH   5  28
HETATM   28  N   UNL     1     -12.165  13.129  66.178  1.00  0.00    -0.412 N  
HETATM   29  C   UNL     1     -11.901  13.039  64.826  1.00  0.00    -0.363 C  
HETATM   30  H   UNL     1     -13.043  12.759  66.543  1.00  0.00     0.000 HD 
HETATM   31  C   UNL     1     -12.905  12.208  64.077  1.00  0.00    -0.383 C  
HETATM   32  O   UNL     1     -10.934  13.562  64.283  1.00  0.00    -0.383 OA 
ENDBRANCH   5  28
TORSDOF 5
ENDMDL
MODEL       13
REMARK 921   NORMALIZED FREE ENERGY PREDICTED BY IDOCK:   -6.23 KCAL/MOL
REMARK 922        TOTAL FREE ENERGY PREDICTED BY IDOCK:   -9.64 KCAL/MOL
REMARK 923 INTER-LIGAND FREE ENERGY PREDICTED BY IDOCK:   -8.56 KCAL/MOL
REMARK 924 INTRA-LIGAND FREE ENERGY PREDICTED BY IDOCK:   -1.08 KCAL/MOL
REMARK 927      BINDING AFFINITY PREDICTED BY RF-SCORE:    0.00 PKD
ROOT
HETATM    1  C   UNL     1     -10.322  14.423  68.003  1.00  0.00    -0.227 C  
HETATM    2  O   UNL     1     -10.492  15.833  67.824  1.00  0.00    -0.269 OA 
HETATM    3  O   UNL     1     -10.565  18.413  67.731  1.00  0.00    -0.409 OA 
HETATM    4  C   UNL     1     -10.403  17.876  66.501  1.00  0.00    -0.362 C  
HETATM    5  C   UNL     1      -9.862  13.575  66.773  1.00  0.00    -0.267 C  
HETATM    6  C   UNL     1     -10.395  16.383  66.575  1.00  0.00    -0.303 C  
HETATM    7  C   UNL     1     -10.245  14.203  65.404  1.00  0.00    -0.358 C  
HETATM    8  C   UNL     1     -10.296  15.682  65.446  1.00  0.00    -0.421 C  
HETATM    9  O   UNL     1     -10.245  18.532  65.483  1.00  0.00    -0.493 OA 
ENDROOT
BRANCH   1  10
HETATM   10  C   UNL     1     -11.578  13.792  68.669  1.00  0.00    -0.334 C  
HETATM   11  O   UNL     1     -12.781  14.127  67.954  1.00  0.00    -0.298 OA 
HETATM   12  H   UNL     1     -13.548  13.741  68.360  1.00  0.00     0.000 HD 
BRANCH  10  13
HETATM   13  C   UNL     1     -11.783  14.150  70.167  1.00  0.00    -0.280 C  
HETATM   14  H   UNL     1     -12.670  13.353  71.759  1.00  0.00     0.000 HD 
HETATM   15  O   UNL     1     -12.545  13.134  70.843  1.00  0.00    -0.346 OA 
BRANCH  13  16
HETATM   16  C   UNL     1     -12.485  15.505  70.376  1.00  0.00    -0.402 C  
HETATM   17  O   UNL     1     -13.899  15.357  70.544  1.00  0.00    -0.784 OA 
HETATM   18  H   UNL     1     -14.332  16.192  70.673  1.00  0.00     0.000 HD 
ENDBRANCH  13  16
ENDBRANCH  10  13
ENDBRANCH   1  10
BRANCH   7  19
HETATM   19  N   UNL     1     -11.553  13.690  64.983  1.00  0.00    -0.321 NA 
HETATM   20  H2  UNL     1      -9.731  12.677  63.402  1.00  0.00     0.000 HD 
HETATM   21  H   UNL     1     -12.401  13.995  65.461  1.00  0.00     0.000 HD 
HETATM   22  C   UNL     1     -11.625  12.856  64.012  1.00  0.00    -0.426 C  
HETATM   23  H1  UNL     1     -12.882  11.693  62.869  1.00  0.00     0.000 HD 
HETATM   24  N   UNL     1     -10.675  12.343  63.205  1.00  0.00    -0.628 NA 
HETATM   25  H2  UNL     1     -13.671  12.642  64.133  1.00  0.00     0.000 HD 
HETATM   26  N   UNL     1     -12.825  12.356  63.642  1.00  0.00    -0.780 NA 
HETATM   27  H1  UNL     1     -10.732  11.679  62.432  1.00  0.00     0.000 HD 
ENDBRANCH   7  19
BRANCH   5  28
HETATM   28  N   UNL     1      -8.410  13.269  66.809  1.00  0.00    -0.419 N  
HETATM   29  C   UNL     1      -7.949  12.044  67.249  1.00  0.00    -0.174 C  
HETATM   30  H   UNL     1      -7.741  13.977  66.504  1.00  0.00     0.000 HD 
HETATM   31  C   UNL     1      -6.474  11.852  67.034  1.00  0.00    -0.136 C  
HETATM   32  O   UNL     1      -8.666  11.184  67.746  1.00  0.00    -0.128 OA 
ENDBRANCH   5  28
TORSDOF 5
ENDMDL
MODEL       14
REMARK 921   NORMALIZED FREE ENERGY PREDICTED BY IDOCK:   -6.12 KCAL/MOL
REMARK 922        TOTAL FREE ENERGY PREDICTED BY IDOCK:   -9.50 KCAL/MOL
REMARK 923 INTER-LIGAND FREE ENERGY PREDICTED BY IDOCK:   -8.06 KCAL/MOL
REMARK 924 INTRA-LIGAND FREE ENERGY PREDICTED BY IDOCK:   -1.44 KCAL/MOL
REMARK 927      BINDING AFFINITY PREDICTED BY RF-SCORE:    0.00 PKD
ROOT
HETATM    1  C   UNL     1      -9.366  15.594  66.940  1.00  0.00    -0.234 C  
HETATM    2  O   UNL     1     -10.276  15.878  65.872  1.00  0.00    -0.306 OA 
HETATM    3  O   UNL     1     -11.650  16.467  63.766  1.00  0.00    -1.109 OA 
HETATM    4  C   UNL     1     -11.974  15.244  64.245  1.00  0.00    -0.223 C  
HETATM    5  C   UNL     1      -9.340  14.141  67.517  1.00  0.00    -0.204 C  
HETATM    6  C   UNL     1     -11.190  14.938  65.480  1.00  0.00    -0.348 C  
HETATM    7  C   UNL     1     -10.677  13.371  67.331  1.00  0.00    -0.262 C  
HETATM    8  C   UNL     1     -11.417  13.791  66.120  1.00  0.00    -0.350 C  
HETATM    9  O   UNL     1     -12.769  14.488  63.709  1.00  0.00    -0.780 OA 
ENDROOT
BRANCH   1  10
HETATM   10  C   UNL     1      -9.509  16.638  68.084  1.00  0.00    -0.228 C  
HETATM   11  O   UNL     1     -10.838  16.644  68.634  1.00  0.00    -0.322 OA 
HETATM   12  H   UNL     1     -10.925  17.282  69.333  1.00  0.00     0.000 HD 
BRANCH  10  13
HETATM   13  C   UNL     1      -9.131  18.096  67.700  1.00  0.00    -0.259 C  
HETATM   14  H   UNL     1      -7.713  19.414  68.155  1.00  0.00     0.000 HD 
HETATM   15  O   UNL     1      -7.944  18.523  68.390  1.00  0.00    -0.296 OA 
BRANCH  13  16
HETATM   16  C   UNL     1     -10.254  19.109  67.990  1.00  0.00    -0.401 C  
HETATM   17  O   UNL     1     -10.215  19.581  69.342  1.00  0.00    -0.610 OA 
HETATM   18  H   UNL     1     -10.907  20.206  69.521  1.00  0.00     0.000 HD 
ENDBRANCH  13  16
ENDBRANCH  10  13
ENDBRANCH   1  10
BRANCH   7  19
HETATM   19  N   UNL     1     -11.526  13.581  68.509  1.00  0.00    -0.286 NA 
HETATM   20  H2  UNL     1     -10.391  11.234  68.729  1.00  0.00     0.000 HD 
HETATM   21  H   UNL     1     -12.082  14.432  68.594  1.00  0.00     0.000 HD 
HETATM   22  C   UNL     1     -11.567  12.690  69.429  1.00  0.00    -0.306 C  
HETATM   23  H1  UNL     1     -12.355  12.185  71.263  1.00  0.00     0.000 HD 
HETATM   24  N   UNL     1     -10.975  11.482  69.528  1.00  0.00    -0.424 NA 
HETATM   25  H2  UNL     1     -12.860  13.755  70.630  1.00  0.00     0.000 HD 
HETATM   26  N   UNL     1     -12.323  12.894  70.531  1.00  0.00    -0.324 NA 
HETATM   27  H1  UNL     1     -11.007  10.773  70.261  1.00  0.00     0.000 HD 
ENDBRANCH   7  19
BRANCH   5  28
HETATM   28  N   UNL     1      -8.209  13.342  66.983  1.00  0.00    -0.380 N  
HETATM   29  C   UNL     1      -7.742  12.228  67.652  1.00  0.00    -0.144 C  
HETATM   30  H   UNL     1      -7.769  13.621  66.106  1.00  0.00     0.000 HD 
HETATM   31  C   UNL     1      -6.728  11.444  66.867  1.00  0.00    -0.145 C  
HETATM   32  O   UNL     1      -8.126  11.890  68.766  1.00  0.00    -0.117 OA 
ENDBRANCH   5  28
TORSDOF 5
ENDMDL
MODEL       15
REMARK 921   NORMALIZED FREE ENERGY PREDICTED BY IDOCK:   -6.11 KCAL/MOL
REMARK 922        TOTAL FREE ENERGY PREDICTED BY IDOCK:   -9.49 KCAL/MOL
REMARK 923 INTER-LIGAND FREE ENERGY PREDICTED BY IDOCK:   -8.69 KCAL/MOL
REMARK 924 INTRA-LIGAND FREE ENERGY PREDICTED BY IDOCK:   -0.80 KCAL/MOL
REMARK 927      BINDING AFFINITY PREDICTED BY RF-SCORE:    0.00 PKD
ROOT
HETATM    1  C   UNL     1     -10.450  13.943  67.715  1.00  0.00    -0.243 C  
HETATM    2  O   UNL     1     -10.582  15.366  67.639  1.00  0.00    -0.267 OA 
HETATM    3  O   UNL     1     -10.591  17.947  67.741  1.00  0.00    -0.392 OA 
HETATM    4  C   UNL     1     -10.413  17.500  66.477  1.00  0.00    -0.270 C  
HETATM    5  C   UNL     1      -9.982  13.178  66.434  1.00  0.00    -0.282 C  
HETATM    6  C   UNL     1     -10.443  16.006  66.438  1.00  0.00    -0.309 C  
HETATM    7  C   UNL     1     -10.317  13.917  65.109  1.00  0.00    -0.383 C  
HETATM    8  C   UNL     1     -10.334  15.389  65.261  1.00  0.00    -0.420 C  
HETATM    9  O   UNL     1     -10.215  18.226  65.515  1.00  0.00    -0.530 OA 
ENDROOT
BRANCH   1  10
HETATM   10  C   UNL     1     -11.736  13.296  68.303  1.00  0.00    -0.353 C  
HETATM   11  O   UNL     1     -12.353  14.144  69.289  1.00  0.00    -0.473 OA 
HETATM   12  H   UNL     1     -13.139  13.748  69.648  1.00  0.00     0.000 HD 
BRANCH  10  13
HETATM   13  C   UNL     1     -11.542  11.885  68.924  1.00  0.00    -0.311 C  
HETATM   14  H   UNL     1     -11.859   9.993  68.400  1.00  0.00     0.000 HD 
HETATM   15  O   UNL     1     -11.978  10.855  68.020  1.00  0.00    -0.586 OA 
BRANCH  13  16
HETATM   16  C   UNL     1     -12.285  11.704  70.262  1.00  0.00    -0.318 C  
HETATM   17  O   UNL     1     -12.923  10.425  70.352  1.00  0.00    -0.504 OA 
HETATM   18  H   UNL     1     -13.381  10.313  71.177  1.00  0.00     0.000 HD 
ENDBRANCH  13  16
ENDBRANCH  10  13
ENDBRANCH   1  10
BRANCH   7  19
HETATM   19  N   UNL     1     -11.626  13.471  64.622  1.00  0.00    -0.353 NA 
HETATM   20  H2  UNL     1      -9.778  12.246  63.233  1.00  0.00     0.000 HD 
HETATM   21  H   UNL     1     -12.481  13.860  65.020  1.00  0.00     0.000 HD 
HETATM   22  C   UNL     1     -11.692  12.589  63.694  1.00  0.00    -0.515 C  
HETATM   23  H1  UNL     1     -12.948  11.449  62.526  1.00  0.00     0.000 HD 
HETATM   24  N   UNL     1     -10.728  11.966  62.986  1.00  0.00    -0.675 NA 
HETATM   25  H2  UNL     1     -13.752  12.522  63.678  1.00  0.00     0.000 HD 
HETATM   26  N   UNL     1     -12.896  12.151  63.265  1.00  0.00    -0.712 NA 
HETATM   27  H1  UNL     1     -10.780  11.263  62.248  1.00  0.00     0.000 HD 
ENDBRANCH   7  19
BRANCH   5  28
HETATM   28  N   UNL     1      -8.539  12.833  66.479  1.00  0.00    -0.427 N  
HETATM   29  C   UNL     1      -8.120  11.546  66.749  1.00  0.00    -0.158 C  
HETATM   30  H   UNL     1      -7.844  13.561  66.307  1.00  0.00     0.000 HD 
HETATM   31  C   UNL     1      -6.642  11.349  66.564  1.00  0.00    -0.071 C  
HETATM   32  O   UNL     1      -8.874  10.640  67.088  1.00  0.00    -0.136 OA 
ENDBRANCH   5  28
TORSDOF 5
ENDMDL
MODEL       16
REMARK 921   NORMALIZED FREE ENERGY PREDICTED BY IDOCK:   -6.10 KCAL/MOL
REMARK 922        TOTAL FREE ENERGY PREDICTED BY IDOCK:   -9.48 KCAL/MOL
REMARK 923 INTER-LIGAND FREE ENERGY PREDICTED BY IDOCK:   -8.16 KCAL/MOL
REMARK 924 INTRA-LIGAND FREE ENERGY PREDICTED BY IDOCK:   -1.32 KCAL/MOL
REMARK 927      BINDING AFFINITY PREDICTED BY RF-SCORE:    0.00 PKD
ROOT
HETATM    1  C   UNL     1     -11.629  15.234  67.388  1.00  0.00    -0.188 C  
HETATM    2  O   UNL     1     -12.104  14.246  66.468  1.00  0.00    -0.431 OA 
HETATM    3  O   UNL     1     -13.248  12.628  64.811  1.00  0.00    -0.846 OA 
HETATM    4  C   UNL     1     -12.068  13.083  64.328  1.00  0.00    -0.414 C  
HETATM    5  C   UNL     1     -10.409  16.113  66.959  1.00  0.00    -0.290 C  
HETATM    6  C   UNL     1     -11.411  13.991  65.316  1.00  0.00    -0.321 C  
HETATM    7  C   UNL     1      -9.483  15.429  65.916  1.00  0.00    -0.334 C  
HETATM    8  C   UNL     1     -10.210  14.495  65.028  1.00  0.00    -0.398 C  
HETATM    9  O   UNL     1     -11.633  12.812  63.219  1.00  0.00    -0.498 OA 
ENDROOT
BRANCH   1  10
HETATM   10  C   UNL     1     -11.393  14.614  68.795  1.00  0.00    -0.281 C  
HETATM   11  O   UNL     1     -12.629  14.197  69.404  1.00  0.00    -0.491 OA 
HETATM   12  H   UNL     1     -12.485  13.818  70.263  1.00  0.00     0.000 HD 
BRANCH  10  13
HETATM   13  C   UNL     1     -10.636  15.525  69.801  1.00  0.00    -0.295 C  
HETATM   14  H   UNL     1      -8.761  15.814  70.397  1.00  0.00     0.000 HD 
HETATM   15  O   UNL     1      -9.223  15.257  69.782  1.00  0.00    -0.211 OA 
BRANCH  13  16
HETATM   16  C   UNL     1     -11.140  15.379  71.249  1.00  0.00    -0.286 C  
HETATM   17  O   UNL     1     -12.087  16.396  71.593  1.00  0.00    -0.632 OA 
HETATM   18  H   UNL     1     -12.398  16.305  72.486  1.00  0.00     0.000 HD 
ENDBRANCH  13  16
ENDBRANCH  10  13
ENDBRANCH   1  10
BRANCH   7  19
HETATM   19  N   UNL     1      -8.421  14.698  66.615  1.00  0.00    -0.429 NA 
HETATM   20  H2  UNL     1      -7.626  17.168  66.281  1.00  0.00     0.000 HD 
HETATM   21  H   UNL     1      -8.529  13.703  66.813  1.00  0.00     0.000 HD 
HETATM   22  C   UNL     1      -7.357  15.314  66.977  1.00  0.00    -0.037 C  
HETATM   23  H1  UNL     1      -5.543  15.143  67.937  1.00  0.00     0.000 HD 
HETATM   24  N   UNL     1      -6.961  16.591  66.796  1.00  0.00    -0.218 NA 
HETATM   25  H2  UNL     1      -6.506  13.663  67.869  1.00  0.00     0.000 HD 
HETATM   26  N   UNL     1      -6.390  14.652  67.649  1.00  0.00    -0.278 NA 
HETATM   27  H1  UNL     1      -6.114  17.082  67.083  1.00  0.00     0.000 HD 
ENDBRANCH   7  19
BRANCH   5  28
HETATM   28  N   UNL     1     -10.822  17.455  66.478  1.00  0.00    -0.052 N  
HETATM   29  C   UNL     1     -10.092  18.583  66.793  1.00  0.00    -0.380 C  
HETATM   30  H   UNL     1     -11.661  17.544  65.904  1.00  0.00     0.000 HD 
HETATM   31  C   UNL     1     -10.554  19.814  66.063  1.00  0.00    -0.573 C  
HETATM   32  O   UNL     1      -9.147  18.589  67.573  1.00  0.00    -0.276 OA 
ENDBRANCH   5  28
TORSDOF 5
ENDMDL
MODEL       17
REMARK 921   NORMALIZED FREE ENERGY PREDICTED BY IDOCK:   -6.10 KCAL/MOL
REMARK 922        TOTAL FREE ENERGY PREDICTED BY IDOCK:   -9.47 KCAL/MOL
REMARK 923 INTER-LIGAND FREE ENERGY PREDICTED BY IDOCK:   -7.96 KCAL/MOL
REMARK 924 INTRA-LIGAND FREE ENERGY PREDICTED BY IDOCK:   -1.51 KCAL/MOL
REMARK 927      BINDING AFFINITY PREDICTED BY RF-SCORE:    0.00 PKD
ROOT
HETATM    1  C   UNL     1     -10.136  14.389  66.333  1.00  0.00    -0.286 C  
HETATM    2  O   UNL     1     -11.077  14.210  65.269  1.00  0.00    -0.307 OA 
HETATM    3  O   UNL     1     -12.541  14.010  63.151  1.00  0.00    -0.733 OA 
HETATM    4  C   UNL     1     -12.481  12.839  63.826  1.00  0.00    -0.383 C  
HETATM    5  C   UNL     1      -9.674  13.125  67.127  1.00  0.00    -0.235 C  
HETATM    6  C   UNL     1     -11.655  12.987  65.063  1.00  0.00    -0.325 C  
HETATM    7  C   UNL     1     -10.709  11.966  67.114  1.00  0.00    -0.240 C  
HETATM    8  C   UNL     1     -11.528  11.943  65.881  1.00  0.00    -0.340 C  
HETATM    9  O   UNL     1     -13.000  11.802  63.444  1.00  0.00    -0.646 OA 
ENDROOT
BRANCH   1  10
HETATM   10  C   UNL     1     -10.604  15.510  67.305  1.00  0.00    -0.299 C  
HETATM   11  O   UNL     1     -11.915  15.240  67.834  1.00  0.00    -0.444 OA 
HETATM   12  H   UNL     1     -12.201  15.924  68.428  1.00  0.00     0.000 HD 
BRANCH  10  13
HETATM   13  C   UNL     1     -10.603  16.945  66.710  1.00  0.00    -0.201 C  
HETATM   14  H   UNL     1      -9.585  17.967  65.341  1.00  0.00     0.000 HD 
HETATM   15  O   UNL     1      -9.585  17.090  65.705  1.00  0.00    -0.536 OA 
BRANCH  13  16
HETATM   16  C   UNL     1     -10.396  18.041  67.773  1.00  0.00    -0.393 C  
HETATM   17  O   UNL     1     -10.571  17.539  69.103  1.00  0.00    -0.387 OA 
HETATM   18  H   UNL     1     -10.443  18.215  69.758  1.00  0.00     0.000 HD 
ENDBRANCH  13  16
ENDBRANCH  10  13
ENDBRANCH   1  10
BRANCH   7  19
HETATM   19  N   UNL     1     -11.595  12.093  68.276  1.00  0.00    -0.305 NA 
HETATM   20  H2  UNL     1      -9.541  10.631  68.973  1.00  0.00     0.000 HD 
HETATM   21  H   UNL     1     -12.474  12.606  68.197  1.00  0.00     0.000 HD 
HETATM   22  C   UNL     1     -11.261  11.558  69.391  1.00  0.00    -0.259 C  
HETATM   23  H1  UNL     1     -11.792  11.273  71.361  1.00  0.00     0.000 HD 
HETATM   24  N   UNL     1     -10.196  10.804  69.735  1.00  0.00    -0.448 NA 
HETATM   25  H2  UNL     1     -12.925  12.232  70.402  1.00  0.00     0.000 HD 
HETATM   26  N   UNL     1     -12.059  11.699  70.473  1.00  0.00    -0.377 NA 
HETATM   27  H1  UNL     1      -9.930  10.378  70.623  1.00  0.00     0.000 HD 
ENDBRANCH   7  19
BRANCH   5  28
HETATM   28  N   UNL     1      -8.347  12.633  66.681  1.00  0.00    -0.412 N  
HETATM   29  C   UNL     1      -7.475  12.027  67.564  1.00  0.00    -0.140 C  
HETATM   30  H   UNL     1      -8.074  12.744  65.704  1.00  0.00     0.000 HD 
HETATM   31  C   UNL     1      -6.270  11.427  66.894  1.00  0.00    -0.135 C  
HETATM   32  O   UNL     1      -7.665  11.960  68.773  1.00  0.00    -0.127 OA 
ENDBRANCH   5  28
TORSDOF 5
ENDMDL
MODEL       18
REMARK 921   NORMALIZED FREE ENERGY PREDICTED BY IDOCK:   -6.08 KCAL/MOL
REMARK 922        TOTAL FREE ENERGY PREDICTED BY IDOCK:   -9.45 KCAL/MOL
REMARK 923 INTER-LIGAND FREE ENERGY PREDICTED BY IDOCK:   -7.79 KCAL/MOL
REMARK 924 INTRA-LIGAND FREE ENERGY PREDICTED BY IDOCK:   -1.66 KCAL/MOL
REMARK 927      BINDING AFFINITY PREDICTED BY RF-SCORE:    0.00 PKD
ROOT
HETATM    1  C   UNL     1      -9.578  13.660  68.363  1.00  0.00    -0.203 C  
HETATM    2  O   UNL     1     -10.745  13.631  69.190  1.00  0.00    -0.206 OA 
HETATM    3  O   UNL     1     -12.655  13.464  70.921  1.00  0.00    -0.352 OA 
HETATM    4  C   UNL     1     -12.601  14.692  70.358  1.00  0.00    -0.343 C  
HETATM    5  C   UNL     1      -9.121  15.038  67.783  1.00  0.00    -0.180 C  
HETATM    6  C   UNL     1     -11.510  14.756  69.338  1.00  0.00    -0.301 C  
HETATM    7  C   UNL     1     -10.277  16.067  67.633  1.00  0.00    -0.262 C  
HETATM    8  C   UNL     1     -11.343  15.881  68.642  1.00  0.00    -0.376 C  
HETATM    9  O   UNL     1     -13.324  15.623  70.677  1.00  0.00    -0.494 OA 
ENDROOT
BRANCH   1  10
HETATM   10  C   UNL     1      -9.669  12.592  67.236  1.00  0.00    -0.202 C  
HETATM   11  O   UNL     1      -8.553  12.680  66.331  1.00  0.00    -0.417 OA 
HETATM   12  H   UNL     1      -8.608  12.027  65.643  1.00  0.00     0.000 HD 
BRANCH  10  13
HETATM   13  C   UNL     1     -10.979  12.619  66.401  1.00  0.00    -0.272 C  
HETATM   14  H   UNL     1     -12.643  11.541  66.243  1.00  0.00     0.000 HD 
HETATM   15  O   UNL     1     -11.842  11.524  66.754  1.00  0.00    -0.511 OA 
BRANCH  13  16
HETATM   16  C   UNL     1     -10.731  12.573  64.882  1.00  0.00    -0.295 C  
HETATM   17  O   UNL     1     -10.314  13.843  64.368  1.00  0.00    -0.602 OA 
HETATM   18  H   UNL     1     -10.161  13.815  63.431  1.00  0.00     0.000 HD 
ENDBRANCH  13  16
ENDBRANCH  10  13
ENDBRANCH   1  10
BRANCH   7  19
HETATM   19  N   UNL     1     -10.859  15.951  66.292  1.00  0.00    -0.254 NA 
HETATM   20  H2  UNL     1      -9.820  18.340  66.528  1.00  0.00     0.000 HD 
HETATM   21  H   UNL     1     -11.344  15.097  66.016  1.00  0.00     0.000 HD 
HETATM   22  C   UNL     1     -10.757  16.928  65.469  1.00  0.00    -0.163 C  
HETATM   23  H1  UNL     1     -11.183  17.592  63.567  1.00  0.00     0.000 HD 
HETATM   24  N   UNL     1     -10.217  18.157  65.606  1.00  0.00    -0.561 NA 
HETATM   25  H2  UNL     1     -11.728  15.953  63.936  1.00  0.00     0.000 HD 
HETATM   26  N   UNL     1     -11.265  16.815  64.222  1.00  0.00    -1.110 NA 
HETATM   27  H1  UNL     1     -10.136  18.935  64.951  1.00  0.00     0.000 HD 
ENDBRANCH   7  19
BRANCH   5  28
HETATM   28  N   UNL     1      -8.002  15.632  68.555  1.00  0.00    -0.132 N  
HETATM   29  C   UNL     1      -6.691  15.471  68.153  1.00  0.00    -0.127 C  
HETATM   30  H   UNL     1      -8.205  16.169  69.399  1.00  0.00     0.000 HD 
HETATM   31  C   UNL     1      -5.719  16.298  68.946  1.00  0.00    -0.118 C  
HETATM   32  O   UNL     1      -6.346  14.744  67.228  1.00  0.00    -0.306 OA 
ENDBRANCH   5  28
TORSDOF 5
ENDMDL
MODEL       19
REMARK 921   NORMALIZED FREE ENERGY PREDICTED BY IDOCK:   -6.07 KCAL/MOL
REMARK 922        TOTAL FREE ENERGY PREDICTED BY IDOCK:   -9.44 KCAL/MOL
REMARK 923 INTER-LIGAND FREE ENERGY PREDICTED BY IDOCK:   -8.05 KCAL/MOL
REMARK 924 INTRA-LIGAND FREE ENERGY PREDICTED BY IDOCK:   -1.39 KCAL/MOL
REMARK 927      BINDING AFFINITY PREDICTED BY RF-SCORE:    0.00 PKD
ROOT
HETATM    1  C   UNL     1      -9.726  15.095  68.286  1.00  0.00    -0.219 C  
HETATM    2  O   UNL     1      -8.507  14.441  67.920  1.00  0.00    -0.147 OA 
HETATM    3  O   UNL     1      -6.227  13.276  67.580  1.00  0.00    -0.201 OA 
HETATM    4  C   UNL     1      -7.238  12.560  67.036  1.00  0.00     0.027 C  
HETATM    5  C   UNL     1     -11.073  14.350  68.010  1.00  0.00    -0.272 C  
HETATM    6  C   UNL     1      -8.541  13.268  67.217  1.00  0.00    -0.210 C  
HETATM    7  C   UNL     1     -10.992  13.326  66.844  1.00  0.00    -0.283 C  
HETATM    8  C   UNL     1      -9.645  12.730  66.697  1.00  0.00    -0.255 C  
HETATM    9  O   UNL     1      -7.096  11.467  66.509  1.00  0.00    -0.107 OA 
ENDROOT
BRANCH   1  10
HETATM   10  C   UNL     1      -9.772  16.543  67.720  1.00  0.00    -0.235 C  
HETATM   11  O   UNL     1     -11.006  17.203  68.053  1.00  0.00    -0.362 OA 
HETATM   12  H   UNL     1     -11.034  18.088  67.707  1.00  0.00     0.000 HD 
BRANCH  10  13
HETATM   13  C   UNL     1      -9.552  16.661  66.187  1.00  0.00    -0.294 C  
HETATM   14  H   UNL     1      -8.176  17.396  64.952  1.00  0.00     0.000 HD 
HETATM   15  O   UNL     1      -8.310  17.323  65.890  1.00  0.00    -0.533 OA 
BRANCH  13  16
HETATM   16  C   UNL     1     -10.688  17.413  65.467  1.00  0.00    -0.078 C  
HETATM   17  O   UNL     1     -11.088  16.754  64.260  1.00  0.00    -1.301 OA 
HETATM   18  H   UNL     1     -11.788  17.217  63.817  1.00  0.00     0.000 HD 
ENDBRANCH  13  16
ENDBRANCH  10  13
ENDBRANCH   1  10
BRANCH   7  19
HETATM   19  N   UNL     1     -11.362  13.989  65.589  1.00  0.00    -0.309 NA 
HETATM   20  H2  UNL     1     -12.804  11.818  65.822  1.00  0.00     0.000 HD 
HETATM   21  H   UNL     1     -10.885  14.843  65.300  1.00  0.00     0.000 HD 
HETATM   22  C   UNL     1     -12.288  13.490  64.856  1.00  0.00    -0.407 C  
HETATM   23  H1  UNL     1     -13.392  13.717  63.132  1.00  0.00     0.000 HD 
HETATM   24  N   UNL     1     -13.023  12.367  64.990  1.00  0.00    -0.626 NA 
HETATM   25  H2  UNL     1     -12.196  14.981  63.437  1.00  0.00     0.000 HD 
HETATM   26  N   UNL     1     -12.655  14.114  63.715  1.00  0.00    -0.788 NA 
HETATM   27  H1  UNL     1     -13.760  11.969  64.407  1.00  0.00     0.000 HD 
ENDBRANCH   7  19
BRANCH   5  28
HETATM   28  N   UNL     1     -11.618  13.699  69.227  1.00  0.00    -0.291 N  
HETATM   29  C   UNL     1     -12.259  14.435  70.204  1.00  0.00    -0.341 C  
HETATM   30  H   UNL     1     -11.517  12.691  69.344  1.00  0.00     0.000 HD 
HETATM   31  C   UNL     1     -12.907  13.584  71.261  1.00  0.00    -0.420 C  
HETATM   32  O   UNL     1     -12.319  15.659  70.208  1.00  0.00    -0.400 OA 
ENDBRANCH   5  28
TORSDOF 5
ENDMDL
MODEL       20
REMARK 921   NORMALIZED FREE ENERGY PREDICTED BY IDOCK:   -6.00 KCAL/MOL
REMARK 922        TOTAL FREE ENERGY PREDICTED BY IDOCK:   -9.35 KCAL/MOL
REMARK 923 INTER-LIGAND FREE ENERGY PREDICTED BY IDOCK:   -8.23 KCAL/MOL
REMARK 924 INTRA-LIGAND FREE ENERGY PREDICTED BY IDOCK:   -1.12 KCAL/MOL
REMARK 927      BINDING AFFINITY PREDICTED BY RF-SCORE:    0.00 PKD
ROOT
HETATM    1  C   UNL     1     -11.428  12.088  66.762  1.00  0.00    -0.345 C  
HETATM    2  O   UNL     1     -11.898  11.570  68.010  1.00  0.00    -0.545 OA 
HETATM    3  O   UNL     1     -12.948  10.445  70.084  1.00  0.00    -0.198 OA 
HETATM    4  C   UNL     1     -11.597  10.379  70.113  1.00  0.00    -0.312 C  
HETATM    5  C   UNL     1      -9.915  11.903  66.411  1.00  0.00    -0.213 C  
HETATM    6  C   UNL     1     -11.012  11.063  68.921  1.00  0.00    -0.227 C  
HETATM    7  C   UNL     1      -8.998  11.765  67.657  1.00  0.00    -0.169 C  
HETATM    8  C   UNL     1      -9.685  11.141  68.810  1.00  0.00    -0.194 C  
HETATM    9  O   UNL     1     -10.959   9.801  70.980  1.00  0.00    -0.320 OA 
ENDROOT
BRANCH   1  10
HETATM   10  C   UNL     1     -11.857  13.572  66.579  1.00  0.00    -0.399 C  
HETATM   11  O   UNL     1     -12.498  14.088  67.759  1.00  0.00    -0.490 OA 
HETATM   12  H   UNL     1     -12.760  14.994  67.648  1.00  0.00     0.000 HD 
BRANCH  10  13
HETATM   13  C   UNL     1     -12.781  13.848  65.360  1.00  0.00    -0.490 C  
HETATM   14  H   UNL     1     -13.809  12.790  64.027  1.00  0.00     0.000 HD 
HETATM   15  O   UNL     1     -13.245  12.621  64.772  1.00  0.00    -0.846 OA 
BRANCH  13  16
HETATM   16  C   UNL     1     -12.101  14.688  64.262  1.00  0.00    -0.415 C  
HETATM   17  O   UNL     1     -12.189  14.063  62.977  1.00  0.00    -1.006 OA 
HETATM   18  H   UNL     1     -11.770  14.580  62.300  1.00  0.00     0.000 HD 
ENDBRANCH  13  16
ENDBRANCH  10  13
ENDBRANCH   1  10
BRANCH   7  19
HETATM   19  N   UNL     1      -8.510  13.091  68.050  1.00  0.00    -0.172 NA 
HETATM   20  H2  UNL     1      -6.586  11.860  66.774  1.00  0.00     0.000 HD 
HETATM   21  H   UNL     1      -9.108  13.718  68.589  1.00  0.00     0.000 HD 
HETATM   22  C   UNL     1      -7.330  13.460  67.714  1.00  0.00    -0.157 C  
HETATM   23  H1  UNL     1      -5.948  14.986  67.778  1.00  0.00     0.000 HD 
HETATM   24  N   UNL     1      -6.347  12.811  67.055  1.00  0.00    -0.488 NA 
HETATM   25  H2  UNL     1      -7.493  15.330  68.563  1.00  0.00     0.000 HD 
HETATM   26  N   UNL     1      -6.888  14.693  68.046  1.00  0.00    -0.126 NA 
HETATM   27  H1  UNL     1      -5.408  13.104  66.786  1.00  0.00     0.000 HD 
ENDBRANCH   7  19
BRANCH   5  28
HETATM   28  N   UNL     1      -9.688  10.771  65.478  1.00  0.00    -0.223 N  
HETATM   29  C   UNL     1      -9.656  10.966  64.111  1.00  0.00    -0.277 C  
HETATM   30  H   UNL     1      -9.553   9.832  65.853  1.00  0.00     0.000 HD 
HETATM   31  C   UNL     1      -9.226   9.746  63.346  1.00  0.00    -0.217 C  
HETATM   32  O   UNL     1      -9.928  12.031  63.568  1.00  0.00    -0.399 OA 
ENDBRANCH   5  28
TORSDOF 5
ENDMDL
MODEL       21
REMARK 921   NORMALIZED FREE ENERGY PREDICTED BY IDOCK:   -6.00 KCAL/MOL
REMARK 922        TOTAL FREE ENERGY PREDICTED BY IDOCK:   -9.35 KCAL/MOL
REMARK 923 INTER-LIGAND FREE ENERGY PREDICTED BY IDOCK:   -7.99 KCAL/MOL
REMARK 924 INTRA-LIGAND FREE ENERGY PREDICTED BY IDOCK:   -1.36 KCAL/MOL
REMARK 927      BINDING AFFINITY PREDICTED BY RF-SCORE:    0.00 PKD
ROOT
HETATM    1  C   UNL     1     -11.050  14.353  67.731  1.00  0.00    -0.287 C  
HETATM    2  O   UNL     1     -11.959  14.486  68.828  1.00  0.00    -0.313 OA 
HETATM    3  O   UNL     1     -13.515  14.417  70.888  1.00  0.00    -0.329 OA 
HETATM    4  C   UNL     1     -12.706  15.501  70.912  1.00  0.00    -0.468 C  
HETATM    5  C   UNL     1      -9.835  15.334  67.659  1.00  0.00    -0.217 C  
HETATM    6  C   UNL     1     -11.838  15.536  69.696  1.00  0.00    -0.366 C  
HETATM    7  C   UNL     1     -10.082  16.688  68.379  1.00  0.00    -0.268 C  
HETATM    8  C   UNL     1     -11.009  16.567  69.526  1.00  0.00    -0.289 C  
HETATM    9  O   UNL     1     -12.672  16.309  71.828  1.00  0.00    -0.282 OA 
ENDROOT
BRANCH   1  10
HETATM   10  C   UNL     1     -11.815  14.323  66.377  1.00  0.00    -0.411 C  
HETATM   11  O   UNL     1     -12.570  13.108  66.220  1.00  0.00    -0.366 OA 
HETATM   12  H   UNL     1     -13.037  13.090  65.393  1.00  0.00     0.000 HD 
BRANCH  10  13
HETATM   13  C   UNL     1     -10.930  14.515  65.113  1.00  0.00    -0.379 C  
HETATM   14  H   UNL     1     -10.476  15.979  63.846  1.00  0.00     0.000 HD 
HETATM   15  O   UNL     1     -11.017  15.862  64.619  1.00  0.00    -0.528 OA 
BRANCH  13  16
HETATM   16  C   UNL     1     -11.294  13.552  63.967  1.00  0.00    -0.274 C  
HETATM   17  O   UNL     1     -12.321  14.085  63.123  1.00  0.00    -1.133 OA 
HETATM   18  H   UNL     1     -12.545  13.491  62.417  1.00  0.00     0.000 HD 
ENDBRANCH  13  16
ENDBRANCH  10  13
ENDBRANCH   1  10
BRANCH   7  19
HETATM   19  N   UNL     1     -10.629  17.655  67.421  1.00  0.00    -0.346 NA 
HETATM   20  H2  UNL     1      -8.036  17.985  67.522  1.00  0.00     0.000 HD 
HETATM   21  H   UNL     1     -11.636  17.705  67.262  1.00  0.00     0.000 HD 
HETATM   22  C   UNL     1      -9.837  18.436  66.784  1.00  0.00    -0.342 C  
HETATM   23  H1  UNL     1      -9.703  19.927  65.370  1.00  0.00     0.000 HD 
HETATM   24  N   UNL     1      -8.499  18.594  66.848  1.00  0.00    -0.265 NA 
HETATM   25  H2  UNL     1     -11.337  19.341  65.699  1.00  0.00     0.000 HD 
HETATM   26  N   UNL     1     -10.334  19.306  65.877  1.00  0.00    -0.505 NA 
HETATM   27  H1  UNL     1      -7.868  19.216  66.341  1.00  0.00     0.000 HD 
ENDBRANCH   7  19
BRANCH   5  28
HETATM   28  N   UNL     1      -8.579  14.713  68.149  1.00  0.00    -0.159 N  
HETATM   29  C   UNL     1      -7.355  15.056  67.612  1.00  0.00    -0.188 C  
HETATM   30  H   UNL     1      -8.622  14.020  68.897  1.00  0.00     0.000 HD 
HETATM   31  C   UNL     1      -6.191  14.471  68.362  1.00  0.00    -0.103 C  
HETATM   32  O   UNL     1      -7.218  15.783  66.634  1.00  0.00    -0.168 OA 
ENDBRANCH   5  28
TORSDOF 5
ENDMDL
MODEL       22
REMARK 921   NORMALIZED FREE ENERGY PREDICTED BY IDOCK:   -5.98 KCAL/MOL
REMARK 922        TOTAL FREE ENERGY PREDICTED BY IDOCK:   -9.32 KCAL/MOL
REMARK 923 INTER-LIGAND FREE ENERGY PREDICTED BY IDOCK:   -8.39 KCAL/MOL
REMARK 924 INTRA-LIGAND FREE ENERGY PREDICTED BY IDOCK:   -0.93 KCAL/MOL
REMARK 927      BINDING AFFINITY PREDICTED BY RF-SCORE:    0.00 PKD
ROOT
HETATM    1  C   UNL     1     -10.488  15.654  69.880  1.00  0.00    -0.320 C  
HETATM    2  O   UNL     1     -10.534  17.049  69.569  1.00  0.00    -0.295 OA 
HETATM    3  O   UNL     1     -10.385  19.607  69.240  1.00  0.00    -0.255 OA 
HETATM    4  C   UNL     1     -10.248  18.946  68.068  1.00  0.00    -0.388 C  
HETATM    5  C   UNL     1     -10.081  14.659  68.744  1.00  0.00    -0.235 C  
HETATM    6  C   UNL     1     -10.369  17.471  68.278  1.00  0.00    -0.379 C  
HETATM    7  C   UNL     1     -10.384  15.187  67.315  1.00  0.00    -0.261 C  
HETATM    8  C   UNL     1     -10.310  16.662  67.220  1.00  0.00    -0.298 C  
HETATM    9  O   UNL     1     -10.016  19.490  66.999  1.00  0.00    -0.333 OA 
ENDROOT
BRANCH   1  10
HETATM   10  C   UNL     1     -11.805  15.194  70.568  1.00  0.00    -0.318 C  
HETATM   11  O   UNL     1     -12.945  15.380  69.710  1.00  0.00    -0.597 OA 
HETATM   12  H   UNL     1     -13.749  15.099  70.130  1.00  0.00     0.000 HD 
BRANCH  10  13
HETATM   13  C   UNL     1     -12.108  15.867  71.936  1.00  0.00    -0.498 C  
HETATM   14  H   UNL     1     -11.401  15.802  73.794  1.00  0.00     0.000 HD 
HETATM   15  O   UNL     1     -11.216  15.391  72.958  1.00  0.00    -0.131 OA 
BRANCH  13  16
HETATM   16  C   UNL     1     -13.556  15.647  72.412  1.00  0.00    -0.524 C  
HETATM   17  O   UNL     1     -13.778  16.185  73.721  1.00  0.00    -0.868 OA 
HETATM   18  H   UNL     1     -14.671  16.050  74.014  1.00  0.00     0.000 HD 
ENDBRANCH  13  16
ENDBRANCH  10  13
ENDBRANCH   1  10
BRANCH   7  19
HETATM   19  N   UNL     1     -11.723  14.748  66.909  1.00  0.00    -0.343 NA 
HETATM   20  H2  UNL     1     -10.180  14.719  64.797  1.00  0.00     0.000 HD 
HETATM   21  H   UNL     1     -12.482  14.720  67.590  1.00  0.00     0.000 HD 
HETATM   22  C   UNL     1     -11.936  14.398  65.694  1.00  0.00    -0.354 C  
HETATM   23  H1  UNL     1     -13.329  13.683  64.356  1.00  0.00     0.000 HD 
HETATM   24  N   UNL     1     -11.128  14.389  64.614  1.00  0.00    -0.526 NA 
HETATM   25  H2  UNL     1     -13.913  13.911  66.008  1.00  0.00     0.000 HD 
HETATM   26  N   UNL     1     -13.160  13.962  65.323  1.00  0.00    -0.770 NA 
HETATM   27  H1  UNL     1     -11.297  14.111  63.648  1.00  0.00     0.000 HD 
ENDBRANCH   7  19
BRANCH   5  28
HETATM   28  N   UNL     1      -8.662  14.238  68.846  1.00  0.00    -0.349 N  
HETATM   29  C   UNL     1      -8.268  12.960  68.500  1.00  0.00    -0.065 C  
HETATM   30  H   UNL     1      -7.964  14.905  69.178  1.00  0.00     0.000 HD 
HETATM   31  C   UNL     1      -6.776  12.780  68.486  1.00  0.00    -0.090 C  
HETATM   32  O   UNL     1      -9.050  12.061  68.211  1.00  0.00    -0.188 OA 
ENDBRANCH   5  28
TORSDOF 5
ENDMDL
MODEL       23
REMARK 921   NORMALIZED FREE ENERGY PREDICTED BY IDOCK:   -5.97 KCAL/MOL
REMARK 922        TOTAL FREE ENERGY PREDICTED BY IDOCK:   -9.31 KCAL/MOL
REMARK 923 INTER-LIGAND FREE ENERGY PREDICTED BY IDOCK:   -8.10 KCAL/MOL
REMARK 924 INTRA-LIGAND FREE ENERGY PREDICTED BY IDOCK:   -1.21 KCAL/MOL
REMARK 927      BINDING AFFINITY PREDICTED BY RF-SCORE:    0.00 PKD
ROOT
HETATM    1  C   UNL     1     -11.323  15.540  67.620  1.00  0.00    -0.260 C  
HETATM    2  O   UNL     1     -11.991  15.545  68.885  1.00  0.00    -0.351 OA 
HETATM    3  O   UNL     1     -13.454  15.683  71.009  1.00  0.00    -0.575 OA 
HETATM    4  C   UNL     1     -12.939  14.444  70.840  1.00  0.00    -0.348 C  
HETATM    5  C   UNL     1     -10.848  14.166  67.044  1.00  0.00    -0.295 C  
HETATM    6  C   UNL     1     -12.072  14.396  69.624  1.00  0.00    -0.334 C  
HETATM    7  C   UNL     1     -10.581  13.091  68.134  1.00  0.00    -0.245 C  
HETATM    8  C   UNL     1     -11.437  13.261  69.329  1.00  0.00    -0.345 C  
HETATM    9  O   UNL     1     -13.190  13.494  71.565  1.00  0.00    -0.354 OA 
ENDROOT
BRANCH   1  10
HETATM   10  C   UNL     1     -10.163  16.576  67.599  1.00  0.00    -0.279 C  
HETATM   11  O   UNL     1      -9.424  16.569  68.834  1.00  0.00    -0.245 OA 
HETATM   12  H   UNL     1      -8.715  17.202  68.821  1.00  0.00     0.000 HD 
BRANCH  10  13
HETATM   13  C   UNL     1     -10.588  18.038  67.291  1.00  0.00    -0.346 C  
HETATM   14  H   UNL     1     -10.759  19.213  65.695  1.00  0.00     0.000 HD 
HETATM   15  O   UNL     1     -10.500  18.319  65.884  1.00  0.00    -0.532 OA 
BRANCH  13  16
HETATM   16  C   UNL     1      -9.749  19.085  68.049  1.00  0.00    -0.340 C  
HETATM   17  O   UNL     1     -10.278  19.354  69.353  1.00  0.00    -0.591 OA 
HETATM   18  H   UNL     1      -9.760  19.999  69.820  1.00  0.00     0.000 HD 
ENDBRANCH  13  16
ENDBRANCH  10  13
ENDBRANCH   1  10
BRANCH   7  19
HETATM   19  N   UNL     1      -9.173  13.151  68.540  1.00  0.00    -0.364 NA 
HETATM   20  H2  UNL     1      -9.294  12.027  66.181  1.00  0.00     0.000 HD 
HETATM   21  H   UNL     1      -8.919  13.530  69.452  1.00  0.00     0.000 HD 
HETATM   22  C   UNL     1      -8.263  12.724  67.745  1.00  0.00    -0.176 C  
HETATM   23  H1  UNL     1      -6.239  12.467  67.468  1.00  0.00     0.000 HD 
HETATM   24  N   UNL     1      -8.342  12.145  66.529  1.00  0.00    -0.388 NA 
HETATM   25  H2  UNL     1      -6.705  13.208  69.003  1.00  0.00     0.000 HD 
HETATM   26  N   UNL     1      -6.963  12.806  68.102  1.00  0.00    -0.084 NA 
HETATM   27  H1  UNL     1      -7.619  11.806  65.895  1.00  0.00     0.000 HD 
ENDBRANCH   7  19
BRANCH   5  28
HETATM   28  N   UNL     1     -11.776  13.634  66.015  1.00  0.00    -0.342 N  
HETATM   29  C   UNL     1     -11.319  13.246  64.771  1.00  0.00    -0.327 C  
HETATM   30  H   UNL     1     -12.770  13.555  66.231  1.00  0.00     0.000 HD 
HETATM   31  C   UNL     1     -12.366  12.561  63.939  1.00  0.00    -0.576 C  
HETATM   32  O   UNL     1     -10.169  13.420  64.383  1.00  0.00    -0.401 OA 
ENDBRANCH   5  28
TORSDOF 5
ENDMDL
MODEL       24
REMARK 921   NORMALIZED FREE ENERGY PREDICTED BY IDOCK:   -5.96 KCAL/MOL
REMARK 922        TOTAL FREE ENERGY PREDICTED BY IDOCK:   -9.30 KCAL/MOL
REMARK 923 INTER-LIGAND FREE ENERGY PREDICTED BY IDOCK:   -8.02 KCAL/MOL
REMARK 924 INTRA-LIGAND FREE ENERGY PREDICTED BY IDOCK:   -1.29 KCAL/MOL
REMARK 927      BINDING AFFINITY PREDICTED BY RF-SCORE:    0.00 PKD
ROOT
HETATM    1  C   UNL     1     -12.321  13.866  69.408  1.00  0.00    -0.197 C  
HETATM    2  O   UNL     1     -12.398  12.599  70.068  1.00  0.00    -0.208 OA 
HETATM    3  O   UNL     1     -12.857  10.313  71.180  1.00  0.00    -0.351 OA 
HETATM    4  C   UNL     1     -11.814  10.248  70.321  1.00  0.00    -0.288 C  
HETATM    5  C   UNL     1     -11.366  13.998  68.177  1.00  0.00    -0.292 C  
HETATM    6  C   UNL     1     -11.547  11.587  69.715  1.00  0.00    -0.326 C  
HETATM    7  C   UNL     1     -10.181  12.992  68.196  1.00  0.00    -0.239 C  
HETATM    8  C   UNL     1     -10.517  11.723  68.879  1.00  0.00    -0.182 C  
HETATM    9  O   UNL     1     -11.209   9.220  70.057  1.00  0.00    -0.235 OA 
ENDROOT
BRANCH   1  10
HETATM   10  C   UNL     1     -12.063  15.010  70.429  1.00  0.00    -0.333 C  
HETATM   11  O   UNL     1     -10.701  15.012  70.891  1.00  0.00    -0.542 OA 
HETATM   12  H   UNL     1     -10.543  15.711  71.515  1.00  0.00     0.000 HD 
BRANCH  10  13
HETATM   13  C   UNL     1     -13.000  15.014  71.669  1.00  0.00    -0.353 C  
HETATM   14  H   UNL     1     -14.886  15.490  72.084  1.00  0.00     0.000 HD 
HETATM   15  O   UNL     1     -14.314  15.488  71.326  1.00  0.00    -0.536 OA 
BRANCH  13  16
HETATM   16  C   UNL     1     -12.462  15.869  72.832  1.00  0.00    -0.479 C  
HETATM   17  O   UNL     1     -13.497  16.234  73.753  1.00  0.00    -0.924 OA 
HETATM   18  H   UNL     1     -13.165  16.761  74.470  1.00  0.00     0.000 HD 
ENDBRANCH  13  16
ENDBRANCH  10  13
ENDBRANCH   1  10
BRANCH   7  19
HETATM   19  N   UNL     1      -9.032  13.608  68.867  1.00  0.00    -0.376 NA 
HETATM   20  H2  UNL     1      -8.820  14.067  66.301  1.00  0.00     0.000 HD 
HETATM   21  H   UNL     1      -8.917  13.512  69.876  1.00  0.00     0.000 HD 
HETATM   22  C   UNL     1      -8.173  14.267  68.181  1.00  0.00    -0.146 C  
HETATM   23  H1  UNL     1      -6.447  15.388  68.253  1.00  0.00     0.000 HD 
HETATM   24  N   UNL     1      -8.077  14.495  66.855  1.00  0.00    -0.377 NA 
HETATM   25  H2  UNL     1      -7.026  14.789  69.811  1.00  0.00     0.000 HD 
HETATM   26  N   UNL     1      -7.130  14.863  68.799  1.00  0.00    -0.109 NA 
HETATM   27  H1  UNL     1      -7.394  15.019  66.308  1.00  0.00     0.000 HD 
ENDBRANCH   7  19
BRANCH   5  28
HETATM   28  N   UNL     1     -12.093  13.910  66.886  1.00  0.00    -0.436 N  
HETATM   29  C   UNL     1     -11.643  14.577  65.765  1.00  0.00    -0.347 C  
HETATM   30  H   UNL     1     -12.942  13.346  66.827  1.00  0.00     0.000 HD 
HETATM   31  C   UNL     1     -12.396  14.217  64.515  1.00  0.00    -0.419 C  
HETATM   32  O   UNL     1     -10.709  15.371  65.772  1.00  0.00    -0.321 OA 
ENDBRANCH   5  28
TORSDOF 5
ENDMDL
MODEL       25
REMARK 921   NORMALIZED FREE ENERGY PREDICTED BY IDOCK:   -5.94 KCAL/MOL
REMARK 922        TOTAL FREE ENERGY PREDICTED BY IDOCK:   -9.27 KCAL/MOL
REMARK 923 INTER-LIGAND FREE ENERGY PREDICTED BY IDOCK:   -7.59 KCAL/MOL
REMARK 924 INTRA-LIGAND FREE ENERGY PREDICTED BY IDOCK:   -1.68 KCAL/MOL
REMARK 927      BINDING AFFINITY PREDICTED BY RF-SCORE:    0.00 PKD
ROOT
HETATM    1  C   UNL     1     -11.893  12.987  67.135  1.00  0.00    -0.373 C  
HETATM    2  O   UNL     1     -12.083  13.550  65.834  1.00  0.00    -0.384 OA 
HETATM    3  O   UNL     1     -12.751  14.521  63.535  1.00  0.00    -0.707 OA 
HETATM    4  C   UNL     1     -11.935  15.362  64.213  1.00  0.00    -0.188 C  
HETATM    5  C   UNL     1     -11.198  13.869  68.224  1.00  0.00    -0.272 C  
HETATM    6  C   UNL     1     -11.538  14.765  65.524  1.00  0.00    -0.301 C  
HETATM    7  C   UNL     1     -10.256  14.957  67.638  1.00  0.00    -0.236 C  
HETATM    8  C   UNL     1     -10.691  15.436  66.307  1.00  0.00    -0.312 C  
HETATM    9  O   UNL     1     -11.611  16.469  63.814  1.00  0.00    -1.109 OA 
ENDROOT
BRANCH   1  10
HETATM   10  C   UNL     1     -11.215  11.590  67.044  1.00  0.00    -0.300 C  
HETATM   11  O   UNL     1     -10.717  11.157  68.322  1.00  0.00    -0.174 OA 
HETATM   12  H   UNL     1     -10.303  10.304  68.266  1.00  0.00     0.000 HD 
BRANCH  10  13
HETATM   13  C   UNL     1     -10.061  11.482  66.008  1.00  0.00    -0.232 C  
HETATM   14  H   UNL     1      -9.808  10.795  64.159  1.00  0.00     0.000 HD 
HETATM   15  O   UNL     1     -10.513  10.861  64.792  1.00  0.00    -0.328 OA 
BRANCH  13  16
HETATM   16  C   UNL     1      -8.847  10.694  66.534  1.00  0.00    -0.151 C  
HETATM   17  O   UNL     1      -7.866  11.553  67.127  1.00  0.00    -0.144 OA 
HETATM   18  H   UNL     1      -7.117  11.067  67.452  1.00  0.00     0.000 HD 
ENDBRANCH  13  16
ENDBRANCH  10  13
ENDBRANCH   1  10
BRANCH   7  19
HETATM   19  N   UNL     1      -8.897  14.416  67.532  1.00  0.00    -0.183 NA 
HETATM   20  H2  UNL     1      -9.145  15.548  69.878  1.00  0.00     0.000 HD 
HETATM   21  H   UNL     1      -8.593  13.959  66.672  1.00  0.00     0.000 HD 
HETATM   22  C   UNL     1      -8.093  14.520  68.525  1.00  0.00    -0.148 C  
HETATM   23  H1  UNL     1      -6.211  14.078  69.234  1.00  0.00     0.000 HD 
HETATM   24  N   UNL     1      -8.236  15.108  69.730  1.00  0.00    -0.387 NA 
HETATM   25  H2  UNL     1      -6.553  13.517  67.594  1.00  0.00     0.000 HD 
HETATM   26  N   UNL     1      -6.850  13.995  68.444  1.00  0.00    -0.089 NA 
HETATM   27  H1  UNL     1      -7.597  15.191  70.521  1.00  0.00     0.000 HD 
ENDBRANCH   7  19
BRANCH   5  28
HETATM   28  N   UNL     1     -12.174  14.484  69.158  1.00  0.00    -0.535 N  
HETATM   29  C   UNL     1     -12.582  13.825  70.301  1.00  0.00    -0.222 C  
HETATM   30  H   UNL     1     -12.550  15.410  68.952  1.00  0.00     0.000 HD 
HETATM   31  C   UNL     1     -13.418  14.678  71.213  1.00  0.00    -0.451 C  
HETATM   32  O   UNL     1     -12.280  12.667  70.566  1.00  0.00    -0.365 OA 
ENDBRANCH   5  28
TORSDOF 5
ENDMDL
MODEL       26
REMARK 921   NORMALIZED FREE ENERGY PREDICTED BY IDOCK:   -5.92 KCAL/MOL
REMARK 922        TOTAL FREE ENERGY PREDICTED BY IDOCK:   -9.25 KCAL/MOL
REMARK 923 INTER-LIGAND FREE ENERGY PREDICTED BY IDOCK:   -8.29 KCAL/MOL
REMARK 924 INTRA-LIGAND FREE ENERGY PREDICTED BY IDOCK:   -0.96 KCAL/MOL
REMARK 927      BINDING AFFINITY PREDICTED BY RF-SCORE:    0.00 PKD
ROOT
HETATM    1  C   UNL     1     -11.799  12.310  68.161  1.00  0.00    -0.311 C  
HETATM    2  O   UNL     1     -12.153  12.289  66.775  1.00  0.00    -0.593 OA 
HETATM    3  O   UNL     1     -13.083  12.127  64.370  1.00  0.00    -0.740 OA 
HETATM    4  C   UNL     1     -12.611  13.367  64.639  1.00  0.00    -0.265 C  
HETATM    5  C   UNL     1     -11.461  13.690  68.814  1.00  0.00    -0.309 C  
HETATM    6  C   UNL     1     -12.051  13.428  66.023  1.00  0.00    -0.438 C  
HETATM    7  C   UNL     1     -10.938  14.747  67.803  1.00  0.00    -0.291 C  
HETATM    8  C   UNL     1     -11.494  14.564  66.443  1.00  0.00    -0.362 C  
HETATM    9  O   UNL     1     -12.679  14.307  63.862  1.00  0.00    -0.749 OA 
ENDROOT
BRANCH   1  10
HETATM   10  C   UNL     1     -10.685  11.269  68.465  1.00  0.00    -0.201 C  
HETATM   11  O   UNL     1     -10.494  10.359  67.366  1.00  0.00    -0.216 OA 
HETATM   12  H   UNL     1      -9.813   9.724  67.552  1.00  0.00     0.000 HD 
BRANCH  10  13
HETATM   13  C   UNL     1     -10.894  10.434  69.760  1.00  0.00    -0.292 C  
HETATM   14  H   UNL     1     -10.983   8.515  70.271  1.00  0.00     0.000 HD 
HETATM   15  O   UNL     1     -10.855   9.024  69.480  1.00  0.00    -0.229 OA 
BRANCH  13  16
HETATM   16  C   UNL     1     -12.219  10.752  70.478  1.00  0.00    -0.366 C  
HETATM   17  O   UNL     1     -13.061   9.599  70.586  1.00  0.00    -0.564 OA 
HETATM   18  H   UNL     1     -13.878   9.795  71.029  1.00  0.00     0.000 HD 
ENDBRANCH  13  16
ENDBRANCH  10  13
ENDBRANCH   1  10
BRANCH   7  19
HETATM   19  N   UNL     1      -9.475  14.675  67.737  1.00  0.00    -0.202 NA 
HETATM   20  H2  UNL     1     -10.124  16.474  69.522  1.00  0.00     0.000 HD 
HETATM   21  H   UNL     1      -9.023  14.048  67.071  1.00  0.00     0.000 HD 
HETATM   22  C   UNL     1      -8.767  15.403  68.518  1.00  0.00    -0.178 C  
HETATM   23  H1  UNL     1      -6.856  15.896  69.106  1.00  0.00     0.000 HD 
HETATM   24  N   UNL     1      -9.117  16.328  69.435  1.00  0.00    -0.169 NA 
HETATM   25  H2  UNL     1      -6.965  14.672  67.836  1.00  0.00     0.000 HD 
HETATM   26  N   UNL     1      -7.419  15.316  68.484  1.00  0.00    -0.116 NA 
HETATM   27  H1  UNL     1      -8.554  16.908  70.058  1.00  0.00     0.000 HD 
ENDBRANCH   7  19
BRANCH   5  28
HETATM   28  N   UNL     1     -12.599  14.240  69.591  1.00  0.00    -0.503 N  
HETATM   29  C   UNL     1     -12.402  14.849  70.814  1.00  0.00    -0.329 C  
HETATM   30  H   UNL     1     -13.545  14.167  69.214  1.00  0.00     0.000 HD 
HETATM   31  C   UNL     1     -13.638  15.510  71.357  1.00  0.00    -0.561 C  
HETATM   32  O   UNL     1     -11.325  14.873  71.398  1.00  0.00    -0.304 OA 
ENDBRANCH   5  28
TORSDOF 5
ENDMDL
MODEL       27
REMARK 921   NORMALIZED FREE ENERGY PREDICTED BY IDOCK:   -5.91 KCAL/MOL
REMARK 922        TOTAL FREE ENERGY PREDICTED BY IDOCK:   -9.23 KCAL/MOL
REMARK 923 INTER-LIGAND FREE ENERGY PREDICTED BY IDOCK:   -7.25 KCAL/MOL
REMARK 924 INTRA-LIGAND FREE ENERGY PREDICTED BY IDOCK:   -1.98 KCAL/MOL
REMARK 927      BINDING AFFINITY PREDICTED BY RF-SCORE:    0.00 PKD
ROOT
HETATM    1  C   UNL     1      -9.090  12.212  67.840  1.00  0.00    -0.185 C  
HETATM    2  O   UNL     1      -9.536  11.246  68.797  1.00  0.00    -0.187 OA 
HETATM    3  O   UNL     1     -10.114   9.630  70.728  1.00  0.00    -0.278 OA 
HETATM    4  C   UNL     1     -11.216  10.259  70.259  1.00  0.00    -0.323 C  
HETATM    5  C   UNL     1     -10.124  13.263  67.318  1.00  0.00    -0.234 C  
HETATM    6  C   UNL     1     -10.862  11.164  69.123  1.00  0.00    -0.238 C  
HETATM    7  C   UNL     1     -11.598  12.776  67.390  1.00  0.00    -0.356 C  
HETATM    8  C   UNL     1     -11.836  11.830  68.502  1.00  0.00    -0.365 C  
HETATM    9  O   UNL     1     -12.333  10.127  70.735  1.00  0.00    -0.299 OA 
ENDROOT
BRANCH   1  10
HETATM   10  C   UNL     1      -8.359  11.522  66.654  1.00  0.00    -0.167 C  
HETATM   11  O   UNL     1      -8.970  11.849  65.392  1.00  0.00    -0.419 OA 
HETATM   12  H   UNL     1      -8.523  11.428  64.667  1.00  0.00     0.000 HD 
BRANCH  10  13
HETATM   13  C   UNL     1      -8.245   9.976  66.756  1.00  0.00    -0.121 C  
HETATM   14  H   UNL     1      -6.841   8.587  66.519  1.00  0.00     0.000 HD 
HETATM   15  O   UNL     1      -6.910   9.533  66.457  1.00  0.00    -0.081 OA 
BRANCH  13  16
HETATM   16  C   UNL     1      -9.224   9.233  65.826  1.00  0.00    -0.224 C  
HETATM   17  O   UNL     1     -10.587   9.584  66.092  1.00  0.00    -0.081 OA 
HETATM   18  H   UNL     1     -11.190   9.126  65.518  1.00  0.00     0.000 HD 
ENDBRANCH  13  16
ENDBRANCH  10  13
ENDBRANCH   1  10
BRANCH   7  19
HETATM   19  N   UNL     1     -11.957  12.129  66.124  1.00  0.00    -0.600 NA 
HETATM   20  H2  UNL     1     -12.774  14.612  66.030  1.00  0.00     0.000 HD 
HETATM   21  H   UNL     1     -11.749  11.141  65.977  1.00  0.00     0.000 HD 
HETATM   22  C   UNL     1     -12.533  12.809  65.203  1.00  0.00    -0.501 C  
HETATM   23  H1  UNL     1     -13.296  12.767  63.291  1.00  0.00     0.000 HD 
HETATM   24  N   UNL     1     -12.949  14.092  65.170  1.00  0.00    -0.771 NA 
HETATM   25  H2  UNL     1     -12.609  11.244  63.865  1.00  0.00     0.000 HD 
HETATM   26  N   UNL     1     -12.837  12.225  64.023  1.00  0.00    -0.726 NA 
HETATM   27  H1  UNL     1     -13.408  14.634  64.438  1.00  0.00     0.000 HD 
ENDBRANCH   7  19
BRANCH   5  28
HETATM   28  N   UNL     1      -9.983  14.576  67.994  1.00  0.00    -0.219 N  
HETATM   29  C   UNL     1     -10.174  15.758  67.306  1.00  0.00    -0.268 C  
HETATM   30  H   UNL     1      -9.741  14.606  68.985  1.00  0.00     0.000 HD 
HETATM   31  C   UNL     1     -10.178  16.970  68.195  1.00  0.00    -0.322 C  
HETATM   32  O   UNL     1     -10.346  15.822  66.094  1.00  0.00    -0.289 OA 
ENDBRANCH   5  28
TORSDOF 5
ENDMDL
MODEL       28
REMARK 921   NORMALIZED FREE ENERGY PREDICTED BY IDOCK:   -5.89 KCAL/MOL
REMARK 922        TOTAL FREE ENERGY PREDICTED BY IDOCK:   -9.21 KCAL/MOL
REMARK 923 INTER-LIGAND FREE ENERGY PREDICTED BY IDOCK:   -7.36 KCAL/MOL
REMARK 924 INTRA-LIGAND FREE ENERGY PREDICTED BY IDOCK:   -1.85 KCAL/MOL
REMARK 927      BINDING AFFINITY PREDICTED BY RF-SCORE:    0.00 PKD
ROOT
HETATM    1  C   UNL     1     -11.534  13.582  68.180  1.00  0.00    -0.303 C  
HETATM    2  O   UNL     1     -11.952  12.854  69.338  1.00  0.00    -0.302 OA 
HETATM    3  O   UNL     1     -13.011  11.649  71.363  1.00  0.00    -0.404 OA 
HETATM    4  C   UNL     1     -12.283  10.799  70.603  1.00  0.00    -0.379 C  
HETATM    5  C   UNL     1     -10.888  12.783  67.001  1.00  0.00    -0.257 C  
HETATM    6  C   UNL     1     -11.655  11.523  69.457  1.00  0.00    -0.333 C  
HETATM    7  C   UNL     1     -10.210  11.457  67.443  1.00  0.00    -0.193 C  
HETATM    8  C   UNL     1     -10.857  10.850  68.628  1.00  0.00    -0.258 C  
HETATM    9  O   UNL     1     -12.194   9.599  70.814  1.00  0.00    -0.284 OA 
ENDROOT
BRANCH   1  10
HETATM   10  C   UNL     1     -10.642  14.794  68.577  1.00  0.00    -0.248 C  
HETATM   11  O   UNL     1      -9.477  14.376  69.311  1.00  0.00    -0.401 OA 
HETATM   12  H   UNL     1      -8.933  15.116  69.553  1.00  0.00     0.000 HD 
BRANCH  10  13
HETATM   13  C   UNL     1     -11.361  15.905  69.391  1.00  0.00    -0.349 C  
HETATM   14  H   UNL     1     -11.349  17.891  69.494  1.00  0.00     0.000 HD 
HETATM   15  O   UNL     1     -10.910  17.212  68.996  1.00  0.00    -0.274 OA 
BRANCH  13  16
HETATM   16  C   UNL     1     -11.167  15.763  70.913  1.00  0.00    -0.366 C  
HETATM   17  O   UNL     1     -11.728  14.544  71.414  1.00  0.00    -0.452 OA 
HETATM   18  H   UNL     1     -11.608  14.457  72.352  1.00  0.00     0.000 HD 
ENDBRANCH  13  16
ENDBRANCH  10  13
ENDBRANCH   1  10
BRANCH   7  19
HETATM   19  N   UNL     1      -8.798  11.711  67.746  1.00  0.00    -0.154 NA 
HETATM   20  H2  UNL     1      -8.980  11.002  65.234  1.00  0.00     0.000 HD 
HETATM   21  H   UNL     1      -8.515  11.972  68.691  1.00  0.00     0.000 HD 
HETATM   22  C   UNL     1      -7.920  11.605  66.818  1.00  0.00    -0.140 C  
HETATM   23  H1  UNL     1      -5.924  11.784  66.345  1.00  0.00     0.000 HD 
HETATM   24  N   UNL     1      -8.030  11.237  65.525  1.00  0.00    -0.354 NA 
HETATM   25  H2  UNL     1      -6.340  12.153  68.022  1.00  0.00     0.000 HD 
HETATM   26  N   UNL     1      -6.622  11.869  67.084  1.00  0.00    -0.144 NA 
HETATM   27  H1  UNL     1      -7.332  11.152  64.786  1.00  0.00     0.000 HD 
ENDBRANCH   7  19
BRANCH   5  28
HETATM   28  N   UNL     1     -11.850  12.526  65.901  1.00  0.00    -0.430 N  
HETATM   29  C   UNL     1     -11.442  12.518  64.581  1.00  0.00    -0.327 C  
HETATM   30  H   UNL     1     -12.831  12.352  66.123  1.00  0.00     0.000 HD 
HETATM   31  C   UNL     1     -12.510  12.053  63.631  1.00  0.00    -0.637 C  
HETATM   32  O   UNL     1     -10.317  12.835  64.213  1.00  0.00    -0.372 OA 
ENDBRANCH   5  28
TORSDOF 5
ENDMDL
MODEL       29
REMARK 921   NORMALIZED FREE ENERGY PREDICTED BY IDOCK:   -5.87 KCAL/MOL
REMARK 922        TOTAL FREE ENERGY PREDICTED BY IDOCK:   -9.17 KCAL/MOL
REMARK 923 INTER-LIGAND FREE ENERGY PREDICTED BY IDOCK:   -8.09 KCAL/MOL
REMARK 924 INTRA-LIGAND FREE ENERGY PREDICTED BY IDOCK:   -1.08 KCAL/MOL
REMARK 927      BINDING AFFINITY PREDICTED BY RF-SCORE:    0.00 PKD
ROOT
HETATM    1  C   UNL     1     -10.529  15.544  66.394  1.00  0.00    -0.306 C  
HETATM    2  O   UNL     1      -9.491  14.638  66.782  1.00  0.00    -0.236 OA 
HETATM    3  O   UNL     1      -7.440  13.135  67.236  1.00  0.00    -0.146 OA 
HETATM    4  C   UNL     1      -7.846  13.774  68.357  1.00  0.00    -0.143 C  
HETATM    5  C   UNL     1     -11.014  16.599  67.440  1.00  0.00    -0.103 C  
HETATM    6  C   UNL     1      -9.051  14.612  68.077  1.00  0.00    -0.189 C  
HETATM    7  C   UNL     1     -10.796  16.162  68.915  1.00  0.00    -0.305 C  
HETATM    8  C   UNL     1      -9.621  15.277  69.083  1.00  0.00    -0.243 C  
HETATM    9  O   UNL     1      -7.273  13.699  69.433  1.00  0.00    -0.001 OA 
ENDROOT
BRANCH   1  10
HETATM   10  C   UNL     1     -11.736  14.776  65.785  1.00  0.00    -0.252 C  
HETATM   11  O   UNL     1     -12.204  13.739  66.666  1.00  0.00    -0.426 OA 
HETATM   12  H   UNL     1     -12.942  13.270  66.294  1.00  0.00     0.000 HD 
BRANCH  10  13
HETATM   13  C   UNL     1     -11.486  14.151  64.384  1.00  0.00    -0.332 C  
HETATM   14  H   UNL     1     -12.463  13.965  62.662  1.00  0.00     0.000 HD 
HETATM   15  O   UNL     1     -12.616  14.348  63.518  1.00  0.00    -0.784 OA 
BRANCH  13  16
HETATM   16  C   UNL     1     -11.171  12.644  64.440  1.00  0.00    -0.346 C  
HETATM   17  O   UNL     1     -10.036  12.363  65.266  1.00  0.00    -0.290 OA 
HETATM   18  H   UNL     1      -9.842  11.434  65.301  1.00  0.00     0.000 HD 
ENDBRANCH  13  16
ENDBRANCH  10  13
ENDBRANCH   1  10
BRANCH   7  19
HETATM   19  N   UNL     1     -11.993  15.466  69.398  1.00  0.00    -0.442 NA 
HETATM   20  H2  UNL     1     -11.060  16.935  71.351  1.00  0.00     0.000 HD 
HETATM   21  H   UNL     1     -12.489  14.815  68.788  1.00  0.00     0.000 HD 
HETATM   22  C   UNL     1     -12.415  15.679  70.589  1.00  0.00    -0.417 C  
HETATM   23  H1  UNL     1     -13.871  15.234  71.976  1.00  0.00     0.000 HD 
HETATM   24  N   UNL     1     -11.921  16.441  71.587  1.00  0.00    -0.657 NA 
HETATM   25  H2  UNL     1     -14.046  14.433  70.411  1.00  0.00     0.000 HD 
HETATM   26  N   UNL     1     -13.536  15.065  71.028  1.00  0.00    -0.413 NA 
HETATM   27  H1  UNL     1     -12.256  16.611  72.535  1.00  0.00     0.000 HD 
ENDBRANCH   7  19
BRANCH   5  28
HETATM   28  N   UNL     1     -10.419  17.938  67.208  1.00  0.00    -0.373 N  
HETATM   29  C   UNL     1     -10.520  18.562  65.980  1.00  0.00    -0.400 C  
HETATM   30  H   UNL     1      -9.927  18.407  67.969  1.00  0.00     0.000 HD 
HETATM   31  C   UNL     1     -10.027  19.983  65.992  1.00  0.00    -0.542 C  
HETATM   32  O   UNL     1     -10.982  18.028  64.979  1.00  0.00    -0.748 OA 
ENDBRANCH   5  28
TORSDOF 5
ENDMDL
MODEL       30
REMARK 921   NORMALIZED FREE ENERGY PREDICTED BY IDOCK:   -5.86 KCAL/MOL
REMARK 922        TOTAL FREE ENERGY PREDICTED BY IDOCK:   -9.17 KCAL/MOL
REMARK 923 INTER-LIGAND FREE ENERGY PREDICTED BY IDOCK:   -7.33 KCAL/MOL
REMARK 924 INTRA-LIGAND FREE ENERGY PREDICTED BY IDOCK:   -1.84 KCAL/MOL
REMARK 927      BINDING AFFINITY PREDICTED BY RF-SCORE:    0.00 PKD
ROOT
HETATM    1  C   UNL     1      -9.786  11.593  67.650  1.00  0.00    -0.180 C  
HETATM    2  O   UNL     1      -9.732  12.884  68.265  1.00  0.00    -0.219 OA 
HETATM    3  O   UNL     1      -9.361  15.109  69.524  1.00  0.00    -0.207 OA 
HETATM    4  C   UNL     1      -9.530  15.310  68.197  1.00  0.00    -0.203 C  
HETATM    5  C   UNL     1      -9.722  11.518  66.090  1.00  0.00    -0.223 C  
HETATM    6  C   UNL     1      -9.774  14.014  67.495  1.00  0.00    -0.232 C  
HETATM    7  C   UNL     1     -10.235  12.802  65.382  1.00  0.00    -0.283 C  
HETATM    8  C   UNL     1     -10.013  14.027  66.183  1.00  0.00    -0.325 C  
HETATM    9  O   UNL     1      -9.449  16.402  67.656  1.00  0.00    -0.222 OA 
ENDROOT
BRANCH   1  10
HETATM   10  C   UNL     1     -10.988  10.768  68.192  1.00  0.00    -0.257 C  
HETATM   11  O   UNL     1     -12.246  11.367  67.834  1.00  0.00    -0.592 OA 
HETATM   12  H   UNL     1     -12.981  10.863  68.164  1.00  0.00     0.000 HD 
BRANCH  10  13
HETATM   13  C   UNL     1     -10.983  10.522  69.727  1.00  0.00    -0.294 C  
HETATM   14  H   UNL     1     -11.194   8.983  70.968  1.00  0.00     0.000 HD 
HETATM   15  O   UNL     1     -11.196   9.133  70.030  1.00  0.00    -0.231 OA 
BRANCH  13  16
HETATM   16  C   UNL     1     -12.042  11.352  70.477  1.00  0.00    -0.394 C  
HETATM   17  O   UNL     1     -11.764  12.756  70.420  1.00  0.00    -0.532 OA 
HETATM   18  H   UNL     1     -12.417  13.267  70.882  1.00  0.00     0.000 HD 
ENDBRANCH  13  16
ENDBRANCH  10  13
ENDBRANCH   1  10
BRANCH   7  19
HETATM   19  N   UNL     1     -11.668  12.664  65.104  1.00  0.00    -0.348 NA 
HETATM   20  H2  UNL     1     -10.346  11.529  63.153  1.00  0.00     0.000 HD 
HETATM   21  H   UNL     1     -12.355  13.073  65.738  1.00  0.00     0.000 HD 
HETATM   22  C   UNL     1     -12.055  12.028  64.061  1.00  0.00    -0.406 C  
HETATM   23  H1  UNL     1     -13.682  11.364  62.988  1.00  0.00     0.000 HD 
HETATM   24  N   UNL     1     -11.359  11.447  63.062  1.00  0.00    -0.852 NA 
HETATM   25  H2  UNL     1     -14.063  12.257  64.463  1.00  0.00     0.000 HD 
HETATM   26  N   UNL     1     -13.375  11.870  63.818  1.00  0.00    -0.469 NA 
HETATM   27  H1  UNL     1     -11.666  10.940  62.232  1.00  0.00     0.000 HD 
ENDBRANCH   7  19
BRANCH   5  28
HETATM   28  N   UNL     1      -8.367  11.166  65.597  1.00  0.00    -0.356 N  
HETATM   29  C   UNL     1      -8.194  10.288  64.546  1.00  0.00    -0.158 C  
HETATM   30  H   UNL     1      -7.548  11.581  66.044  1.00  0.00     0.000 HD 
HETATM   31  C   UNL     1      -6.772  10.204  64.068  1.00  0.00    -0.107 C  
HETATM   32  O   UNL     1      -9.107   9.651  64.032  1.00  0.00    -0.243 OA 
ENDBRANCH   5  28
TORSDOF 5
ENDMDL
MODEL       31
REMARK 921   NORMALIZED FREE ENERGY PREDICTED BY IDOCK:   -5.85 KCAL/MOL
REMARK 922        TOTAL FREE ENERGY PREDICTED BY IDOCK:   -9.16 KCAL/MOL
REMARK 923 INTER-LIGAND FREE ENERGY PREDICTED BY IDOCK:   -7.95 KCAL/MOL
REMARK 924 INTRA-LIGAND FREE ENERGY PREDICTED BY IDOCK:   -1.21 KCAL/MOL
REMARK 927      BINDING AFFINITY PREDICTED BY RF-SCORE:    0.00 PKD
ROOT
HETATM    1  C   UNL     1      -9.849  16.891  68.670  1.00  0.00    -0.270 C  
HETATM    2  O   UNL     1      -8.686  16.244  68.143  1.00  0.00    -0.176 OA 
HETATM    3  O   UNL     1      -6.424  15.206  67.451  1.00  0.00    -0.275 OA 
HETATM    4  C   UNL     1      -7.404  14.275  67.501  1.00  0.00    -0.179 C  
HETATM    5  C   UNL     1     -11.066  15.998  69.077  1.00  0.00    -0.320 C  
HETATM    6  C   UNL     1      -8.709  14.903  67.873  1.00  0.00    -0.164 C  
HETATM    7  C   UNL     1     -11.136  14.649  68.308  1.00  0.00    -0.271 C  
HETATM    8  C   UNL     1      -9.801  14.141  67.920  1.00  0.00    -0.224 C  
HETATM    9  O   UNL     1      -7.226  13.082  67.307  1.00  0.00    -0.138 OA 
ENDROOT
BRANCH   1  10
HETATM   10  C   UNL     1     -10.305  18.054  67.744  1.00  0.00    -0.393 C  
HETATM   11  O   UNL     1     -10.733  17.572  66.458  1.00  0.00    -0.228 OA 
HETATM   12  H   UNL     1     -11.012  18.283  65.893  1.00  0.00     0.000 HD 
BRANCH  10  13
HETATM   13  C   UNL     1      -9.250  19.174  67.520  1.00  0.00    -0.296 C  
HETATM   14  H   UNL     1      -9.170  21.158  67.624  1.00  0.00     0.000 HD 
HETATM   15  O   UNL     1      -9.814  20.474  67.761  1.00  0.00    -0.395 OA 
BRANCH  13  16
HETATM   16  C   UNL     1      -8.644  19.161  66.104  1.00  0.00    -0.223 C  
HETATM   17  O   UNL     1      -7.990  17.921  65.811  1.00  0.00    -0.540 OA 
HETATM   18  H   UNL     1      -7.617  17.913  64.938  1.00  0.00     0.000 HD 
ENDBRANCH  13  16
ENDBRANCH  10  13
ENDBRANCH   1  10
BRANCH   7  19
HETATM   19  N   UNL     1     -11.953  14.819  67.102  1.00  0.00    -0.424 NA 
HETATM   20  H2  UNL     1     -11.486  12.265  67.418  1.00  0.00     0.000 HD 
HETATM   21  H   UNL     1     -12.217  15.754  66.790  1.00  0.00     0.000 HD 
HETATM   22  C   UNL     1     -12.334  13.789  66.442  1.00  0.00    -0.412 C  
HETATM   23  H1  UNL     1     -13.417  13.118  64.824  1.00  0.00     0.000 HD 
HETATM   24  N   UNL     1     -12.084  12.475  66.618  1.00  0.00    -0.568 NA 
HETATM   25  H2  UNL     1     -13.399  14.870  65.049  1.00  0.00     0.000 HD 
HETATM   26  N   UNL     1     -13.114  13.938  65.349  1.00  0.00    -0.740 NA 
HETATM   27  H1  UNL     1     -12.387  11.654  66.093  1.00  0.00     0.000 HD 
ENDBRANCH   7  19
BRANCH   5  28
HETATM   28  N   UNL     1     -11.126  15.759  70.540  1.00  0.00    -0.343 N  
HETATM   29  C   UNL     1     -12.327  15.515  71.176  1.00  0.00    -0.411 C  
HETATM   30  H   UNL     1     -10.264  15.775  71.086  1.00  0.00     0.000 HD 
HETATM   31  C   UNL     1     -12.167  15.109  72.615  1.00  0.00    -0.482 C  
HETATM   32  O   UNL     1     -13.419  15.597  70.626  1.00  0.00    -0.476 OA 
ENDBRANCH   5  28
TORSDOF 5
ENDMDL
MODEL       32
REMARK 921   NORMALIZED FREE ENERGY PREDICTED BY IDOCK:   -5.82 KCAL/MOL
REMARK 922        TOTAL FREE ENERGY PREDICTED BY IDOCK:   -9.11 KCAL/MOL
REMARK 923 INTER-LIGAND FREE ENERGY PREDICTED BY IDOCK:   -7.94 KCAL/MOL
REMARK 924 INTRA-LIGAND FREE ENERGY PREDICTED BY IDOCK:   -1.17 KCAL/MOL
REMARK 927      BINDING AFFINITY PREDICTED BY RF-SCORE:    0.00 PKD
ROOT
HETATM    1  C   UNL     1     -11.217  14.818  66.887  1.00  0.00    -0.347 C  
HETATM    2  O   UNL     1     -10.896  16.132  66.420  1.00  0.00    -0.255 OA 
HETATM    3  O   UNL     1     -10.641  18.566  65.594  1.00  0.00    -0.616 OA 
HETATM    4  C   UNL     1      -9.816  18.304  66.634  1.00  0.00    -0.352 C  
HETATM    5  C   UNL     1     -10.595  14.346  68.242  1.00  0.00    -0.243 C  
HETATM    6  C   UNL     1      -9.958  16.883  67.073  1.00  0.00    -0.279 C  
HETATM    7  C   UNL     1      -9.259  15.056  68.596  1.00  0.00    -0.198 C  
HETATM    8  C   UNL     1      -9.181  16.433  68.059  1.00  0.00    -0.204 C  
HETATM    9  O   UNL     1      -9.090  19.136  67.157  1.00  0.00    -0.279 OA 
ENDROOT
BRANCH   1  10
HETATM   10  C   UNL     1     -10.978  13.758  65.774  1.00  0.00    -0.280 C  
HETATM   11  O   UNL     1      -9.655  13.862  65.218  1.00  0.00    -0.556 OA 
HETATM   12  H   UNL     1      -9.509  13.215  64.538  1.00  0.00     0.000 HD 
BRANCH  10  13
HETATM   13  C   UNL     1     -12.003  13.783  64.605  1.00  0.00    -0.416 C  
HETATM   14  H   UNL     1     -13.951  14.103  64.367  1.00  0.00     0.000 HD 
HETATM   15  O   UNL     1     -13.325  14.088  65.081  1.00  0.00    -0.703 OA 
BRANCH  13  16
HETATM   16  C   UNL     1     -12.061  12.458  63.822  1.00  0.00    -0.529 C  
HETATM   17  O   UNL     1     -10.906  12.272  62.995  1.00  0.00    -0.628 OA 
HETATM   18  H   UNL     1     -10.942  11.455  62.512  1.00  0.00     0.000 HD 
ENDBRANCH  13  16
ENDBRANCH  10  13
ENDBRANCH   1  10
BRANCH   7  19
HETATM   19  N   UNL     1      -8.138  14.271  68.069  1.00  0.00    -0.134 NA 
HETATM   20  H2  UNL     1      -7.598  14.901  70.550  1.00  0.00     0.000 HD 
HETATM   21  H   UNL     1      -8.146  13.954  67.099  1.00  0.00     0.000 HD 
HETATM   22  C   UNL     1      -7.149  13.984  68.832  1.00  0.00    -0.111 C  
HETATM   23  H1  UNL     1      -5.342  13.006  68.967  1.00  0.00     0.000 HD 
HETATM   24  N   UNL     1      -6.884  14.318  70.112  1.00  0.00    -0.393 NA 
HETATM   25  H2  UNL     1      -6.146  12.896  67.398  1.00  0.00     0.000 HD 
HETATM   26  N   UNL     1      -6.129  13.234  68.360  1.00  0.00    -0.078 NA 
HETATM   27  H1  UNL     1      -6.097  14.090  70.719  1.00  0.00     0.000 HD 
ENDBRANCH   7  19
BRANCH   5  28
HETATM   28  N   UNL     1     -11.552  14.460  69.371  1.00  0.00    -0.286 N  
HETATM   29  C   UNL     1     -11.997  13.341  70.047  1.00  0.00    -0.329 C  
HETATM   30  H   UNL     1     -11.887  15.382  69.653  1.00  0.00     0.000 HD 
HETATM   31  C   UNL     1     -12.804  13.667  71.272  1.00  0.00    -0.424 C  
HETATM   32  O   UNL     1     -11.746  12.192  69.702  1.00  0.00    -0.303 OA 
ENDBRANCH   5  28
TORSDOF 5
ENDMDL
MODEL       33
REMARK 921   NORMALIZED FREE ENERGY PREDICTED BY IDOCK:   -5.80 KCAL/MOL
REMARK 922        TOTAL FREE ENERGY PREDICTED BY IDOCK:   -9.08 KCAL/MOL
REMARK 923 INTER-LIGAND FREE ENERGY PREDICTED BY IDOCK:   -7.29 KCAL/MOL
REMARK 924 INTRA-LIGAND FREE ENERGY PREDICTED BY IDOCK:   -1.79 KCAL/MOL
REMARK 927      BINDING AFFINITY PREDICTED BY RF-SCORE:    0.00 PKD
ROOT
HETATM    1  C   UNL     1     -11.308  15.054  67.173  1.00  0.00    -0.320 C  
HETATM    2  O   UNL     1     -11.851  15.019  68.497  1.00  0.00    -0.331 OA 
HETATM    3  O   UNL     1     -13.104  15.084  70.754  1.00  0.00    -0.379 OA 
HETATM    4  C   UNL     1     -12.588  13.858  70.507  1.00  0.00    -0.312 C  
HETATM    5  C   UNL     1     -10.869  13.702  66.522  1.00  0.00    -0.283 C  
HETATM    6  C   UNL     1     -11.842  13.853  69.212  1.00  0.00    -0.348 C  
HETATM    7  C   UNL     1     -10.481  12.609  67.555  1.00  0.00    -0.221 C  
HETATM    8  C   UNL     1     -11.220  12.737  68.831  1.00  0.00    -0.332 C  
HETATM    9  O   UNL     1     -12.753  12.888  71.230  1.00  0.00    -0.367 OA 
ENDROOT
BRANCH   1  10
HETATM   10  C   UNL     1     -10.173  16.111  67.065  1.00  0.00    -0.285 C  
HETATM   11  O   UNL     1      -9.029  15.592  66.363  1.00  0.00    -0.275 OA 
HETATM   12  H   UNL     1      -8.336  16.238  66.296  1.00  0.00     0.000 HD 
BRANCH  10  13
HETATM   13  C   UNL     1      -9.688  16.702  68.419  1.00  0.00    -0.243 C  
HETATM   14  H   UNL     1      -9.261  18.493  69.171  1.00  0.00     0.000 HD 
HETATM   15  O   UNL     1      -9.557  18.132  68.344  1.00  0.00    -0.307 OA 
BRANCH  13  16
HETATM   16  C   UNL     1      -8.344  16.115  68.889  1.00  0.00    -0.233 C  
HETATM   17  O   UNL     1      -8.521  14.929  69.673  1.00  0.00    -0.427 OA 
HETATM   18  H   UNL     1      -7.692  14.567  69.963  1.00  0.00     0.000 HD 
ENDBRANCH  13  16
ENDBRANCH  10  13
ENDBRANCH   1  10
BRANCH   7  19
HETATM   19  N   UNL     1      -9.042  12.685  67.825  1.00  0.00    -0.184 NA 
HETATM   20  H2  UNL     1      -9.381  11.414  65.564  1.00  0.00     0.000 HD 
HETATM   21  H   UNL     1      -8.704  13.121  68.684  1.00  0.00     0.000 HD 
HETATM   22  C   UNL     1      -8.210  12.203  66.979  1.00  0.00    -0.164 C  
HETATM   23  H1  UNL     1      -6.220  11.915  66.534  1.00  0.00     0.000 HD 
HETATM   24  N   UNL     1      -8.401  11.548  65.815  1.00  0.00    -0.376 NA 
HETATM   25  H2  UNL     1      -6.541  12.756  68.054  1.00  0.00     0.000 HD 
HETATM   26  N   UNL     1      -6.881  12.299  67.208  1.00  0.00    -0.150 NA 
HETATM   27  H1  UNL     1      -7.739  11.164  65.140  1.00  0.00     0.000 HD 
ENDBRANCH   7  19
BRANCH   5  28
HETATM   28  N   UNL     1     -11.884  13.177  65.575  1.00  0.00    -0.358 N  
HETATM   29  C   UNL     1     -11.525  12.724  64.321  1.00  0.00    -0.373 C  
HETATM   30  H   UNL     1     -12.865  13.150  65.855  1.00  0.00     0.000 HD 
HETATM   31  C   UNL     1     -12.652  12.057  63.584  1.00  0.00    -0.605 C  
HETATM   32  O   UNL     1     -10.396  12.831  63.854  1.00  0.00    -0.420 OA 
ENDBRANCH   5  28
TORSDOF 5
ENDMDL
MODEL       34
REMARK 921   NORMALIZED FREE ENERGY PREDICTED BY IDOCK:   -5.77 KCAL/MOL
REMARK 922        TOTAL FREE ENERGY PREDICTED BY IDOCK:   -9.05 KCAL/MOL
REMARK 923 INTER-LIGAND FREE ENERGY PREDICTED BY IDOCK:   -8.11 KCAL/MOL
REMARK 924 INTRA-LIGAND FREE ENERGY PREDICTED BY IDOCK:   -0.93 KCAL/MOL
REMARK 927      BINDING AFFINITY PREDICTED BY RF-SCORE:    0.00 PKD
ROOT
HETATM    1  C   UNL     1     -11.476  13.897  70.173  1.00  0.00    -0.099 C  
HETATM    2  O   UNL     1     -10.357  14.699  69.785  1.00  0.00    -0.088 OA 
HETATM    3  O   UNL     1      -8.222  16.099  69.390  1.00  0.00    -0.226 OA 
HETATM    4  C   UNL     1      -8.382  15.155  68.435  1.00  0.00    -0.154 C  
HETATM    5  C   UNL     1     -11.740  12.571  69.387  1.00  0.00    -0.322 C  
HETATM    6  C   UNL     1      -9.638  14.379  68.666  1.00  0.00    -0.208 C  
HETATM    7  C   UNL     1     -11.187  12.587  67.935  1.00  0.00    -0.264 C  
HETATM    8  C   UNL     1      -9.984  13.437  67.788  1.00  0.00    -0.233 C  
HETATM    9  O   UNL     1      -7.580  14.949  67.536  1.00  0.00    -0.163 OA 
ENDROOT
BRANCH   1  10
HETATM   10  C   UNL     1     -12.772  14.754  70.258  1.00  0.00    -0.276 C  
HETATM   11  O   UNL     1     -12.774  15.809  69.280  1.00  0.00    -0.455 OA 
HETATM   12  H   UNL     1     -13.565  16.332  69.331  1.00  0.00     0.000 HD 
BRANCH  10  13
HETATM   13  C   UNL     1     -13.062  15.378  71.651  1.00  0.00    -0.459 C  
HETATM   14  H   UNL     1     -12.256  16.751  72.843  1.00  0.00     0.000 HD 
HETATM   15  O   UNL     1     -12.079  16.370  71.991  1.00  0.00    -0.454 OA 
BRANCH  13  16
HETATM   16  C   UNL     1     -13.114  14.335  72.784  1.00  0.00    -0.497 C  
HETATM   17  O   UNL     1     -14.162  13.380  72.587  1.00  0.00    -0.747 OA 
HETATM   18  H   UNL     1     -14.194  12.737  73.285  1.00  0.00     0.000 HD 
ENDBRANCH  13  16
ENDBRANCH  10  13
ENDBRANCH   1  10
BRANCH   7  19
HETATM   19  N   UNL     1     -12.229  13.069  67.023  1.00  0.00    -0.359 NA 
HETATM   20  H2  UNL     1     -10.376  11.898  65.597  1.00  0.00     0.000 HD 
HETATM   21  H   UNL     1     -13.030  13.585  67.388  1.00  0.00     0.000 HD 
HETATM   22  C   UNL     1     -12.130  12.840  65.766  1.00  0.00    -0.448 C  
HETATM   23  H1  UNL     1     -13.024  13.072  63.926  1.00  0.00     0.000 HD 
HETATM   24  N   UNL     1     -11.165  12.233  65.044  1.00  0.00    -0.313 NA 
HETATM   25  H2  UNL     1     -13.917  13.749  65.291  1.00  0.00     0.000 HD 
HETATM   26  N   UNL     1     -13.103  13.255  64.926  1.00  0.00    -0.711 NA 
HETATM   27  H1  UNL     1     -11.085  12.051  64.044  1.00  0.00     0.000 HD 
ENDBRANCH   7  19
BRANCH   5  28
HETATM   28  N   UNL     1     -11.244  11.376  70.113  1.00  0.00    -0.483 N  
HETATM   29  C   UNL     1     -12.055  10.685  70.991  1.00  0.00    -0.368 C  
HETATM   30  H   UNL     1     -10.286  11.060  69.961  1.00  0.00     0.000 HD 
HETATM   31  C   UNL     1     -11.445   9.402  71.481  1.00  0.00    -0.467 C  
HETATM   32  O   UNL     1     -13.172  11.061  71.328  1.00  0.00    -0.321 OA 
ENDBRANCH   5  28
TORSDOF 5
ENDMDL
MODEL       35
REMARK 921   NORMALIZED FREE ENERGY PREDICTED BY IDOCK:   -5.73 KCAL/MOL
REMARK 922        TOTAL FREE ENERGY PREDICTED BY IDOCK:   -8.99 KCAL/MOL
REMARK 923 INTER-LIGAND FREE ENERGY PREDICTED BY IDOCK:   -7.88 KCAL/MOL
REMARK 924 INTRA-LIGAND FREE ENERGY PREDICTED BY IDOCK:   -1.11 KCAL/MOL
REMARK 927      BINDING AFFINITY PREDICTED BY RF-SCORE:    0.00 PKD
ROOT
HETATM    1  C   UNL     1     -10.462  14.036  66.368  1.00  0.00    -0.284 C  
HETATM    2  O   UNL     1      -9.498  12.980  66.431  1.00  0.00    -0.256 OA 
HETATM    3  O   UNL     1      -7.681  11.156  66.232  1.00  0.00    -0.154 OA 
HETATM    4  C   UNL     1      -7.496  11.924  67.330  1.00  0.00    -0.151 C  
HETATM    5  C   UNL     1     -10.320  15.223  67.376  1.00  0.00    -0.256 C  
HETATM    6  C   UNL     1      -8.576  12.951  67.441  1.00  0.00    -0.195 C  
HETATM    7  C   UNL     1      -9.583  14.841  68.689  1.00  0.00    -0.218 C  
HETATM    8  C   UNL     1      -8.583  13.767  68.495  1.00  0.00    -0.122 C  
HETATM    9  O   UNL     1      -6.550  11.809  68.094  1.00  0.00    -0.053 OA 
ENDROOT
BRANCH   1  10
HETATM   10  C   UNL     1     -11.910  13.468  66.387  1.00  0.00    -0.394 C  
HETATM   11  O   UNL     1     -11.918  12.044  66.593  1.00  0.00    -0.614 OA 
HETATM   12  H   UNL     1     -12.803  11.697  66.605  1.00  0.00     0.000 HD 
BRANCH  10  13
HETATM   13  C   UNL     1     -12.761  13.784  65.126  1.00  0.00    -0.397 C  
HETATM   14  H   UNL     1     -13.902  12.789  63.836  1.00  0.00     0.000 HD 
HETATM   15  O   UNL     1     -13.382  12.596  64.607  1.00  0.00    -0.767 OA 
BRANCH  13  16
HETATM   16  C   UNL     1     -11.948  14.442  63.995  1.00  0.00    -0.258 C  
HETATM   17  O   UNL     1     -12.178  15.854  63.920  1.00  0.00    -1.100 OA 
HETATM   18  H   UNL     1     -11.676  16.260  63.223  1.00  0.00     0.000 HD 
ENDBRANCH  13  16
ENDBRANCH  10  13
ENDBRANCH   1  10
BRANCH   7  19
HETATM   19  N   UNL     1     -10.564  14.407  69.689  1.00  0.00    -0.446 NA 
HETATM   20  H2  UNL     1     -10.420  17.018  69.768  1.00  0.00     0.000 HD 
HETATM   21  H   UNL     1     -10.742  13.413  69.834  1.00  0.00     0.000 HD 
HETATM   22  C   UNL     1     -11.198  15.281  70.380  1.00  0.00    -0.299 C  
HETATM   23  H1  UNL     1     -12.630  15.583  71.828  1.00  0.00     0.000 HD 
HETATM   24  N   UNL     1     -11.111  16.627  70.409  1.00  0.00    -0.414 NA 
HETATM   25  H2  UNL     1     -12.322  13.894  71.408  1.00  0.00     0.000 HD 
HETATM   26  N   UNL     1     -12.126  14.886  71.279  1.00  0.00    -0.309 NA 
HETATM   27  H1  UNL     1     -11.615  17.323  70.959  1.00  0.00     0.000 HD 
ENDBRANCH   7  19
BRANCH   5  28
HETATM   28  N   UNL     1      -9.687  16.414  66.759  1.00  0.00    -0.241 N  
HETATM   29  C   UNL     1     -10.070  17.692  67.114  1.00  0.00    -0.328 C  
HETATM   30  H   UNL     1      -8.955  16.286  66.059  1.00  0.00     0.000 HD 
HETATM   31  C   UNL     1      -9.190  18.761  66.529  1.00  0.00    -0.336 C  
HETATM   32  O   UNL     1     -11.018  17.941  67.849  1.00  0.00    -0.294 OA 
ENDBRANCH   5  28
TORSDOF 5
ENDMDL
MODEL       36
REMARK 921   NORMALIZED FREE ENERGY PREDICTED BY IDOCK:   -5.71 KCAL/MOL
REMARK 922        TOTAL FREE ENERGY PREDICTED BY IDOCK:   -8.97 KCAL/MOL
REMARK 923 INTER-LIGAND FREE ENERGY PREDICTED BY IDOCK:   -7.54 KCAL/MOL
REMARK 924 INTRA-LIGAND FREE ENERGY PREDICTED BY IDOCK:   -1.43 KCAL/MOL
REMARK 927      BINDING AFFINITY PREDICTED BY RF-SCORE:    0.00 PKD
ROOT
HETATM    1  C   UNL     1      -9.793  13.407  68.314  1.00  0.00    -0.235 C  
HETATM    2  O   UNL     1     -10.802  13.561  69.317  1.00  0.00    -0.182 OA 
HETATM    3  O   UNL     1     -12.376  13.842  71.345  1.00  0.00    -0.333 OA 
HETATM    4  C   UNL     1     -12.623  14.769  70.392  1.00  0.00    -0.346 C  
HETATM    5  C   UNL     1      -9.676  14.511  67.212  1.00  0.00    -0.232 C  
HETATM    6  C   UNL     1     -11.723  14.568  69.216  1.00  0.00    -0.310 C  
HETATM    7  C   UNL     1     -11.004  15.275  66.952  1.00  0.00    -0.315 C  
HETATM    8  C   UNL     1     -11.861  15.363  68.155  1.00  0.00    -0.178 C  
HETATM    9  O   UNL     1     -13.443  15.667  70.508  1.00  0.00    -0.398 OA 
ENDROOT
BRANCH   1  10
HETATM   10  C   UNL     1      -9.859  11.992  67.671  1.00  0.00    -0.189 C  
HETATM   11  O   UNL     1     -10.945  11.887  66.732  1.00  0.00    -0.263 OA 
HETATM   12  H   UNL     1     -10.985  11.023  66.340  1.00  0.00     0.000 HD 
BRANCH  10  13
HETATM   13  C   UNL     1      -9.965  10.813  68.677  1.00  0.00    -0.182 C  
HETATM   14  H   UNL     1      -8.915   9.194  69.158  1.00  0.00     0.000 HD 
HETATM   15  O   UNL     1      -8.850   9.915  68.544  1.00  0.00    -0.118 OA 
BRANCH  13  16
HETATM   16  C   UNL     1     -11.265  10.000  68.523  1.00  0.00    -0.123 C  
HETATM   17  O   UNL     1     -12.401  10.700  69.044  1.00  0.00    -0.770 OA 
HETATM   18  H   UNL     1     -13.202  10.199  68.949  1.00  0.00     0.000 HD 
ENDBRANCH  13  16
ENDBRANCH  10  13
ENDBRANCH   1  10
BRANCH   7  19
HETATM   19  N   UNL     1     -11.748  14.605  65.881  1.00  0.00    -0.335 NA 
HETATM   20  H2  UNL     1     -10.955  16.932  64.989  1.00  0.00     0.000 HD 
HETATM   21  H   UNL     1     -12.169  13.690  66.045  1.00  0.00     0.000 HD 
HETATM   22  C   UNL     1     -11.868  15.172  64.738  1.00  0.00    -0.291 C  
HETATM   23  H1  UNL     1     -12.620  14.997  62.829  1.00  0.00     0.000 HD 
HETATM   24  N   UNL     1     -11.452  16.376  64.293  1.00  0.00    -1.239 NA 
HETATM   25  H2  UNL     1     -12.926  13.620  63.893  1.00  0.00     0.000 HD 
HETATM   26  N   UNL     1     -12.525  14.544  63.739  1.00  0.00    -0.764 NA 
HETATM   27  H1  UNL     1     -11.547  16.829  63.384  1.00  0.00     0.000 HD 
ENDBRANCH   7  19
BRANCH   5  28
HETATM   28  N   UNL     1      -8.578  15.469  67.489  1.00  0.00    -0.164 N  
HETATM   29  C   UNL     1      -8.217  16.430  66.565  1.00  0.00    -0.306 C  
HETATM   30  H   UNL     1      -8.079  15.417  68.378  1.00  0.00     0.000 HD 
HETATM   31  C   UNL     1      -7.222  17.423  67.095  1.00  0.00    -0.201 C  
HETATM   32  O   UNL     1      -8.674  16.489  65.429  1.00  0.00    -0.063 OA 
ENDBRANCH   5  28
TORSDOF 5
ENDMDL
MODEL       37
REMARK 921   NORMALIZED FREE ENERGY PREDICTED BY IDOCK:   -5.71 KCAL/MOL
REMARK 922        TOTAL FREE ENERGY PREDICTED BY IDOCK:   -8.97 KCAL/MOL
REMARK 923 INTER-LIGAND FREE ENERGY PREDICTED BY IDOCK:   -7.46 KCAL/MOL
REMARK 924 INTRA-LIGAND FREE ENERGY PREDICTED BY IDOCK:   -1.51 KCAL/MOL
REMARK 927      BINDING AFFINITY PREDICTED BY RF-SCORE:    0.00 PKD
ROOT
HETATM    1  C   UNL     1     -10.995  13.446  67.904  1.00  0.00    -0.256 C  
HETATM    2  O   UNL     1     -11.873  13.985  68.896  1.00  0.00    -0.315 OA 
HETATM    3  O   UNL     1     -13.499  14.647  70.791  1.00  0.00    -0.319 OA 
HETATM    4  C   UNL     1     -12.356  15.369  70.842  1.00  0.00    -0.398 C  
HETATM    5  C   UNL     1      -9.504  13.919  67.905  1.00  0.00    -0.212 C  
HETATM    6  C   UNL     1     -11.445  14.991  69.719  1.00  0.00    -0.295 C  
HETATM    7  C   UNL     1      -9.297  15.327  68.528  1.00  0.00    -0.200 C  
HETATM    8  C   UNL     1     -10.289  15.640  69.582  1.00  0.00    -0.287 C  
HETATM    9  O   UNL     1     -12.100  16.184  71.715  1.00  0.00    -0.472 OA 
ENDROOT
BRANCH   1  10
HETATM   10  C   UNL     1     -11.613  13.579  66.483  1.00  0.00    -0.359 C  
HETATM   11  O   UNL     1     -12.297  12.377  66.087  1.00  0.00    -0.606 OA 
HETATM   12  H   UNL     1     -12.675  12.458  65.220  1.00  0.00     0.000 HD 
BRANCH  10  13
HETATM   13  C   UNL     1     -10.611  13.964  65.359  1.00  0.00    -0.335 C  
HETATM   14  H   UNL     1     -10.166  15.571  64.274  1.00  0.00     0.000 HD 
HETATM   15  O   UNL     1     -10.779  15.336  64.962  1.00  0.00    -0.400 OA 
BRANCH  13  16
HETATM   16  C   UNL     1     -10.736  13.076  64.106  1.00  0.00    -0.402 C  
HETATM   17  O   UNL     1     -11.996  13.250  63.448  1.00  0.00    -0.704 OA 
HETATM   18  H   UNL     1     -12.073  12.702  62.676  1.00  0.00     0.000 HD 
ENDBRANCH  13  16
ENDBRANCH  10  13
ENDBRANCH   1  10
BRANCH   7  19
HETATM   19  N   UNL     1      -9.381  16.342  67.473  1.00  0.00    -0.213 NA 
HETATM   20  H2  UNL     1      -6.855  15.800  67.883  1.00  0.00     0.000 HD 
HETATM   21  H   UNL     1     -10.289  16.711  67.189  1.00  0.00     0.000 HD 
HETATM   22  C   UNL     1      -8.310  16.764  66.910  1.00  0.00    -0.209 C  
HETATM   23  H1  UNL     1      -7.533  18.011  65.467  1.00  0.00     0.000 HD 
HETATM   24  N   UNL     1      -7.012  16.474  67.133  1.00  0.00    -0.175 NA 
HETATM   25  H2  UNL     1      -9.293  18.028  65.613  1.00  0.00     0.000 HD 
HETATM   26  N   UNL     1      -8.386  17.676  65.915  1.00  0.00    -0.546 NA 
HETATM   27  H1  UNL     1      -6.159  16.809  66.685  1.00  0.00     0.000 HD 
ENDBRANCH   7  19
BRANCH   5  28
HETATM   28  N   UNL     1      -8.601  12.934  68.550  1.00  0.00    -0.337 N  
HETATM   29  C   UNL     1      -7.260  12.874  68.226  1.00  0.00    -0.112 C  
HETATM   30  H   UNL     1      -8.978  12.289  69.245  1.00  0.00     0.000 HD 
HETATM   31  C   UNL     1      -6.473  11.951  69.113  1.00  0.00    -0.098 C  
HETATM   32  O   UNL     1      -6.748  13.522  67.320  1.00  0.00    -0.211 OA 
ENDBRANCH   5  28
TORSDOF 5
ENDMDL
MODEL       38
REMARK 921   NORMALIZED FREE ENERGY PREDICTED BY IDOCK:   -5.68 KCAL/MOL
REMARK 922        TOTAL FREE ENERGY PREDICTED BY IDOCK:   -8.94 KCAL/MOL
REMARK 923 INTER-LIGAND FREE ENERGY PREDICTED BY IDOCK:   -8.09 KCAL/MOL
REMARK 924 INTRA-LIGAND FREE ENERGY PREDICTED BY IDOCK:   -0.84 KCAL/MOL
REMARK 927      BINDING AFFINITY PREDICTED BY RF-SCORE:    0.00 PKD
ROOT
HETATM    1  C   UNL     1     -10.514  12.444  68.408  1.00  0.00    -0.235 C  
HETATM    2  O   UNL     1     -11.445  12.882  69.402  1.00  0.00    -0.273 OA 
HETATM    3  O   UNL     1     -12.899  13.581  71.419  1.00  0.00    -0.350 OA 
HETATM    4  C   UNL     1     -12.779  14.586  70.521  1.00  0.00    -0.345 C  
HETATM    5  C   UNL     1      -9.987  13.496  67.378  1.00  0.00    -0.234 C  
HETATM    6  C   UNL     1     -11.961  14.148  69.350  1.00  0.00    -0.337 C  
HETATM    7  C   UNL     1     -10.962  14.683  67.144  1.00  0.00    -0.316 C  
HETATM    8  C   UNL     1     -11.780  14.997  68.337  1.00  0.00    -0.341 C  
HETATM    9  O   UNL     1     -13.246  15.703  70.679  1.00  0.00    -0.487 OA 
ENDROOT
BRANCH   1  10
HETATM   10  C   UNL     1     -11.038  11.174  67.678  1.00  0.00    -0.287 C  
HETATM   11  O   UNL     1     -12.073  10.518  68.432  1.00  0.00    -0.804 OA 
HETATM   12  H   UNL     1     -12.393   9.742  67.986  1.00  0.00     0.000 HD 
BRANCH  10  13
HETATM   13  C   UNL     1      -9.952  10.121  67.321  1.00  0.00    -0.195 C  
HETATM   14  H   UNL     1      -9.209   9.275  65.681  1.00  0.00     0.000 HD 
HETATM   15  O   UNL     1      -9.873   9.919  65.899  1.00  0.00    -0.237 OA 
BRANCH  13  16
HETATM   16  C   UNL     1     -10.186   8.756  67.994  1.00  0.00    -0.213 C  
HETATM   17  O   UNL     1     -11.133   7.958  67.275  1.00  0.00    -0.496 OA 
HETATM   18  H   UNL     1     -11.277   7.116  67.690  1.00  0.00     0.000 HD 
ENDBRANCH  13  16
ENDBRANCH  10  13
ENDBRANCH   1  10
BRANCH   7  19
HETATM   19  N   UNL     1     -11.852  14.366  66.023  1.00  0.00    -0.380 NA 
HETATM   20  H2  UNL     1     -10.252  16.296  65.275  1.00  0.00     0.000 HD 
HETATM   21  H   UNL     1     -12.575  13.654  66.128  1.00  0.00     0.000 HD 
HETATM   22  C   UNL     1     -11.718  14.987  64.910  1.00  0.00    -0.336 C  
HETATM   23  H1  UNL     1     -12.407  15.171  62.978  1.00  0.00     0.000 HD 
HETATM   24  N   UNL     1     -10.886  15.983  64.539  1.00  0.00    -0.883 NA 
HETATM   25  H2  UNL     1     -13.222  13.948  63.959  1.00  0.00     0.000 HD 
HETATM   26  N   UNL     1     -12.514  14.676  63.863  1.00  0.00    -0.792 NA 
HETATM   27  H1  UNL     1     -10.778  16.477  63.654  1.00  0.00     0.000 HD 
ENDBRANCH   7  19
BRANCH   5  28
HETATM   28  N   UNL     1      -8.637  14.002  67.730  1.00  0.00    -0.170 N  
HETATM   29  C   UNL     1      -7.501  13.280  67.424  1.00  0.00    -0.124 C  
HETATM   30  H   UNL     1      -8.547  14.899  68.208  1.00  0.00     0.000 HD 
HETATM   31  C   UNL     1      -6.228  14.035  67.683  1.00  0.00    -0.108 C  
HETATM   32  O   UNL     1      -7.518  12.143  66.965  1.00  0.00    -0.146 OA 
ENDBRANCH   5  28
TORSDOF 5
ENDMDL
MODEL       39
REMARK 921   NORMALIZED FREE ENERGY PREDICTED BY IDOCK:   -5.68 KCAL/MOL
REMARK 922        TOTAL FREE ENERGY PREDICTED BY IDOCK:   -8.93 KCAL/MOL
REMARK 923 INTER-LIGAND FREE ENERGY PREDICTED BY IDOCK:   -7.79 KCAL/MOL
REMARK 924 INTRA-LIGAND FREE ENERGY PREDICTED BY IDOCK:   -1.14 KCAL/MOL
REMARK 927      BINDING AFFINITY PREDICTED BY RF-SCORE:    0.00 PKD
ROOT
HETATM    1  C   UNL     1     -10.755  14.046  68.779  1.00  0.00    -0.259 C  
HETATM    2  O   UNL     1     -11.857  14.103  69.690  1.00  0.00    -0.282 OA 
HETATM    3  O   UNL     1     -13.741  13.914  71.447  1.00  0.00    -0.280 OA 
HETATM    4  C   UNL     1     -13.090  15.096  71.541  1.00  0.00    -0.403 C  
HETATM    5  C   UNL     1      -9.678  15.176  68.856  1.00  0.00    -0.224 C  
HETATM    6  C   UNL     1     -12.027  15.195  70.495  1.00  0.00    -0.325 C  
HETATM    7  C   UNL     1     -10.217  16.515  69.432  1.00  0.00    -0.264 C  
HETATM    8  C   UNL     1     -11.315  16.319  70.406  1.00  0.00    -0.313 C  
HETATM    9  O   UNL     1     -13.322  15.939  72.394  1.00  0.00    -0.461 OA 
ENDROOT
BRANCH   1  10
HETATM   10  C   UNL     1     -11.252  13.857  67.317  1.00  0.00    -0.312 C  
HETATM   11  O   UNL     1     -12.616  14.289  67.160  1.00  0.00    -0.546 OA 
HETATM   12  H   UNL     1     -12.919  14.174  66.267  1.00  0.00     0.000 HD 
BRANCH  10  13
HETATM   13  C   UNL     1     -11.128  12.413  66.757  1.00  0.00    -0.285 C  
HETATM   14  H   UNL     1     -12.134  11.227  65.517  1.00  0.00     0.000 HD 
HETATM   15  O   UNL     1     -12.209  12.110  65.859  1.00  0.00    -0.604 OA 
BRANCH  13  16
HETATM   16  C   UNL     1     -11.095  11.337  67.858  1.00  0.00    -0.267 C  
HETATM   17  O   UNL     1     -12.368  11.179  68.494  1.00  0.00    -0.694 OA 
HETATM   18  H   UNL     1     -12.348  10.515  69.173  1.00  0.00     0.000 HD 
ENDBRANCH  13  16
ENDBRANCH  10  13
ENDBRANCH   1  10
BRANCH   7  19
HETATM   19  N   UNL     1     -10.697  17.359  68.332  1.00  0.00    -0.340 NA 
HETATM   20  H2  UNL     1      -8.369  18.269  69.105  1.00  0.00     0.000 HD 
HETATM   21  H   UNL     1     -11.609  17.182  67.911  1.00  0.00     0.000 HD 
HETATM   22  C   UNL     1      -9.964  18.318  67.902  1.00  0.00    -0.345 C  
HETATM   23  H1  UNL     1      -9.804  19.842  66.526  1.00  0.00     0.000 HD 
HETATM   24  N   UNL     1      -8.764  18.777  68.313  1.00  0.00    -0.322 NA 
HETATM   25  H2  UNL     1     -11.289  18.888  66.430  1.00  0.00     0.000 HD 
HETATM   26  N   UNL     1     -10.388  19.078  66.868  1.00  0.00    -0.380 NA 
HETATM   27  H1  UNL     1      -8.180  19.541  67.971  1.00  0.00     0.000 HD 
ENDBRANCH   7  19
BRANCH   5  28
HETATM   28  N   UNL     1      -8.465  14.750  69.597  1.00  0.00    -0.425 N  
HETATM   29  C   UNL     1      -7.249  15.372  69.397  1.00  0.00    -0.203 C  
HETATM   30  H   UNL     1      -8.532  13.983  70.267  1.00  0.00     0.000 HD 
HETATM   31  C   UNL     1      -6.189  14.934  70.369  1.00  0.00    -0.127 C  
HETATM   32  O   UNL     1      -7.048  16.214  68.530  1.00  0.00    -0.129 OA 
ENDBRANCH   5  28
TORSDOF 5
ENDMDL
MODEL       40
REMARK 921   NORMALIZED FREE ENERGY PREDICTED BY IDOCK:   -5.67 KCAL/MOL
REMARK 922        TOTAL FREE ENERGY PREDICTED BY IDOCK:   -8.92 KCAL/MOL
REMARK 923 INTER-LIGAND FREE ENERGY PREDICTED BY IDOCK:   -7.68 KCAL/MOL
REMARK 924 INTRA-LIGAND FREE ENERGY PREDICTED BY IDOCK:   -1.24 KCAL/MOL
REMARK 927      BINDING AFFINITY PREDICTED BY RF-SCORE:    0.00 PKD
ROOT
HETATM    1  C   UNL     1      -9.160  16.000  69.244  1.00  0.00    -0.235 C  
HETATM    2  O   UNL     1     -10.167  15.588  70.173  1.00  0.00    -0.308 OA 
HETATM    3  O   UNL     1     -11.843  15.050  72.064  1.00  0.00    -0.371 OA 
HETATM    4  C   UNL     1     -12.478  15.389  70.918  1.00  0.00    -0.418 C  
HETATM    5  C   UNL     1      -9.620  16.688  67.917  1.00  0.00    -0.234 C  
HETATM    6  C   UNL     1     -11.490  15.665  69.831  1.00  0.00    -0.338 C  
HETATM    7  C   UNL     1     -11.054  16.289  67.472  1.00  0.00    -0.140 C  
HETATM    8  C   UNL     1     -11.940  15.966  68.613  1.00  0.00    -0.106 C  
HETATM    9  O   UNL     1     -13.690  15.492  70.813  1.00  0.00    -0.475 OA 
ENDROOT
BRANCH   1  10
HETATM   10  C   UNL     1      -8.169  14.839  68.947  1.00  0.00    -0.165 C  
HETATM   11  O   UNL     1      -8.840  13.567  68.899  1.00  0.00    -0.376 OA 
HETATM   12  H   UNL     1      -8.235  12.858  68.718  1.00  0.00     0.000 HD 
BRANCH  10  13
HETATM   13  C   UNL     1      -6.972  14.723  69.932  1.00  0.00    -0.128 C  
HETATM   14  H   UNL     1      -5.482  15.873  70.576  1.00  0.00     0.000 HD 
HETATM   15  O   UNL     1      -6.214  15.944  69.974  1.00  0.00    -0.174 OA 
BRANCH  13  16
HETATM   16  C   UNL     1      -6.013  13.567  69.587  1.00  0.00    -0.117 C  
HETATM   17  O   UNL     1      -6.313  12.381  70.331  1.00  0.00    -0.440 OA 
HETATM   18  H   UNL     1      -5.722  11.668  70.118  1.00  0.00     0.000 HD 
ENDBRANCH  13  16
ENDBRANCH  10  13
ENDBRANCH   1  10
BRANCH   7  19
HETATM   19  N   UNL     1     -10.980  15.128  66.579  1.00  0.00    -0.322 NA 
HETATM   20  H2  UNL     1     -11.021  17.290  65.106  1.00  0.00     0.000 HD 
HETATM   21  H   UNL     1     -10.984  14.184  66.964  1.00  0.00     0.000 HD 
HETATM   22  C   UNL     1     -10.908  15.305  65.311  1.00  0.00    -0.403 C  
HETATM   23  H1  UNL     1     -10.751  14.381  63.478  1.00  0.00     0.000 HD 
HETATM   24  N   UNL     1     -10.931  16.429  64.565  1.00  0.00    -1.022 NA 
HETATM   25  H2  UNL     1     -10.788  13.296  64.871  1.00  0.00     0.000 HD 
HETATM   26  N   UNL     1     -10.807  14.240  64.486  1.00  0.00    -0.350 NA 
HETATM   27  H1  UNL     1     -10.874  16.571  63.557  1.00  0.00     0.000 HD 
ENDBRANCH   7  19
BRANCH   5  28
HETATM   28  N   UNL     1      -9.492  18.165  67.975  1.00  0.00    -0.277 N  
HETATM   29  C   UNL     1      -9.072  18.890  66.877  1.00  0.00    -0.300 C  
HETATM   30  H   UNL     1      -9.718  18.655  68.841  1.00  0.00     0.000 HD 
HETATM   31  C   UNL     1      -9.189  20.377  67.065  1.00  0.00    -0.483 C  
HETATM   32  O   UNL     1      -8.664  18.381  65.839  1.00  0.00    -0.497 OA 
ENDBRANCH   5  28
TORSDOF 5
ENDMDL
MODEL       41
REMARK 921   NORMALIZED FREE ENERGY PREDICTED BY IDOCK:   -5.66 KCAL/MOL
REMARK 922        TOTAL FREE ENERGY PREDICTED BY IDOCK:   -8.90 KCAL/MOL
REMARK 923 INTER-LIGAND FREE ENERGY PREDICTED BY IDOCK:   -7.33 KCAL/MOL
REMARK 924 INTRA-LIGAND FREE ENERGY PREDICTED BY IDOCK:   -1.57 KCAL/MOL
REMARK 927      BINDING AFFINITY PREDICTED BY RF-SCORE:    0.00 PKD
ROOT
HETATM    1  C   UNL     1     -10.881  12.260  69.642  1.00  0.00     0.272 C  
HETATM    2  O   UNL     1     -11.788  12.872  70.565  1.00  0.00    -0.253 OA 
HETATM    3  O   UNL     1     -13.178  13.959  72.451  1.00  0.00    -0.429 OA 
HETATM    4  C   UNL     1     -13.194  14.710  71.326  1.00  0.00    -0.369 C  
HETATM    5  C   UNL     1     -10.504  13.051  68.347  1.00  0.00    -0.252 C  
HETATM    6  C   UNL     1     -12.410  14.047  70.240  1.00  0.00    -0.358 C  
HETATM    7  C   UNL     1     -11.587  14.072  67.902  1.00  0.00    -0.343 C  
HETATM    8  C   UNL     1     -12.359  14.622  69.039  1.00  0.00    -0.102 C  
HETATM    9  O   UNL     1     -13.743  15.797  71.237  1.00  0.00    -0.560 OA 
ENDROOT
BRANCH   1  10
HETATM   10  C   UNL     1     -11.337  10.815  69.292  1.00  0.00    -0.286 C  
HETATM   11  O   UNL     1     -12.626  10.806  68.652  1.00  0.00    -0.669 OA 
HETATM   12  H   UNL     1     -12.904   9.923  68.438  1.00  0.00     0.000 HD 
BRANCH  10  13
HETATM   13  C   UNL     1     -11.378   9.825  70.489  1.00  0.00    -0.314 C  
HETATM   14  H   UNL     1     -10.906   7.926  70.841  1.00  0.00     0.000 HD 
HETATM   15  O   UNL     1     -10.880   8.531  70.109  1.00  0.00    -0.235 OA 
BRANCH  13  16
HETATM   16  C   UNL     1     -12.789   9.650  71.082  1.00  0.00    -0.316 C  
HETATM   17  O   UNL     1     -13.191  10.786  71.856  1.00  0.00    -0.469 OA 
HETATM   18  H   UNL     1     -14.061  10.678  72.221  1.00  0.00     0.000 HD 
ENDBRANCH  13  16
ENDBRANCH  10  13
ENDBRANCH   1  10
BRANCH   7  19
HETATM   19  N   UNL     1     -12.510  13.424  66.965  1.00  0.00    -0.192 NA 
HETATM   20  H2  UNL     1     -10.507  14.401  65.594  1.00  0.00     0.000 HD 
HETATM   21  H   UNL     1     -13.376  13.005  67.305  1.00  0.00     0.000 HD 
HETATM   22  C   UNL     1     -12.224  13.385  65.716  1.00  0.00    -0.458 C  
HETATM   23  H1  UNL     1     -12.827  12.729  63.859  1.00  0.00     0.000 HD 
HETATM   24  N   UNL     1     -11.185  13.895  65.023  1.00  0.00    -0.327 NA 
HETATM   25  H2  UNL     1     -13.909  12.321  65.195  1.00  0.00     0.000 HD 
HETATM   26  N   UNL     1     -13.055  12.760  64.853  1.00  0.00    -0.821 NA 
HETATM   27  H1  UNL     1     -10.957  13.864  64.029  1.00  0.00     0.000 HD 
ENDBRANCH   7  19
BRANCH   5  28
HETATM   28  N   UNL     1      -9.183  13.719  68.459  1.00  0.00    -0.309 N  
HETATM   29  C   UNL     1      -8.108  13.309  67.695  1.00  0.00    -0.174 C  
HETATM   30  H   UNL     1      -9.068  14.494  69.112  1.00  0.00     0.000 HD 
HETATM   31  C   UNL     1      -6.918  14.221  67.806  1.00  0.00    -0.191 C  
HETATM   32  O   UNL     1      -8.120  12.315  66.979  1.00  0.00    -0.176 OA 
ENDBRANCH   5  28
TORSDOF 5
ENDMDL
MODEL       42
REMARK 921   NORMALIZED FREE ENERGY PREDICTED BY IDOCK:   -5.63 KCAL/MOL
REMARK 922        TOTAL FREE ENERGY PREDICTED BY IDOCK:   -8.87 KCAL/MOL
REMARK 923 INTER-LIGAND FREE ENERGY PREDICTED BY IDOCK:   -7.19 KCAL/MOL
REMARK 924 INTRA-LIGAND FREE ENERGY PREDICTED BY IDOCK:   -1.68 KCAL/MOL
REMARK 927      BINDING AFFINITY PREDICTED BY RF-SCORE:    0.00 PKD
ROOT
HETATM    1  C   UNL     1      -9.057  14.677  66.582  1.00  0.00    -0.258 C  
HETATM    2  O   UNL     1      -8.699  16.057  66.462  1.00  0.00    -0.242 OA 
HETATM    3  O   UNL     1      -8.002  18.486  65.926  1.00  0.00    -0.488 OA 
HETATM    4  C   UNL     1      -9.187  18.441  66.576  1.00  0.00    -0.296 C  
HETATM    5  C   UNL     1     -10.503  14.331  67.067  1.00  0.00    -0.271 C  
HETATM    6  C   UNL     1      -9.554  17.030  66.903  1.00  0.00    -0.257 C  
HETATM    7  C   UNL     1     -11.149  15.441  67.942  1.00  0.00    -0.323 C  
HETATM    8  C   UNL     1     -10.672  16.798  67.592  1.00  0.00    -0.305 C  
HETATM    9  O   UNL     1      -9.872  19.423  66.819  1.00  0.00    -0.318 OA 
ENDROOT
BRANCH   1  10
HETATM   10  C   UNL     1      -7.997  13.897  67.410  1.00  0.00    -0.170 C  
HETATM   11  O   UNL     1      -8.566  13.338  68.608  1.00  0.00    -0.330 OA 
HETATM   12  H   UNL     1      -7.918  12.862  69.114  1.00  0.00     0.000 HD 
BRANCH  10  13
HETATM   13  C   UNL     1      -6.734  14.713  67.803  1.00  0.00    -0.176 C  
HETATM   14  H   UNL     1      -4.763  14.449  67.826  1.00  0.00     0.000 HD 
HETATM   15  O   UNL     1      -5.535  13.950  67.586  1.00  0.00    -0.301 OA 
BRANCH  13  16
HETATM   16  C   UNL     1      -6.750  15.186  69.269  1.00  0.00    -0.146 C  
HETATM   17  O   UNL     1      -7.919  15.956  69.572  1.00  0.00    -0.224 OA 
HETATM   18  H   UNL     1      -7.929  16.248  70.476  1.00  0.00     0.000 HD 
ENDBRANCH  13  16
ENDBRANCH  10  13
ENDBRANCH   1  10
BRANCH   7  19
HETATM   19  N   UNL     1     -10.856  15.179  69.355  1.00  0.00    -0.250 NA 
HETATM   20  H2  UNL     1     -13.351  15.942  69.168  1.00  0.00     0.000 HD 
HETATM   21  H   UNL     1      -9.917  14.898  69.639  1.00  0.00     0.000 HD 
HETATM   22  C   UNL     1     -11.783  15.304  70.230  1.00  0.00    -0.308 C  
HETATM   23  H1  UNL     1     -12.264  15.133  72.225  1.00  0.00     0.000 HD 
HETATM   24  N   UNL     1     -13.068  15.700  70.118  1.00  0.00    -0.677 NA 
HETATM   25  H2  UNL     1     -10.595  14.729  71.812  1.00  0.00     0.000 HD 
HETATM   26  N   UNL     1     -11.526  15.033  71.529  1.00  0.00    -0.350 NA 
HETATM   27  H1  UNL     1     -13.806  15.800  70.815  1.00  0.00     0.000 HD 
ENDBRANCH   7  19
BRANCH   5  28
HETATM   28  N   UNL     1     -11.404  13.972  65.945  1.00  0.00    -0.312 N  
HETATM   29  C   UNL     1     -11.992  12.724  65.871  1.00  0.00    -0.449 C  
HETATM   30  H   UNL     1     -11.593  14.659  65.214  1.00  0.00     0.000 HD 
HETATM   31  C   UNL     1     -13.015  12.612  64.775  1.00  0.00    -0.191 C  
HETATM   32  O   UNL     1     -11.728  11.800  66.631  1.00  0.00    -0.548 OA 
ENDBRANCH   5  28
TORSDOF 5
ENDMDL
MODEL       43
REMARK 921   NORMALIZED FREE ENERGY PREDICTED BY IDOCK:   -5.61 KCAL/MOL
REMARK 922        TOTAL FREE ENERGY PREDICTED BY IDOCK:   -8.84 KCAL/MOL
REMARK 923 INTER-LIGAND FREE ENERGY PREDICTED BY IDOCK:   -7.63 KCAL/MOL
REMARK 924 INTRA-LIGAND FREE ENERGY PREDICTED BY IDOCK:   -1.21 KCAL/MOL
REMARK 927      BINDING AFFINITY PREDICTED BY RF-SCORE:    0.00 PKD
ROOT
HETATM    1  C   UNL     1     -11.166  12.213  69.716  1.00  0.00     0.002 C  
HETATM    2  O   UNL     1     -12.081  12.731  70.686  1.00  0.00    -0.353 OA 
HETATM    3  O   UNL     1     -13.509  13.581  72.664  1.00  0.00    -0.561 OA 
HETATM    4  C   UNL     1     -13.368  14.529  71.710  1.00  0.00    -0.363 C  
HETATM    5  C   UNL     1     -10.617  13.191  68.627  1.00  0.00    -0.239 C  
HETATM    6  C   UNL     1     -12.566  14.005  70.563  1.00  0.00    -0.329 C  
HETATM    7  C   UNL     1     -11.563  14.387  68.328  1.00  0.00    -0.328 C  
HETATM    8  C   UNL     1     -12.368  14.790  69.503  1.00  0.00    -0.214 C  
HETATM    9  O   UNL     1     -13.806  15.665  71.804  1.00  0.00    -0.474 OA 
ENDROOT
BRANCH   1  10
HETATM   10  C   UNL     1     -11.724  10.917  69.062  1.00  0.00    -0.320 C  
HETATM   11  O   UNL     1     -12.708  10.282  69.898  1.00  0.00    -0.563 OA 
HETATM   12  H   UNL     1     -13.049   9.491  69.498  1.00  0.00     0.000 HD 
BRANCH  10  13
HETATM   13  C   UNL     1     -10.654   9.858  68.675  1.00  0.00    -0.217 C  
HETATM   14  H   UNL     1     -10.368   8.519  67.233  1.00  0.00     0.000 HD 
HETATM   15  O   UNL     1     -11.022   9.166  67.469  1.00  0.00    -0.176 OA 
BRANCH  13  16
HETATM   16  C   UNL     1     -10.408   8.814  69.780  1.00  0.00    -0.211 C  
HETATM   17  O   UNL     1     -11.416   7.797  69.791  1.00  0.00    -0.456 OA 
HETATM   18  H   UNL     1     -11.264   7.152  70.472  1.00  0.00     0.000 HD 
ENDBRANCH  13  16
ENDBRANCH  10  13
ENDBRANCH   1  10
BRANCH   7  19
HETATM   19  N   UNL     1     -12.466  14.029  67.229  1.00  0.00    -0.501 NA 
HETATM   20  H2  UNL     1     -10.337  15.152  66.204  1.00  0.00     0.000 HD 
HETATM   21  H   UNL     1     -13.372  13.604  67.427  1.00  0.00     0.000 HD 
HETATM   22  C   UNL     1     -12.112  14.252  66.017  1.00  0.00    -0.408 C  
HETATM   23  H1  UNL     1     -12.644  14.073  64.036  1.00  0.00     0.000 HD 
HETATM   24  N   UNL     1     -11.008  14.834  65.504  1.00  0.00    -0.329 NA 
HETATM   25  H2  UNL     1     -13.821  13.448  65.195  1.00  0.00     0.000 HD 
HETATM   26  N   UNL     1     -12.926  13.895  65.000  1.00  0.00    -0.752 NA 
HETATM   27  H1  UNL     1     -10.726  15.012  64.540  1.00  0.00     0.000 HD 
ENDBRANCH   7  19
BRANCH   5  28
HETATM   28  N   UNL     1      -9.254  13.683  68.945  1.00  0.00    -0.392 N  
HETATM   29  C   UNL     1      -8.352  13.988  67.945  1.00  0.00    -0.168 C  
HETATM   30  H   UNL     1      -8.977  13.796  69.921  1.00  0.00     0.000 HD 
HETATM   31  C   UNL     1      -7.100  14.647  68.453  1.00  0.00    -0.116 C  
HETATM   32  O   UNL     1      -8.551  13.767  66.756  1.00  0.00    -0.160 OA 
ENDBRANCH   5  28
TORSDOF 5
ENDMDL
MODEL       44
REMARK 921   NORMALIZED FREE ENERGY PREDICTED BY IDOCK:   -5.58 KCAL/MOL
REMARK 922        TOTAL FREE ENERGY PREDICTED BY IDOCK:   -8.80 KCAL/MOL
REMARK 923 INTER-LIGAND FREE ENERGY PREDICTED BY IDOCK:   -7.46 KCAL/MOL
REMARK 924 INTRA-LIGAND FREE ENERGY PREDICTED BY IDOCK:   -1.34 KCAL/MOL
REMARK 927      BINDING AFFINITY PREDICTED BY RF-SCORE:    0.00 PKD
ROOT
HETATM    1  C   UNL     1      -9.551  14.864  68.349  1.00  0.00    -0.209 C  
HETATM    2  O   UNL     1      -8.731  13.750  67.981  1.00  0.00    -0.163 OA 
HETATM    3  O   UNL     1      -7.151  11.736  67.631  1.00  0.00    -0.091 OA 
HETATM    4  C   UNL     1      -8.399  11.474  67.178  1.00  0.00    -0.160 C  
HETATM    5  C   UNL     1     -11.099  14.726  68.178  1.00  0.00    -0.278 C  
HETATM    6  C   UNL     1      -9.286  12.663  67.362  1.00  0.00    -0.191 C  
HETATM    7  C   UNL     1     -11.517  13.706  67.083  1.00  0.00    -0.342 C  
HETATM    8  C   UNL     1     -10.543  12.603  66.924  1.00  0.00    -0.256 C  
HETATM    9  O   UNL     1      -8.749  10.397  66.723  1.00  0.00    -0.127 OA 
ENDROOT
BRANCH   1  10
HETATM   10  C   UNL     1      -9.038  16.174  67.687  1.00  0.00    -0.196 C  
HETATM   11  O   UNL     1      -8.203  16.929  68.583  1.00  0.00    -0.235 OA 
HETATM   12  H   UNL     1      -7.889  17.730  68.178  1.00  0.00     0.000 HD 
BRANCH  10  13
HETATM   13  C   UNL     1     -10.146  17.117  67.141  1.00  0.00    -0.295 C  
HETATM   14  H   UNL     1     -10.860  17.674  65.370  1.00  0.00     0.000 HD 
HETATM   15  O   UNL     1     -10.183  17.097  65.703  1.00  0.00    -0.564 OA 
BRANCH  13  16
HETATM   16  C   UNL     1      -9.982  18.577  67.603  1.00  0.00    -0.338 C  
HETATM   17  O   UNL     1     -10.319  18.743  68.985  1.00  0.00    -0.489 OA 
HETATM   18  H   UNL     1     -10.217  19.643  69.271  1.00  0.00     0.000 HD 
ENDBRANCH  13  16
ENDBRANCH  10  13
ENDBRANCH   1  10
BRANCH   7  19
HETATM   19  N   UNL     1     -11.666  14.403  65.801  1.00  0.00    -0.359 NA 
HETATM   20  H2  UNL     1     -13.150  12.250  65.735  1.00  0.00     0.000 HD 
HETATM   21  H   UNL     1     -11.138  15.257  65.618  1.00  0.00     0.000 HD 
HETATM   22  C   UNL     1     -12.461  13.935  64.912  1.00  0.00    -0.391 C  
HETATM   23  H1  UNL     1     -13.258  14.219  63.034  1.00  0.00     0.000 HD 
HETATM   24  N   UNL     1     -13.221  12.821  64.893  1.00  0.00    -0.738 NA 
HETATM   25  H2  UNL     1     -12.117  15.458  63.567  1.00  0.00     0.000 HD 
HETATM   26  N   UNL     1     -12.625  14.591  63.742  1.00  0.00    -0.750 NA 
HETATM   27  H1  UNL     1     -13.854  12.448  64.185  1.00  0.00     0.000 HD 
ENDBRANCH   7  19
BRANCH   5  28
HETATM   28  N   UNL     1     -11.782  14.414  69.458  1.00  0.00    -0.293 N  
HETATM   29  C   UNL     1     -11.978  15.387  70.419  1.00  0.00    -0.354 C  
HETATM   30  H   UNL     1     -12.113  13.465  69.631  1.00  0.00     0.000 HD 
HETATM   31  C   UNL     1     -12.850  14.933  71.556  1.00  0.00    -0.411 C  
HETATM   32  O   UNL     1     -11.509  16.517  70.351  1.00  0.00    -0.229 OA 
ENDBRANCH   5  28
TORSDOF 5
ENDMDL
MODEL       45
REMARK 921   NORMALIZED FREE ENERGY PREDICTED BY IDOCK:   -5.57 KCAL/MOL
REMARK 922        TOTAL FREE ENERGY PREDICTED BY IDOCK:   -8.80 KCAL/MOL
REMARK 923 INTER-LIGAND FREE ENERGY PREDICTED BY IDOCK:   -7.57 KCAL/MOL
REMARK 924 INTRA-LIGAND FREE ENERGY PREDICTED BY IDOCK:   -1.23 KCAL/MOL
REMARK 927      BINDING AFFINITY PREDICTED BY RF-SCORE:    0.00 PKD
ROOT
HETATM    1  C   UNL     1     -11.306  12.748  66.057  1.00  0.00    -0.321 C  
HETATM    2  O   UNL     1     -11.469  13.937  65.276  1.00  0.00    -0.303 OA 
HETATM    3  O   UNL     1     -12.086  16.047  63.920  1.00  0.00    -0.880 OA 
HETATM    4  C   UNL     1     -11.142  16.313  64.852  1.00  0.00    -0.290 C  
HETATM    5  C   UNL     1     -10.461  12.840  67.369  1.00  0.00    -0.228 C  
HETATM    6  C   UNL     1     -10.779  15.072  65.602  1.00  0.00    -0.354 C  
HETATM    7  C   UNL     1      -9.406  13.980  67.354  1.00  0.00    -0.220 C  
HETATM    8  C   UNL     1      -9.823  15.137  66.529  1.00  0.00    -0.278 C  
HETATM    9  O   UNL     1     -10.689  17.426  65.068  1.00  0.00    -0.688 OA 
ENDROOT
BRANCH   1  10
HETATM   10  C   UNL     1     -10.823  11.564  65.172  1.00  0.00    -0.265 C  
HETATM   11  O   UNL     1      -9.541  11.070  65.602  1.00  0.00    -0.205 OA 
HETATM   12  H   UNL     1      -9.246  10.346  65.062  1.00  0.00     0.000 HD 
BRANCH  10  13
HETATM   13  C   UNL     1     -10.745  11.864  63.649  1.00  0.00    -0.442 C  
HETATM   14  H   UNL     1     -11.904  11.643  62.048  1.00  0.00     0.000 HD 
HETATM   15  O   UNL     1     -11.951  11.460  62.979  1.00  0.00    -0.022 OA 
BRANCH  13  16
HETATM   16  C   UNL     1      -9.551  11.180  62.957  1.00  0.00    -0.369 C  
HETATM   17  O   UNL     1      -9.702   9.756  62.909  1.00  0.00    -0.539 OA 
HETATM   18  H   UNL     1      -8.966   9.335  62.482  1.00  0.00     0.000 HD 
ENDBRANCH  13  16
ENDBRANCH  10  13
ENDBRANCH   1  10
BRANCH   7  19
HETATM   19  N   UNL     1      -8.135  13.459  66.840  1.00  0.00    -0.404 NA 
HETATM   20  H2  UNL     1      -7.776  14.176  69.331  1.00  0.00     0.000 HD 
HETATM   21  H   UNL     1      -8.061  13.153  65.870  1.00  0.00     0.000 HD 
HETATM   22  C   UNL     1      -7.117  13.388  67.616  1.00  0.00    -0.162 C  
HETATM   23  H1  UNL     1      -5.144  12.822  67.775  1.00  0.00     0.000 HD 
HETATM   24  N   UNL     1      -6.948  13.763  68.901  1.00  0.00    -0.108 NA 
HETATM   25  H2  UNL     1      -5.884  12.550  66.194  1.00  0.00     0.000 HD 
HETATM   26  N   UNL     1      -5.953  12.878  67.157  1.00  0.00    -0.299 NA 
HETATM   27  H1  UNL     1      -6.138  13.707  69.519  1.00  0.00     0.000 HD 
ENDBRANCH   7  19
BRANCH   5  28
HETATM   28  N   UNL     1     -11.311  12.944  68.581  1.00  0.00    -0.267 N  
HETATM   29  C   UNL     1     -11.845  11.819  69.178  1.00  0.00    -0.326 C  
HETATM   30  H   UNL     1     -11.505  13.863  68.980  1.00  0.00     0.000 HD 
HETATM   31  C   UNL     1     -12.514  12.104  70.494  1.00  0.00    -0.282 C  
HETATM   32  O   UNL     1     -11.769  10.692  68.702  1.00  0.00    -0.314 OA 
ENDBRANCH   5  28
TORSDOF 5
ENDMDL
MODEL       46
REMARK 921   NORMALIZED FREE ENERGY PREDICTED BY IDOCK:   -5.51 KCAL/MOL
REMARK 922        TOTAL FREE ENERGY PREDICTED BY IDOCK:   -8.72 KCAL/MOL
REMARK 923 INTER-LIGAND FREE ENERGY PREDICTED BY IDOCK:   -7.38 KCAL/MOL
REMARK 924 INTRA-LIGAND FREE ENERGY PREDICTED BY IDOCK:   -1.34 KCAL/MOL
REMARK 927      BINDING AFFINITY PREDICTED BY RF-SCORE:    0.00 PKD
ROOT
HETATM    1  C   UNL     1      -9.940  13.663  67.631  1.00  0.00    -0.239 C  
HETATM    2  O   UNL     1     -10.221  14.721  68.551  1.00  0.00    -0.220 OA 
HETATM    3  O   UNL     1     -10.733  16.832  69.950  1.00  0.00    -0.292 OA 
HETATM    4  C   UNL     1     -11.603  15.832  70.221  1.00  0.00    -0.365 C  
HETATM    5  C   UNL     1     -10.954  12.476  67.542  1.00  0.00    -0.251 C  
HETATM    6  C   UNL     1     -11.268  14.613  69.424  1.00  0.00    -0.279 C  
HETATM    7  C   UNL     1     -11.772  12.256  68.845  1.00  0.00    -0.328 C  
HETATM    8  C   UNL     1     -11.993  13.508  69.602  1.00  0.00    -0.397 C  
HETATM    9  O   UNL     1     -12.552  15.939  70.983  1.00  0.00    -0.443 OA 
ENDROOT
BRANCH   1  10
HETATM   10  C   UNL     1      -8.489  13.134  67.817  1.00  0.00    -0.185 C  
HETATM   11  O   UNL     1      -8.390  12.243  68.942  1.00  0.00    -0.351 OA 
HETATM   12  H   UNL     1      -7.504  11.919  69.056  1.00  0.00     0.000 HD 
BRANCH  10  13
HETATM   13  C   UNL     1      -7.399  14.231  67.965  1.00  0.00    -0.142 C  
HETATM   14  H   UNL     1      -5.537  14.546  67.341  1.00  0.00     0.000 HD 
HETATM   15  O   UNL     1      -6.204  13.876  67.250  1.00  0.00    -0.307 OA 
BRANCH  13  16
HETATM   16  C   UNL     1      -7.021  14.517  69.431  1.00  0.00    -0.151 C  
HETATM   17  O   UNL     1      -8.110  15.091  70.164  1.00  0.00    -0.292 OA 
HETATM   18  H   UNL     1      -7.877  15.266  71.068  1.00  0.00     0.000 HD 
ENDBRANCH  13  16
ENDBRANCH  10  13
ENDBRANCH   1  10
BRANCH   7  19
HETATM   19  N   UNL     1     -11.070  11.294  69.702  1.00  0.00    -0.396 NA 
HETATM   20  H2  UNL     1     -13.643  10.941  70.016  1.00  0.00     0.000 HD 
HETATM   21  H   UNL     1     -10.051  11.294  69.743  1.00  0.00     0.000 HD 
HETATM   22  C   UNL     1     -11.743  10.455  70.398  1.00  0.00    -0.331 C  
HETATM   23  H1  UNL     1     -11.635   8.878  71.718  1.00  0.00     0.000 HD 
HETATM   24  N   UNL     1     -13.072  10.285  70.550  1.00  0.00    -0.554 NA 
HETATM   25  H2  UNL     1     -10.080   9.529  71.189  1.00  0.00     0.000 HD 
HETATM   26  N   UNL     1     -11.100   9.546  71.164  1.00  0.00    -0.352 NA 
HETATM   27  H1  UNL     1     -13.608   9.617  71.104  1.00  0.00     0.000 HD 
ENDBRANCH   7  19
BRANCH   5  28
HETATM   28  N   UNL     1     -11.866  12.600  66.378  1.00  0.00    -0.409 N  
HETATM   29  C   UNL     1     -11.459  12.240  65.109  1.00  0.00    -0.341 C  
HETATM   30  H   UNL     1     -12.812  12.958  66.518  1.00  0.00     0.000 HD 
HETATM   31  C   UNL     1     -12.572  12.254  64.099  1.00  0.00    -0.493 C  
HETATM   32  O   UNL     1     -10.310  11.918  64.827  1.00  0.00    -0.259 OA 
ENDBRANCH   5  28
TORSDOF 5
ENDMDL
MODEL       47
REMARK 921   NORMALIZED FREE ENERGY PREDICTED BY IDOCK:   -5.50 KCAL/MOL
REMARK 922        TOTAL FREE ENERGY PREDICTED BY IDOCK:   -8.71 KCAL/MOL
REMARK 923 INTER-LIGAND FREE ENERGY PREDICTED BY IDOCK:   -7.81 KCAL/MOL
REMARK 924 INTRA-LIGAND FREE ENERGY PREDICTED BY IDOCK:   -0.89 KCAL/MOL
REMARK 927      BINDING AFFINITY PREDICTED BY RF-SCORE:    0.00 PKD
ROOT
HETATM    1  C   UNL     1     -10.158  12.916  65.627  1.00  0.00    -0.272 C  
HETATM    2  O   UNL     1     -10.038  11.915  64.612  1.00  0.00    -0.262 OA 
HETATM    3  O   UNL     1      -9.667  10.339  62.600  1.00  0.00    -0.288 OA 
HETATM    4  C   UNL     1      -9.225   9.786  63.753  1.00  0.00    -0.189 C  
HETATM    5  C   UNL     1      -9.486  12.644  67.013  1.00  0.00    -0.220 C  
HETATM    6  C   UNL     1      -9.478  10.702  64.906  1.00  0.00    -0.243 C  
HETATM    7  C   UNL     1      -9.327  11.134  67.343  1.00  0.00    -0.164 C  
HETATM    8  C   UNL     1      -9.152  10.297  66.134  1.00  0.00    -0.181 C  
HETATM    9  O   UNL     1      -8.661   8.705  63.821  1.00  0.00    -0.123 OA 
ENDROOT
BRANCH   1  10
HETATM   10  C   UNL     1     -11.641  13.348  65.810  1.00  0.00    -0.332 C  
HETATM   11  O   UNL     1     -12.542  12.244  65.611  1.00  0.00    -0.504 OA 
HETATM   12  H   UNL     1     -13.448  12.508  65.723  1.00  0.00     0.000 HD 
BRANCH  10  13
HETATM   13  C   UNL     1     -12.103  14.526  64.909  1.00  0.00    -0.416 C  
HETATM   14  H   UNL     1     -12.742  14.786  63.043  1.00  0.00     0.000 HD 
HETATM   15  O   UNL     1     -12.459  14.065  63.594  1.00  0.00    -0.803 OA 
BRANCH  13  16
HETATM   16  C   UNL     1     -11.041  15.632  64.765  1.00  0.00    -0.412 C  
HETATM   17  O   UNL     1     -11.367  16.558  63.722  1.00  0.00    -1.553 OA 
HETATM   18  H   UNL     1     -10.712  17.240  63.634  1.00  0.00     0.000 HD 
ENDBRANCH  13  16
ENDBRANCH  10  13
ENDBRANCH   1  10
BRANCH   7  19
HETATM   19  N   UNL     1     -10.508  10.671  68.079  1.00  0.00    -0.183 NA 
HETATM   20  H2  UNL     1      -8.444  10.532  69.679  1.00  0.00     0.000 HD 
HETATM   21  H   UNL     1     -11.415  10.621  67.613  1.00  0.00     0.000 HD 
HETATM   22  C   UNL     1     -10.397  10.329  69.309  1.00  0.00    -0.231 C  
HETATM   23  H1  UNL     1     -11.399   9.662  70.979  1.00  0.00     0.000 HD 
HETATM   24  N   UNL     1      -9.323  10.263  70.122  1.00  0.00    -0.346 NA 
HETATM   25  H2  UNL     1     -12.400   9.905  69.544  1.00  0.00     0.000 HD 
HETATM   26  N   UNL     1     -11.488   9.933  70.000  1.00  0.00    -0.239 NA 
HETATM   27  H1  UNL     1      -9.233   9.991  71.101  1.00  0.00     0.000 HD 
ENDBRANCH   7  19
BRANCH   5  28
HETATM   28  N   UNL     1      -8.183  13.340  67.155  1.00  0.00    -0.331 N  
HETATM   29  C   UNL     1      -8.105  14.606  67.700  1.00  0.00    -0.173 C  
HETATM   30  H   UNL     1      -7.330  12.874  66.843  1.00  0.00     0.000 HD 
HETATM   31  C   UNL     1      -6.694  15.066  67.937  1.00  0.00    -0.172 C  
HETATM   32  O   UNL     1      -9.083  15.287  67.986  1.00  0.00    -0.173 OA 
ENDBRANCH   5  28
TORSDOF 5
ENDMDL
MODEL       48
REMARK 921   NORMALIZED FREE ENERGY PREDICTED BY IDOCK:   -5.49 KCAL/MOL
REMARK 922        TOTAL FREE ENERGY PREDICTED BY IDOCK:   -8.69 KCAL/MOL
REMARK 923 INTER-LIGAND FREE ENERGY PREDICTED BY IDOCK:   -7.57 KCAL/MOL
REMARK 924 INTRA-LIGAND FREE ENERGY PREDICTED BY IDOCK:   -1.13 KCAL/MOL
REMARK 927      BINDING AFFINITY PREDICTED BY RF-SCORE:    0.00 PKD
ROOT
HETATM    1  C   UNL     1     -10.708  10.765  67.774  1.00  0.00    -0.251 C  
HETATM    2  O   UNL     1     -11.122  11.267  66.500  1.00  0.00    -0.285 OA 
HETATM    3  O   UNL     1     -11.996  11.872  64.146  1.00  0.00    -0.353 OA 
HETATM    4  C   UNL     1     -12.411  12.764  65.074  1.00  0.00    -0.506 C  
HETATM    5  C   UNL     1     -11.270  11.460  69.057  1.00  0.00    -0.256 C  
HETATM    6  C   UNL     1     -11.868  12.411  66.421  1.00  0.00    -0.354 C  
HETATM    7  C   UNL     1     -11.677  12.943  68.835  1.00  0.00    -0.327 C  
HETATM    8  C   UNL     1     -12.134  13.212  67.453  1.00  0.00    -0.316 C  
HETATM    9  O   UNL     1     -13.160  13.699  64.838  1.00  0.00    -0.713 OA 
ENDROOT
BRANCH   1  10
HETATM   10  C   UNL     1      -9.159  10.643  67.847  1.00  0.00    -0.145 C  
HETATM   11  O   UNL     1      -8.671  10.876  69.180  1.00  0.00    -0.302 OA 
HETATM   12  H   UNL     1      -7.725  10.801  69.225  1.00  0.00     0.000 HD 
BRANCH  10  13
HETATM   13  C   UNL     1      -8.377  11.566  66.872  1.00  0.00    -0.166 C  
HETATM   14  H   UNL     1      -6.734  11.467  65.754  1.00  0.00     0.000 HD 
HETATM   15  O   UNL     1      -7.213  10.902  66.350  1.00  0.00    -0.134 OA 
BRANCH  13  16
HETATM   16  C   UNL     1      -7.932  12.892  67.518  1.00  0.00    -0.178 C  
HETATM   17  O   UNL     1      -8.450  14.030  66.819  1.00  0.00    -0.415 OA 
HETATM   18  H   UNL     1      -8.176  14.847  67.218  1.00  0.00     0.000 HD 
ENDBRANCH  13  16
ENDBRANCH  10  13
ENDBRANCH   1  10
BRANCH   7  19
HETATM   19  N   UNL     1     -10.534  13.811  69.140  1.00  0.00    -0.424 NA 
HETATM   20  H2  UNL     1     -12.723  15.218  69.412  1.00  0.00     0.000 HD 
HETATM   21  H   UNL     1      -9.583  13.452  69.060  1.00  0.00     0.000 HD 
HETATM   22  C   UNL     1     -10.736  15.022  69.507  1.00  0.00    -0.256 C  
HETATM   23  H1  UNL     1      -9.850  16.780  70.112  1.00  0.00     0.000 HD 
HETATM   24  N   UNL     1     -11.874  15.735  69.642  1.00  0.00    -0.352 NA 
HETATM   25  H2  UNL     1      -8.738  15.452  69.763  1.00  0.00     0.000 HD 
HETATM   26  N   UNL     1      -9.688  15.816  69.819  1.00  0.00    -0.251 NA 
HETATM   27  H1  UNL     1     -12.035  16.698  69.935  1.00  0.00     0.000 HD 
ENDBRANCH   7  19
BRANCH   5  28
HETATM   28  N   UNL     1     -12.394  10.704  69.662  1.00  0.00    -0.531 N  
HETATM   29  C   UNL     1     -12.218   9.958  70.811  1.00  0.00    -0.291 C  
HETATM   30  H   UNL     1     -13.314  10.735  69.221  1.00  0.00     0.000 HD 
HETATM   31  C   UNL     1     -13.504   9.423  71.376  1.00  0.00    -0.403 C  
HETATM   32  O   UNL     1     -11.129   9.764  71.337  1.00  0.00    -0.359 OA 
ENDBRANCH   5  28
TORSDOF 5
ENDMDL
MODEL       49
REMARK 921   NORMALIZED FREE ENERGY PREDICTED BY IDOCK:   -5.49 KCAL/MOL
REMARK 922        TOTAL FREE ENERGY PREDICTED BY IDOCK:   -8.69 KCAL/MOL
REMARK 923 INTER-LIGAND FREE ENERGY PREDICTED BY IDOCK:   -7.19 KCAL/MOL
REMARK 924 INTRA-LIGAND FREE ENERGY PREDICTED BY IDOCK:   -1.50 KCAL/MOL
REMARK 927      BINDING AFFINITY PREDICTED BY RF-SCORE:    0.00 PKD
ROOT
HETATM    1  C   UNL     1      -9.491  11.121  68.671  1.00  0.00    -0.193 C  
HETATM    2  O   UNL     1     -10.287  10.511  69.692  1.00  0.00    -0.231 OA 
HETATM    3  O   UNL     1     -11.457   9.434  71.727  1.00  0.00    -0.380 OA 
HETATM    4  C   UNL     1     -12.181  10.459  71.223  1.00  0.00    -0.389 C  
HETATM    5  C   UNL     1      -9.968  12.490  68.085  1.00  0.00    -0.224 C  
HETATM    6  C   UNL     1     -11.500  11.046  70.028  1.00  0.00    -0.314 C  
HETATM    7  C   UNL     1     -11.502  12.715  68.195  1.00  0.00    -0.313 C  
HETATM    8  C   UNL     1     -12.098  12.038  69.369  1.00  0.00    -0.261 C  
HETATM    9  O   UNL     1     -13.224  10.866  71.711  1.00  0.00    -0.444 OA 
ENDROOT
BRANCH   1  10
HETATM   10  C   UNL     1      -9.182  10.111  67.529  1.00  0.00    -0.137 C  
HETATM   11  O   UNL     1     -10.125  10.229  66.448  1.00  0.00    -0.217 OA 
HETATM   12  H   UNL     1      -9.936   9.612  65.750  1.00  0.00     0.000 HD 
BRANCH  10  13
HETATM   13  C   UNL     1      -9.119   8.620  67.963  1.00  0.00    -0.140 C  
HETATM   14  H   UNL     1      -7.802   7.390  68.803  1.00  0.00     0.000 HD 
HETATM   15  O   UNL     1      -7.841   8.301  68.538  1.00  0.00    -0.116 OA 
BRANCH  13  16
HETATM   16  C   UNL     1      -9.390   7.640  66.806  1.00  0.00    -0.172 C  
HETATM   17  O   UNL     1     -10.784   7.339  66.673  1.00  0.00    -0.506 OA 
HETATM   18  H   UNL     1     -10.952   6.736  65.959  1.00  0.00     0.000 HD 
ENDBRANCH  13  16
ENDBRANCH  10  13
ENDBRANCH   1  10
BRANCH   7  19
HETATM   19  N   UNL     1     -12.154  12.224  66.977  1.00  0.00    -0.543 NA 
HETATM   20  H2  UNL     1     -11.518  14.734  66.607  1.00  0.00     0.000 HD 
HETATM   21  H   UNL     1     -12.505  11.267  66.934  1.00  0.00     0.000 HD 
HETATM   22  C   UNL     1     -12.279  13.001  65.966  1.00  0.00    -0.399 C  
HETATM   23  H1  UNL     1     -12.949  13.163  64.025  1.00  0.00     0.000 HD 
HETATM   24  N   UNL     1     -11.946  14.297  65.790  1.00  0.00    -0.387 NA 
HETATM   25  H2  UNL     1     -13.180  11.581  64.777  1.00  0.00     0.000 HD 
HETATM   26  N   UNL     1     -12.850  12.543  64.830  1.00  0.00    -0.820 NA 
HETATM   27  H1  UNL     1     -12.045  14.916  64.986  1.00  0.00     0.000 HD 
ENDBRANCH   7  19
BRANCH   5  28
HETATM   28  N   UNL     1      -9.237  13.640  68.672  1.00  0.00    -0.371 N  
HETATM   29  C   UNL     1      -8.912  14.745  67.910  1.00  0.00    -0.172 C  
HETATM   30  H   UNL     1      -8.970  13.614  69.657  1.00  0.00     0.000 HD 
HETATM   31  C   UNL     1      -8.347  15.880  68.718  1.00  0.00    -0.206 C  
HETATM   32  O   UNL     1      -9.083  14.812  66.698  1.00  0.00    -0.254 OA 
ENDBRANCH   5  28
TORSDOF 5
ENDMDL
MODEL       50
REMARK 921   NORMALIZED FREE ENERGY PREDICTED BY IDOCK:   -5.49 KCAL/MOL
REMARK 922        TOTAL FREE ENERGY PREDICTED BY IDOCK:   -8.68 KCAL/MOL
REMARK 923 INTER-LIGAND FREE ENERGY PREDICTED BY IDOCK:   -7.54 KCAL/MOL
REMARK 924 INTRA-LIGAND FREE ENERGY PREDICTED BY IDOCK:   -1.15 KCAL/MOL
REMARK 927      BINDING AFFINITY PREDICTED BY RF-SCORE:    0.00 PKD
ROOT
HETATM    1  C   UNL     1     -11.106  14.562  68.457  1.00  0.00    -0.256 C  
HETATM    2  O   UNL     1     -11.802  14.844  69.675  1.00  0.00    -0.285 OA 
HETATM    3  O   UNL     1     -13.229  15.577  71.700  1.00  0.00    -0.437 OA 
HETATM    4  C   UNL     1     -13.256  14.235  71.532  1.00  0.00    -0.348 C  
HETATM    5  C   UNL     1     -11.195  13.113  67.878  1.00  0.00    -0.270 C  
HETATM    6  C   UNL     1     -12.399  13.832  70.376  1.00  0.00    -0.353 C  
HETATM    7  C   UNL     1     -11.471  12.026  68.953  1.00  0.00    -0.301 C  
HETATM    8  C   UNL     1     -12.266  12.536  70.093  1.00  0.00    -0.307 C  
HETATM    9  O   UNL     1     -13.925  13.473  72.213  1.00  0.00    -0.538 OA 
ENDROOT
BRANCH   1  10
HETATM   10  C   UNL     1      -9.625  15.031  68.542  1.00  0.00    -0.210 C  
HETATM   11  O   UNL     1      -9.184  15.151  69.907  1.00  0.00    -0.453 OA 
HETATM   12  H   UNL     1      -8.280  15.438  69.958  1.00  0.00     0.000 HD 
BRANCH  10  13
HETATM   13  C   UNL     1      -9.310  16.364  67.807  1.00  0.00    -0.213 C  
HETATM   14  H   UNL     1     -10.176  18.134  67.538  1.00  0.00     0.000 HD 
HETATM   15  O   UNL     1     -10.369  17.319  67.988  1.00  0.00    -0.317 OA 
BRANCH  13  16
HETATM   16  C   UNL     1      -9.072  16.180  66.296  1.00  0.00    -0.338 C  
HETATM   17  O   UNL     1      -8.539  14.887  65.989  1.00  0.00    -0.356 OA 
HETATM   18  H   UNL     1      -8.393  14.774  65.058  1.00  0.00     0.000 HD 
ENDBRANCH  13  16
ENDBRANCH  10  13
ENDBRANCH   1  10
BRANCH   7  19
HETATM   19  N   UNL     1     -10.195  11.504  69.454  1.00  0.00    -0.422 NA 
HETATM   20  H2  UNL     1     -11.775   9.475  68.973  1.00  0.00     0.000 HD 
HETATM   21  H   UNL     1      -9.451  12.146  69.730  1.00  0.00     0.000 HD 
HETATM   22  C   UNL     1     -10.018  10.238  69.544  1.00  0.00    -0.228 C  
HETATM   23  H1  UNL     1      -8.692   8.744  70.045  1.00  0.00     0.000 HD 
HETATM   24  N   UNL     1     -10.844   9.202  69.292  1.00  0.00    -0.373 NA 
HETATM   25  H2  UNL     1      -8.080  10.391  70.227  1.00  0.00     0.000 HD 
HETATM   26  N   UNL     1      -8.833   9.752  69.974  1.00  0.00    -0.221 NA 
HETATM   27  H1  UNL     1     -10.704   8.194  69.363  1.00  0.00     0.000 HD 
ENDBRANCH   7  19
BRANCH   5  28
HETATM   28  N   UNL     1     -12.183  13.007  66.775  1.00  0.00    -0.288 N  
HETATM   29  C   UNL     1     -11.783  13.012  65.454  1.00  0.00    -0.364 C  
HETATM   30  H   UNL     1     -13.176  12.928  66.998  1.00  0.00     0.000 HD 
HETATM   31  C   UNL     1     -12.897  12.705  64.493  1.00  0.00    -0.356 C  
HETATM   32  O   UNL     1     -10.632  13.225  65.090  1.00  0.00    -0.304 OA 
ENDBRANCH   5  28
TORSDOF 5
ENDMDL
MODEL       51
REMARK 921   NORMALIZED FREE ENERGY PREDICTED BY IDOCK:   -5.48 KCAL/MOL
REMARK 922        TOTAL FREE ENERGY PREDICTED BY IDOCK:   -8.67 KCAL/MOL
REMARK 923 INTER-LIGAND FREE ENERGY PREDICTED BY IDOCK:   -7.56 KCAL/MOL
REMARK 924 INTRA-LIGAND FREE ENERGY PREDICTED BY IDOCK:   -1.11 KCAL/MOL
REMARK 927      BINDING AFFINITY PREDICTED BY RF-SCORE:    0.00 PKD
ROOT
HETATM    1  C   UNL     1     -10.321  14.884  68.768  1.00  0.00    -0.245 C  
HETATM    2  O   UNL     1      -9.099  15.621  68.873  1.00  0.00    -0.186 OA 
HETATM    3  O   UNL     1      -6.826  16.762  69.328  1.00  0.00    -0.218 OA 
HETATM    4  C   UNL     1      -6.926  16.345  68.045  1.00  0.00    -0.140 C  
HETATM    5  C   UNL     1     -10.577  14.067  67.459  1.00  0.00    -0.260 C  
HETATM    6  C   UNL     1      -8.260  15.717  67.797  1.00  0.00    -0.144 C  
HETATM    7  C   UNL     1      -9.829  14.628  66.218  1.00  0.00    -0.300 C  
HETATM    8  C   UNL     1      -8.554  15.293  66.568  1.00  0.00    -0.264 C  
HETATM    9  O   UNL     1      -6.027  16.439  67.223  1.00  0.00    -0.151 OA 
ENDROOT
BRANCH   1  10
HETATM   10  C   UNL     1     -11.544  15.785  69.103  1.00  0.00    -0.392 C  
HETATM   11  O   UNL     1     -11.199  17.181  69.068  1.00  0.00    -0.211 OA 
HETATM   12  H   UNL     1     -11.946  17.732  69.272  1.00  0.00     0.000 HD 
BRANCH  10  13
HETATM   13  C   UNL     1     -12.233  15.485  70.463  1.00  0.00    -0.404 C  
HETATM   14  H   UNL     1     -11.965  15.945  72.379  1.00  0.00     0.000 HD 
HETATM   15  O   UNL     1     -11.543  16.128  71.548  1.00  0.00    -0.450 OA 
BRANCH  13  16
HETATM   16  C   UNL     1     -12.333  13.980  70.773  1.00  0.00    -0.373 C  
HETATM   17  O   UNL     1     -13.390  13.690  71.695  1.00  0.00    -0.355 OA 
HETATM   18  H   UNL     1     -13.452  12.762  71.886  1.00  0.00     0.000 HD 
ENDBRANCH  13  16
ENDBRANCH  10  13
ENDBRANCH   1  10
BRANCH   7  19
HETATM   19  N   UNL     1     -10.694  15.585  65.520  1.00  0.00    -0.359 NA 
HETATM   20  H2  UNL     1     -11.023  13.235  64.419  1.00  0.00     0.000 HD 
HETATM   21  H   UNL     1     -10.685  16.570  65.785  1.00  0.00     0.000 HD 
HETATM   22  C   UNL     1     -11.460  15.179  64.577  1.00  0.00    -0.316 C  
HETATM   23  H1  UNL     1     -12.892  15.727  63.202  1.00  0.00     0.000 HD 
HETATM   24  N   UNL     1     -11.619  13.961  64.019  1.00  0.00    -0.625 NA 
HETATM   25  H2  UNL     1     -12.293  17.032  64.233  1.00  0.00     0.000 HD 
HETATM   26  N   UNL     1     -12.282  16.051  63.953  1.00  0.00    -0.803 NA 
HETATM   27  H1  UNL     1     -12.228  13.637  63.268  1.00  0.00     0.000 HD 
ENDBRANCH   7  19
BRANCH   5  28
HETATM   28  N   UNL     1     -10.281  12.623  67.628  1.00  0.00    -0.214 N  
HETATM   29  C   UNL     1     -11.030  11.660  66.982  1.00  0.00    -0.288 C  
HETATM   30  H   UNL     1      -9.511  12.337  68.234  1.00  0.00     0.000 HD 
HETATM   31  C   UNL     1     -10.465  10.274  67.122  1.00  0.00    -0.311 C  
HETATM   32  O   UNL     1     -12.043  11.902  66.336  1.00  0.00    -0.552 OA 
ENDBRANCH   5  28
TORSDOF 5
ENDMDL
MODEL       52
REMARK 921   NORMALIZED FREE ENERGY PREDICTED BY IDOCK:   -5.46 KCAL/MOL
REMARK 922        TOTAL FREE ENERGY PREDICTED BY IDOCK:   -8.65 KCAL/MOL
REMARK 923 INTER-LIGAND FREE ENERGY PREDICTED BY IDOCK:   -7.25 KCAL/MOL
REMARK 924 INTRA-LIGAND FREE ENERGY PREDICTED BY IDOCK:   -1.40 KCAL/MOL
REMARK 927      BINDING AFFINITY PREDICTED BY RF-SCORE:    0.00 PKD
ROOT
HETATM    1  C   UNL     1     -10.009  13.578  67.711  1.00  0.00    -0.232 C  
HETATM    2  O   UNL     1     -10.362  14.617  68.629  1.00  0.00    -0.232 OA 
HETATM    3  O   UNL     1     -11.011  16.692  70.024  1.00  0.00    -0.333 OA 
HETATM    4  C   UNL     1     -11.833  15.647  70.276  1.00  0.00    -0.365 C  
HETATM    5  C   UNL     1     -10.958  12.340  67.600  1.00  0.00    -0.244 C  
HETATM    6  C   UNL     1     -11.419  14.450  69.482  1.00  0.00    -0.288 C  
HETATM    7  C   UNL     1     -11.787  12.072  68.887  1.00  0.00    -0.299 C  
HETATM    8  C   UNL     1     -12.088  13.308  69.643  1.00  0.00    -0.331 C  
HETATM    9  O   UNL     1     -12.799  15.701  71.020  1.00  0.00    -0.467 OA 
ENDROOT
BRANCH   1  10
HETATM   10  C   UNL     1      -8.536  13.125  67.924  1.00  0.00    -0.185 C  
HETATM   11  O   UNL     1      -7.636  13.817  67.039  1.00  0.00    -0.361 OA 
HETATM   12  H   UNL     1      -6.737  13.541  67.169  1.00  0.00     0.000 HD 
BRANCH  10  13
HETATM   13  C   UNL     1      -8.286  11.598  67.780  1.00  0.00    -0.141 C  
HETATM   14  H   UNL     1      -7.945  10.047  68.977  1.00  0.00     0.000 HD 
HETATM   15  O   UNL     1      -8.098  10.980  69.065  1.00  0.00    -0.145 OA 
BRANCH  13  16
HETATM   16  C   UNL     1      -7.069  11.264  66.897  1.00  0.00    -0.139 C  
HETATM   17  O   UNL     1      -7.416  11.198  65.509  1.00  0.00    -0.363 OA 
HETATM   18  H   UNL     1      -6.665  10.993  64.964  1.00  0.00     0.000 HD 
ENDBRANCH  13  16
ENDBRANCH  10  13
ENDBRANCH   1  10
BRANCH   7  19
HETATM   19  N   UNL     1     -11.052  11.146  69.755  1.00  0.00    -0.409 NA 
HETATM   20  H2  UNL     1     -13.610  10.695  70.063  1.00  0.00     0.000 HD 
HETATM   21  H   UNL     1     -10.033  11.186  69.800  1.00  0.00     0.000 HD 
HETATM   22  C   UNL     1     -11.694  10.286  70.455  1.00  0.00    -0.331 C  
HETATM   23  H1  UNL     1     -11.531   8.726  71.789  1.00  0.00     0.000 HD 
HETATM   24  N   UNL     1     -13.016  10.066  70.604  1.00  0.00    -0.570 NA 
HETATM   25  H2  UNL     1     -10.000   9.432  71.260  1.00  0.00     0.000 HD 
HETATM   26  N   UNL     1     -11.019   9.410  71.231  1.00  0.00    -0.345 NA 
HETATM   27  H1  UNL     1     -13.528   9.382  71.162  1.00  0.00     0.000 HD 
ENDBRANCH   7  19
BRANCH   5  28
HETATM   28  N   UNL     1     -11.853  12.420  66.420  1.00  0.00    -0.388 N  
HETATM   29  C   UNL     1     -11.377  12.190  65.144  1.00  0.00    -0.327 C  
HETATM   30  H   UNL     1     -12.839  12.649  66.553  1.00  0.00     0.000 HD 
HETATM   31  C   UNL     1     -12.462  12.127  64.106  1.00  0.00    -0.497 C  
HETATM   32  O   UNL     1     -10.191  12.031  64.877  1.00  0.00    -0.258 OA 
ENDBRANCH   5  28
TORSDOF 5
ENDMDL
MODEL       53
REMARK 921   NORMALIZED FREE ENERGY PREDICTED BY IDOCK:   -5.46 KCAL/MOL
REMARK 922        TOTAL FREE ENERGY PREDICTED BY IDOCK:   -8.65 KCAL/MOL
REMARK 923 INTER-LIGAND FREE ENERGY PREDICTED BY IDOCK:   -7.09 KCAL/MOL
REMARK 924 INTRA-LIGAND FREE ENERGY PREDICTED BY IDOCK:   -1.56 KCAL/MOL
REMARK 927      BINDING AFFINITY PREDICTED BY RF-SCORE:    0.00 PKD
ROOT
HETATM    1  C   UNL     1      -9.520   8.823  69.405  1.00  0.00    -0.161 C  
HETATM    2  O   UNL     1      -8.734   8.327  70.493  1.00  0.00    -0.132 OA 
HETATM    3  O   UNL     1      -7.069   7.615  72.335  1.00  0.00    -0.069 OA 
HETATM    4  C   UNL     1      -8.228   8.073  72.862  1.00  0.00    -0.167 C  
HETATM    5  C   UNL     1     -10.808   9.644  69.742  1.00  0.00    -0.250 C  
HETATM    6  C   UNL     1      -9.186   8.448  71.779  1.00  0.00    -0.220 C  
HETATM    7  C   UNL     1     -11.421   9.302  71.128  1.00  0.00    -0.333 C  
HETATM    8  C   UNL     1     -10.404   8.873  72.115  1.00  0.00    -0.313 C  
HETATM    9  O   UNL     1      -8.433   8.195  74.060  1.00  0.00    -0.260 OA 
ENDROOT
BRANCH   1  10
HETATM   10  C   UNL     1      -9.840   7.690  68.389  1.00  0.00    -0.166 C  
HETATM   11  O   UNL     1     -11.255   7.562  68.165  1.00  0.00    -0.437 OA 
HETATM   12  H   UNL     1     -11.450   6.870  67.544  1.00  0.00     0.000 HD 
BRANCH  10  13
HETATM   13  C   UNL     1      -9.275   6.290  68.759  1.00  0.00    -0.125 C  
HETATM   14  H   UNL     1      -8.249   4.837  67.868  1.00  0.00     0.000 HD 
HETATM   15  O   UNL     1      -8.594   5.693  67.642  1.00  0.00    -0.110 OA 
BRANCH  13  16
HETATM   16  C   UNL     1     -10.357   5.310  69.249  1.00  0.00    -0.215 C  
HETATM   17  O   UNL     1     -10.882   5.685  70.528  1.00  0.00    -0.283 OA 
HETATM   18  H   UNL     1     -11.550   5.081  70.830  1.00  0.00     0.000 HD 
ENDBRANCH  13  16
ENDBRANCH  10  13
ENDBRANCH   1  10
BRANCH   7  19
HETATM   19  N   UNL     1     -12.416   8.236  70.970  1.00  0.00    -0.493 NA 
HETATM   20  H2  UNL     1     -12.956   9.537  73.174  1.00  0.00     0.000 HD 
HETATM   21  H   UNL     1     -12.357   7.594  70.180  1.00  0.00     0.000 HD 
HETATM   22  C   UNL     1     -13.359   8.116  71.828  1.00  0.00    -0.345 C  
HETATM   23  H1  UNL     1     -15.048   7.060  72.353  1.00  0.00     0.000 HD 
HETATM   24  N   UNL     1     -13.625   8.795  72.963  1.00  0.00    -0.959 NA 
HETATM   25  H2  UNL     1     -14.253   6.527  70.867  1.00  0.00     0.000 HD 
HETATM   26  N   UNL     1     -14.297   7.155  71.669  1.00  0.00    -0.406 NA 
HETATM   27  H1  UNL     1     -14.376   8.700  73.647  1.00  0.00     0.000 HD 
ENDBRANCH   7  19
BRANCH   5  28
HETATM   28  N   UNL     1     -10.591  11.107  69.622  1.00  0.00    -0.454 N  
HETATM   29  C   UNL     1     -11.372  11.880  68.787  1.00  0.00    -0.274 C  
HETATM   30  H   UNL     1      -9.850  11.550  70.167  1.00  0.00     0.000 HD 
HETATM   31  C   UNL     1     -11.132  13.355  68.943  1.00  0.00    -0.307 C  
HETATM   32  O   UNL     1     -12.199  11.420  68.007  1.00  0.00    -0.607 OA 
ENDBRANCH   5  28
TORSDOF 5
ENDMDL
MODEL       54
REMARK 921   NORMALIZED FREE ENERGY PREDICTED BY IDOCK:   -5.40 KCAL/MOL
REMARK 922        TOTAL FREE ENERGY PREDICTED BY IDOCK:   -8.58 KCAL/MOL
REMARK 923 INTER-LIGAND FREE ENERGY PREDICTED BY IDOCK:   -7.81 KCAL/MOL
REMARK 924 INTRA-LIGAND FREE ENERGY PREDICTED BY IDOCK:   -0.77 KCAL/MOL
REMARK 927      BINDING AFFINITY PREDICTED BY RF-SCORE:    0.00 PKD
ROOT
HETATM    1  C   UNL     1     -10.258  13.962  67.486  1.00  0.00    -0.245 C  
HETATM    2  O   UNL     1      -8.871  14.032  67.832  1.00  0.00    -0.167 OA 
HETATM    3  O   UNL     1      -6.349  13.845  68.356  1.00  0.00    -0.086 OA 
HETATM    4  C   UNL     1      -6.619  14.926  67.589  1.00  0.00    -0.165 C  
HETATM    5  C   UNL     1     -10.794  14.946  66.395  1.00  0.00    -0.325 C  
HETATM    6  C   UNL     1      -8.086  15.031  67.326  1.00  0.00    -0.210 C  
HETATM    7  C   UNL     1      -9.969  16.257  66.277  1.00  0.00    -0.317 C  
HETATM    8  C   UNL     1      -8.542  16.070  66.625  1.00  0.00    -0.316 C  
HETATM    9  O   UNL     1      -5.766  15.680  67.146  1.00  0.00    -0.331 OA 
ENDROOT
BRANCH   1  10
HETATM   10  C   UNL     1     -11.152  14.010  68.757  1.00  0.00    -0.264 C  
HETATM   11  O   UNL     1     -12.510  13.636  68.464  1.00  0.00    -0.304 OA 
HETATM   12  H   UNL     1     -13.057  13.664  69.241  1.00  0.00     0.000 HD 
BRANCH  10  13
HETATM   13  C   UNL     1     -11.170  15.373  69.503  1.00  0.00    -0.285 C  
HETATM   14  H   UNL     1      -9.857  16.594  70.363  1.00  0.00     0.000 HD 
HETATM   15  O   UNL     1      -9.845  15.761  69.906  1.00  0.00    -0.272 OA 
BRANCH  13  16
HETATM   16  C   UNL     1     -12.076  15.370  70.749  1.00  0.00    -0.366 C  
HETATM   17  O   UNL     1     -13.458  15.531  70.407  1.00  0.00    -0.791 OA 
HETATM   18  H   UNL     1     -14.017  15.529  71.175  1.00  0.00     0.000 HD 
ENDBRANCH  13  16
ENDBRANCH  10  13
ENDBRANCH   1  10
BRANCH   7  19
HETATM   19  N   UNL     1     -10.547  17.277  67.158  1.00  0.00    -0.298 NA 
HETATM   20  H2  UNL     1      -9.425  18.492  65.131  1.00  0.00     0.000 HD 
HETATM   21  H   UNL     1     -11.007  17.002  68.026  1.00  0.00     0.000 HD 
HETATM   22  C   UNL     1     -10.474  18.514  66.832  1.00  0.00    -0.396 C  
HETATM   23  H1  UNL     1     -10.975  20.439  67.365  1.00  0.00     0.000 HD 
HETATM   24  N   UNL     1      -9.890  19.126  65.782  1.00  0.00    -0.414 NA 
HETATM   25  H2  UNL     1     -11.515  19.180  68.481  1.00  0.00     0.000 HD 
HETATM   26  N   UNL     1     -11.034  19.454  67.625  1.00  0.00    -0.362 NA 
HETATM   27  H1  UNL     1      -9.831  20.111  65.522  1.00  0.00     0.000 HD 
ENDBRANCH   7  19
BRANCH   5  28
HETATM   28  N   UNL     1     -10.923  14.299  65.066  1.00  0.00    -0.364 N  
HETATM   29  C   UNL     1     -12.120  13.751  64.650  1.00  0.00    -0.421 C  
HETATM   30  H   UNL     1     -10.112  14.258  64.448  1.00  0.00     0.000 HD 
HETATM   31  C   UNL     1     -12.108  13.315  63.212  1.00  0.00    -0.407 C  
HETATM   32  O   UNL     1     -13.108  13.645  65.369  1.00  0.00    -0.704 OA 
ENDBRANCH   5  28
TORSDOF 5
ENDMDL
MODEL       55
REMARK 921   NORMALIZED FREE ENERGY PREDICTED BY IDOCK:   -5.40 KCAL/MOL
REMARK 922        TOTAL FREE ENERGY PREDICTED BY IDOCK:   -8.57 KCAL/MOL
REMARK 923 INTER-LIGAND FREE ENERGY PREDICTED BY IDOCK:   -8.14 KCAL/MOL
REMARK 924 INTRA-LIGAND FREE ENERGY PREDICTED BY IDOCK:   -0.43 KCAL/MOL
REMARK 927      BINDING AFFINITY PREDICTED BY RF-SCORE:    0.00 PKD
ROOT
HETATM    1  C   UNL     1     -10.306  13.930  67.733  1.00  0.00    -0.240 C  
HETATM    2  O   UNL     1      -8.920  14.038  68.074  1.00  0.00    -0.167 OA 
HETATM    3  O   UNL     1      -6.400  13.909  68.625  1.00  0.00    -0.080 OA 
HETATM    4  C   UNL     1      -6.666  14.898  67.741  1.00  0.00    -0.172 C  
HETATM    5  C   UNL     1     -10.837  14.786  66.537  1.00  0.00    -0.319 C  
HETATM    6  C   UNL     1      -8.132  14.973  67.462  1.00  0.00    -0.181 C  
HETATM    7  C   UNL     1     -10.010  16.075  66.277  1.00  0.00    -0.310 C  
HETATM    8  C   UNL     1      -8.585  15.928  66.649  1.00  0.00    -0.320 C  
HETATM    9  O   UNL     1      -5.812  15.598  67.219  1.00  0.00    -0.324 OA 
ENDROOT
BRANCH   1  10
HETATM   10  C   UNL     1     -11.204  14.119  68.988  1.00  0.00    -0.271 C  
HETATM   11  O   UNL     1     -10.437  14.536  70.132  1.00  0.00    -0.436 OA 
HETATM   12  H   UNL     1     -10.986  14.652  70.898  1.00  0.00     0.000 HD 
BRANCH  10  13
HETATM   13  C   UNL     1     -12.047  12.877  69.391  1.00  0.00    -0.198 C  
HETATM   14  H   UNL     1     -12.906  12.155  71.034  1.00  0.00     0.000 HD 
HETATM   15  O   UNL     1     -12.391  12.914  70.787  1.00  0.00    -0.368 OA 
BRANCH  13  16
HETATM   16  C   UNL     1     -11.338  11.542  69.100  1.00  0.00    -0.286 C  
HETATM   17  O   UNL     1     -12.233  10.565  68.558  1.00  0.00    -0.806 OA 
HETATM   18  H   UNL     1     -11.795   9.741  68.378  1.00  0.00     0.000 HD 
ENDBRANCH  13  16
ENDBRANCH  10  13
ENDBRANCH   1  10
BRANCH   7  19
HETATM   19  N   UNL     1     -10.592  17.187  67.037  1.00  0.00    -0.274 NA 
HETATM   20  H2  UNL     1      -8.752  18.157  65.449  1.00  0.00     0.000 HD 
HETATM   21  H   UNL     1     -11.311  17.008  67.737  1.00  0.00     0.000 HD 
HETATM   22  C   UNL     1     -10.192  18.385  66.817  1.00  0.00    -0.388 C  
HETATM   23  H1  UNL     1     -10.429  20.368  67.316  1.00  0.00     0.000 HD 
HETATM   24  N   UNL     1      -9.240  18.870  65.993  1.00  0.00    -0.464 NA 
HETATM   25  H2  UNL     1     -11.483  19.241  68.175  1.00  0.00     0.000 HD 
HETATM   26  N   UNL     1     -10.747  19.415  67.492  1.00  0.00    -0.474 NA 
HETATM   27  H1  UNL     1      -8.921  19.823  65.818  1.00  0.00     0.000 HD 
ENDBRANCH   7  19
BRANCH   5  28
HETATM   28  N   UNL     1     -10.962  13.995  65.288  1.00  0.00    -0.318 N  
HETATM   29  C   UNL     1     -12.193  13.769  64.705  1.00  0.00    -0.406 C  
HETATM   30  H   UNL     1     -10.123  13.611  64.853  1.00  0.00     0.000 HD 
HETATM   31  C   UNL     1     -12.101  13.116  63.354  1.00  0.00    -0.558 C  
HETATM   32  O   UNL     1     -13.260  14.085  65.219  1.00  0.00    -0.782 OA 
ENDBRANCH   5  28
TORSDOF 5
ENDMDL
MODEL       56
REMARK 921   NORMALIZED FREE ENERGY PREDICTED BY IDOCK:   -5.38 KCAL/MOL
REMARK 922        TOTAL FREE ENERGY PREDICTED BY IDOCK:   -8.55 KCAL/MOL
REMARK 923 INTER-LIGAND FREE ENERGY PREDICTED BY IDOCK:   -7.12 KCAL/MOL
REMARK 924 INTRA-LIGAND FREE ENERGY PREDICTED BY IDOCK:   -1.43 KCAL/MOL
REMARK 927      BINDING AFFINITY PREDICTED BY RF-SCORE:    0.00 PKD
ROOT
HETATM    1  C   UNL     1      -9.356  15.844  69.210  1.00  0.00    -0.259 C  
HETATM    2  O   UNL     1     -10.259  15.558  70.283  1.00  0.00    -0.294 OA 
HETATM    3  O   UNL     1     -11.749  15.296  72.376  1.00  0.00    -0.414 OA 
HETATM    4  C   UNL     1     -12.488  15.355  71.245  1.00  0.00    -0.397 C  
HETATM    5  C   UNL     1      -9.962  16.220  67.819  1.00  0.00    -0.246 C  
HETATM    6  C   UNL     1     -11.604  15.475  70.045  1.00  0.00    -0.341 C  
HETATM    7  C   UNL     1     -11.385  15.643  67.582  1.00  0.00    -0.228 C  
HETATM    8  C   UNL     1     -12.160  15.494  68.834  1.00  0.00    -0.219 C  
HETATM    9  O   UNL     1     -13.709  15.352  71.224  1.00  0.00    -0.498 OA 
ENDROOT
BRANCH   1  10
HETATM   10  C   UNL     1      -8.294  14.717  69.062  1.00  0.00    -0.144 C  
HETATM   11  O   UNL     1      -7.298  14.788  70.098  1.00  0.00    -0.353 OA 
HETATM   12  H   UNL     1      -6.650  14.100  70.008  1.00  0.00     0.000 HD 
BRANCH  10  13
HETATM   13  C   UNL     1      -7.568  14.669  67.689  1.00  0.00    -0.180 C  
HETATM   14  H   UNL     1      -6.956  13.284  66.399  1.00  0.00     0.000 HD 
HETATM   15  O   UNL     1      -7.400  13.314  67.238  1.00  0.00    -0.140 OA 
BRANCH  13  16
HETATM   16  C   UNL     1      -6.187  15.350  67.709  1.00  0.00    -0.159 C  
HETATM   17  O   UNL     1      -6.292  16.773  67.834  1.00  0.00    -0.129 OA 
HETATM   18  H   UNL     1      -5.441  17.193  67.847  1.00  0.00     0.000 HD 
ENDBRANCH  13  16
ENDBRANCH  10  13
ENDBRANCH   1  10
BRANCH   7  19
HETATM   19  N   UNL     1     -11.276  14.334  66.928  1.00  0.00    -0.315 NA 
HETATM   20  H2  UNL     1     -11.064  16.185  65.091  1.00  0.00     0.000 HD 
HETATM   21  H   UNL     1     -11.366  13.479  67.476  1.00  0.00     0.000 HD 
HETATM   22  C   UNL     1     -11.068  14.271  65.665  1.00  0.00    -0.316 C  
HETATM   23  H1  UNL     1     -10.769  13.018  64.058  1.00  0.00     0.000 HD 
HETATM   24  N   UNL     1     -10.962  15.236  64.729  1.00  0.00    -0.590 NA 
HETATM   25  H2  UNL     1     -11.000  12.212  65.613  1.00  0.00     0.000 HD 
HETATM   26  N   UNL     1     -10.935  13.068  65.063  1.00  0.00    -0.289 NA 
HETATM   27  H1  UNL     1     -10.796  15.186  63.724  1.00  0.00     0.000 HD 
ENDBRANCH   7  19
BRANCH   5  28
HETATM   28  N   UNL     1      -9.955  17.684  67.577  1.00  0.00    -0.310 N  
HETATM   29  C   UNL     1      -9.225  18.234  66.542  1.00  0.00    -0.292 C  
HETATM   30  H   UNL     1     -10.499  18.295  68.187  1.00  0.00     0.000 HD 
HETATM   31  C   UNL     1      -9.492  19.699  66.339  1.00  0.00    -0.479 C  
HETATM   32  O   UNL     1      -8.450  17.596  65.840  1.00  0.00    -0.531 OA 
ENDBRANCH   5  28
TORSDOF 5
ENDMDL
MODEL       57
REMARK 921   NORMALIZED FREE ENERGY PREDICTED BY IDOCK:   -5.35 KCAL/MOL
REMARK 922        TOTAL FREE ENERGY PREDICTED BY IDOCK:   -8.51 KCAL/MOL
REMARK 923 INTER-LIGAND FREE ENERGY PREDICTED BY IDOCK:   -7.34 KCAL/MOL
REMARK 924 INTRA-LIGAND FREE ENERGY PREDICTED BY IDOCK:   -1.17 KCAL/MOL
REMARK 927      BINDING AFFINITY PREDICTED BY RF-SCORE:    0.00 PKD
ROOT
HETATM    1  C   UNL     1      -9.728  12.772  67.846  1.00  0.00    -0.217 C  
HETATM    2  O   UNL     1      -8.649  12.236  67.075  1.00  0.00    -0.183 OA 
HETATM    3  O   UNL     1      -6.579  11.156  65.970  1.00  0.00    -0.080 OA 
HETATM    4  C   UNL     1      -7.726  10.758  65.373  1.00  0.00     0.022 C  
HETATM    5  C   UNL     1     -11.176  12.267  67.537  1.00  0.00    -0.297 C  
HETATM    6  C   UNL     1      -8.906  11.419  66.008  1.00  0.00    -0.174 C  
HETATM    7  C   UNL     1     -11.361  11.757  66.081  1.00  0.00    -0.280 C  
HETATM    8  C   UNL     1     -10.121  11.183  65.512  1.00  0.00    -0.309 C  
HETATM    9  O   UNL     1      -7.778   9.940  64.468  1.00  0.00    -0.132 OA 
ENDROOT
BRANCH   1  10
HETATM   10  C   UNL     1      -9.680  14.327  67.863  1.00  0.00    -0.222 C  
HETATM   11  O   UNL     1     -10.982  14.895  68.094  1.00  0.00    -0.256 OA 
HETATM   12  H   UNL     1     -10.953  15.845  68.105  1.00  0.00     0.000 HD 
BRANCH  10  13
HETATM   13  C   UNL     1      -9.079  14.984  66.590  1.00  0.00    -0.280 C  
HETATM   14  H   UNL     1      -7.451  16.017  66.099  1.00  0.00     0.000 HD 
HETATM   15  O   UNL     1      -7.819  15.615  66.877  1.00  0.00    -0.221 OA 
BRANCH  13  16
HETATM   16  C   UNL     1     -10.011  16.029  65.949  1.00  0.00    -0.352 C  
HETATM   17  O   UNL     1     -10.448  15.631  64.645  1.00  0.00    -0.624 OA 
HETATM   18  H   UNL     1     -11.024  16.275  64.250  1.00  0.00     0.000 HD 
ENDBRANCH  13  16
ENDBRANCH  10  13
ENDBRANCH   1  10
BRANCH   7  19
HETATM   19  N   UNL     1     -11.811  12.865  65.232  1.00  0.00    -0.367 NA 
HETATM   20  H2  UNL     1     -11.898  10.666  63.818  1.00  0.00     0.000 HD 
HETATM   21  H   UNL     1     -11.819  13.818  65.596  1.00  0.00     0.000 HD 
HETATM   22  C   UNL     1     -12.193  12.631  64.032  1.00  0.00    -0.463 C  
HETATM   23  H1  UNL     1     -12.943  13.456  62.301  1.00  0.00     0.000 HD 
HETATM   24  N   UNL     1     -12.232  11.488  63.315  1.00  0.00    -0.878 NA 
HETATM   25  H2  UNL     1     -12.671  14.593  63.625  1.00  0.00     0.000 HD 
HETATM   26  N   UNL     1     -12.639  13.644  63.256  1.00  0.00    -0.755 NA 
HETATM   27  H1  UNL     1     -12.536  11.301  62.360  1.00  0.00     0.000 HD 
ENDBRANCH   7  19
BRANCH   5  28
HETATM   28  N   UNL     1     -11.631  11.237  68.504  1.00  0.00    -0.300 N  
HETATM   29  C   UNL     1     -12.155  11.592  69.732  1.00  0.00    -0.306 C  
HETATM   30  H   UNL     1     -11.556  10.250  68.257  1.00  0.00     0.000 HD 
HETATM   31  C   UNL     1     -12.735  10.430  70.489  1.00  0.00    -0.355 C  
HETATM   32  O   UNL     1     -12.170  12.739  70.161  1.00  0.00    -0.312 OA 
ENDBRANCH   5  28
TORSDOF 5
ENDMDL
MODEL       58
REMARK 921   NORMALIZED FREE ENERGY PREDICTED BY IDOCK:   -5.35 KCAL/MOL
REMARK 922        TOTAL FREE ENERGY PREDICTED BY IDOCK:   -8.50 KCAL/MOL
REMARK 923 INTER-LIGAND FREE ENERGY PREDICTED BY IDOCK:   -6.86 KCAL/MOL
REMARK 924 INTRA-LIGAND FREE ENERGY PREDICTED BY IDOCK:   -1.64 KCAL/MOL
REMARK 927      BINDING AFFINITY PREDICTED BY RF-SCORE:    0.00 PKD
ROOT
HETATM    1  C   UNL     1     -10.190  11.723  66.599  1.00  0.00    -0.210 C  
HETATM    2  O   UNL     1      -8.816  11.590  66.975  1.00  0.00    -0.162 OA 
HETATM    3  O   UNL     1      -6.273  11.310  67.333  1.00  0.00    -0.059 OA 
HETATM    4  C   UNL     1      -6.739  12.430  67.931  1.00  0.00    -0.100 C  
HETATM    5  C   UNL     1     -10.919  13.064  66.938  1.00  0.00    -0.265 C  
HETATM    6  C   UNL     1      -8.216  12.554  67.737  1.00  0.00    -0.166 C  
HETATM    7  C   UNL     1     -10.309  13.816  68.152  1.00  0.00    -0.252 C  
HETATM    8  C   UNL     1      -8.856  13.577  68.305  1.00  0.00    -0.179 C  
HETATM    9  O   UNL     1      -6.033  13.241  68.510  1.00  0.00    -0.073 OA 
ENDROOT
BRANCH   1  10
HETATM   10  C   UNL     1     -11.022  10.504  67.091  1.00  0.00    -0.228 C  
HETATM   11  O   UNL     1     -12.007  10.893  68.065  1.00  0.00    -0.744 OA 
HETATM   12  H   UNL     1     -12.515  10.149  68.365  1.00  0.00     0.000 HD 
BRANCH  10  13
HETATM   13  C   UNL     1     -10.191   9.330  67.678  1.00  0.00    -0.230 C  
HETATM   14  H   UNL     1     -10.039   7.364  67.418  1.00  0.00     0.000 HD 
HETATM   15  O   UNL     1     -10.546   8.082  67.059  1.00  0.00    -0.335 OA 
BRANCH  13  16
HETATM   16  C   UNL     1     -10.349   9.179  69.203  1.00  0.00    -0.212 C  
HETATM   17  O   UNL     1      -9.963  10.367  69.903  1.00  0.00    -0.388 OA 
HETATM   18  H   UNL     1     -10.061  10.274  70.844  1.00  0.00     0.000 HD 
ENDBRANCH  13  16
ENDBRANCH  10  13
ENDBRANCH   1  10
BRANCH   7  19
HETATM   19  N   UNL     1     -10.995  13.396  69.379  1.00  0.00    -0.440 NA 
HETATM   20  H2  UNL     1     -12.111  15.607  68.536  1.00  0.00     0.000 HD 
HETATM   21  H   UNL     1     -10.684  12.564  69.881  1.00  0.00     0.000 HD 
HETATM   22  C   UNL     1     -11.988  14.078  69.817  1.00  0.00    -0.334 C  
HETATM   23  H1  UNL     1     -13.434  14.220  71.276  1.00  0.00     0.000 HD 
HETATM   24  N   UNL     1     -12.552  15.219  69.370  1.00  0.00    -0.599 NA 
HETATM   25  H2  UNL     1     -12.349  12.833  71.418  1.00  0.00     0.000 HD 
HETATM   26  N   UNL     1     -12.644  13.677  70.928  1.00  0.00    -0.353 NA 
HETATM   27  H1  UNL     1     -13.343  15.762  69.718  1.00  0.00     0.000 HD 
ENDBRANCH   7  19
BRANCH   5  28
HETATM   28  N   UNL     1     -11.009  13.969  65.765  1.00  0.00    -0.291 N  
HETATM   29  C   UNL     1     -12.219  14.228  65.153  1.00  0.00    -0.421 C  
HETATM   30  H   UNL     1     -10.160  14.407  65.405  1.00  0.00     0.000 HD 
HETATM   31  C   UNL     1     -12.139  15.309  64.111  1.00  0.00    -0.146 C  
HETATM   32  O   UNL     1     -13.264  13.655  65.437  1.00  0.00    -0.678 OA 
ENDBRANCH   5  28
TORSDOF 5
ENDMDL
MODEL       59
REMARK 921   NORMALIZED FREE ENERGY PREDICTED BY IDOCK:   -5.31 KCAL/MOL
REMARK 922        TOTAL FREE ENERGY PREDICTED BY IDOCK:   -8.45 KCAL/MOL
REMARK 923 INTER-LIGAND FREE ENERGY PREDICTED BY IDOCK:   -7.03 KCAL/MOL
REMARK 924 INTRA-LIGAND FREE ENERGY PREDICTED BY IDOCK:   -1.42 KCAL/MOL
REMARK 927      BINDING AFFINITY PREDICTED BY RF-SCORE:    0.00 PKD
ROOT
HETATM    1  C   UNL     1     -10.229  10.414  68.804  1.00  0.00    -0.187 C  
HETATM    2  O   UNL     1      -9.139   9.735  69.434  1.00  0.00    -0.173 OA 
HETATM    3  O   UNL     1      -6.982   8.763  70.472  1.00  0.00    -0.039 OA 
HETATM    4  C   UNL     1      -7.993   8.803  71.371  1.00  0.00    -0.133 C  
HETATM    5  C   UNL     1     -11.447  10.832  69.692  1.00  0.00    -0.305 C  
HETATM    6  C   UNL     1      -9.237   9.339  70.739  1.00  0.00    -0.253 C  
HETATM    7  C   UNL     1     -11.631   9.945  70.955  1.00  0.00    -0.389 C  
HETATM    8  C   UNL     1     -10.353   9.402  71.467  1.00  0.00    -0.265 C  
HETATM    9  O   UNL     1      -7.879   8.482  72.543  1.00  0.00    -0.271 OA 
ENDROOT
BRANCH   1  10
HETATM   10  C   UNL     1     -10.708   9.645  67.540  1.00  0.00    -0.256 C  
HETATM   11  O   UNL     1     -11.140   8.311  67.863  1.00  0.00    -0.469 OA 
HETATM   12  H   UNL     1     -11.433   7.841  67.091  1.00  0.00     0.000 HD 
BRANCH  10  13
HETATM   13  C   UNL     1      -9.671   9.558  66.386  1.00  0.00    -0.232 C  
HETATM   14  H   UNL     1      -9.613   9.927  64.433  1.00  0.00     0.000 HD 
HETATM   15  O   UNL     1     -10.247   9.981  65.138  1.00  0.00    -0.288 OA 
BRANCH  13  16
HETATM   16  C   UNL     1      -9.090   8.144  66.199  1.00  0.00    -0.183 C  
HETATM   17  O   UNL     1      -8.298   7.737  67.321  1.00  0.00    -0.116 OA 
HETATM   18  H   UNL     1      -7.940   6.865  67.206  1.00  0.00     0.000 HD 
ENDBRANCH  13  16
ENDBRANCH  10  13
ENDBRANCH   1  10
BRANCH   7  19
HETATM   19  N   UNL     1     -12.533   8.832  70.640  1.00  0.00    -0.470 NA 
HETATM   20  H2  UNL     1     -12.923   9.516  73.134  1.00  0.00     0.000 HD 
HETATM   21  H   UNL     1     -12.509   8.400  69.716  1.00  0.00     0.000 HD 
HETATM   22  C   UNL     1     -13.350   8.404  71.530  1.00  0.00    -0.286 C  
HETATM   23  H1  UNL     1     -14.855   7.061  71.942  1.00  0.00     0.000 HD 
HETATM   24  N   UNL     1     -13.539   8.768  72.815  1.00  0.00    -0.797 NA 
HETATM   25  H2  UNL     1     -14.199   6.984  70.303  1.00  0.00     0.000 HD 
HETATM   26  N   UNL     1     -14.204   7.400  71.233  1.00  0.00    -0.360 NA 
HETATM   27  H1  UNL     1     -14.189   8.428  73.523  1.00  0.00     0.000 HD 
ENDBRANCH   7  19
BRANCH   5  28
HETATM   28  N   UNL     1     -11.401  12.265  70.073  1.00  0.00    -0.513 N  
HETATM   29  C   UNL     1     -11.769  13.254  69.182  1.00  0.00    -0.329 C  
HETATM   30  H   UNL     1     -11.093  12.525  71.011  1.00  0.00     0.000 HD 
HETATM   31  C   UNL     1     -11.841  14.620  69.805  1.00  0.00    -0.366 C  
HETATM   32  O   UNL     1     -12.034  13.046  68.004  1.00  0.00    -0.350 OA 
ENDBRANCH   5  28
TORSDOF 5
ENDMDL
MODEL       60
REMARK 921   NORMALIZED FREE ENERGY PREDICTED BY IDOCK:   -5.28 KCAL/MOL
REMARK 922        TOTAL FREE ENERGY PREDICTED BY IDOCK:   -8.42 KCAL/MOL
REMARK 923 INTER-LIGAND FREE ENERGY PREDICTED BY IDOCK:   -7.34 KCAL/MOL
REMARK 924 INTRA-LIGAND FREE ENERGY PREDICTED BY IDOCK:   -1.09 KCAL/MOL
REMARK 927      BINDING AFFINITY PREDICTED BY RF-SCORE:    0.00 PKD
ROOT
HETATM    1  C   UNL     1     -11.179  10.673  67.635  1.00  0.00    -0.290 C  
HETATM    2  O   UNL     1     -11.748  11.283  66.472  1.00  0.00    -0.323 OA 
HETATM    3  O   UNL     1     -13.012  12.154  64.394  1.00  0.00    -0.680 OA 
HETATM    4  C   UNL     1     -12.768  13.146  65.280  1.00  0.00    -0.394 C  
HETATM    5  C   UNL     1     -11.029  11.546  68.924  1.00  0.00    -0.229 C  
HETATM    6  C   UNL     1     -12.010  12.626  66.458  1.00  0.00    -0.331 C  
HETATM    7  C   UNL     1     -10.913  13.068  68.637  1.00  0.00    -0.265 C  
HETATM    8  C   UNL     1     -11.637  13.478  67.413  1.00  0.00    -0.392 C  
HETATM    9  O   UNL     1     -13.157  14.296  65.144  1.00  0.00    -0.704 OA 
ENDROOT
BRANCH   1  10
HETATM   10  C   UNL     1      -9.839   9.964  67.292  1.00  0.00    -0.182 C  
HETATM   11  O   UNL     1      -9.891   9.328  66.002  1.00  0.00    -0.277 OA 
HETATM   12  H   UNL     1      -9.072   8.894  65.792  1.00  0.00     0.000 HD 
BRANCH  10  13
HETATM   13  C   UNL     1      -9.359   8.916  68.334  1.00  0.00    -0.136 C  
HETATM   14  H   UNL     1      -7.690   7.919  68.753  1.00  0.00     0.000 HD 
HETATM   15  O   UNL     1      -7.983   8.559  68.116  1.00  0.00    -0.108 OA 
BRANCH  13  16
HETATM   16  C   UNL     1     -10.202   7.627  68.331  1.00  0.00    -0.198 C  
HETATM   17  O   UNL     1     -11.172   7.617  69.384  1.00  0.00    -0.449 OA 
HETATM   18  H   UNL     1     -11.692   6.823  69.382  1.00  0.00     0.000 HD 
ENDBRANCH  13  16
ENDBRANCH  10  13
ENDBRANCH   1  10
BRANCH   7  19
HETATM   19  N   UNL     1      -9.498  13.430  68.501  1.00  0.00    -0.356 NA 
HETATM   20  H2  UNL     1     -10.667  15.248  69.975  1.00  0.00     0.000 HD 
HETATM   21  H   UNL     1      -8.875  12.857  67.932  1.00  0.00     0.000 HD 
HETATM   22  C   UNL     1      -9.048  14.470  69.100  1.00  0.00     0.029 C  
HETATM   23  H1  UNL     1      -7.380  15.617  69.480  1.00  0.00     0.000 HD 
HETATM   24  N   UNL     1      -9.665  15.400  69.858  1.00  0.00    -0.438 NA 
HETATM   25  H2  UNL     1      -7.109  14.204  68.455  1.00  0.00     0.000 HD 
HETATM   26  N   UNL     1      -7.738  14.789  69.003  1.00  0.00    -0.139 NA 
HETATM   27  H1  UNL     1      -9.307  16.227  70.335  1.00  0.00     0.000 HD 
ENDBRANCH   7  19
BRANCH   5  28
HETATM   28  N   UNL     1     -12.111  11.290  69.907  1.00  0.00    -0.332 N  
HETATM   29  C   UNL     1     -11.893  10.502  71.021  1.00  0.00    -0.340 C  
HETATM   30  H   UNL     1     -13.032  11.703  69.758  1.00  0.00     0.000 HD 
HETATM   31  C   UNL     1     -13.040  10.515  71.992  1.00  0.00    -0.511 C  
HETATM   32  O   UNL     1     -10.862   9.869  71.217  1.00  0.00    -0.289 OA 
ENDBRANCH   5  28
TORSDOF 5
ENDMDL
MODEL       61
REMARK 921   NORMALIZED FREE ENERGY PREDICTED BY IDOCK:   -5.25 KCAL/MOL
REMARK 922        TOTAL FREE ENERGY PREDICTED BY IDOCK:   -8.37 KCAL/MOL
REMARK 923 INTER-LIGAND FREE ENERGY PREDICTED BY IDOCK:   -7.14 KCAL/MOL
REMARK 924 INTRA-LIGAND FREE ENERGY PREDICTED BY IDOCK:   -1.24 KCAL/MOL
REMARK 927      BINDING AFFINITY PREDICTED BY RF-SCORE:    0.00 PKD
ROOT
HETATM    1  C   UNL     1     -11.453  12.867  67.931  1.00  0.00    -0.318 C  
HETATM    2  O   UNL     1     -10.644  11.961  68.687  1.00  0.00    -0.223 OA 
HETATM    3  O   UNL     1      -9.384  10.087  69.941  1.00  0.00    -0.220 OA 
HETATM    4  C   UNL     1      -8.542  10.839  69.195  1.00  0.00    -0.088 C  
HETATM    5  C   UNL     1     -10.769  13.689  66.791  1.00  0.00    -0.272 C  
HETATM    6  C   UNL     1      -9.288  11.935  68.505  1.00  0.00    -0.140 C  
HETATM    7  C   UNL     1      -9.247  13.912  67.010  1.00  0.00    -0.250 C  
HETATM    8  C   UNL     1      -8.608  12.810  67.763  1.00  0.00    -0.184 C  
HETATM    9  O   UNL     1      -7.347  10.617  69.079  1.00  0.00    -0.088 OA 
ENDROOT
BRANCH   1  10
HETATM   10  C   UNL     1     -12.268  13.801  68.871  1.00  0.00    -0.200 C  
HETATM   11  O   UNL     1     -12.398  15.124  68.321  1.00  0.00    -0.538 OA 
HETATM   12  H   UNL     1     -12.895  15.695  68.895  1.00  0.00     0.000 HD 
BRANCH  10  13
HETATM   13  C   UNL     1     -11.718  13.925  70.319  1.00  0.00    -0.223 C  
HETATM   14  H   UNL     1     -12.270  13.385  72.152  1.00  0.00     0.000 HD 
HETATM   15  O   UNL     1     -12.607  13.308  71.267  1.00  0.00    -0.358 OA 
BRANCH  13  16
HETATM   16  C   UNL     1     -11.479  15.384  70.754  1.00  0.00    -0.355 C  
HETATM   17  O   UNL     1     -12.691  16.025  71.168  1.00  0.00    -0.552 OA 
HETATM   18  H   UNL     1     -12.543  16.925  71.437  1.00  0.00     0.000 HD 
ENDBRANCH  13  16
ENDBRANCH  10  13
ENDBRANCH   1  10
BRANCH   7  19
HETATM   19  N   UNL     1      -9.039  15.171  67.734  1.00  0.00    -0.178 NA 
HETATM   20  H2  UNL     1      -9.235  15.719  65.183  1.00  0.00     0.000 HD 
HETATM   21  H   UNL     1      -8.907  15.164  68.745  1.00  0.00     0.000 HD 
HETATM   22  C   UNL     1      -9.024  16.279  67.090  1.00  0.00    -0.195 C  
HETATM   23  H1  UNL     1      -8.853  18.325  67.243  1.00  0.00     0.000 HD 
HETATM   24  N   UNL     1      -9.126  16.545  65.771  1.00  0.00    -0.482 NA 
HETATM   25  H2  UNL     1      -8.757  17.441  68.770  1.00  0.00     0.000 HD 
HETATM   26  N   UNL     1      -8.864  17.443  67.756  1.00  0.00    -0.229 NA 
HETATM   27  H1  UNL     1      -9.114  17.427  65.258  1.00  0.00     0.000 HD 
ENDBRANCH   7  19
BRANCH   5  28
HETATM   28  N   UNL     1     -11.015  13.106  65.449  1.00  0.00    -0.276 N  
HETATM   29  C   UNL     1     -12.183  13.365  64.761  1.00  0.00    -0.409 C  
HETATM   30  H   UNL     1     -10.308  12.503  65.028  1.00  0.00     0.000 HD 
HETATM   31  C   UNL     1     -12.170  12.847  63.349  1.00  0.00    -0.574 C  
HETATM   32  O   UNL     1     -13.135  13.973  65.236  1.00  0.00    -0.782 OA 
ENDBRANCH   5  28
TORSDOF 5
ENDMDL
MODEL       62
REMARK 921   NORMALIZED FREE ENERGY PREDICTED BY IDOCK:   -5.17 KCAL/MOL
REMARK 922        TOTAL FREE ENERGY PREDICTED BY IDOCK:   -8.28 KCAL/MOL
REMARK 923 INTER-LIGAND FREE ENERGY PREDICTED BY IDOCK:   -7.33 KCAL/MOL
REMARK 924 INTRA-LIGAND FREE ENERGY PREDICTED BY IDOCK:   -0.95 KCAL/MOL
REMARK 927      BINDING AFFINITY PREDICTED BY RF-SCORE:    0.00 PKD
ROOT
HETATM    1  C   UNL     1     -10.315  13.586  65.989  1.00  0.00    -0.303 C  
HETATM    2  O   UNL     1     -10.171  12.193  66.284  1.00  0.00    -0.216 OA 
HETATM    3  O   UNL     1      -9.672   9.677  66.587  1.00  0.00    -0.182 OA 
HETATM    4  C   UNL     1      -9.644  10.335  67.769  1.00  0.00    -0.152 C  
HETATM    5  C   UNL     1     -10.066  14.612  67.143  1.00  0.00    -0.244 C  
HETATM    6  C   UNL     1      -9.966  11.781  67.573  1.00  0.00    -0.192 C  
HETATM    7  C   UNL     1     -10.312  14.028  68.561  1.00  0.00    -0.247 C  
HETATM    8  C   UNL     1     -10.034  12.577  68.641  1.00  0.00    -0.111 C  
HETATM    9  O   UNL     1      -9.353   9.815  68.835  1.00  0.00    -0.148 OA 
ENDROOT
BRANCH   1  10
HETATM   10  C   UNL     1     -11.674  13.867  65.287  1.00  0.00    -0.340 C  
HETATM   11  O   UNL     1     -12.788  13.475  66.109  1.00  0.00    -0.265 OA 
HETATM   12  H   UNL     1     -13.617  13.647  65.680  1.00  0.00     0.000 HD 
BRANCH  10  13
HETATM   13  C   UNL     1     -11.844  13.212  63.888  1.00  0.00    -0.472 C  
HETATM   14  H   UNL     1     -12.681  13.670  62.143  1.00  0.00     0.000 HD 
HETATM   15  O   UNL     1     -12.577  14.071  62.998  1.00  0.00    -0.643 OA 
BRANCH  13  16
HETATM   16  C   UNL     1     -12.554  11.846  63.941  1.00  0.00    -0.340 C  
HETATM   17  O   UNL     1     -13.003  11.424  62.648  1.00  0.00    -0.673 OA 
HETATM   18  H   UNL     1     -13.441  10.581  62.681  1.00  0.00     0.000 HD 
ENDBRANCH  13  16
ENDBRANCH  10  13
ENDBRANCH   1  10
BRANCH   7  19
HETATM   19  N   UNL     1     -11.705  14.272  68.952  1.00  0.00    -0.308 NA 
HETATM   20  H2  UNL     1     -10.166  14.932  70.962  1.00  0.00     0.000 HD 
HETATM   21  H   UNL     1     -12.464  14.046  68.309  1.00  0.00     0.000 HD 
HETATM   22  C   UNL     1     -11.964  14.770  70.104  1.00  0.00    -0.312 C  
HETATM   23  H1  UNL     1     -13.449  15.423  71.372  1.00  0.00     0.000 HD 
HETATM   24  N   UNL     1     -11.157  15.105  71.132  1.00  0.00    -0.539 NA 
HETATM   25  H2  UNL     1     -14.002  14.824  69.805  1.00  0.00     0.000 HD 
HETATM   26  N   UNL     1     -13.243  15.026  70.455  1.00  0.00    -0.274 NA 
HETATM   27  H1  UNL     1     -11.363  15.502  72.049  1.00  0.00     0.000 HD 
ENDBRANCH   7  19
BRANCH   5  28
HETATM   28  N   UNL     1      -8.718  15.228  67.068  1.00  0.00    -0.216 N  
HETATM   29  C   UNL     1      -8.505  16.401  66.371  1.00  0.00    -0.329 C  
HETATM   30  H   UNL     1      -7.933  14.776  67.539  1.00  0.00     0.000 HD 
HETATM   31  C   UNL     1      -7.127  16.968  66.567  1.00  0.00    -0.307 C  
HETATM   32  O   UNL     1      -9.355  16.945  65.676  1.00  0.00    -0.519 OA 
ENDBRANCH   5  28
TORSDOF 5
ENDMDL
MODEL       63
REMARK 921   NORMALIZED FREE ENERGY PREDICTED BY IDOCK:   -5.13 KCAL/MOL
REMARK 922        TOTAL FREE ENERGY PREDICTED BY IDOCK:   -8.22 KCAL/MOL
REMARK 923 INTER-LIGAND FREE ENERGY PREDICTED BY IDOCK:   -6.74 KCAL/MOL
REMARK 924 INTRA-LIGAND FREE ENERGY PREDICTED BY IDOCK:   -1.48 KCAL/MOL
REMARK 927      BINDING AFFINITY PREDICTED BY RF-SCORE:    0.00 PKD
ROOT
HETATM    1  C   UNL     1     -10.601  12.064  67.726  1.00  0.00    -0.207 C  
HETATM    2  O   UNL     1     -11.559  12.555  66.782  1.00  0.00    -0.342 OA 
HETATM    3  O   UNL     1     -13.205  13.742  65.185  1.00  0.00    -0.757 OA 
HETATM    4  C   UNL     1     -12.406  12.876  64.521  1.00  0.00    -0.417 C  
HETATM    5  C   UNL     1      -9.390  11.237  67.183  1.00  0.00    -0.163 C  
HETATM    6  C   UNL     1     -11.484  12.179  65.469  1.00  0.00    -0.343 C  
HETATM    7  C   UNL     1      -9.679  10.519  65.836  1.00  0.00    -0.217 C  
HETATM    8  C   UNL     1     -10.656  11.248  64.995  1.00  0.00    -0.353 C  
HETATM    9  O   UNL     1     -12.417  12.725  63.309  1.00  0.00    -0.665 OA 
ENDROOT
BRANCH   1  10
HETATM   10  C   UNL     1     -11.304  11.311  68.891  1.00  0.00    -0.275 C  
HETATM   11  O   UNL     1     -12.029  10.161  68.418  1.00  0.00    -0.623 OA 
HETATM   12  H   UNL     1     -12.458   9.701  69.130  1.00  0.00     0.000 HD 
BRANCH  10  13
HETATM   13  C   UNL     1     -12.267  12.175  69.752  1.00  0.00    -0.144 C  
HETATM   14  H   UNL     1     -12.304  14.009  70.522  1.00  0.00     0.000 HD 
HETATM   15  O   UNL     1     -11.715  13.481  69.995  1.00  0.00    -0.286 OA 
BRANCH  13  16
HETATM   16  C   UNL     1     -12.608  11.531  71.110  1.00  0.00    -0.359 C  
HETATM   17  O   UNL     1     -11.853  10.338  71.343  1.00  0.00    -0.355 OA 
HETATM   18  H   UNL     1     -12.063   9.941  72.180  1.00  0.00     0.000 HD 
ENDBRANCH  13  16
ENDBRANCH  10  13
ENDBRANCH   1  10
BRANCH   7  19
HETATM   19  N   UNL     1     -10.189   9.171  66.103  1.00  0.00    -0.305 NA 
HETATM   20  H2  UNL     1      -7.590   9.132  66.395  1.00  0.00     0.000 HD 
HETATM   21  H   UNL     1     -11.186   8.972  66.011  1.00  0.00     0.000 HD 
HETATM   22  C   UNL     1      -9.378   8.243  66.454  1.00  0.00    -0.213 C  
HETATM   23  H1  UNL     1      -9.202   6.268  67.012  1.00  0.00     0.000 HD 
HETATM   24  N   UNL     1      -8.037   8.238  66.600  1.00  0.00    -0.101 NA 
HETATM   25  H2  UNL     1     -10.846   6.812  66.664  1.00  0.00     0.000 HD 
HETATM   26  N   UNL     1      -9.848   7.006  66.733  1.00  0.00    -0.187 NA 
HETATM   27  H1  UNL     1      -7.391   7.500  66.879  1.00  0.00     0.000 HD 
ENDBRANCH   7  19
BRANCH   5  28
HETATM   28  N   UNL     1      -8.154  12.051  67.077  1.00  0.00    -0.189 N  
HETATM   29  C   UNL     1      -6.940  11.569  67.525  1.00  0.00    -0.102 C  
HETATM   30  H   UNL     1      -8.202  12.984  66.665  1.00  0.00     0.000 HD 
HETATM   31  C   UNL     1      -5.779  12.451  67.161  1.00  0.00    -0.063 C  
HETATM   32  O   UNL     1      -6.809  10.517  68.141  1.00  0.00    -0.070 OA 
ENDBRANCH   5  28
TORSDOF 5
ENDMDL
MODEL       64
REMARK 921   NORMALIZED FREE ENERGY PREDICTED BY IDOCK:   -5.09 KCAL/MOL
REMARK 922        TOTAL FREE ENERGY PREDICTED BY IDOCK:   -8.17 KCAL/MOL
REMARK 923 INTER-LIGAND FREE ENERGY PREDICTED BY IDOCK:   -7.17 KCAL/MOL
REMARK 924 INTRA-LIGAND FREE ENERGY PREDICTED BY IDOCK:   -1.00 KCAL/MOL
REMARK 927      BINDING AFFINITY PREDICTED BY RF-SCORE:    0.00 PKD
ROOT
HETATM    1  C   UNL     1     -11.223  11.500  68.166  1.00  0.00    -0.271 C  
HETATM    2  O   UNL     1      -9.881  11.175  68.541  1.00  0.00    -0.185 OA 
HETATM    3  O   UNL     1      -7.523  10.284  69.106  1.00  0.00    -0.085 OA 
HETATM    4  C   UNL     1      -7.463  11.414  68.365  1.00  0.00    -0.111 C  
HETATM    5  C   UNL     1     -11.438  12.617  67.094  1.00  0.00    -0.346 C  
HETATM    6  C   UNL     1      -8.837  11.928  68.077  1.00  0.00    -0.177 C  
HETATM    7  C   UNL     1     -10.279  13.650  67.028  1.00  0.00    -0.250 C  
HETATM    8  C   UNL     1      -8.970  13.067  67.398  1.00  0.00    -0.204 C  
HETATM    9  O   UNL     1      -6.425  11.912  67.959  1.00  0.00    -0.050 OA 
ENDROOT
BRANCH   1  10
HETATM   10  C   UNL     1     -12.102  11.765  69.421  1.00  0.00    -0.238 C  
HETATM   11  O   UNL     1     -11.489  12.720  70.306  1.00  0.00    -0.518 OA 
HETATM   12  H   UNL     1     -12.026  12.883  71.073  1.00  0.00     0.000 HD 
BRANCH  10  13
HETATM   13  C   UNL     1     -12.475  10.503  70.247  1.00  0.00    -0.271 C  
HETATM   14  H   UNL     1     -13.030  10.076  72.109  1.00  0.00     0.000 HD 
HETATM   15  O   UNL     1     -12.803  10.848  71.604  1.00  0.00    -0.429 OA 
BRANCH  13  16
HETATM   16  C   UNL     1     -11.357   9.443  70.272  1.00  0.00    -0.220 C  
HETATM   17  O   UNL     1     -10.186   9.913  70.948  1.00  0.00    -0.338 OA 
HETATM   18  H   UNL     1      -9.497   9.259  70.963  1.00  0.00     0.000 HD 
ENDBRANCH  13  16
ENDBRANCH  10  13
ENDBRANCH   1  10
BRANCH   7  19
HETATM   19  N   UNL     1     -10.576  14.771  67.927  1.00  0.00    -0.246 NA 
HETATM   20  H2  UNL     1      -9.853  15.751  65.612  1.00  0.00     0.000 HD 
HETATM   21  H   UNL     1     -10.848  14.594  68.894  1.00  0.00     0.000 HD 
HETATM   22  C   UNL     1     -10.492  15.973  67.492  1.00  0.00    -0.297 C  
HETATM   23  H1  UNL     1     -10.729  17.965  67.960  1.00  0.00     0.000 HD 
HETATM   24  N   UNL     1     -10.116  16.464  66.293  1.00  0.00    -0.313 NA 
HETATM   25  H2  UNL     1     -11.091  16.832  69.267  1.00  0.00     0.000 HD 
HETATM   26  N   UNL     1     -10.796  17.008  68.307  1.00  0.00    -0.370 NA 
HETATM   27  H1  UNL     1     -10.050  17.421  65.946  1.00  0.00     0.000 HD 
ENDBRANCH   7  19
BRANCH   5  28
HETATM   28  N   UNL     1     -11.706  12.060  65.745  1.00  0.00    -0.322 N  
HETATM   29  C   UNL     1     -12.509  12.729  64.842  1.00  0.00    -0.497 C  
HETATM   30  H   UNL     1     -11.291  11.167  65.480  1.00  0.00     0.000 HD 
HETATM   31  C   UNL     1     -12.508  12.110  63.472  1.00  0.00    -0.666 C  
HETATM   32  O   UNL     1     -13.145  13.741  65.113  1.00  0.00    -0.762 OA 
ENDBRANCH   5  28
TORSDOF 5
ENDMDL
MODEL       65
REMARK 921   NORMALIZED FREE ENERGY PREDICTED BY IDOCK:   -5.07 KCAL/MOL
REMARK 922        TOTAL FREE ENERGY PREDICTED BY IDOCK:   -8.14 KCAL/MOL
REMARK 923 INTER-LIGAND FREE ENERGY PREDICTED BY IDOCK:   -7.46 KCAL/MOL
REMARK 924 INTRA-LIGAND FREE ENERGY PREDICTED BY IDOCK:   -0.68 KCAL/MOL
REMARK 927      BINDING AFFINITY PREDICTED BY RF-SCORE:    0.00 PKD
ROOT
HETATM    1  C   UNL     1     -11.668  11.983  68.122  1.00  0.00    -0.333 C  
HETATM    2  O   UNL     1     -12.141  11.956  66.772  1.00  0.00    -0.593 OA 
HETATM    3  O   UNL     1     -13.234  12.111  64.437  1.00  0.00    -0.758 OA 
HETATM    4  C   UNL     1     -11.911  12.390  64.386  1.00  0.00    -0.407 C  
HETATM    5  C   UNL     1     -10.228  12.530  68.387  1.00  0.00    -0.228 C  
HETATM    6  C   UNL     1     -11.295  12.264  65.742  1.00  0.00    -0.355 C  
HETATM    7  C   UNL     1      -9.272  12.386  67.170  1.00  0.00    -0.199 C  
HETATM    8  C   UNL     1      -9.982  12.454  65.873  1.00  0.00    -0.271 C  
HETATM    9  O   UNL     1     -11.324  12.737  63.373  1.00  0.00    -0.472 OA 
ENDROOT
BRANCH   1  10
HETATM   10  C   UNL     1     -11.867  10.601  68.808  1.00  0.00    -0.107 C  
HETATM   11  O   UNL     1     -13.121  10.533  69.510  1.00  0.00    -0.545 OA 
HETATM   12  H   UNL     1     -13.243   9.689  69.929  1.00  0.00     0.000 HD 
BRANCH  10  13
HETATM   13  C   UNL     1     -10.736  10.179  69.786  1.00  0.00    -0.279 C  
HETATM   14  H   UNL     1      -9.142   8.989  69.763  1.00  0.00     0.000 HD 
HETATM   15  O   UNL     1      -9.834   9.247  69.165  1.00  0.00    -0.159 OA 
BRANCH  13  16
HETATM   16  C   UNL     1     -11.264   9.550  71.089  1.00  0.00    -0.376 C  
HETATM   17  O   UNL     1     -12.063   8.388  70.839  1.00  0.00    -0.429 OA 
HETATM   18  H   UNL     1     -12.388   8.000  71.642  1.00  0.00     0.000 HD 
ENDBRANCH  13  16
ENDBRANCH  10  13
ENDBRANCH   1  10
BRANCH   7  19
HETATM   19  N   UNL     1      -8.559  11.108  67.260  1.00  0.00    -0.137 NA 
HETATM   20  H2  UNL     1      -6.881  12.919  66.395  1.00  0.00     0.000 HD 
HETATM   21  H   UNL     1      -9.054  10.265  67.552  1.00  0.00     0.000 HD 
HETATM   22  C   UNL     1      -7.311  11.055  66.972  1.00  0.00    -0.123 C  
HETATM   23  H1  UNL     1      -5.649   9.845  66.855  1.00  0.00     0.000 HD 
HETATM   24  N   UNL     1      -6.458  12.000  66.525  1.00  0.00    -0.441 NA 
HETATM   25  H2  UNL     1      -7.129   9.048  67.399  1.00  0.00     0.000 HD 
HETATM   26  N   UNL     1      -6.642   9.886  67.085  1.00  0.00    -0.069 NA 
HETATM   27  H1  UNL     1      -5.465  11.958  66.296  1.00  0.00     0.000 HD 
ENDBRANCH   7  19
BRANCH   5  28
HETATM   28  N   UNL     1     -10.237  13.933  68.870  1.00  0.00    -0.384 N  
HETATM   29  C   UNL     1     -11.109  14.343  69.859  1.00  0.00    -0.121 C  
HETATM   30  H   UNL     1      -9.588  14.607  68.463  1.00  0.00     0.000 HD 
HETATM   31  C   UNL     1     -10.841  15.739  70.347  1.00  0.00    -0.345 C  
HETATM   32  O   UNL     1     -12.001  13.638  70.317  1.00  0.00    -0.325 OA 
ENDBRANCH   5  28
TORSDOF 5
ENDMDL
MODEL       66
REMARK 921   NORMALIZED FREE ENERGY PREDICTED BY IDOCK:   -5.05 KCAL/MOL
REMARK 922        TOTAL FREE ENERGY PREDICTED BY IDOCK:   -8.12 KCAL/MOL
REMARK 923 INTER-LIGAND FREE ENERGY PREDICTED BY IDOCK:   -7.12 KCAL/MOL
REMARK 924 INTRA-LIGAND FREE ENERGY PREDICTED BY IDOCK:   -1.00 KCAL/MOL
REMARK 927      BINDING AFFINITY PREDICTED BY RF-SCORE:    0.00 PKD
ROOT
HETATM    1  C   UNL     1     -11.449  13.525  68.139  1.00  0.00    -0.303 C  
HETATM    2  O   UNL     1     -11.907  12.857  69.319  1.00  0.00    -0.301 OA 
HETATM    3  O   UNL     1     -13.031  11.775  71.377  1.00  0.00    -0.398 OA 
HETATM    4  C   UNL     1     -12.346  10.864  70.649  1.00  0.00    -0.376 C  
HETATM    5  C   UNL     1     -10.842  12.656  66.989  1.00  0.00    -0.253 C  
HETATM    6  C   UNL     1     -11.679  11.518  69.482  1.00  0.00    -0.346 C  
HETATM    7  C   UNL     1     -10.234  11.312  67.478  1.00  0.00    -0.189 C  
HETATM    8  C   UNL     1     -10.915  10.778  68.679  1.00  0.00    -0.285 C  
HETATM    9  O   UNL     1     -12.319   9.669  70.898  1.00  0.00    -0.299 OA 
ENDROOT
BRANCH   1  10
HETATM   10  C   UNL     1     -10.498  14.702  68.500  1.00  0.00    -0.247 C  
HETATM   11  O   UNL     1     -10.611  15.068  69.887  1.00  0.00    -0.339 OA 
HETATM   12  H   UNL     1     -10.029  15.787  70.108  1.00  0.00     0.000 HD 
BRANCH  10  13
HETATM   13  C   UNL     1     -10.674  15.984  67.640  1.00  0.00    -0.320 C  
HETATM   14  H   UNL     1      -9.765  16.857  66.102  1.00  0.00     0.000 HD 
HETATM   15  O   UNL     1      -9.657  16.073  66.627  1.00  0.00    -0.218 OA 
BRANCH  13  16
HETATM   16  C   UNL     1     -10.649  17.280  68.471  1.00  0.00    -0.350 C  
HETATM   17  O   UNL     1      -9.709  18.230  67.957  1.00  0.00    -0.288 OA 
HETATM   18  H   UNL     1      -9.693  19.029  68.469  1.00  0.00     0.000 HD 
ENDBRANCH  13  16
ENDBRANCH  10  13
ENDBRANCH   1  10
BRANCH   7  19
HETATM   19  N   UNL     1      -8.812  11.503  67.778  1.00  0.00    -0.148 NA 
HETATM   20  H2  UNL     1      -9.049  11.025  65.216  1.00  0.00     0.000 HD 
HETATM   21  H   UNL     1      -8.508  11.671  68.737  1.00  0.00     0.000 HD 
HETATM   22  C   UNL     1      -7.951  11.458  66.829  1.00  0.00    -0.160 C  
HETATM   23  H1  UNL     1      -5.958  11.629  66.341  1.00  0.00     0.000 HD 
HETATM   24  N   UNL     1      -8.089  11.210  65.511  1.00  0.00    -0.368 NA 
HETATM   25  H2  UNL     1      -6.340  11.858  68.050  1.00  0.00     0.000 HD 
HETATM   26  N   UNL     1      -6.642  11.665  67.096  1.00  0.00    -0.121 NA 
HETATM   27  H1  UNL     1      -7.404  11.174  64.755  1.00  0.00     0.000 HD 
ENDBRANCH   7  19
BRANCH   5  28
HETATM   28  N   UNL     1     -11.813  12.413  65.894  1.00  0.00    -0.423 N  
HETATM   29  C   UNL     1     -11.443  12.538  64.570  1.00  0.00    -0.337 C  
HETATM   30  H   UNL     1     -12.772  12.149  66.124  1.00  0.00     0.000 HD 
HETATM   31  C   UNL     1     -12.500  12.068  63.609  1.00  0.00    -0.637 C  
HETATM   32  O   UNL     1     -10.356  12.967  64.203  1.00  0.00    -0.419 OA 
ENDBRANCH   5  28
TORSDOF 5
ENDMDL
MODEL       67
REMARK 921   NORMALIZED FREE ENERGY PREDICTED BY IDOCK:   -5.02 KCAL/MOL
REMARK 922        TOTAL FREE ENERGY PREDICTED BY IDOCK:   -8.08 KCAL/MOL
REMARK 923 INTER-LIGAND FREE ENERGY PREDICTED BY IDOCK:   -7.09 KCAL/MOL
REMARK 924 INTRA-LIGAND FREE ENERGY PREDICTED BY IDOCK:   -0.99 KCAL/MOL
REMARK 927      BINDING AFFINITY PREDICTED BY RF-SCORE:    0.00 PKD
ROOT
HETATM    1  C   UNL     1      -9.727  11.727  67.011  1.00  0.00    -0.185 C  
HETATM    2  O   UNL     1     -10.178  11.641  65.655  1.00  0.00    -0.224 OA 
HETATM    3  O   UNL     1     -10.941  11.162  63.235  1.00  0.00    -0.242 OA 
HETATM    4  C   UNL     1     -11.860  11.887  63.911  1.00  0.00    -0.411 C  
HETATM    5  C   UNL     1     -10.716  12.293  68.081  1.00  0.00    -0.216 C  
HETATM    6  C   UNL     1     -11.384  12.179  65.298  1.00  0.00    -0.336 C  
HETATM    7  C   UNL     1     -11.787  13.254  67.495  1.00  0.00    -0.358 C  
HETATM    8  C   UNL     1     -12.143  12.930  66.095  1.00  0.00    -0.458 C  
HETATM    9  O   UNL     1     -12.944  12.216  63.454  1.00  0.00    -0.776 OA 
ENDROOT
BRANCH   1  10
HETATM   10  C   UNL     1      -8.352  12.449  67.094  1.00  0.00    -0.181 C  
HETATM   11  O   UNL     1      -7.497  11.849  68.084  1.00  0.00    -0.086 OA 
HETATM   12  H   UNL     1      -6.657  12.290  68.135  1.00  0.00     0.000 HD 
BRANCH  10  13
HETATM   13  C   UNL     1      -8.423  13.977  67.372  1.00  0.00    -0.200 C  
HETATM   14  H   UNL     1      -8.835  15.637  66.357  1.00  0.00     0.000 HD 
HETATM   15  O   UNL     1      -8.791  14.703  66.187  1.00  0.00    -0.093 OA 
BRANCH  13  16
HETATM   16  C   UNL     1      -7.101  14.557  67.908  1.00  0.00    -0.157 C  
HETATM   17  O   UNL     1      -5.983  14.187  67.093  1.00  0.00    -0.287 OA 
HETATM   18  H   UNL     1      -5.168  14.546  67.423  1.00  0.00     0.000 HD 
ENDBRANCH  13  16
ENDBRANCH  10  13
ENDBRANCH   1  10
BRANCH   7  19
HETATM   19  N   UNL     1     -11.288  14.632  67.556  1.00  0.00    -0.333 NA 
HETATM   20  H2  UNL     1     -13.014  14.302  69.494  1.00  0.00     0.000 HD 
HETATM   21  H   UNL     1     -10.623  14.967  66.859  1.00  0.00     0.000 HD 
HETATM   22  C   UNL     1     -11.691  15.413  68.489  1.00  0.00    -0.338 C  
HETATM   23  H1  UNL     1     -11.532  17.294  69.311  1.00  0.00     0.000 HD 
HETATM   24  N   UNL     1     -12.584  15.228  69.483  1.00  0.00    -0.607 NA 
HETATM   25  H2  UNL     1     -10.527  17.003  67.887  1.00  0.00     0.000 HD 
HETATM   26  N   UNL     1     -11.210  16.673  68.568  1.00  0.00    -0.309 NA 
HETATM   27  H1  UNL     1     -12.906  15.849  70.225  1.00  0.00     0.000 HD 
ENDBRANCH   7  19
BRANCH   5  28
HETATM   28  N   UNL     1     -11.367  11.219  68.871  1.00  0.00    -0.247 N  
HETATM   29  C   UNL     1     -12.036  11.500  70.046  1.00  0.00    -0.331 C  
HETATM   30  H   UNL     1     -11.320  10.255  68.540  1.00  0.00     0.000 HD 
HETATM   31  C   UNL     1     -12.789  10.323  70.599  1.00  0.00    -0.362 C  
HETATM   32  O   UNL     1     -12.040  12.603  70.581  1.00  0.00    -0.357 OA 
ENDBRANCH   5  28
TORSDOF 5
ENDMDL
MODEL       68
REMARK 921   NORMALIZED FREE ENERGY PREDICTED BY IDOCK:   -5.01 KCAL/MOL
REMARK 922        TOTAL FREE ENERGY PREDICTED BY IDOCK:   -8.07 KCAL/MOL
REMARK 923 INTER-LIGAND FREE ENERGY PREDICTED BY IDOCK:   -6.20 KCAL/MOL
REMARK 924 INTRA-LIGAND FREE ENERGY PREDICTED BY IDOCK:   -1.87 KCAL/MOL
REMARK 927      BINDING AFFINITY PREDICTED BY RF-SCORE:    0.00 PKD
ROOT
HETATM    1  C   UNL     1     -10.860  11.810  66.387  1.00  0.00    -0.282 C  
HETATM    2  O   UNL     1     -10.581  13.087  66.969  1.00  0.00    -0.254 OA 
HETATM    3  O   UNL     1     -10.367  15.362  68.172  1.00  0.00    -0.234 OA 
HETATM    4  C   UNL     1      -9.273  14.592  68.368  1.00  0.00    -0.197 C  
HETATM    5  C   UNL     1      -9.872  10.634  66.683  1.00  0.00    -0.201 C  
HETATM    6  C   UNL     1      -9.406  13.295  67.637  1.00  0.00    -0.212 C  
HETATM    7  C   UNL     1      -8.429  11.102  67.018  1.00  0.00    -0.146 C  
HETATM    8  C   UNL     1      -8.394  12.428  67.676  1.00  0.00    -0.169 C  
HETATM    9  O   UNL     1      -8.332  14.908  69.079  1.00  0.00    -0.173 OA 
ENDROOT
BRANCH   1  10
HETATM   10  C   UNL     1     -11.120  11.940  64.859  1.00  0.00    -0.307 C  
HETATM   11  O   UNL     1      -9.997  12.529  64.179  1.00  0.00    -0.536 OA 
HETATM   12  H   UNL     1     -10.156  12.609  63.245  1.00  0.00     0.000 HD 
BRANCH  10  13
HETATM   13  C   UNL     1     -12.399  12.733  64.470  1.00  0.00    -0.445 C  
HETATM   14  H   UNL     1     -13.858  12.598  63.126  1.00  0.00     0.000 HD 
HETATM   15  O   UNL     1     -13.077  12.114  63.363  1.00  0.00    -0.752 OA 
BRANCH  13  16
HETATM   16  C   UNL     1     -12.114  14.202  64.106  1.00  0.00    -0.406 C  
HETATM   17  O   UNL     1     -11.563  14.931  65.208  1.00  0.00    -0.343 OA 
HETATM   18  H   UNL     1     -11.387  15.837  64.984  1.00  0.00     0.000 HD 
ENDBRANCH  13  16
ENDBRANCH  10  13
ENDBRANCH   1  10
BRANCH   7  19
HETATM   19  N   UNL     1      -7.637  11.157  65.785  1.00  0.00    -0.368 NA 
HETATM   20  H2  UNL     1      -7.421   8.750  66.786  1.00  0.00     0.000 HD 
HETATM   21  H   UNL     1      -7.569  12.029  65.258  1.00  0.00     0.000 HD 
HETATM   22  C   UNL     1      -7.032  10.107  65.370  1.00  0.00    -0.139 C  
HETATM   23  H1  UNL     1      -5.846   9.308  63.889  1.00  0.00     0.000 HD 
HETATM   24  N   UNL     1      -6.929   8.870  65.899  1.00  0.00    -0.079 NA 
HETATM   25  H2  UNL     1      -6.278  11.008  63.678  1.00  0.00     0.000 HD 
HETATM   26  N   UNL     1      -6.328  10.144  64.218  1.00  0.00    -0.132 NA 
HETATM   27  H1  UNL     1      -6.448   8.033  65.570  1.00  0.00     0.000 HD 
ENDBRANCH   7  19
BRANCH   5  28
HETATM   28  N   UNL     1     -10.377   9.726  67.742  1.00  0.00    -0.209 N  
HETATM   29  C   UNL     1     -10.171   8.363  67.673  1.00  0.00    -0.236 C  
HETATM   30  H   UNL     1     -10.886  10.117  68.536  1.00  0.00     0.000 HD 
HETATM   31  C   UNL     1     -10.583   7.634  68.921  1.00  0.00    -0.176 C  
HETATM   32  O   UNL     1      -9.682   7.795  66.703  1.00  0.00    -0.204 OA 
ENDBRANCH   5  28
TORSDOF 5
ENDMDL
MODEL       69
REMARK 921   NORMALIZED FREE ENERGY PREDICTED BY IDOCK:   -5.00 KCAL/MOL
REMARK 922        TOTAL FREE ENERGY PREDICTED BY IDOCK:   -8.05 KCAL/MOL
REMARK 923 INTER-LIGAND FREE ENERGY PREDICTED BY IDOCK:   -7.07 KCAL/MOL
REMARK 924 INTRA-LIGAND FREE ENERGY PREDICTED BY IDOCK:   -0.98 KCAL/MOL
REMARK 927      BINDING AFFINITY PREDICTED BY RF-SCORE:    0.00 PKD
ROOT
HETATM    1  C   UNL     1     -10.087   8.320  70.962  1.00  0.00    -0.191 C  
HETATM    2  O   UNL     1      -8.783   8.624  71.466  1.00  0.00    -0.170 OA 
HETATM    3  O   UNL     1      -6.382   8.847  72.392  1.00  0.00    -0.181 OA 
HETATM    4  C   UNL     1      -6.552   9.582  71.269  1.00  0.00     0.027 C  
HETATM    5  C   UNL     1     -10.462   8.832  69.532  1.00  0.00    -0.220 C  
HETATM    6  C   UNL     1      -7.956   9.463  70.770  1.00  0.00    -0.116 C  
HETATM    7  C   UNL     1      -9.671  10.096  69.096  1.00  0.00    -0.215 C  
HETATM    8  C   UNL     1      -8.319  10.163  69.695  1.00  0.00    -0.174 C  
HETATM    9  O   UNL     1      -5.662  10.217  70.726  1.00  0.00    -0.078 OA 
ENDROOT
BRANCH   1  10
HETATM   10  C   UNL     1     -11.186   8.709  71.991  1.00  0.00    -0.364 C  
HETATM   11  O   UNL     1     -11.502   7.614  72.870  1.00  0.00    -0.510 OA 
HETATM   12  H   UNL     1     -12.173   7.852  73.499  1.00  0.00     0.000 HD 
BRANCH  10  13
HETATM   13  C   UNL     1     -12.511   9.240  71.376  1.00  0.00    -0.341 C  
HETATM   14  H   UNL     1     -13.472  10.975  71.232  1.00  0.00     0.000 HD 
HETATM   15  O   UNL     1     -12.662  10.651  71.608  1.00  0.00    -0.406 OA 
BRANCH  13  16
HETATM   16  C   UNL     1     -13.761   8.522  71.918  1.00  0.00    -0.415 C  
HETATM   17  O   UNL     1     -13.981   8.799  73.306  1.00  0.00    -1.160 OA 
HETATM   18  H   UNL     1     -14.752   8.356  73.640  1.00  0.00     0.000 HD 
ENDBRANCH  13  16
ENDBRANCH  10  13
ENDBRANCH   1  10
BRANCH   7  19
HETATM   19  N   UNL     1     -10.424  11.296  69.476  1.00  0.00    -0.442 NA 
HETATM   20  H2  UNL     1     -11.240  10.537  67.109  1.00  0.00     0.000 HD 
HETATM   21  H   UNL     1     -10.228  11.765  70.361  1.00  0.00     0.000 HD 
HETATM   22  C   UNL     1     -11.331  11.752  68.693  1.00  0.00    -0.270 C  
HETATM   23  H1  UNL     1     -12.770  13.201  68.431  1.00  0.00     0.000 HD 
HETATM   24  N   UNL     1     -11.740  11.349  67.473  1.00  0.00    -0.609 NA 
HETATM   25  H2  UNL     1     -11.871  13.294  69.948  1.00  0.00     0.000 HD 
HETATM   26  N   UNL     1     -12.049  12.838  69.054  1.00  0.00    -0.219 NA 
HETATM   27  H1  UNL     1     -12.461  11.712  66.849  1.00  0.00     0.000 HD 
ENDBRANCH   7  19
BRANCH   5  28
HETATM   28  N   UNL     1     -10.341   7.770  68.503  1.00  0.00    -0.201 N  
HETATM   29  C   UNL     1     -11.046   6.588  68.610  1.00  0.00    -0.270 C  
HETATM   30  H   UNL     1      -9.725   7.916  67.703  1.00  0.00     0.000 HD 
HETATM   31  C   UNL     1     -10.944   5.721  67.386  1.00  0.00    -0.164 C  
HETATM   32  O   UNL     1     -11.710   6.276  69.592  1.00  0.00    -0.382 OA 
ENDBRANCH   5  28
TORSDOF 5
ENDMDL
MODEL       70
REMARK 921   NORMALIZED FREE ENERGY PREDICTED BY IDOCK:   -4.98 KCAL/MOL
REMARK 922        TOTAL FREE ENERGY PREDICTED BY IDOCK:   -8.04 KCAL/MOL
REMARK 923 INTER-LIGAND FREE ENERGY PREDICTED BY IDOCK:   -6.67 KCAL/MOL
REMARK 924 INTRA-LIGAND FREE ENERGY PREDICTED BY IDOCK:   -1.37 KCAL/MOL
REMARK 927      BINDING AFFINITY PREDICTED BY RF-SCORE:    0.00 PKD
ROOT
HETATM    1  C   UNL     1     -10.356  10.810  66.039  1.00  0.00    -0.238 C  
HETATM    2  O   UNL     1     -11.050  11.472  64.976  1.00  0.00    -0.275 OA 
HETATM    3  O   UNL     1     -12.541  12.440  63.102  1.00  0.00    -0.591 OA 
HETATM    4  C   UNL     1     -12.168  13.395  63.984  1.00  0.00    -0.405 C  
HETATM    5  C   UNL     1     -10.028  11.633  67.327  1.00  0.00    -0.191 C  
HETATM    6  C   UNL     1     -11.281  12.818  65.040  1.00  0.00    -0.298 C  
HETATM    7  C   UNL     1      -9.914  13.162  67.079  1.00  0.00    -0.244 C  
HETATM    8  C   UNL     1     -10.774  13.629  65.969  1.00  0.00    -0.280 C  
HETATM    9  O   UNL     1     -12.544  14.556  63.935  1.00  0.00    -0.827 OA 
ENDROOT
BRANCH   1  10
HETATM   10  C   UNL     1      -9.085  10.089  65.508  1.00  0.00    -0.186 C  
HETATM   11  O   UNL     1      -9.358   8.720  65.160  1.00  0.00    -0.439 OA 
HETATM   12  H   UNL     1      -8.582   8.279  64.836  1.00  0.00     0.000 HD 
BRANCH  10  13
HETATM   13  C   UNL     1      -7.861  10.115  66.465  1.00  0.00    -0.112 C  
HETATM   14  H   UNL     1      -6.055  10.948  66.518  1.00  0.00     0.000 HD 
HETATM   15  O   UNL     1      -6.804  10.932  65.933  1.00  0.00    -0.113 OA 
BRANCH  13  16
HETATM   16  C   UNL     1      -7.292   8.715  66.760  1.00  0.00    -0.079 C  
HETATM   17  O   UNL     1      -6.526   8.204  65.662  1.00  0.00    -0.048 OA 
HETATM   18  H   UNL     1      -6.175   7.341  65.844  1.00  0.00     0.000 HD 
ENDBRANCH  13  16
ENDBRANCH  10  13
ENDBRANCH   1  10
BRANCH   7  19
HETATM   19  N   UNL     1      -8.519  13.503  66.780  1.00  0.00    -0.437 NA 
HETATM   20  H2  UNL     1      -8.909  13.837  69.346  1.00  0.00     0.000 HD 
HETATM   21  H   UNL     1      -8.177  13.466  65.820  1.00  0.00     0.000 HD 
HETATM   22  C   UNL     1      -7.732  13.848  67.731  1.00  0.00    -0.172 C  
HETATM   23  H1  UNL     1      -5.811  14.405  68.222  1.00  0.00     0.000 HD 
HETATM   24  N   UNL     1      -7.949  14.016  69.052  1.00  0.00    -0.326 NA 
HETATM   25  H2  UNL     1      -6.088  14.071  66.509  1.00  0.00     0.000 HD 
HETATM   26  N   UNL     1      -6.437  14.131  67.465  1.00  0.00    -0.310 NA 
HETATM   27  H1  UNL     1      -7.322  14.290  69.809  1.00  0.00     0.000 HD 
ENDBRANCH   7  19
BRANCH   5  28
HETATM   28  N   UNL     1     -10.986  11.361  68.428  1.00  0.00    -0.199 N  
HETATM   29  C   UNL     1     -10.651  10.528  69.477  1.00  0.00    -0.246 C  
HETATM   30  H   UNL     1     -11.908  11.799  68.410  1.00  0.00     0.000 HD 
HETATM   31  C   UNL     1     -11.668  10.526  70.584  1.00  0.00    -0.453 C  
HETATM   32  O   UNL     1      -9.620   9.866  69.521  1.00  0.00    -0.199 OA 
ENDBRANCH   5  28
TORSDOF 5
ENDMDL
MODEL       71
REMARK 921   NORMALIZED FREE ENERGY PREDICTED BY IDOCK:   -4.88 KCAL/MOL
REMARK 922        TOTAL FREE ENERGY PREDICTED BY IDOCK:   -7.90 KCAL/MOL
REMARK 923 INTER-LIGAND FREE ENERGY PREDICTED BY IDOCK:   -6.83 KCAL/MOL
REMARK 924 INTRA-LIGAND FREE ENERGY PREDICTED BY IDOCK:   -1.06 KCAL/MOL
REMARK 927      BINDING AFFINITY PREDICTED BY RF-SCORE:    0.00 PKD
ROOT
HETATM    1  C   UNL     1      -9.090  11.800  66.973  1.00  0.00    -0.187 C  
HETATM    2  O   UNL     1      -9.722  12.150  65.739  1.00  0.00    -0.245 OA 
HETATM    3  O   UNL     1     -10.695  12.532  63.376  1.00  0.00    -0.426 OA 
HETATM    4  C   UNL     1     -11.672  12.435  64.307  1.00  0.00    -0.380 C  
HETATM    5  C   UNL     1      -9.999  11.372  68.171  1.00  0.00    -0.189 C  
HETATM    6  C   UNL     1     -11.085  12.246  65.668  1.00  0.00    -0.317 C  
HETATM    7  C   UNL     1     -11.435  11.963  68.106  1.00  0.00    -0.320 C  
HETATM    8  C   UNL     1     -11.903  12.181  66.719  1.00  0.00    -0.304 C  
HETATM    9  O   UNL     1     -12.866  12.459  64.050  1.00  0.00    -0.717 OA 
ENDROOT
BRANCH   1  10
HETATM   10  C   UNL     1      -8.082  12.899  67.413  1.00  0.00    -0.181 C  
HETATM   11  O   UNL     1      -8.182  14.072  66.585  1.00  0.00    -0.384 OA 
HETATM   12  H   UNL     1      -7.567  14.744  66.854  1.00  0.00     0.000 HD 
BRANCH  10  13
HETATM   13  C   UNL     1      -6.593  12.455  67.452  1.00  0.00    -0.157 C  
HETATM   14  H   UNL     1      -4.806  13.280  67.167  1.00  0.00     0.000 HD 
HETATM   15  O   UNL     1      -5.715  13.552  67.144  1.00  0.00    -0.283 OA 
BRANCH  13  16
HETATM   16  C   UNL     1      -6.281  11.296  66.487  1.00  0.00    -0.130 C  
HETATM   17  O   UNL     1      -5.178  11.597  65.624  1.00  0.00    -0.478 OA 
HETATM   18  H   UNL     1      -4.986  10.882  65.029  1.00  0.00     0.000 HD 
ENDBRANCH  13  16
ENDBRANCH  10  13
ENDBRANCH   1  10
BRANCH   7  19
HETATM   19  N   UNL     1     -11.469  13.238  68.830  1.00  0.00    -0.283 NA 
HETATM   20  H2  UNL     1     -12.403  11.376  70.413  1.00  0.00     0.000 HD 
HETATM   21  H   UNL     1     -11.171  14.097  68.368  1.00  0.00     0.000 HD 
HETATM   22  C   UNL     1     -11.874  13.268  70.045  1.00  0.00    -0.295 C  
HETATM   23  H1  UNL     1     -12.198  14.459  71.694  1.00  0.00     0.000 HD 
HETATM   24  N   UNL     1     -12.354  12.297  70.849  1.00  0.00    -0.366 NA 
HETATM   25  H2  UNL     1     -11.556  15.291  70.274  1.00  0.00     0.000 HD 
HETATM   26  N   UNL     1     -11.876  14.435  70.726  1.00  0.00    -0.301 NA 
HETATM   27  H1  UNL     1     -12.676  12.321  71.817  1.00  0.00     0.000 HD 
ENDBRANCH   7  19
BRANCH   5  28
HETATM   28  N   UNL     1     -10.057   9.899  68.337  1.00  0.00    -0.161 N  
HETATM   29  C   UNL     1     -10.350   9.328  69.560  1.00  0.00    -0.216 C  
HETATM   30  H   UNL     1      -9.877   9.296  67.533  1.00  0.00     0.000 HD 
HETATM   31  C   UNL     1     -10.551   7.840  69.490  1.00  0.00    -0.221 C  
HETATM   32  O   UNL     1     -10.458   9.965  70.602  1.00  0.00    -0.292 OA 
ENDBRANCH   5  28
TORSDOF 5
ENDMDL
MODEL       72
REMARK 921   NORMALIZED FREE ENERGY PREDICTED BY IDOCK:   -4.88 KCAL/MOL
REMARK 922        TOTAL FREE ENERGY PREDICTED BY IDOCK:   -7.90 KCAL/MOL
REMARK 923 INTER-LIGAND FREE ENERGY PREDICTED BY IDOCK:   -6.76 KCAL/MOL
REMARK 924 INTRA-LIGAND FREE ENERGY PREDICTED BY IDOCK:   -1.14 KCAL/MOL
REMARK 927      BINDING AFFINITY PREDICTED BY RF-SCORE:    0.00 PKD
ROOT
HETATM    1  C   UNL     1     -10.045   9.587  68.803  1.00  0.00    -0.188 C  
HETATM    2  O   UNL     1     -10.979   9.413  69.874  1.00  0.00    -0.234 OA 
HETATM    3  O   UNL     1     -12.407   8.993  71.984  1.00  0.00    -0.350 OA 
HETATM    4  C   UNL     1     -12.587  10.244  71.503  1.00  0.00    -0.440 C  
HETATM    5  C   UNL     1      -9.851  11.026  68.223  1.00  0.00    -0.178 C  
HETATM    6  C   UNL     1     -11.776  10.454  70.266  1.00  0.00    -0.321 C  
HETATM    7  C   UNL     1     -11.088  11.947  68.410  1.00  0.00    -0.244 C  
HETATM    8  C   UNL     1     -11.869  11.619  69.624  1.00  0.00    -0.419 C  
HETATM    9  O   UNL     1     -13.287  11.089  72.040  1.00  0.00    -0.455 OA 
ENDROOT
BRANCH   1  10
HETATM   10  C   UNL     1     -10.312   8.564  67.662  1.00  0.00    -0.253 C  
HETATM   11  O   UNL     1     -10.936   7.366  68.158  1.00  0.00    -0.441 OA 
HETATM   12  H   UNL     1     -11.099   6.742  67.461  1.00  0.00     0.000 HD 
BRANCH  10  13
HETATM   13  C   UNL     1      -9.061   8.157  66.834  1.00  0.00    -0.154 C  
HETATM   14  H   UNL     1      -8.489   6.633  65.690  1.00  0.00     0.000 HD 
HETATM   15  O   UNL     1      -9.254   6.882  66.196  1.00  0.00    -0.152 OA 
BRANCH  13  16
HETATM   16  C   UNL     1      -7.772   8.091  67.674  1.00  0.00    -0.110 C  
HETATM   17  O   UNL     1      -6.867   9.153  67.352  1.00  0.00    -0.075 OA 
HETATM   18  H   UNL     1      -6.072   9.113  67.871  1.00  0.00     0.000 HD 
ENDBRANCH  13  16
ENDBRANCH  10  13
ENDBRANCH   1  10
BRANCH   7  19
HETATM   19  N   UNL     1     -11.959  11.835  67.235  1.00  0.00    -0.607 NA 
HETATM   20  H2  UNL     1     -10.631  14.082  67.056  1.00  0.00     0.000 HD 
HETATM   21  H   UNL     1     -12.585  11.036  67.135  1.00  0.00     0.000 HD 
HETATM   22  C   UNL     1     -11.930  12.746  66.334  1.00  0.00    -0.375 C  
HETATM   23  H1  UNL     1     -12.683  13.357  64.517  1.00  0.00     0.000 HD 
HETATM   24  N   UNL     1     -11.238  13.902  66.256  1.00  0.00    -0.305 NA 
HETATM   25  H2  UNL     1     -13.315  11.822  65.121  1.00  0.00     0.000 HD 
HETATM   26  N   UNL     1     -12.707  12.632  65.234  1.00  0.00    -0.656 NA 
HETATM   27  H1  UNL     1     -11.215  14.627  65.539  1.00  0.00     0.000 HD 
ENDBRANCH   7  19
BRANCH   5  28
HETATM   28  N   UNL     1      -8.633  11.688  68.752  1.00  0.00    -0.347 N  
HETATM   29  C   UNL     1      -8.091  12.794  68.128  1.00  0.00    -0.158 C  
HETATM   30  H   UNL     1      -8.188  11.318  69.593  1.00  0.00     0.000 HD 
HETATM   31  C   UNL     1      -6.981  13.436  68.912  1.00  0.00    -0.102 C  
HETATM   32  O   UNL     1      -8.484  13.230  67.052  1.00  0.00    -0.195 OA 
ENDBRANCH   5  28
TORSDOF 5
ENDMDL
MODEL       73
REMARK 921   NORMALIZED FREE ENERGY PREDICTED BY IDOCK:   -4.87 KCAL/MOL
REMARK 922        TOTAL FREE ENERGY PREDICTED BY IDOCK:   -7.88 KCAL/MOL
REMARK 923 INTER-LIGAND FREE ENERGY PREDICTED BY IDOCK:   -6.71 KCAL/MOL
REMARK 924 INTRA-LIGAND FREE ENERGY PREDICTED BY IDOCK:   -1.17 KCAL/MOL
REMARK 927      BINDING AFFINITY PREDICTED BY RF-SCORE:    0.00 PKD
ROOT
HETATM    1  C   UNL     1     -10.338  10.883  67.996  1.00  0.00    -0.185 C  
HETATM    2  O   UNL     1     -10.617  11.265  66.645  1.00  0.00    -0.241 OA 
HETATM    3  O   UNL     1     -11.197  11.638  64.156  1.00  0.00    -0.352 OA 
HETATM    4  C   UNL     1     -11.863  12.501  64.956  1.00  0.00    -0.396 C  
HETATM    5  C   UNL     1     -11.175  11.547  69.137  1.00  0.00    -0.274 C  
HETATM    6  C   UNL     1     -11.488  12.288  66.387  1.00  0.00    -0.378 C  
HETATM    7  C   UNL     1     -11.738  12.947  68.764  1.00  0.00    -0.323 C  
HETATM    8  C   UNL     1     -12.013  13.088  67.316  1.00  0.00    -0.379 C  
HETATM    9  O   UNL     1     -12.686  13.310  64.555  1.00  0.00    -0.639 OA 
ENDROOT
BRANCH   1  10
HETATM   10  C   UNL     1      -8.816  10.986  68.299  1.00  0.00    -0.144 C  
HETATM   11  O   UNL     1      -8.387  12.356  68.405  1.00  0.00    -0.167 OA 
HETATM   12  H   UNL     1      -7.458  12.418  68.590  1.00  0.00     0.000 HD 
BRANCH  10  13
HETATM   13  C   UNL     1      -7.888  10.261  67.284  1.00  0.00    -0.103 C  
HETATM   14  H   UNL     1      -7.855   8.533  66.300  1.00  0.00     0.000 HD 
HETATM   15  O   UNL     1      -8.422   8.976  66.920  1.00  0.00    -0.117 OA 
BRANCH  13  16
HETATM   16  C   UNL     1      -6.454  10.060  67.810  1.00  0.00    -0.066 C  
HETATM   17  O   UNL     1      -6.351  10.343  69.210  1.00  0.00    -0.044 OA 
HETATM   18  H   UNL     1      -5.467  10.219  69.534  1.00  0.00     0.000 HD 
ENDBRANCH  13  16
ENDBRANCH  10  13
ENDBRANCH   1  10
BRANCH   7  19
HETATM   19  N   UNL     1     -10.782  13.980  69.174  1.00  0.00    -0.366 NA 
HETATM   20  H2  UNL     1     -13.188  14.812  69.775  1.00  0.00     0.000 HD 
HETATM   21  H   UNL     1      -9.785  13.856  68.995  1.00  0.00     0.000 HD 
HETATM   22  C   UNL     1     -11.203  15.040  69.757  1.00  0.00    -0.277 C  
HETATM   23  H1  UNL     1     -10.658  16.824  70.630  1.00  0.00     0.000 HD 
HETATM   24  N   UNL     1     -12.450  15.456  70.061  1.00  0.00    -0.551 NA 
HETATM   25  H2  UNL     1      -9.324  15.847  70.009  1.00  0.00     0.000 HD 
HETATM   26  N   UNL     1     -10.322  15.981  70.165  1.00  0.00    -0.201 NA 
HETATM   27  H1  UNL     1     -12.786  16.299  70.526  1.00  0.00     0.000 HD 
ENDBRANCH   7  19
BRANCH   5  28
HETATM   28  N   UNL     1     -12.267  10.667  69.621  1.00  0.00    -0.514 N  
HETATM   29  C   UNL     1     -12.127   9.923  70.775  1.00  0.00    -0.308 C  
HETATM   30  H   UNL     1     -13.137  10.610  69.090  1.00  0.00     0.000 HD 
HETATM   31  C   UNL     1     -13.398   9.246  71.206  1.00  0.00    -0.322 C  
HETATM   32  O   UNL     1     -11.080   9.833  71.407  1.00  0.00    -0.359 OA 
ENDBRANCH   5  28
TORSDOF 5
ENDMDL
MODEL       74
REMARK 921   NORMALIZED FREE ENERGY PREDICTED BY IDOCK:   -4.86 KCAL/MOL
REMARK 922        TOTAL FREE ENERGY PREDICTED BY IDOCK:   -7.87 KCAL/MOL
REMARK 923 INTER-LIGAND FREE ENERGY PREDICTED BY IDOCK:   -6.49 KCAL/MOL
REMARK 924 INTRA-LIGAND FREE ENERGY PREDICTED BY IDOCK:   -1.38 KCAL/MOL
REMARK 927      BINDING AFFINITY PREDICTED BY RF-SCORE:    0.00 PKD
ROOT
HETATM    1  C   UNL     1     -11.702  11.106  68.392  1.00  0.00    -0.279 C  
HETATM    2  O   UNL     1     -11.255   9.799  68.016  1.00  0.00    -0.174 OA 
HETATM    3  O   UNL     1     -10.766   7.375  67.272  1.00  0.00    -0.303 OA 
HETATM    4  C   UNL     1      -9.984   8.263  66.617  1.00  0.00    -0.278 C  
HETATM    5  C   UNL     1     -11.146  12.331  67.597  1.00  0.00    -0.268 C  
HETATM    6  C   UNL     1     -10.262   9.654  67.086  1.00  0.00    -0.243 C  
HETATM    7  C   UNL     1      -9.755  12.078  66.951  1.00  0.00    -0.203 C  
HETATM    8  C   UNL     1      -9.543  10.659  66.584  1.00  0.00    -0.209 C  
HETATM    9  O   UNL     1      -9.193   7.960  65.737  1.00  0.00    -0.102 OA 
ENDROOT
BRANCH   1  10
HETATM   10  C   UNL     1     -11.545  11.327  69.924  1.00  0.00    -0.334 C  
HETATM   11  O   UNL     1     -10.389  10.644  70.443  1.00  0.00    -0.354 OA 
HETATM   12  H   UNL     1     -10.293  10.779  71.378  1.00  0.00     0.000 HD 
BRANCH  10  13
HETATM   13  C   UNL     1     -12.777  10.923  70.781  1.00  0.00    -0.340 C  
HETATM   14  H   UNL     1     -13.869  11.709  72.245  1.00  0.00     0.000 HD 
HETATM   15  O   UNL     1     -13.116  11.956  71.721  1.00  0.00    -0.451 OA 
BRANCH  13  16
HETATM   16  C   UNL     1     -12.571   9.608  71.556  1.00  0.00    -0.391 C  
HETATM   17  O   UNL     1     -12.355   8.496  70.679  1.00  0.00    -0.496 OA 
HETATM   18  H   UNL     1     -12.228   7.685  71.157  1.00  0.00     0.000 HD 
ENDBRANCH  13  16
ENDBRANCH  10  13
ENDBRANCH   1  10
BRANCH   7  19
HETATM   19  N   UNL     1      -8.703  12.494  67.884  1.00  0.00    -0.171 NA 
HETATM   20  H2  UNL     1      -8.933  14.335  66.039  1.00  0.00     0.000 HD 
HETATM   21  H   UNL     1      -8.441  11.890  68.663  1.00  0.00     0.000 HD 
HETATM   22  C   UNL     1      -8.115  13.620  67.717  1.00  0.00    -0.173 C  
HETATM   23  H1  UNL     1      -6.700  14.919  68.459  1.00  0.00     0.000 HD 
HETATM   24  N   UNL     1      -8.245  14.560  66.758  1.00  0.00    -0.386 NA 
HETATM   25  H2  UNL     1      -6.921  13.431  69.385  1.00  0.00     0.000 HD 
HETATM   26  N   UNL     1      -7.168  14.022  68.593  1.00  0.00    -0.109 NA 
HETATM   27  H1  UNL     1      -7.777  15.457  66.625  1.00  0.00     0.000 HD 
ENDBRANCH   7  19
BRANCH   5  28
HETATM   28  N   UNL     1     -12.104  12.822  66.576  1.00  0.00    -0.347 N  
HETATM   29  C   UNL     1     -11.949  14.062  65.987  1.00  0.00    -0.416 C  
HETATM   30  H   UNL     1     -12.892  12.233  66.303  1.00  0.00     0.000 HD 
HETATM   31  C   UNL     1     -12.900  14.303  64.848  1.00  0.00    -0.126 C  
HETATM   32  O   UNL     1     -11.110  14.883  66.338  1.00  0.00    -0.336 OA 
ENDBRANCH   5  28
TORSDOF 5
ENDMDL
MODEL       75
REMARK 921   NORMALIZED FREE ENERGY PREDICTED BY IDOCK:   -4.84 KCAL/MOL
REMARK 922        TOTAL FREE ENERGY PREDICTED BY IDOCK:   -7.85 KCAL/MOL
REMARK 923 INTER-LIGAND FREE ENERGY PREDICTED BY IDOCK:   -6.13 KCAL/MOL
REMARK 924 INTRA-LIGAND FREE ENERGY PREDICTED BY IDOCK:   -1.72 KCAL/MOL
REMARK 927      BINDING AFFINITY PREDICTED BY RF-SCORE:    0.00 PKD
ROOT
HETATM    1  C   UNL     1      -9.218   8.122  69.844  1.00  0.00    -0.151 C  
HETATM    2  O   UNL     1      -9.301   7.698  68.481  1.00  0.00    -0.147 OA 
HETATM    3  O   UNL     1      -9.125   6.875  66.038  1.00  0.00    -0.146 OA 
HETATM    4  C   UNL     1     -10.095   6.219  66.715  1.00  0.00    -0.180 C  
HETATM    5  C   UNL     1     -10.054   7.341  70.910  1.00  0.00    -0.188 C  
HETATM    6  C   UNL     1     -10.199   6.733  68.115  1.00  0.00    -0.174 C  
HETATM    7  C   UNL     1     -11.314   6.644  70.327  1.00  0.00    -0.374 C  
HETATM    8  C   UNL     1     -11.141   6.234  68.915  1.00  0.00    -0.434 C  
HETATM    9  O   UNL     1     -10.758   5.307  66.247  1.00  0.00    -0.294 OA 
ENDROOT
BRANCH   1  10
HETATM   10  C   UNL     1      -9.465   9.653  69.966  1.00  0.00    -0.240 C  
HETATM   11  O   UNL     1     -10.422   9.956  70.997  1.00  0.00    -0.318 OA 
HETATM   12  H   UNL     1     -10.573  10.891  71.071  1.00  0.00     0.000 HD 
BRANCH  10  13
HETATM   13  C   UNL     1      -9.918  10.356  68.656  1.00  0.00    -0.177 C  
HETATM   14  H   UNL     1      -9.143  11.603  67.314  1.00  0.00     0.000 HD 
HETATM   15  O   UNL     1      -8.866  11.173  68.115  1.00  0.00    -0.136 OA 
BRANCH  13  16
HETATM   16  C   UNL     1     -11.169  11.235  68.842  1.00  0.00    -0.253 C  
HETATM   17  O   UNL     1     -12.333  10.456  69.139  1.00  0.00    -0.702 OA 
HETATM   18  H   UNL     1     -13.105  10.998  69.254  1.00  0.00     0.000 HD 
ENDBRANCH  13  16
ENDBRANCH  10  13
ENDBRANCH   1  10
BRANCH   7  19
HETATM   19  N   UNL     1     -12.461   7.553  70.425  1.00  0.00    -0.381 NA 
HETATM   20  H2  UNL     1     -12.718   5.713  72.267  1.00  0.00     0.000 HD 
HETATM   21  H   UNL     1     -12.559   8.326  69.767  1.00  0.00     0.000 HD 
HETATM   22  C   UNL     1     -13.338   7.372  71.342  1.00  0.00    -0.334 C  
HETATM   23  H1  UNL     1     -15.078   8.081  72.186  1.00  0.00     0.000 HD 
HETATM   24  N   UNL     1     -13.457   6.416  72.286  1.00  0.00    -0.388 NA 
HETATM   25  H2  UNL     1     -14.467   9.013  70.815  1.00  0.00     0.000 HD 
HETATM   26  N   UNL     1     -14.379   8.226  71.456  1.00  0.00    -0.440 NA 
HETATM   27  H1  UNL     1     -14.156   6.271  73.015  1.00  0.00     0.000 HD 
ENDBRANCH   7  19
BRANCH   5  28
HETATM   28  N   UNL     1      -9.231   6.364  71.667  1.00  0.00    -0.145 N  
HETATM   29  C   UNL     1      -9.581   5.972  72.944  1.00  0.00    -0.154 C  
HETATM   30  H   UNL     1      -8.392   5.976  71.235  1.00  0.00     0.000 HD 
HETATM   31  C   UNL     1      -8.741   4.842  73.470  1.00  0.00    -0.104 C  
HETATM   32  O   UNL     1     -10.497   6.474  73.585  1.00  0.00    -0.265 OA 
ENDBRANCH   5  28
TORSDOF 5
ENDMDL
MODEL       76
REMARK 921   NORMALIZED FREE ENERGY PREDICTED BY IDOCK:   -4.82 KCAL/MOL
REMARK 922        TOTAL FREE ENERGY PREDICTED BY IDOCK:   -7.83 KCAL/MOL
REMARK 923 INTER-LIGAND FREE ENERGY PREDICTED BY IDOCK:   -6.82 KCAL/MOL
REMARK 924 INTRA-LIGAND FREE ENERGY PREDICTED BY IDOCK:   -1.01 KCAL/MOL
REMARK 927      BINDING AFFINITY PREDICTED BY RF-SCORE:    0.00 PKD
ROOT
HETATM    1  C   UNL     1      -9.920  15.358  68.526  1.00  0.00    -0.213 C  
HETATM    2  O   UNL     1     -10.585  15.621  69.766  1.00  0.00    -0.258 OA 
HETATM    3  O   UNL     1     -11.862  16.390  71.876  1.00  0.00    -0.497 OA 
HETATM    4  C   UNL     1     -12.299  15.186  71.441  1.00  0.00    -0.346 C  
HETATM    5  C   UNL     1     -10.419  14.151  67.666  1.00  0.00    -0.245 C  
HETATM    6  C   UNL     1     -11.526  14.748  70.240  1.00  0.00    -0.260 C  
HETATM    7  C   UNL     1     -11.108  13.035  68.497  1.00  0.00    -0.266 C  
HETATM    8  C   UNL     1     -11.788  13.555  69.705  1.00  0.00    -0.398 C  
HETATM    9  O   UNL     1     -13.227  14.573  71.946  1.00  0.00    -0.321 OA 
ENDROOT
BRANCH   1  10
HETATM   10  C   UNL     1      -8.379  15.294  68.725  1.00  0.00    -0.179 C  
HETATM   11  O   UNL     1      -8.033  14.913  70.069  1.00  0.00    -0.385 OA 
HETATM   12  H   UNL     1      -7.091  14.874  70.189  1.00  0.00     0.000 HD 
BRANCH  10  13
HETATM   13  C   UNL     1      -7.612  16.598  68.372  1.00  0.00    -0.197 C  
HETATM   14  H   UNL     1      -6.147  17.697  69.150  1.00  0.00     0.000 HD 
HETATM   15  O   UNL     1      -6.616  16.899  69.366  1.00  0.00    -0.223 OA 
BRANCH  13  16
HETATM   16  C   UNL     1      -8.534  17.823  68.222  1.00  0.00    -0.277 C  
HETATM   17  O   UNL     1      -8.048  18.955  68.951  1.00  0.00    -0.321 OA 
HETATM   18  H   UNL     1      -8.616  19.710  68.858  1.00  0.00     0.000 HD 
ENDBRANCH  13  16
ENDBRANCH  10  13
ENDBRANCH   1  10
BRANCH   7  19
HETATM   19  N   UNL     1     -10.108  12.041  68.901  1.00  0.00    -0.411 NA 
HETATM   20  H2  UNL     1     -10.898  11.463  66.475  1.00  0.00     0.000 HD 
HETATM   21  H   UNL     1      -9.697  12.078  69.834  1.00  0.00     0.000 HD 
HETATM   22  C   UNL     1      -9.750  11.128  68.076  1.00  0.00    -0.176 C  
HETATM   23  H1  UNL     1      -8.521   9.503  67.776  1.00  0.00     0.000 HD 
HETATM   24  N   UNL     1     -10.169  10.842  66.826  1.00  0.00    -0.222 NA 
HETATM   25  H2  UNL     1      -8.377  10.279  69.356  1.00  0.00     0.000 HD 
HETATM   26  N   UNL     1      -8.805  10.230  68.432  1.00  0.00    -0.126 NA 
HETATM   27  H1  UNL     1      -9.885  10.115  66.169  1.00  0.00     0.000 HD 
ENDBRANCH   7  19
BRANCH   5  28
HETATM   28  N   UNL     1     -11.299  14.580  66.551  1.00  0.00    -0.345 N  
HETATM   29  C   UNL     1     -11.134  14.076  65.276  1.00  0.00    -0.325 C  
HETATM   30  H   UNL     1     -12.040  15.259  66.729  1.00  0.00     0.000 HD 
HETATM   31  C   UNL     1     -12.232  14.478  64.330  1.00  0.00    -0.480 C  
HETATM   32  O   UNL     1     -10.201  13.354  64.943  1.00  0.00    -0.348 OA 
ENDBRANCH   5  28
TORSDOF 5
ENDMDL
MODEL       77
REMARK 921   NORMALIZED FREE ENERGY PREDICTED BY IDOCK:   -4.78 KCAL/MOL
REMARK 922        TOTAL FREE ENERGY PREDICTED BY IDOCK:   -7.77 KCAL/MOL
REMARK 923 INTER-LIGAND FREE ENERGY PREDICTED BY IDOCK:   -6.66 KCAL/MOL
REMARK 924 INTRA-LIGAND FREE ENERGY PREDICTED BY IDOCK:   -1.12 KCAL/MOL
REMARK 927      BINDING AFFINITY PREDICTED BY RF-SCORE:    0.00 PKD
ROOT
HETATM    1  C   UNL     1     -11.761  12.895  68.584  1.00  0.00    -0.324 C  
HETATM    2  O   UNL     1     -11.725  11.803  69.508  1.00  0.00    -0.292 OA 
HETATM    3  O   UNL     1     -11.987   9.822  71.144  1.00  0.00    -0.320 OA 
HETATM    4  C   UNL     1     -11.072   9.556  70.184  1.00  0.00    -0.255 C  
HETATM    5  C   UNL     1     -10.988  12.741  67.233  1.00  0.00    -0.262 C  
HETATM    6  C   UNL     1     -10.914  10.727  69.269  1.00  0.00    -0.241 C  
HETATM    7  C   UNL     1      -9.796  11.747  67.306  1.00  0.00    -0.185 C  
HETATM    8  C   UNL     1     -10.013  10.662  68.289  1.00  0.00    -0.173 C  
HETATM    9  O   UNL     1     -10.492   8.487  70.069  1.00  0.00    -0.213 OA 
ENDROOT
BRANCH   1  10
HETATM   10  C   UNL     1     -11.384  14.230  69.285  1.00  0.00    -0.283 C  
HETATM   11  O   UNL     1      -9.968  14.321  69.527  1.00  0.00    -0.413 OA 
HETATM   12  H   UNL     1      -9.738  15.137  69.955  1.00  0.00     0.000 HD 
BRANCH  10  13
HETATM   13  C   UNL     1     -12.127  14.510  70.621  1.00  0.00    -0.322 C  
HETATM   14  H   UNL     1     -13.986  14.396  71.320  1.00  0.00     0.000 HD 
HETATM   15  O   UNL     1     -13.532  14.225  70.503  1.00  0.00    -0.082 OA 
BRANCH  13  16
HETATM   16  C   UNL     1     -11.964  15.960  71.114  1.00  0.00    -0.427 C  
HETATM   17  O   UNL     1     -11.032  16.697  70.314  1.00  0.00    -0.393 OA 
HETATM   18  H   UNL     1     -10.931  17.591  70.618  1.00  0.00     0.000 HD 
ENDBRANCH  13  16
ENDBRANCH  10  13
ENDBRANCH   1  10
BRANCH   7  19
HETATM   19  N   UNL     1      -8.575  12.479  67.660  1.00  0.00    -0.166 NA 
HETATM   20  H2  UNL     1      -7.972  10.733  65.808  1.00  0.00     0.000 HD 
HETATM   21  H   UNL     1      -8.598  13.188  68.393  1.00  0.00     0.000 HD 
HETATM   22  C   UNL     1      -7.480  12.223  67.046  1.00  0.00    -0.063 C  
HETATM   23  H1  UNL     1      -5.489  12.712  66.857  1.00  0.00     0.000 HD 
HETATM   24  N   UNL     1      -7.184  11.317  66.091  1.00  0.00    -0.354 NA 
HETATM   25  H2  UNL     1      -6.386  13.643  68.062  1.00  0.00     0.000 HD 
HETATM   26  N   UNL     1      -6.360  12.916  67.347  1.00  0.00    -0.215 NA 
HETATM   27  H1  UNL     1      -6.313  11.113  65.601  1.00  0.00     0.000 HD 
ENDBRANCH   7  19
BRANCH   5  28
HETATM   28  N   UNL     1     -11.886  12.384  66.107  1.00  0.00    -0.403 N  
HETATM   29  C   UNL     1     -11.786  13.018  64.884  1.00  0.00    -0.361 C  
HETATM   30  H   UNL     1     -12.590  11.657  66.239  1.00  0.00     0.000 HD 
HETATM   31  C   UNL     1     -12.643  12.394  63.818  1.00  0.00    -0.541 C  
HETATM   32  O   UNL     1     -11.059  13.981  64.673  1.00  0.00    -0.370 OA 
ENDBRANCH   5  28
TORSDOF 5
ENDMDL
MODEL       78
REMARK 921   NORMALIZED FREE ENERGY PREDICTED BY IDOCK:   -4.78 KCAL/MOL
REMARK 922        TOTAL FREE ENERGY PREDICTED BY IDOCK:   -7.77 KCAL/MOL
REMARK 923 INTER-LIGAND FREE ENERGY PREDICTED BY IDOCK:   -6.89 KCAL/MOL
REMARK 924 INTRA-LIGAND FREE ENERGY PREDICTED BY IDOCK:   -0.88 KCAL/MOL
REMARK 927      BINDING AFFINITY PREDICTED BY RF-SCORE:    0.00 PKD
ROOT
HETATM    1  C   UNL     1      -9.402  13.032  67.818  1.00  0.00    -0.199 C  
HETATM    2  O   UNL     1      -8.241  13.752  68.243  1.00  0.00    -0.143 OA 
HETATM    3  O   UNL     1      -6.037  15.019  68.701  1.00  0.00    -0.082 OA 
HETATM    4  C   UNL     1      -7.113  15.732  69.105  1.00  0.00    -0.176 C  
HETATM    5  C   UNL     1     -10.790  13.744  67.925  1.00  0.00    -0.244 C  
HETATM    6  C   UNL     1      -8.373  14.967  68.859  1.00  0.00    -0.178 C  
HETATM    7  C   UNL     1     -10.844  14.844  69.021  1.00  0.00    -0.245 C  
HETATM    8  C   UNL     1      -9.534  15.497  69.244  1.00  0.00    -0.263 C  
HETATM    9  O   UNL     1      -7.051  16.861  69.566  1.00  0.00    -0.192 OA 
ENDROOT
BRANCH   1  10
HETATM   10  C   UNL     1      -9.454  11.623  68.475  1.00  0.00    -0.173 C  
HETATM   11  O   UNL     1      -8.389  11.442  69.425  1.00  0.00    -0.365 OA 
HETATM   12  H   UNL     1      -8.421  10.581  69.827  1.00  0.00     0.000 HD 
BRANCH  10  13
HETATM   13  C   UNL     1      -9.432  10.429  67.481  1.00  0.00    -0.149 C  
HETATM   14  H   UNL     1      -9.061  10.131  65.550  1.00  0.00     0.000 HD 
HETATM   15  O   UNL     1      -9.075  10.861  66.157  1.00  0.00    -0.171 OA 
BRANCH  13  16
HETATM   16  C   UNL     1     -10.776   9.680  67.403  1.00  0.00    -0.241 C  
HETATM   17  O   UNL     1     -10.702   8.379  67.996  1.00  0.00    -0.417 OA 
HETATM   18  H   UNL     1     -11.531   7.918  67.948  1.00  0.00     0.000 HD 
ENDBRANCH  13  16
ENDBRANCH  10  13
ENDBRANCH   1  10
BRANCH   7  19
HETATM   19  N   UNL     1     -11.304  14.252  70.281  1.00  0.00    -0.473 NA 
HETATM   20  H2  UNL     1     -13.089  15.997  69.500  1.00  0.00     0.000 HD 
HETATM   21  H   UNL     1     -10.727  13.565  70.766  1.00  0.00     0.000 HD 
HETATM   22  C   UNL     1     -12.436  14.601  70.771  1.00  0.00    -0.340 C  
HETATM   23  H1  UNL     1     -13.780  14.312  72.305  1.00  0.00     0.000 HD 
HETATM   24  N   UNL     1     -13.347  15.505  70.356  1.00  0.00    -0.779 NA 
HETATM   25  H2  UNL     1     -12.314  13.329  72.388  1.00  0.00     0.000 HD 
HETATM   26  N   UNL     1     -12.879  14.034  71.915  1.00  0.00    -0.338 NA 
HETATM   27  H1  UNL     1     -14.248  15.783  70.745  1.00  0.00     0.000 HD 
ENDBRANCH   7  19
BRANCH   5  28
HETATM   28  N   UNL     1     -11.244  14.294  66.624  1.00  0.00    -0.324 N  
HETATM   29  C   UNL     1     -11.985  13.530  65.744  1.00  0.00    -0.403 C  
HETATM   30  H   UNL     1     -11.003  15.254  66.374  1.00  0.00     0.000 HD 
HETATM   31  C   UNL     1     -12.512  14.312  64.574  1.00  0.00    -0.357 C  
HETATM   32  O   UNL     1     -12.215  12.337  65.904  1.00  0.00    -0.634 OA 
ENDBRANCH   5  28
TORSDOF 5
ENDMDL
MODEL       79
REMARK 921   NORMALIZED FREE ENERGY PREDICTED BY IDOCK:   -4.77 KCAL/MOL
REMARK 922        TOTAL FREE ENERGY PREDICTED BY IDOCK:   -7.76 KCAL/MOL
REMARK 923 INTER-LIGAND FREE ENERGY PREDICTED BY IDOCK:   -6.89 KCAL/MOL
REMARK 924 INTRA-LIGAND FREE ENERGY PREDICTED BY IDOCK:   -0.86 KCAL/MOL
REMARK 927      BINDING AFFINITY PREDICTED BY RF-SCORE:    0.00 PKD
ROOT
HETATM    1  C   UNL     1     -10.400  10.404  69.874  1.00  0.00    -0.182 C  
HETATM    2  O   UNL     1     -11.159  11.399  69.180  1.00  0.00    -0.228 OA 
HETATM    3  O   UNL     1     -12.364  13.418  68.108  1.00  0.00    -0.190 OA 
HETATM    4  C   UNL     1     -11.845  12.593  67.170  1.00  0.00    -0.330 C  
HETATM    5  C   UNL     1      -9.478   9.463  69.032  1.00  0.00    -0.160 C  
HETATM    6  C   UNL     1     -11.181  11.417  67.812  1.00  0.00    -0.283 C  
HETATM    7  C   UNL     1      -9.947   9.282  67.562  1.00  0.00    -0.202 C  
HETATM    8  C   UNL     1     -10.656  10.470  67.035  1.00  0.00    -0.310 C  
HETATM    9  O   UNL     1     -11.884  12.812  65.969  1.00  0.00    -0.397 OA 
ENDROOT
BRANCH   1  10
HETATM   10  C   UNL     1     -11.309   9.577  70.827  1.00  0.00    -0.321 C  
HETATM   11  O   UNL     1     -11.431   8.211  70.391  1.00  0.00    -0.396 OA 
HETATM   12  H   UNL     1     -11.985   7.705  70.973  1.00  0.00     0.000 HD 
BRANCH  10  13
HETATM   13  C   UNL     1     -12.737  10.150  71.044  1.00  0.00    -0.386 C  
HETATM   14  H   UNL     1     -13.585  11.636  72.058  1.00  0.00     0.000 HD 
HETATM   15  O   UNL     1     -12.712  11.286  71.926  1.00  0.00    -0.335 OA 
BRANCH  13  16
HETATM   16  C   UNL     1     -13.726   9.115  71.612  1.00  0.00    -0.373 C  
HETATM   17  O   UNL     1     -13.586   8.959  73.029  1.00  0.00    -0.914 OA 
HETATM   18  H   UNL     1     -14.196   8.321  73.379  1.00  0.00     0.000 HD 
ENDBRANCH  13  16
ENDBRANCH  10  13
ENDBRANCH   1  10
BRANCH   7  19
HETATM   19  N   UNL     1     -10.834   8.117  67.474  1.00  0.00    -0.510 NA 
HETATM   20  H2  UNL     1      -8.670   7.599  66.099  1.00  0.00     0.000 HD 
HETATM   21  H   UNL     1     -11.750   8.136  67.924  1.00  0.00     0.000 HD 
HETATM   22  C   UNL     1     -10.454   7.076  66.832  1.00  0.00    -0.286 C  
HETATM   23  H1  UNL     1     -10.951   5.159  66.264  1.00  0.00     0.000 HD 
HETATM   24  N   UNL     1      -9.333   6.824  66.126  1.00  0.00    -0.347 NA 
HETATM   25  H2  UNL     1     -12.160   5.996  67.244  1.00  0.00     0.000 HD 
HETATM   26  N   UNL     1     -11.254   5.988  66.776  1.00  0.00    -0.138 NA 
HETATM   27  H1  UNL     1      -9.029   5.995  65.614  1.00  0.00     0.000 HD 
ENDBRANCH   7  19
BRANCH   5  28
HETATM   28  N   UNL     1      -8.056   9.885  69.069  1.00  0.00    -0.103 N  
HETATM   29  C   UNL     1      -7.289   9.713  70.204  1.00  0.00    -0.139 C  
HETATM   30  H   UNL     1      -7.638  10.310  68.241  1.00  0.00     0.000 HD 
HETATM   31  C   UNL     1      -5.834  10.023  69.991  1.00  0.00    -0.049 C  
HETATM   32  O   UNL     1      -7.737   9.328  71.278  1.00  0.00    -0.314 OA 
ENDBRANCH   5  28
TORSDOF 5
ENDMDL
MODEL       80
REMARK 921   NORMALIZED FREE ENERGY PREDICTED BY IDOCK:   -4.75 KCAL/MOL
REMARK 922        TOTAL FREE ENERGY PREDICTED BY IDOCK:   -7.73 KCAL/MOL
REMARK 923 INTER-LIGAND FREE ENERGY PREDICTED BY IDOCK:   -6.31 KCAL/MOL
REMARK 924 INTRA-LIGAND FREE ENERGY PREDICTED BY IDOCK:   -1.41 KCAL/MOL
REMARK 927      BINDING AFFINITY PREDICTED BY RF-SCORE:    0.00 PKD
ROOT
HETATM    1  C   UNL     1     -10.335  11.553  68.946  1.00  0.00    -0.169 C  
HETATM    2  O   UNL     1     -10.620  11.772  67.561  1.00  0.00    -0.203 OA 
HETATM    3  O   UNL     1     -10.962  12.447  65.092  1.00  0.00    -0.286 OA 
HETATM    4  C   UNL     1     -10.480  11.188  65.201  1.00  0.00    -0.277 C  
HETATM    5  C   UNL     1      -9.530  10.271  69.338  1.00  0.00    -0.206 C  
HETATM    6  C   UNL     1     -10.321  10.808  66.638  1.00  0.00    -0.241 C  
HETATM    7  C   UNL     1      -9.678   9.106  68.321  1.00  0.00    -0.154 C  
HETATM    8  C   UNL     1      -9.903   9.578  66.937  1.00  0.00    -0.262 C  
HETATM    9  O   UNL     1     -10.182  10.484  64.248  1.00  0.00    -0.344 OA 
ENDROOT
BRANCH   1  10
HETATM   10  C   UNL     1     -11.625  11.677  69.806  1.00  0.00    -0.315 C  
HETATM   11  O   UNL     1     -12.667  10.807  69.327  1.00  0.00    -0.653 OA 
HETATM   12  H   UNL     1     -13.455  10.882  69.852  1.00  0.00     0.000 HD 
BRANCH  10  13
HETATM   13  C   UNL     1     -12.205  13.113  69.926  1.00  0.00    -0.225 C  
HETATM   14  H   UNL     1     -11.546  14.982  69.760  1.00  0.00     0.000 HD 
HETATM   15  O   UNL     1     -11.191  14.104  69.686  1.00  0.00    -0.247 OA 
BRANCH  13  16
HETATM   16  C   UNL     1     -12.846  13.395  71.299  1.00  0.00    -0.323 C  
HETATM   17  O   UNL     1     -13.265  12.192  71.952  1.00  0.00    -0.478 OA 
HETATM   18  H   UNL     1     -13.660  12.366  72.799  1.00  0.00     0.000 HD 
ENDBRANCH  13  16
ENDBRANCH  10  13
ENDBRANCH   1  10
BRANCH   7  19
HETATM   19  N   UNL     1     -10.799   8.250  68.724  1.00  0.00    -0.428 NA 
HETATM   20  H2  UNL     1      -8.632   7.355  69.884  1.00  0.00     0.000 HD 
HETATM   21  H   UNL     1     -11.733   8.419  68.349  1.00  0.00     0.000 HD 
HETATM   22  C   UNL     1     -10.601   7.289  69.548  1.00  0.00    -0.234 C  
HETATM   23  H1  UNL     1     -11.478   5.753  70.603  1.00  0.00     0.000 HD 
HETATM   24  N   UNL     1      -9.474   6.839  70.139  1.00  0.00    -0.159 NA 
HETATM   25  H2  UNL     1     -12.575   6.700  69.592  1.00  0.00     0.000 HD 
HETATM   26  N   UNL     1     -11.636   6.518  69.947  1.00  0.00    -0.408 NA 
HETATM   27  H1  UNL     1      -9.316   6.074  70.795  1.00  0.00     0.000 HD 
ENDBRANCH   7  19
BRANCH   5  28
HETATM   28  N   UNL     1      -8.095  10.559  69.583  1.00  0.00    -0.352 N  
HETATM   29  C   UNL     1      -7.341   9.769  70.427  1.00  0.00    -0.141 C  
HETATM   30  H   UNL     1      -7.658  11.356  69.119  1.00  0.00     0.000 HD 
HETATM   31  C   UNL     1      -5.874  10.099  70.400  1.00  0.00    -0.080 C  
HETATM   32  O   UNL     1      -7.807   8.871  71.118  1.00  0.00    -0.129 OA 
ENDBRANCH   5  28
TORSDOF 5
ENDMDL
MODEL       81
REMARK 921   NORMALIZED FREE ENERGY PREDICTED BY IDOCK:   -4.72 KCAL/MOL
REMARK 922        TOTAL FREE ENERGY PREDICTED BY IDOCK:   -7.69 KCAL/MOL
REMARK 923 INTER-LIGAND FREE ENERGY PREDICTED BY IDOCK:   -6.14 KCAL/MOL
REMARK 924 INTRA-LIGAND FREE ENERGY PREDICTED BY IDOCK:   -1.55 KCAL/MOL
REMARK 927      BINDING AFFINITY PREDICTED BY RF-SCORE:    0.00 PKD
ROOT
HETATM    1  C   UNL     1     -10.695   9.303  71.401  1.00  0.00    -0.362 C  
HETATM    2  O   UNL     1     -11.459  10.496  71.199  1.00  0.00    -0.257 OA 
HETATM    3  O   UNL     1     -12.688  12.766  71.105  1.00  0.00    -0.359 OA 
HETATM    4  C   UNL     1     -12.093  12.474  69.926  1.00  0.00    -0.252 C  
HETATM    5  C   UNL     1      -9.698   8.868  70.279  1.00  0.00    -0.185 C  
HETATM    6  C   UNL     1     -11.415  11.144  69.994  1.00  0.00    -0.292 C  
HETATM    7  C   UNL     1     -10.088   9.381  68.865  1.00  0.00    -0.190 C  
HETATM    8  C   UNL     1     -10.816  10.669  68.902  1.00  0.00    -0.272 C  
HETATM    9  O   UNL     1     -12.083  13.222  68.960  1.00  0.00    -0.307 OA 
ENDROOT
BRANCH   1  10
HETATM   10  C   UNL     1     -11.615   8.118  71.810  1.00  0.00    -0.291 C  
HETATM   11  O   UNL     1     -11.802   8.058  73.235  1.00  0.00    -0.590 OA 
HETATM   12  H   UNL     1     -12.364   7.334  73.485  1.00  0.00     0.000 HD 
BRANCH  10  13
HETATM   13  C   UNL     1     -11.149   6.719  71.319  1.00  0.00    -0.262 C  
HETATM   14  H   UNL     1     -11.700   5.382  69.953  1.00  0.00     0.000 HD 
HETATM   15  O   UNL     1     -11.985   6.237  70.253  1.00  0.00    -0.273 OA 
BRANCH  13  16
HETATM   16  C   UNL     1     -11.129   5.660  72.438  1.00  0.00    -0.271 C  
HETATM   17  O   UNL     1     -12.433   5.431  72.984  1.00  0.00    -0.466 OA 
HETATM   18  H   UNL     1     -12.420   4.778  73.674  1.00  0.00     0.000 HD 
ENDBRANCH  13  16
ENDBRANCH  10  13
ENDBRANCH   1  10
BRANCH   7  19
HETATM   19  N   UNL     1     -10.923   8.376  68.197  1.00  0.00    -0.449 NA 
HETATM   20  H2  UNL     1      -8.452   8.038  67.407  1.00  0.00     0.000 HD 
HETATM   21  H   UNL     1     -11.931   8.363  68.353  1.00  0.00     0.000 HD 
HETATM   22  C   UNL     1     -10.381   7.515  67.419  1.00  0.00    -0.276 C  
HETATM   23  H1  UNL     1     -10.710   5.883  66.207  1.00  0.00     0.000 HD 
HETATM   24  N   UNL     1      -9.102   7.354  67.020  1.00  0.00    -0.131 NA 
HETATM   25  H2  UNL     1     -12.146   6.538  67.000  1.00  0.00     0.000 HD 
HETATM   26  N   UNL     1     -11.142   6.568  66.827  1.00  0.00    -0.293 NA 
HETATM   27  H1  UNL     1      -8.670   6.668  66.400  1.00  0.00     0.000 HD 
ENDBRANCH   7  19
BRANCH   5  28
HETATM   28  N   UNL     1      -8.297   9.244  70.593  1.00  0.00    -0.198 N  
HETATM   29  C   UNL     1      -7.233   8.527  70.083  1.00  0.00    -0.051 C  
HETATM   30  H   UNL     1      -8.117  10.047  71.196  1.00  0.00     0.000 HD 
HETATM   31  C   UNL     1      -5.900   9.167  70.352  1.00  0.00    -0.036 C  
HETATM   32  O   UNL     1      -7.353   7.482  69.454  1.00  0.00    -0.080 OA 
ENDBRANCH   5  28
TORSDOF 5
ENDMDL
MODEL       82
REMARK 921   NORMALIZED FREE ENERGY PREDICTED BY IDOCK:   -4.71 KCAL/MOL
REMARK 922        TOTAL FREE ENERGY PREDICTED BY IDOCK:   -7.67 KCAL/MOL
REMARK 923 INTER-LIGAND FREE ENERGY PREDICTED BY IDOCK:   -6.72 KCAL/MOL
REMARK 924 INTRA-LIGAND FREE ENERGY PREDICTED BY IDOCK:   -0.95 KCAL/MOL
REMARK 927      BINDING AFFINITY PREDICTED BY RF-SCORE:    0.00 PKD
ROOT
HETATM    1  C   UNL     1      -9.250  13.984  66.669  1.00  0.00    -0.244 C  
HETATM    2  O   UNL     1      -8.952  15.324  67.073  1.00  0.00    -0.204 OA 
HETATM    3  O   UNL     1      -8.302  17.788  67.494  1.00  0.00    -0.222 OA 
HETATM    4  C   UNL     1      -9.583  17.544  67.853  1.00  0.00    -0.277 C  
HETATM    5  C   UNL     1     -10.739  13.511  66.728  1.00  0.00    -0.278 C  
HETATM    6  C   UNL     1      -9.927  16.106  67.629  1.00  0.00    -0.241 C  
HETATM    7  C   UNL     1     -11.597  14.280  67.771  1.00  0.00    -0.354 C  
HETATM    8  C   UNL     1     -11.139  15.672  67.976  1.00  0.00    -0.335 C  
HETATM    9  O   UNL     1     -10.354  18.398  68.262  1.00  0.00    -0.373 OA 
ENDROOT
BRANCH   1  10
HETATM   10  C   UNL     1      -8.320  12.967  67.391  1.00  0.00    -0.190 C  
HETATM   11  O   UNL     1      -6.970  13.042  66.900  1.00  0.00    -0.392 OA 
HETATM   12  H   UNL     1      -6.402  12.420  67.341  1.00  0.00     0.000 HD 
BRANCH  10  13
HETATM   13  C   UNL     1      -8.783  11.485  67.324  1.00  0.00    -0.151 C  
HETATM   14  H   UNL     1      -9.133   9.996  68.596  1.00  0.00     0.000 HD 
HETATM   15  O   UNL     1      -8.850  10.902  68.637  1.00  0.00    -0.146 OA 
BRANCH  13  16
HETATM   16  C   UNL     1      -7.874  10.604  66.446  1.00  0.00    -0.144 C  
HETATM   17  O   UNL     1      -7.860  11.039  65.082  1.00  0.00    -0.360 OA 
HETATM   18  H   UNL     1      -7.298  10.497  64.541  1.00  0.00     0.000 HD 
ENDBRANCH  13  16
ENDBRANCH  10  13
ENDBRANCH   1  10
BRANCH   7  19
HETATM   19  N   UNL     1     -11.557  13.567  69.052  1.00  0.00    -0.288 NA 
HETATM   20  H2  UNL     1     -13.340  15.473  69.233  1.00  0.00     0.000 HD 
HETATM   21  H   UNL     1     -10.897  12.802  69.192  1.00  0.00     0.000 HD 
HETATM   22  C   UNL     1     -12.355  13.910  69.994  1.00  0.00    -0.316 C  
HETATM   23  H1  UNL     1     -12.980  13.508  71.915  1.00  0.00     0.000 HD 
HETATM   24  N   UNL     1     -13.271  14.898  70.073  1.00  0.00    -0.445 NA 
HETATM   25  H2  UNL     1     -11.702  12.455  71.299  1.00  0.00     0.000 HD 
HETATM   26  N   UNL     1     -12.344  13.235  71.165  1.00  0.00    -0.308 NA 
HETATM   27  H1  UNL     1     -13.906  15.170  70.822  1.00  0.00     0.000 HD 
ENDBRANCH   7  19
BRANCH   5  28
HETATM   28  N   UNL     1     -11.395  13.547  65.397  1.00  0.00    -0.287 N  
HETATM   29  C   UNL     1     -11.492  12.411  64.617  1.00  0.00    -0.331 C  
HETATM   30  H   UNL     1     -11.781  14.426  65.052  1.00  0.00     0.000 HD 
HETATM   31  C   UNL     1     -12.351  12.598  63.398  1.00  0.00    -0.553 C  
HETATM   32  O   UNL     1     -10.952  11.346  64.893  1.00  0.00    -0.283 OA 
ENDBRANCH   5  28
TORSDOF 5
ENDMDL
MODEL       83
REMARK 921   NORMALIZED FREE ENERGY PREDICTED BY IDOCK:   -4.66 KCAL/MOL
REMARK 922        TOTAL FREE ENERGY PREDICTED BY IDOCK:   -7.61 KCAL/MOL
REMARK 923 INTER-LIGAND FREE ENERGY PREDICTED BY IDOCK:   -5.77 KCAL/MOL
REMARK 924 INTRA-LIGAND FREE ENERGY PREDICTED BY IDOCK:   -1.84 KCAL/MOL
REMARK 927      BINDING AFFINITY PREDICTED BY RF-SCORE:    0.00 PKD
ROOT
HETATM    1  C   UNL     1      -9.615   9.838  70.050  1.00  0.00    -0.241 C  
HETATM    2  O   UNL     1     -10.539  10.903  69.810  1.00  0.00    -0.194 OA 
HETATM    3  O   UNL     1     -11.998  13.019  69.543  1.00  0.00    -0.309 OA 
HETATM    4  C   UNL     1     -11.765  12.422  68.352  1.00  0.00    -0.336 C  
HETATM    5  C   UNL     1      -8.968   9.131  68.814  1.00  0.00    -0.136 C  
HETATM    6  C   UNL     1     -10.947  11.185  68.534  1.00  0.00    -0.220 C  
HETATM    7  C   UNL     1      -9.834   9.212  67.526  1.00  0.00    -0.177 C  
HETATM    8  C   UNL     1     -10.663  10.437  67.467  1.00  0.00    -0.339 C  
HETATM    9  O   UNL     1     -12.142  12.867  67.279  1.00  0.00    -0.346 OA 
ENDROOT
BRANCH   1  10
HETATM   10  C   UNL     1     -10.216   8.791  71.030  1.00  0.00    -0.237 C  
HETATM   11  O   UNL     1      -9.620   7.494  70.852  1.00  0.00    -0.165 OA 
HETATM   12  H   UNL     1      -9.987   6.854  71.451  1.00  0.00     0.000 HD 
BRANCH  10  13
HETATM   13  C   UNL     1     -11.761   8.632  70.963  1.00  0.00    -0.278 C  
HETATM   14  H   UNL     1     -13.347   9.240  71.998  1.00  0.00     0.000 HD 
HETATM   15  O   UNL     1     -12.402   9.338  72.039  1.00  0.00    -0.365 OA 
BRANCH  13  16
HETATM   16  C   UNL     1     -12.221   7.163  71.001  1.00  0.00    -0.343 C  
HETATM   17  O   UNL     1     -12.141   6.541  69.714  1.00  0.00    -0.579 OA 
HETATM   18  H   UNL     1     -12.424   5.635  69.738  1.00  0.00     0.000 HD 
ENDBRANCH  13  16
ENDBRANCH  10  13
ENDBRANCH   1  10
BRANCH   7  19
HETATM   19  N   UNL     1     -10.709   8.037  67.454  1.00  0.00    -0.489 NA 
HETATM   20  H2  UNL     1      -8.640   7.608  65.912  1.00  0.00     0.000 HD 
HETATM   21  H   UNL     1     -11.591   8.024  67.967  1.00  0.00     0.000 HD 
HETATM   22  C   UNL     1     -10.361   7.028  66.746  1.00  0.00    -0.221 C  
HETATM   23  H1  UNL     1     -10.871   5.128  66.138  1.00  0.00     0.000 HD 
HETATM   24  N   UNL     1      -9.289   6.822  65.954  1.00  0.00    -0.389 NA 
HETATM   25  H2  UNL     1     -12.019   5.906  67.233  1.00  0.00     0.000 HD 
HETATM   26  N   UNL     1     -11.149   5.931  66.703  1.00  0.00    -0.168 NA 
HETATM   27  H1  UNL     1      -9.011   6.018  65.390  1.00  0.00     0.000 HD 
ENDBRANCH   7  19
BRANCH   5  28
HETATM   28  N   UNL     1      -7.594   9.619  68.540  1.00  0.00    -0.080 N  
HETATM   29  C   UNL     1      -6.642   8.795  67.975  1.00  0.00    -0.061 C  
HETATM   30  H   UNL     1      -7.348  10.582  68.775  1.00  0.00     0.000 HD 
HETATM   31  C   UNL     1      -5.377   9.515  67.600  1.00  0.00    -0.037 C  
HETATM   32  O   UNL     1      -6.809   7.597  67.775  1.00  0.00    -0.064 OA 
ENDBRANCH   5  28
TORSDOF 5
ENDMDL
MODEL       84
REMARK 921   NORMALIZED FREE ENERGY PREDICTED BY IDOCK:   -4.65 KCAL/MOL
REMARK 922        TOTAL FREE ENERGY PREDICTED BY IDOCK:   -7.60 KCAL/MOL
REMARK 923 INTER-LIGAND FREE ENERGY PREDICTED BY IDOCK:   -6.24 KCAL/MOL
REMARK 924 INTRA-LIGAND FREE ENERGY PREDICTED BY IDOCK:   -1.36 KCAL/MOL
REMARK 927      BINDING AFFINITY PREDICTED BY RF-SCORE:    0.00 PKD
ROOT
HETATM    1  C   UNL     1     -10.664   8.586  69.734  1.00  0.00    -0.213 C  
HETATM    2  O   UNL     1     -11.760   8.935  70.586  1.00  0.00    -0.264 OA 
HETATM    3  O   UNL     1     -13.583   9.392  72.358  1.00  0.00    -0.457 OA 
HETATM    4  C   UNL     1     -13.147  10.538  71.786  1.00  0.00    -0.464 C  
HETATM    5  C   UNL     1      -9.799   9.743  69.136  1.00  0.00    -0.188 C  
HETATM    6  C   UNL     1     -12.117  10.246  70.743  1.00  0.00    -0.353 C  
HETATM    7  C   UNL     1     -10.563  11.090  69.005  1.00  0.00    -0.225 C  
HETATM    8  C   UNL     1     -11.611  11.258  70.037  1.00  0.00    -0.404 C  
HETATM    9  O   UNL     1     -13.523  11.652  72.115  1.00  0.00    -0.423 OA 
ENDROOT
BRANCH   1  10
HETATM   10  C   UNL     1     -11.120   7.605  68.616  1.00  0.00     0.272 C  
HETATM   11  O   UNL     1     -11.505   6.328  69.156  1.00  0.00    -0.543 OA 
HETATM   12  H   UNL     1     -11.784   5.729  68.474  1.00  0.00     0.000 HD 
BRANCH  10  13
HETATM   13  C   UNL     1     -10.083   7.365  67.484  1.00  0.00    -0.192 C  
HETATM   14  H   UNL     1      -9.697   8.080  65.669  1.00  0.00     0.000 HD 
HETATM   15  O   UNL     1     -10.331   8.227  66.361  1.00  0.00    -0.227 OA 
BRANCH  13  16
HETATM   16  C   UNL     1     -10.060   5.908  66.983  1.00  0.00    -0.183 C  
HETATM   17  O   UNL     1     -11.198   5.602  66.169  1.00  0.00    -0.763 OA 
HETATM   18  H   UNL     1     -11.183   4.704  65.860  1.00  0.00     0.000 HD 
ENDBRANCH  13  16
ENDBRANCH  10  13
ENDBRANCH   1  10
BRANCH   7  19
HETATM   19  N   UNL     1     -11.181  11.170  67.677  1.00  0.00    -0.303 NA 
HETATM   20  H2  UNL     1      -8.807  12.260  67.539  1.00  0.00     0.000 HD 
HETATM   21  H   UNL     1     -12.130  10.823  67.532  1.00  0.00     0.000 HD 
HETATM   22  C   UNL     1     -10.525  11.678  66.700  1.00  0.00    -0.233 C  
HETATM   23  H1  UNL     1     -10.555  12.129  64.691  1.00  0.00     0.000 HD 
HETATM   24  N   UNL     1      -9.299  12.237  66.645  1.00  0.00    -0.224 NA 
HETATM   25  H2  UNL     1     -12.017  11.357  65.316  1.00  0.00     0.000 HD 
HETATM   26  N   UNL     1     -11.078  11.725  65.468  1.00  0.00    -0.301 NA 
HETATM   27  H1  UNL     1      -8.776  12.641  65.868  1.00  0.00     0.000 HD 
ENDBRANCH   7  19
BRANCH   5  28
HETATM   28  N   UNL     1      -8.532   9.942  69.881  1.00  0.00    -0.230 N  
HETATM   29  C   UNL     1      -7.385  10.367  69.240  1.00  0.00    -0.106 C  
HETATM   30  H   UNL     1      -8.507   9.762  70.885  1.00  0.00     0.000 HD 
HETATM   31  C   UNL     1      -6.261  10.694  70.184  1.00  0.00    -0.125 C  
HETATM   32  O   UNL     1      -7.288  10.489  68.024  1.00  0.00    -0.087 OA 
ENDBRANCH   5  28
TORSDOF 5
ENDMDL
MODEL       85
REMARK 921   NORMALIZED FREE ENERGY PREDICTED BY IDOCK:   -4.64 KCAL/MOL
REMARK 922        TOTAL FREE ENERGY PREDICTED BY IDOCK:   -7.59 KCAL/MOL
REMARK 923 INTER-LIGAND FREE ENERGY PREDICTED BY IDOCK:   -6.29 KCAL/MOL
REMARK 924 INTRA-LIGAND FREE ENERGY PREDICTED BY IDOCK:   -1.30 KCAL/MOL
REMARK 927      BINDING AFFINITY PREDICTED BY RF-SCORE:    0.00 PKD
ROOT
HETATM    1  C   UNL     1      -9.062  14.026  67.590  1.00  0.00    -0.192 C  
HETATM    2  O   UNL     1      -9.778  14.693  66.546  1.00  0.00    -0.255 OA 
HETATM    3  O   UNL     1     -10.796  15.855  64.476  1.00  0.00    -0.532 OA 
HETATM    4  C   UNL     1     -11.603  14.875  64.943  1.00  0.00    -0.395 C  
HETATM    5  C   UNL     1      -9.649  12.687  68.146  1.00  0.00    -0.219 C  
HETATM    6  C   UNL     1     -11.009  14.239  66.158  1.00  0.00    -0.313 C  
HETATM    7  C   UNL     1     -11.188  12.562  67.975  1.00  0.00    -0.270 C  
HETATM    8  C   UNL     1     -11.694  13.283  66.785  1.00  0.00    -0.434 C  
HETATM    9  O   UNL     1     -12.650  14.540  64.412  1.00  0.00    -0.665 OA 
ENDROOT
BRANCH   1  10
HETATM   10  C   UNL     1      -8.734  15.007  68.752  1.00  0.00    -0.186 C  
HETATM   11  O   UNL     1      -9.801  15.947  68.971  1.00  0.00    -0.207 OA 
HETATM   12  H   UNL     1      -9.601  16.545  69.680  1.00  0.00     0.000 HD 
BRANCH  10  13
HETATM   13  C   UNL     1      -7.408  15.801  68.593  1.00  0.00    -0.137 C  
HETATM   14  H   UNL     1      -6.041  16.631  69.776  1.00  0.00     0.000 HD 
HETATM   15  O   UNL     1      -6.852  16.145  69.873  1.00  0.00    -0.137 OA 
BRANCH  13  16
HETATM   16  C   UNL     1      -7.570  17.093  67.770  1.00  0.00    -0.176 C  
HETATM   17  O   UNL     1      -7.968  18.202  68.584  1.00  0.00    -0.300 OA 
HETATM   18  H   UNL     1      -8.068  18.998  68.076  1.00  0.00     0.000 HD 
ENDBRANCH  13  16
ENDBRANCH  10  13
ENDBRANCH   1  10
BRANCH   7  19
HETATM   19  N   UNL     1     -11.854  13.087  69.172  1.00  0.00    -0.312 NA 
HETATM   20  H2  UNL     1     -11.568  10.502  69.463  1.00  0.00     0.000 HD 
HETATM   21  H   UNL     1     -12.084  14.078  69.237  1.00  0.00     0.000 HD 
HETATM   22  C   UNL     1     -12.145  12.294  70.136  1.00  0.00    -0.287 C  
HETATM   23  H1  UNL     1     -12.961  12.146  72.021  1.00  0.00     0.000 HD 
HETATM   24  N   UNL     1     -11.991  10.960  70.271  1.00  0.00    -0.329 NA 
HETATM   25  H2  UNL     1     -12.938  13.773  71.331  1.00  0.00     0.000 HD 
HETATM   26  N   UNL     1     -12.729  12.778  71.254  1.00  0.00    -0.336 NA 
HETATM   27  H1  UNL     1     -12.223  10.329  71.038  1.00  0.00     0.000 HD 
ENDBRANCH   7  19
BRANCH   5  28
HETATM   28  N   UNL     1      -8.971  11.496  67.577  1.00  0.00    -0.156 N  
HETATM   29  C   UNL     1      -8.825  10.337  68.313  1.00  0.00    -0.126 C  
HETATM   30  H   UNL     1      -8.606  11.534  66.625  1.00  0.00     0.000 HD 
HETATM   31  C   UNL     1      -8.288   9.185  67.510  1.00  0.00    -0.116 C  
HETATM   32  O   UNL     1      -9.120  10.240  69.499  1.00  0.00    -0.206 OA 
ENDBRANCH   5  28
TORSDOF 5
ENDMDL
MODEL       86
REMARK 921   NORMALIZED FREE ENERGY PREDICTED BY IDOCK:   -4.60 KCAL/MOL
REMARK 922        TOTAL FREE ENERGY PREDICTED BY IDOCK:   -7.54 KCAL/MOL
REMARK 923 INTER-LIGAND FREE ENERGY PREDICTED BY IDOCK:   -6.57 KCAL/MOL
REMARK 924 INTRA-LIGAND FREE ENERGY PREDICTED BY IDOCK:   -0.98 KCAL/MOL
REMARK 927      BINDING AFFINITY PREDICTED BY RF-SCORE:    0.00 PKD
ROOT
HETATM    1  C   UNL     1     -11.232   9.910  69.392  1.00  0.00    -0.153 C  
HETATM    2  O   UNL     1     -11.034   8.504  69.218  1.00  0.00    -0.114 OA 
HETATM    3  O   UNL     1     -10.961   5.967  68.735  1.00  0.00    -0.317 OA 
HETATM    4  C   UNL     1      -9.809   6.576  68.371  1.00  0.00    -0.137 C  
HETATM    5  C   UNL     1     -10.155  10.883  68.811  1.00  0.00    -0.194 C  
HETATM    6  C   UNL     1      -9.863   8.035  68.689  1.00  0.00    -0.174 C  
HETATM    7  C   UNL     1      -8.742  10.247  68.687  1.00  0.00    -0.133 C  
HETATM    8  C   UNL     1      -8.790   8.787  68.444  1.00  0.00    -0.138 C  
HETATM    9  O   UNL     1      -8.879   6.006  67.823  1.00  0.00    -0.109 OA 
ENDROOT
BRANCH   1  10
HETATM   10  C   UNL     1     -11.534  10.248  70.880  1.00  0.00    -0.339 C  
HETATM   11  O   UNL     1     -11.031   9.234  71.767  1.00  0.00    -0.369 OA 
HETATM   12  H   UNL     1     -11.215   9.441  72.676  1.00  0.00     0.000 HD 
BRANCH  10  13
HETATM   13  C   UNL     1     -13.033  10.490  71.212  1.00  0.00    -0.433 C  
HETATM   14  H   UNL     1     -14.103  11.691  72.382  1.00  0.00     0.000 HD 
HETATM   15  O   UNL     1     -13.187  11.544  72.178  1.00  0.00    -0.505 OA 
BRANCH  13  16
HETATM   16  C   UNL     1     -13.745   9.233  71.746  1.00  0.00    -0.377 C  
HETATM   17  O   UNL     1     -13.703   9.158  73.176  1.00  0.00    -0.980 OA 
HETATM   18  H   UNL     1     -14.143   8.383  73.505  1.00  0.00     0.000 HD 
ENDBRANCH  13  16
ENDBRANCH  10  13
ENDBRANCH   1  10
BRANCH   7  19
HETATM   19  N   UNL     1      -7.984  10.504  69.916  1.00  0.00    -0.360 NA 
HETATM   20  H2  UNL     1      -6.343  10.702  67.888  1.00  0.00     0.000 HD 
HETATM   21  H   UNL     1      -8.445  10.442  70.824  1.00  0.00     0.000 HD 
HETATM   22  C   UNL     1      -6.741  10.806  69.844  1.00  0.00    -0.156 C  
HETATM   23  H1  UNL     1      -5.057  11.315  70.914  1.00  0.00     0.000 HD 
HETATM   24  N   UNL     1      -5.907  10.904  68.788  1.00  0.00    -0.040 NA 
HETATM   25  H2  UNL     1      -6.511  11.038  71.878  1.00  0.00     0.000 HD 
HETATM   26  N   UNL     1      -6.046  11.075  70.971  1.00  0.00    -0.354 NA 
HETATM   27  H1  UNL     1      -4.917  11.144  68.731  1.00  0.00     0.000 HD 
ENDBRANCH   7  19
BRANCH   5  28
HETATM   28  N   UNL     1     -10.568  11.472  67.513  1.00  0.00    -0.198 N  
HETATM   29  C   UNL     1     -11.313  12.633  67.461  1.00  0.00    -0.308 C  
HETATM   30  H   UNL     1     -10.297  11.011  66.644  1.00  0.00     0.000 HD 
HETATM   31  C   UNL     1     -11.471  13.177  66.068  1.00  0.00    -0.370 C  
HETATM   32  O   UNL     1     -11.786  13.186  68.448  1.00  0.00    -0.310 OA 
ENDBRANCH   5  28
TORSDOF 5
ENDMDL
MODEL       87
REMARK 921   NORMALIZED FREE ENERGY PREDICTED BY IDOCK:   -4.59 KCAL/MOL
REMARK 922        TOTAL FREE ENERGY PREDICTED BY IDOCK:   -7.52 KCAL/MOL
REMARK 923 INTER-LIGAND FREE ENERGY PREDICTED BY IDOCK:   -7.07 KCAL/MOL
REMARK 924 INTRA-LIGAND FREE ENERGY PREDICTED BY IDOCK:   -0.45 KCAL/MOL
REMARK 927      BINDING AFFINITY PREDICTED BY RF-SCORE:    0.00 PKD
ROOT
HETATM    1  C   UNL     1      -9.199  12.863  67.233  1.00  0.00    -0.208 C  
HETATM    2  O   UNL     1     -10.188  12.563  68.223  1.00  0.00    -0.224 OA 
HETATM    3  O   UNL     1     -11.742  11.835  70.154  1.00  0.00    -0.316 OA 
HETATM    4  C   UNL     1     -11.718  13.180  70.015  1.00  0.00    -0.221 C  
HETATM    5  C   UNL     1      -8.774  14.356  67.047  1.00  0.00    -0.223 C  
HETATM    6  C   UNL     1     -10.838  13.576  68.874  1.00  0.00    -0.224 C  
HETATM    7  C   UNL     1      -9.869  15.374  67.470  1.00  0.00    -0.217 C  
HETATM    8  C   UNL     1     -10.735  14.867  68.557  1.00  0.00    -0.245 C  
HETATM    9  O   UNL     1     -12.306  13.954  70.754  1.00  0.00    -0.338 OA 
ENDROOT
BRANCH   1  10
HETATM   10  C   UNL     1      -9.569  12.221  65.866  1.00  0.00    -0.198 C  
HETATM   11  O   UNL     1      -9.882  13.221  64.879  1.00  0.00    -0.553 OA 
HETATM   12  H   UNL     1     -10.107  12.829  64.043  1.00  0.00     0.000 HD 
BRANCH  10  13
HETATM   13  C   UNL     1     -10.735  11.195  65.910  1.00  0.00    -0.198 C  
HETATM   14  H   UNL     1     -12.670  11.190  66.368  1.00  0.00     0.000 HD 
HETATM   15  O   UNL     1     -11.958  11.817  66.341  1.00  0.00    -0.515 OA 
BRANCH  13  16
HETATM   16  C   UNL     1     -10.450   9.993  66.830  1.00  0.00    -0.198 C  
HETATM   17  O   UNL     1     -10.192   8.797  66.085  1.00  0.00    -0.405 OA 
HETATM   18  H   UNL     1     -10.016   8.056  66.652  1.00  0.00     0.000 HD 
ENDBRANCH  13  16
ENDBRANCH  10  13
ENDBRANCH   1  10
BRANCH   7  19
HETATM   19  N   UNL     1     -10.701  15.703  66.308  1.00  0.00    -0.309 NA 
HETATM   20  H2  UNL     1      -9.022  17.672  66.692  1.00  0.00     0.000 HD 
HETATM   21  H   UNL     1     -11.443  15.068  66.013  1.00  0.00     0.000 HD 
HETATM   22  C   UNL     1     -10.491  16.790  65.663  1.00  0.00    -0.269 C  
HETATM   23  H1  UNL     1     -11.067  17.948  64.060  1.00  0.00     0.000 HD 
HETATM   24  N   UNL     1      -9.620  17.798  65.875  1.00  0.00    -0.527 NA 
HETATM   25  H2  UNL     1     -11.961  16.437  64.263  1.00  0.00     0.000 HD 
HETATM   26  N   UNL     1     -11.234  17.082  64.573  1.00  0.00    -1.059 NA 
HETATM   27  H1  UNL     1      -9.453  18.664  65.362  1.00  0.00     0.000 HD 
ENDBRANCH   7  19
BRANCH   5  28
HETATM   28  N   UNL     1      -7.493  14.667  67.729  1.00  0.00    -0.149 N  
HETATM   29  C   UNL     1      -6.714  15.737  67.336  1.00  0.00    -0.194 C  
HETATM   30  H   UNL     1      -7.182  14.079  68.503  1.00  0.00     0.000 HD 
HETATM   31  C   UNL     1      -5.560  16.005  68.260  1.00  0.00    -0.110 C  
HETATM   32  O   UNL     1      -6.944  16.420  66.344  1.00  0.00    -0.168 OA 
ENDBRANCH   5  28
TORSDOF 5
ENDMDL
MODEL       88
REMARK 921   NORMALIZED FREE ENERGY PREDICTED BY IDOCK:   -4.58 KCAL/MOL
REMARK 922        TOTAL FREE ENERGY PREDICTED BY IDOCK:   -7.51 KCAL/MOL
REMARK 923 INTER-LIGAND FREE ENERGY PREDICTED BY IDOCK:   -6.63 KCAL/MOL
REMARK 924 INTRA-LIGAND FREE ENERGY PREDICTED BY IDOCK:   -0.88 KCAL/MOL
REMARK 927      BINDING AFFINITY PREDICTED BY RF-SCORE:    0.00 PKD
ROOT
HETATM    1  C   UNL     1     -10.453  14.917  67.854  1.00  0.00    -0.250 C  
HETATM    2  O   UNL     1     -11.582  14.535  67.062  1.00  0.00    -0.359 OA 
HETATM    3  O   UNL     1     -13.646  14.165  65.553  1.00  0.00    -0.568 OA 
HETATM    4  C   UNL     1     -12.631  13.336  65.219  1.00  0.00    -0.470 C  
HETATM    5  C   UNL     1      -9.062  14.296  67.500  1.00  0.00    -0.193 C  
HETATM    6  C   UNL     1     -11.460  13.546  66.124  1.00  0.00    -0.325 C  
HETATM    7  C   UNL     1      -9.156  12.918  66.790  1.00  0.00    -0.211 C  
HETATM    8  C   UNL     1     -10.383  12.776  65.973  1.00  0.00    -0.291 C  
HETATM    9  O   UNL     1     -12.665  12.558  64.279  1.00  0.00    -0.658 OA 
ENDROOT
BRANCH   1  10
HETATM   10  C   UNL     1     -10.758  14.755  69.370  1.00  0.00    -0.239 C  
HETATM   11  O   UNL     1     -11.160  13.411  69.690  1.00  0.00    -0.451 OA 
HETATM   12  H   UNL     1     -11.346  13.313  70.617  1.00  0.00     0.000 HD 
BRANCH  10  13
HETATM   13  C   UNL     1     -11.824  15.733  69.939  1.00  0.00    -0.344 C  
HETATM   14  H   UNL     1     -12.098  16.810  71.588  1.00  0.00     0.000 HD 
HETATM   15  O   UNL     1     -11.446  16.213  71.241  1.00  0.00    -0.418 OA 
BRANCH  13  16
HETATM   16  C   UNL     1     -13.228  15.108  70.039  1.00  0.00     0.244 C  
HETATM   17  O   UNL     1     -13.974  15.637  71.141  1.00  0.00    -0.719 OA 
HETATM   18  H   UNL     1     -14.840  15.251  71.202  1.00  0.00     0.000 HD 
ENDBRANCH  13  16
ENDBRANCH  10  13
ENDBRANCH   1  10
BRANCH   7  19
HETATM   19  N   UNL     1      -9.123  11.850  67.794  1.00  0.00    -0.174 NA 
HETATM   20  H2  UNL     1      -7.196  11.416  66.079  1.00  0.00     0.000 HD 
HETATM   21  H   UNL     1      -9.821  11.825  68.538  1.00  0.00     0.000 HD 
HETATM   22  C   UNL     1      -8.214  10.949  67.735  1.00  0.00    -0.116 C  
HETATM   23  H1  UNL     1      -7.436   9.265  68.629  1.00  0.00     0.000 HD 
HETATM   24  N   UNL     1      -7.225  10.738  66.841  1.00  0.00    -0.108 NA 
HETATM   25  H2  UNL     1      -8.842   9.969  69.435  1.00  0.00     0.000 HD 
HETATM   26  N   UNL     1      -8.160   9.982  68.677  1.00  0.00    -0.098 NA 
HETATM   27  H1  UNL     1      -6.501  10.021  66.793  1.00  0.00     0.000 HD 
ENDBRANCH   7  19
BRANCH   5  28
HETATM   28  N   UNL     1      -8.215  15.224  66.710  1.00  0.00    -0.313 N  
HETATM   29  C   UNL     1      -7.593  16.305  67.304  1.00  0.00    -0.171 C  
HETATM   30  H   UNL     1      -8.091  15.061  65.711  1.00  0.00     0.000 HD 
HETATM   31  C   UNL     1      -6.631  17.013  66.391  1.00  0.00    -0.201 C  
HETATM   32  O   UNL     1      -7.782  16.648  68.465  1.00  0.00    -0.192 OA 
ENDBRANCH   5  28
TORSDOF 5
ENDMDL
MODEL       89
REMARK 921   NORMALIZED FREE ENERGY PREDICTED BY IDOCK:   -4.56 KCAL/MOL
REMARK 922        TOTAL FREE ENERGY PREDICTED BY IDOCK:   -7.48 KCAL/MOL
REMARK 923 INTER-LIGAND FREE ENERGY PREDICTED BY IDOCK:   -6.16 KCAL/MOL
REMARK 924 INTRA-LIGAND FREE ENERGY PREDICTED BY IDOCK:   -1.32 KCAL/MOL
REMARK 927      BINDING AFFINITY PREDICTED BY RF-SCORE:    0.00 PKD
ROOT
HETATM    1  C   UNL     1      -9.715  14.317  66.671  1.00  0.00    -0.287 C  
HETATM    2  O   UNL     1     -10.019  13.485  65.547  1.00  0.00    -0.281 OA 
HETATM    3  O   UNL     1     -10.313  12.131  63.367  1.00  0.00    -0.437 OA 
HETATM    4  C   UNL     1     -10.245  11.322  64.450  1.00  0.00    -0.320 C  
HETATM    5  C   UNL     1      -9.327  13.623  68.017  1.00  0.00    -0.208 C  
HETATM    6  C   UNL     1     -10.107  12.129  65.701  1.00  0.00    -0.248 C  
HETATM    7  C   UNL     1      -9.909  12.191  68.171  1.00  0.00    -0.207 C  
HETATM    8  C   UNL     1     -10.076  11.497  66.874  1.00  0.00    -0.241 C  
HETATM    9  O   UNL     1     -10.256  10.102  64.394  1.00  0.00    -0.221 OA 
ENDROOT
BRANCH   1  10
HETATM   10  C   UNL     1     -10.833  15.374  66.899  1.00  0.00    -0.313 C  
HETATM   11  O   UNL     1     -10.777  16.426  65.919  1.00  0.00    -0.298 OA 
HETATM   12  H   UNL     1     -11.460  17.071  66.058  1.00  0.00     0.000 HD 
BRANCH  10  13
HETATM   13  C   UNL     1     -10.853  16.022  68.311  1.00  0.00    -0.319 C  
HETATM   14  H   UNL     1     -12.132  16.212  69.822  1.00  0.00     0.000 HD 
HETATM   15  O   UNL     1     -12.120  15.815  68.959  1.00  0.00    -0.349 OA 
BRANCH  13  16
HETATM   16  C   UNL     1     -10.559  17.534  68.288  1.00  0.00    -0.354 C  
HETATM   17  O   UNL     1      -9.163  17.806  68.121  1.00  0.00    -0.262 OA 
HETATM   18  H   UNL     1      -8.982  18.739  68.106  1.00  0.00     0.000 HD 
ENDBRANCH  13  16
ENDBRANCH  10  13
ENDBRANCH   1  10
BRANCH   7  19
HETATM   19  N   UNL     1     -11.209  12.265  68.846  1.00  0.00    -0.256 NA 
HETATM   20  H2  UNL     1      -9.847  10.303  69.913  1.00  0.00     0.000 HD 
HETATM   21  H   UNL     1     -11.902  12.953  68.549  1.00  0.00     0.000 HD 
HETATM   22  C   UNL     1     -11.471  11.463  69.810  1.00  0.00    -0.300 C  
HETATM   23  H1  UNL     1     -12.863  10.910  71.224  1.00  0.00     0.000 HD 
HETATM   24  N   UNL     1     -10.757  10.453  70.350  1.00  0.00    -0.441 NA 
HETATM   25  H2  UNL     1     -13.339  12.251  70.177  1.00  0.00     0.000 HD 
HETATM   26  N   UNL     1     -12.655  11.549  70.456  1.00  0.00    -0.240 NA 
HETATM   27  H1  UNL     1     -10.965   9.814  71.117  1.00  0.00     0.000 HD 
ENDBRANCH   7  19
BRANCH   5  28
HETATM   28  N   UNL     1      -7.860  13.607  68.241  1.00  0.00    -0.133 N  
HETATM   29  C   UNL     1      -7.254  14.529  69.072  1.00  0.00    -0.130 C  
HETATM   30  H   UNL     1      -7.289  12.903  67.773  1.00  0.00     0.000 HD 
HETATM   31  C   UNL     1      -5.801  14.238  69.324  1.00  0.00    -0.088 C  
HETATM   32  O   UNL     1      -7.838  15.481  69.576  1.00  0.00    -0.224 OA 
ENDBRANCH   5  28
TORSDOF 5
ENDMDL
MODEL       90
REMARK 921   NORMALIZED FREE ENERGY PREDICTED BY IDOCK:   -4.53 KCAL/MOL
REMARK 922        TOTAL FREE ENERGY PREDICTED BY IDOCK:   -7.45 KCAL/MOL
REMARK 923 INTER-LIGAND FREE ENERGY PREDICTED BY IDOCK:   -6.43 KCAL/MOL
REMARK 924 INTRA-LIGAND FREE ENERGY PREDICTED BY IDOCK:   -1.02 KCAL/MOL
REMARK 927      BINDING AFFINITY PREDICTED BY RF-SCORE:    0.00 PKD
ROOT
HETATM    1  C   UNL     1      -9.354  11.497  68.262  1.00  0.00    -0.190 C  
HETATM    2  O   UNL     1     -10.056  10.711  69.229  1.00  0.00    -0.217 OA 
HETATM    3  O   UNL     1     -11.075   9.359  71.180  1.00  0.00    -0.301 OA 
HETATM    4  C   UNL     1     -11.962  10.245  70.674  1.00  0.00    -0.342 C  
HETATM    5  C   UNL     1     -10.062  12.771  67.694  1.00  0.00    -0.220 C  
HETATM    6  C   UNL     1     -11.361  10.993  69.527  1.00  0.00    -0.287 C  
HETATM    7  C   UNL     1     -11.613  12.696  67.743  1.00  0.00    -0.348 C  
HETATM    8  C   UNL     1     -12.113  11.877  68.870  1.00  0.00    -0.213 C  
HETATM    9  O   UNL     1     -13.081  10.428  71.127  1.00  0.00    -0.379 OA 
ENDROOT
BRANCH   1  10
HETATM   10  C   UNL     1      -8.815  10.606  67.107  1.00  0.00    -0.137 C  
HETATM   11  O   UNL     1      -9.630   9.436  66.915  1.00  0.00    -0.148 OA 
HETATM   12  H   UNL     1      -9.300   8.892  66.209  1.00  0.00     0.000 HD 
BRANCH  10  13
HETATM   13  C   UNL     1      -7.335  10.153  67.256  1.00  0.00    -0.090 C  
HETATM   14  H   UNL     1      -5.806  10.507  68.477  1.00  0.00     0.000 HD 
HETATM   15  O   UNL     1      -6.711  10.784  68.386  1.00  0.00    -0.058 OA 
BRANCH  13  16
HETATM   16  C   UNL     1      -6.484  10.442  66.005  1.00  0.00    -0.119 C  
HETATM   17  O   UNL     1      -5.843  11.721  66.076  1.00  0.00    -0.492 OA 
HETATM   18  H   UNL     1      -5.318  11.899  65.305  1.00  0.00     0.000 HD 
ENDBRANCH  13  16
ENDBRANCH  10  13
ENDBRANCH   1  10
BRANCH   7  19
HETATM   19  N   UNL     1     -12.112  12.134  66.484  1.00  0.00    -0.582 NA 
HETATM   20  H2  UNL     1     -11.987  14.734  66.224  1.00  0.00     0.000 HD 
HETATM   21  H   UNL     1     -12.261  11.129  66.395  1.00  0.00     0.000 HD 
HETATM   22  C   UNL     1     -12.360  12.911  65.495  1.00  0.00    -0.461 C  
HETATM   23  H1  UNL     1     -12.986  13.014  63.536  1.00  0.00     0.000 HD 
HETATM   24  N   UNL     1     -12.290  14.253  65.377  1.00  0.00    -0.424 NA 
HETATM   25  H2  UNL     1     -12.916  11.388  64.224  1.00  0.00     0.000 HD 
HETATM   26  N   UNL     1     -12.789  12.395  64.323  1.00  0.00    -0.717 NA 
HETATM   27  H1  UNL     1     -12.487  14.872  64.590  1.00  0.00     0.000 HD 
ENDBRANCH   7  19
BRANCH   5  28
HETATM   28  N   UNL     1      -9.587  14.017  68.345  1.00  0.00    -0.220 N  
HETATM   29  C   UNL     1      -8.372  14.580  68.009  1.00  0.00    -0.153 C  
HETATM   30  H   UNL     1     -10.168  14.465  69.053  1.00  0.00     0.000 HD 
HETATM   31  C   UNL     1      -8.151  15.932  68.628  1.00  0.00    -0.162 C  
HETATM   32  O   UNL     1      -7.556  14.050  67.263  1.00  0.00    -0.171 OA 
ENDBRANCH   5  28
TORSDOF 5
ENDMDL
MODEL       91
REMARK 921   NORMALIZED FREE ENERGY PREDICTED BY IDOCK:   -4.51 KCAL/MOL
REMARK 922        TOTAL FREE ENERGY PREDICTED BY IDOCK:   -7.43 KCAL/MOL
REMARK 923 INTER-LIGAND FREE ENERGY PREDICTED BY IDOCK:   -6.52 KCAL/MOL
REMARK 924 INTRA-LIGAND FREE ENERGY PREDICTED BY IDOCK:   -0.90 KCAL/MOL
REMARK 927      BINDING AFFINITY PREDICTED BY RF-SCORE:    0.00 PKD
ROOT
HETATM    1  C   UNL     1      -9.462  12.616  68.172  1.00  0.00    -0.218 C  
HETATM    2  O   UNL     1      -9.246  11.218  68.393  1.00  0.00    -0.166 OA 
HETATM    3  O   UNL     1      -8.726   8.784  69.081  1.00  0.00    -0.133 OA 
HETATM    4  C   UNL     1     -10.017   8.929  68.707  1.00  0.00    -0.184 C  
HETATM    5  C   UNL     1     -10.931  13.111  67.975  1.00  0.00    -0.247 C  
HETATM    6  C   UNL     1     -10.287  10.337  68.284  1.00  0.00    -0.181 C  
HETATM    7  C   UNL     1     -11.888  12.021  67.419  1.00  0.00    -0.198 C  
HETATM    8  C   UNL     1     -11.501  10.653  67.833  1.00  0.00    -0.261 C  
HETATM    9  O   UNL     1     -10.848   8.035  68.753  1.00  0.00    -0.097 OA 
ENDROOT
BRANCH   1  10
HETATM   10  C   UNL     1      -8.544  13.147  67.035  1.00  0.00    -0.162 C  
HETATM   11  O   UNL     1      -7.831  12.079  66.386  1.00  0.00    -0.380 OA 
HETATM   12  H   UNL     1      -7.270  12.403  65.691  1.00  0.00     0.000 HD 
BRANCH  10  13
HETATM   13  C   UNL     1      -7.516  14.230  67.465  1.00  0.00    -0.182 C  
HETATM   14  H   UNL     1      -5.800  14.311  68.468  1.00  0.00     0.000 HD 
HETATM   15  O   UNL     1      -6.428  13.649  68.205  1.00  0.00    -0.086 OA 
BRANCH  13  16
HETATM   16  C   UNL     1      -8.139  15.352  68.317  1.00  0.00    -0.136 C  
HETATM   17  O   UNL     1      -7.835  15.202  69.708  1.00  0.00    -0.316 OA 
HETATM   18  H   UNL     1      -8.219  15.894  70.233  1.00  0.00     0.000 HD 
ENDBRANCH  13  16
ENDBRANCH  10  13
ENDBRANCH   1  10
BRANCH   7  19
HETATM   19  N   UNL     1     -11.907  12.091  65.954  1.00  0.00    -0.510 NA 
HETATM   20  H2  UNL     1     -13.226  14.149  66.887  1.00  0.00     0.000 HD 
HETATM   21  H   UNL     1     -11.469  11.355  65.400  1.00  0.00     0.000 HD 
HETATM   22  C   UNL     1     -12.477  13.081  65.373  1.00  0.00    -0.476 C  
HETATM   23  H1  UNL     1     -12.923  13.955  63.563  1.00  0.00     0.000 HD 
HETATM   24  N   UNL     1     -13.155  14.136  65.870  1.00  0.00    -0.510 NA 
HETATM   25  H2  UNL     1     -12.010  12.445  63.470  1.00  0.00     0.000 HD 
HETATM   26  N   UNL     1     -12.469  13.167  64.025  1.00  0.00    -0.651 NA 
HETATM   27  H1  UNL     1     -13.609  14.925  65.408  1.00  0.00     0.000 HD 
ENDBRANCH   7  19
BRANCH   5  28
HETATM   28  N   UNL     1     -11.496  13.709  69.210  1.00  0.00    -0.276 N  
HETATM   29  C   UNL     1     -11.880  15.035  69.252  1.00  0.00    -0.315 C  
HETATM   30  H   UNL     1     -11.602  13.130  70.043  1.00  0.00     0.000 HD 
HETATM   31  C   UNL     1     -12.601  15.406  70.517  1.00  0.00    -0.471 C  
HETATM   32  O   UNL     1     -11.677  15.833  68.344  1.00  0.00    -0.366 OA 
ENDBRANCH   5  28
TORSDOF 5
ENDMDL
MODEL       92
REMARK 921   NORMALIZED FREE ENERGY PREDICTED BY IDOCK:   -4.48 KCAL/MOL
REMARK 922        TOTAL FREE ENERGY PREDICTED BY IDOCK:   -7.38 KCAL/MOL
REMARK 923 INTER-LIGAND FREE ENERGY PREDICTED BY IDOCK:   -6.23 KCAL/MOL
REMARK 924 INTRA-LIGAND FREE ENERGY PREDICTED BY IDOCK:   -1.16 KCAL/MOL
REMARK 927      BINDING AFFINITY PREDICTED BY RF-SCORE:    0.00 PKD
ROOT
HETATM    1  C   UNL     1      -7.780  17.516  66.198  1.00  0.00    -0.268 C  
HETATM    2  O   UNL     1      -8.450  18.696  66.651  1.00  0.00    -0.274 OA 
HETATM    3  O   UNL     1      -9.834  20.810  67.188  1.00  0.00    -0.463 OA 
HETATM    4  C   UNL     1      -9.865  19.923  68.208  1.00  0.00    -0.399 C  
HETATM    5  C   UNL     1      -7.883  16.228  67.078  1.00  0.00    -0.218 C  
HETATM    6  C   UNL     1      -9.034  18.723  67.888  1.00  0.00    -0.295 C  
HETATM    7  C   UNL     1      -8.137  16.519  68.583  1.00  0.00    -0.233 C  
HETATM    8  C   UNL     1      -8.907  17.763  68.805  1.00  0.00    -0.205 C  
HETATM    9  O   UNL     1     -10.521  20.075  69.228  1.00  0.00    -0.224 OA 
ENDROOT
BRANCH   1  10
HETATM   10  C   UNL     1      -6.298  17.821  65.840  1.00  0.00    -0.218 C  
HETATM   11  O   UNL     1      -5.416  16.782  66.303  1.00  0.00    -0.314 OA 
HETATM   12  H   UNL     1      -4.511  16.968  66.083  1.00  0.00     0.000 HD 
BRANCH  10  13
HETATM   13  C   UNL     1      -5.760  19.185  66.355  1.00  0.00    -0.157 C  
HETATM   14  H   UNL     1      -5.468  20.083  68.105  1.00  0.00     0.000 HD 
HETATM   15  O   UNL     1      -5.797  19.249  67.791  1.00  0.00    -0.194 OA 
BRANCH  13  16
HETATM   16  C   UNL     1      -6.534  20.392  65.793  1.00  0.00    -0.238 C  
HETATM   17  O   UNL     1      -6.914  21.312  66.823  1.00  0.00    -0.649 OA 
HETATM   18  H   UNL     1      -7.391  22.057  66.477  1.00  0.00     0.000 HD 
ENDBRANCH  13  16
ENDBRANCH  10  13
ENDBRANCH   1  10
BRANCH   7  19
HETATM   19  N   UNL     1      -6.851  16.620  69.282  1.00  0.00    -0.228 NA 
HETATM   20  H2  UNL     1      -7.841  14.241  69.734  1.00  0.00     0.000 HD 
HETATM   21  H   UNL     1      -6.320  17.490  69.253  1.00  0.00     0.000 HD 
HETATM   22  C   UNL     1      -6.399  15.611  69.929  1.00  0.00    -0.150 C  
HETATM   23  H1  UNL     1      -4.840  14.885  71.062  1.00  0.00     0.000 HD 
HETATM   24  N   UNL     1      -6.922  14.388  70.153  1.00  0.00    -0.398 NA 
HETATM   25  H2  UNL     1      -4.656  16.549  70.499  1.00  0.00     0.000 HD 
HETATM   26  N   UNL     1      -5.200  15.689  70.547  1.00  0.00    -0.151 NA 
HETATM   27  H1  UNL     1      -6.562  13.584  70.668  1.00  0.00     0.000 HD 
ENDBRANCH   7  19
BRANCH   5  28
HETATM   28  N   UNL     1      -8.894  15.272  66.563  1.00  0.00    -0.314 N  
HETATM   29  C   UNL     1      -8.820  13.925  66.857  1.00  0.00    -0.193 C  
HETATM   30  H   UNL     1      -9.658  15.616  65.980  1.00  0.00     0.000 HD 
HETATM   31  C   UNL     1     -10.029  13.150  66.410  1.00  0.00    -0.282 C  
HETATM   32  O   UNL     1      -7.877  13.405  67.443  1.00  0.00    -0.161 OA 
ENDBRANCH   5  28
TORSDOF 5
ENDMDL
MODEL       93
REMARK 921   NORMALIZED FREE ENERGY PREDICTED BY IDOCK:   -4.48 KCAL/MOL
REMARK 922        TOTAL FREE ENERGY PREDICTED BY IDOCK:   -7.38 KCAL/MOL
REMARK 923 INTER-LIGAND FREE ENERGY PREDICTED BY IDOCK:   -5.93 KCAL/MOL
REMARK 924 INTRA-LIGAND FREE ENERGY PREDICTED BY IDOCK:   -1.45 KCAL/MOL
REMARK 927      BINDING AFFINITY PREDICTED BY RF-SCORE:    0.00 PKD
ROOT
HETATM    1  C   UNL     1     -10.540   8.875  67.410  1.00  0.00    -0.235 C  
HETATM    2  O   UNL     1     -11.036  10.146  66.979  1.00  0.00    -0.209 OA 
HETATM    3  O   UNL     1     -12.205  12.281  66.114  1.00  0.00    -0.647 OA 
HETATM    4  C   UNL     1     -11.738  12.445  67.372  1.00  0.00    -0.347 C  
HETATM    5  C   UNL     1     -10.168   8.703  68.919  1.00  0.00    -0.207 C  
HETATM    6  C   UNL     1     -11.039  11.210  67.840  1.00  0.00    -0.273 C  
HETATM    7  C   UNL     1      -9.779  10.033  69.621  1.00  0.00    -0.229 C  
HETATM    8  C   UNL     1     -10.468  11.209  69.045  1.00  0.00    -0.233 C  
HETATM    9  O   UNL     1     -11.908  13.455  68.038  1.00  0.00    -0.337 OA 
ENDROOT
BRANCH   1  10
HETATM   10  C   UNL     1      -9.376   8.395  66.498  1.00  0.00    -0.201 C  
HETATM   11  O   UNL     1      -8.259   7.918  67.270  1.00  0.00    -0.119 OA 
HETATM   12  H   UNL     1      -7.548   7.624  66.713  1.00  0.00     0.000 HD 
BRANCH  10  13
HETATM   13  C   UNL     1      -8.853   9.448  65.482  1.00  0.00    -0.184 C  
HETATM   14  H   UNL     1      -8.404   9.525  63.546  1.00  0.00     0.000 HD 
HETATM   15  O   UNL     1      -8.723   8.881  64.167  1.00  0.00    -0.158 OA 
BRANCH  13  16
HETATM   16  C   UNL     1      -7.497  10.058  65.884  1.00  0.00    -0.115 C  
HETATM   17  O   UNL     1      -7.538  11.489  65.907  1.00  0.00    -0.357 OA 
HETATM   18  H   UNL     1      -6.702  11.865  66.156  1.00  0.00     0.000 HD 
ENDBRANCH  13  16
ENDBRANCH  10  13
ENDBRANCH   1  10
BRANCH   7  19
HETATM   19  N   UNL     1      -8.329  10.229  69.520  1.00  0.00    -0.246 NA 
HETATM   20  H2  UNL     1      -8.818   8.863  71.697  1.00  0.00     0.000 HD 
HETATM   21  H   UNL     1      -7.938  10.770  68.749  1.00  0.00     0.000 HD 
HETATM   22  C   UNL     1      -7.556   9.718  70.405  1.00  0.00    -0.148 C  
HETATM   23  H1  UNL     1      -5.602   9.462  71.003  1.00  0.00     0.000 HD 
HETATM   24  N   UNL     1      -7.823   9.015  71.524  1.00  0.00    -0.330 NA 
HETATM   25  H2  UNL     1      -5.823  10.389  69.515  1.00  0.00     0.000 HD 
HETATM   26  N   UNL     1      -6.217   9.869  70.298  1.00  0.00    -0.070 NA 
HETATM   27  H1  UNL     1      -7.208   8.608  72.229  1.00  0.00     0.000 HD 
ENDBRANCH   7  19
BRANCH   5  28
HETATM   28  N   UNL     1     -11.233   8.009  69.686  1.00  0.00    -0.447 N  
HETATM   29  C   UNL     1     -10.922   7.113  70.690  1.00  0.00    -0.258 C  
HETATM   30  H   UNL     1     -12.211   8.198  69.468  1.00  0.00     0.000 HD 
HETATM   31  C   UNL     1     -12.121   6.661  71.476  1.00  0.00    -0.406 C  
HETATM   32  O   UNL     1      -9.783   6.734  70.937  1.00  0.00    -0.178 OA 
ENDBRANCH   5  28
TORSDOF 5
ENDMDL
MODEL       94
REMARK 921   NORMALIZED FREE ENERGY PREDICTED BY IDOCK:   -4.47 KCAL/MOL
REMARK 922        TOTAL FREE ENERGY PREDICTED BY IDOCK:   -7.38 KCAL/MOL
REMARK 923 INTER-LIGAND FREE ENERGY PREDICTED BY IDOCK:   -5.83 KCAL/MOL
REMARK 924 INTRA-LIGAND FREE ENERGY PREDICTED BY IDOCK:   -1.55 KCAL/MOL
REMARK 927      BINDING AFFINITY PREDICTED BY RF-SCORE:    0.00 PKD
ROOT
HETATM    1  C   UNL     1      -9.637   6.823  69.858  1.00  0.00    -0.155 C  
HETATM    2  O   UNL     1      -8.761   6.889  70.987  1.00  0.00    -0.135 OA 
HETATM    3  O   UNL     1      -7.000   6.775  72.874  1.00  0.00    -0.074 OA 
HETATM    4  C   UNL     1      -7.195   8.045  72.452  1.00  0.00    -0.095 C  
HETATM    5  C   UNL     1      -9.838   8.119  69.006  1.00  0.00    -0.176 C  
HETATM    6  C   UNL     1      -8.240   8.090  71.383  1.00  0.00    -0.112 C  
HETATM    7  C   UNL     1      -9.597   9.432  69.801  1.00  0.00    -0.201 C  
HETATM    8  C   UNL     1      -8.600   9.272  70.883  1.00  0.00    -0.220 C  
HETATM    9  O   UNL     1      -6.568   9.008  72.866  1.00  0.00    -0.316 OA 
ENDROOT
BRANCH   1  10
HETATM   10  C   UNL     1     -11.008   6.206  70.254  1.00  0.00    -0.349 C  
HETATM   11  O   UNL     1     -12.026   6.507  69.282  1.00  0.00    -0.519 OA 
HETATM   12  H   UNL     1     -12.863   6.130  69.523  1.00  0.00     0.000 HD 
BRANCH  10  13
HETATM   13  C   UNL     1     -11.537   6.613  71.657  1.00  0.00    -0.304 C  
HETATM   14  H   UNL     1     -11.743   5.775  73.449  1.00  0.00     0.000 HD 
HETATM   15  O   UNL     1     -11.420   5.526  72.591  1.00  0.00    -0.296 OA 
BRANCH  13  16
HETATM   16  C   UNL     1     -13.004   7.083  71.639  1.00  0.00    -0.352 C  
HETATM   17  O   UNL     1     -13.131   8.429  71.168  1.00  0.00    -0.495 OA 
HETATM   18  H   UNL     1     -14.035   8.718  71.156  1.00  0.00     0.000 HD 
ENDBRANCH  13  16
ENDBRANCH  10  13
ENDBRANCH   1  10
BRANCH   7  19
HETATM   19  N   UNL     1     -10.865   9.888  70.381  1.00  0.00    -0.298 NA 
HETATM   20  H2  UNL     1      -9.860  11.849  68.971  1.00  0.00     0.000 HD 
HETATM   21  H   UNL     1     -11.399   9.272  70.995  1.00  0.00     0.000 HD 
HETATM   22  C   UNL     1     -11.299  11.064  70.114  1.00  0.00    -0.251 C  
HETATM   23  H1  UNL     1     -12.827  12.413  70.407  1.00  0.00     0.000 HD 
HETATM   24  N   UNL     1     -10.768  12.066  69.384  1.00  0.00    -0.450 NA 
HETATM   25  H2  UNL     1     -13.029  10.854  71.214  1.00  0.00     0.000 HD 
HETATM   26  N   UNL     1     -12.482  11.477  70.620  1.00  0.00    -0.334 NA 
HETATM   27  H1  UNL     1     -11.113  13.002  69.171  1.00  0.00     0.000 HD 
ENDBRANCH   7  19
BRANCH   5  28
HETATM   28  N   UNL     1      -9.022   8.112  67.767  1.00  0.00    -0.133 N  
HETATM   29  C   UNL     1      -9.454   8.751  66.622  1.00  0.00    -0.203 C  
HETATM   30  H   UNL     1      -8.125   7.626  67.761  1.00  0.00     0.000 HD 
HETATM   31  C   UNL     1      -8.415   8.798  65.538  1.00  0.00    -0.181 C  
HETATM   32  O   UNL     1     -10.566   9.252  66.499  1.00  0.00    -0.178 OA 
ENDBRANCH   5  28
TORSDOF 5
ENDMDL
MODEL       95
REMARK 921   NORMALIZED FREE ENERGY PREDICTED BY IDOCK:   -4.45 KCAL/MOL
REMARK 922        TOTAL FREE ENERGY PREDICTED BY IDOCK:   -7.35 KCAL/MOL
REMARK 923 INTER-LIGAND FREE ENERGY PREDICTED BY IDOCK:   -5.60 KCAL/MOL
REMARK 924 INTRA-LIGAND FREE ENERGY PREDICTED BY IDOCK:   -1.75 KCAL/MOL
REMARK 927      BINDING AFFINITY PREDICTED BY RF-SCORE:    0.00 PKD
ROOT
HETATM    1  C   UNL     1      -9.225   6.545  71.183  1.00  0.00    -0.156 C  
HETATM    2  O   UNL     1      -9.003   6.394  69.778  1.00  0.00    -0.140 OA 
HETATM    3  O   UNL     1      -8.362   5.910  67.323  1.00  0.00    -0.106 OA 
HETATM    4  C   UNL     1      -9.686   5.735  67.534  1.00  0.00    -0.119 C  
HETATM    5  C   UNL     1     -10.625   6.146  71.755  1.00  0.00    -0.223 C  
HETATM    6  C   UNL     1     -10.039   6.051  68.952  1.00  0.00    -0.176 C  
HETATM    7  C   UNL     1     -11.774   6.240  70.713  1.00  0.00    -0.220 C  
HETATM    8  C   UNL     1     -11.316   5.982  69.329  1.00  0.00    -0.245 C  
HETATM    9  O   UNL     1     -10.468   5.335  66.685  1.00  0.00    -0.252 OA 
ENDROOT
BRANCH   1  10
HETATM   10  C   UNL     1      -8.822   7.970  71.659  1.00  0.00    -0.139 C  
HETATM   11  O   UNL     1      -9.905   8.628  72.341  1.00  0.00    -0.297 OA 
HETATM   12  H   UNL     1      -9.658   9.498  72.632  1.00  0.00     0.000 HD 
BRANCH  10  13
HETATM   13  C   UNL     1      -8.298   8.917  70.544  1.00  0.00    -0.159 C  
HETATM   14  H   UNL     1      -6.812  10.215  70.297  1.00  0.00     0.000 HD 
HETATM   15  O   UNL     1      -7.132   9.636  70.979  1.00  0.00    -0.295 OA 
BRANCH  13  16
HETATM   16  C   UNL     1      -9.351   9.937  70.072  1.00  0.00    -0.190 C  
HETATM   17  O   UNL     1     -10.491   9.300  69.484  1.00  0.00    -0.207 OA 
HETATM   18  H   UNL     1     -11.140   9.929  69.193  1.00  0.00     0.000 HD 
ENDBRANCH  13  16
ENDBRANCH  10  13
ENDBRANCH   1  10
BRANCH   7  19
HETATM   19  N   UNL     1     -12.380   7.574  70.776  1.00  0.00    -0.532 NA 
HETATM   20  H2  UNL     1     -13.912   5.918  72.101  1.00  0.00     0.000 HD 
HETATM   21  H   UNL     1     -11.944   8.358  70.290  1.00  0.00     0.000 HD 
HETATM   22  C   UNL     1     -13.458   7.751  71.445  1.00  0.00    -0.264 C  
HETATM   23  H1  UNL     1     -14.861   9.125  72.066  1.00  0.00     0.000 HD 
HETATM   24  N   UNL     1     -14.238   6.885  72.124  1.00  0.00    -0.599 NA 
HETATM   25  H2  UNL     1     -13.556   9.774  71.068  1.00  0.00     0.000 HD 
HETATM   26  N   UNL     1     -14.003   8.985  71.533  1.00  0.00    -0.340 NA 
HETATM   27  H1  UNL     1     -15.097   7.025  72.657  1.00  0.00     0.000 HD 
ENDBRANCH   7  19
BRANCH   5  28
HETATM   28  N   UNL     1     -10.614   4.805  72.388  1.00  0.00    -0.202 N  
HETATM   29  C   UNL     1     -10.447   4.659  73.751  1.00  0.00    -0.238 C  
HETATM   30  H   UNL     1     -10.732   3.975  71.806  1.00  0.00     0.000 HD 
HETATM   31  C   UNL     1     -10.654   3.249  74.229  1.00  0.00    -0.251 C  
HETATM   32  O   UNL     1     -10.176   5.584  74.508  1.00  0.00    -0.251 OA 
ENDBRANCH   5  28
TORSDOF 5
ENDMDL
MODEL       96
REMARK 921   NORMALIZED FREE ENERGY PREDICTED BY IDOCK:   -4.41 KCAL/MOL
REMARK 922        TOTAL FREE ENERGY PREDICTED BY IDOCK:   -7.29 KCAL/MOL
REMARK 923 INTER-LIGAND FREE ENERGY PREDICTED BY IDOCK:   -6.56 KCAL/MOL
REMARK 924 INTRA-LIGAND FREE ENERGY PREDICTED BY IDOCK:   -0.73 KCAL/MOL
REMARK 927      BINDING AFFINITY PREDICTED BY RF-SCORE:    0.00 PKD
ROOT
HETATM    1  C   UNL     1     -11.398  13.218  66.996  1.00  0.00    -0.312 C  
HETATM    2  O   UNL     1     -10.247  14.033  66.754  1.00  0.00    -0.257 OA 
HETATM    3  O   UNL     1      -8.358  15.760  66.406  1.00  0.00    -0.284 OA 
HETATM    4  C   UNL     1      -7.958  14.737  67.197  1.00  0.00    -0.174 C  
HETATM    5  C   UNL     1     -11.293  12.102  68.086  1.00  0.00    -0.293 C  
HETATM    6  C   UNL     1      -9.056  13.736  67.358  1.00  0.00    -0.221 C  
HETATM    7  C   UNL     1      -9.844  11.591  68.319  1.00  0.00    -0.203 C  
HETATM    8  C   UNL     1      -8.822  12.632  68.067  1.00  0.00    -0.195 C  
HETATM    9  O   UNL     1      -6.862  14.675  67.732  1.00  0.00    -0.146 OA 
ENDROOT
BRANCH   1  10
HETATM   10  C   UNL     1     -11.959  12.638  65.666  1.00  0.00    -0.452 C  
HETATM   11  O   UNL     1     -11.315  11.401  65.314  1.00  0.00    -0.148 OA 
HETATM   12  H   UNL     1     -11.658  11.047  64.502  1.00  0.00     0.000 HD 
BRANCH  10  13
HETATM   13  C   UNL     1     -11.884  13.595  64.444  1.00  0.00    -0.424 C  
HETATM   14  H   UNL     1     -10.606  14.004  62.976  1.00  0.00     0.000 HD 
HETATM   15  O   UNL     1     -10.652  13.419  63.723  1.00  0.00    -0.138 OA 
BRANCH  13  16
HETATM   16  C   UNL     1     -12.016  15.081  64.827  1.00  0.00    -0.311 C  
HETATM   17  O   UNL     1     -11.803  15.946  63.706  1.00  0.00    -1.221 OA 
HETATM   18  H   UNL     1     -11.885  16.862  63.943  1.00  0.00     0.000 HD 
ENDBRANCH  13  16
ENDBRANCH  10  13
ENDBRANCH   1  10
BRANCH   7  19
HETATM   19  N   UNL     1      -9.586  10.444  67.442  1.00  0.00    -0.153 NA 
HETATM   20  H2  UNL     1     -10.309   9.534  69.786  1.00  0.00     0.000 HD 
HETATM   21  H   UNL     1      -9.262  10.593  66.486  1.00  0.00     0.000 HD 
HETATM   22  C   UNL     1      -9.771   9.254  67.881  1.00  0.00    -0.153 C  
HETATM   23  H1  UNL     1      -9.714   7.249  67.417  1.00  0.00     0.000 HD 
HETATM   24  N   UNL     1     -10.144   8.800  69.095  1.00  0.00    -0.192 NA 
HETATM   25  H2  UNL     1      -9.265   8.343  66.104  1.00  0.00     0.000 HD 
HETATM   26  N   UNL     1      -9.566   8.196  67.067  1.00  0.00    -0.180 NA 
HETATM   27  H1  UNL     1     -10.292   7.854  69.446  1.00  0.00     0.000 HD 
ENDBRANCH   7  19
BRANCH   5  28
HETATM   28  N   UNL     1     -11.906  12.511  69.374  1.00  0.00    -0.316 N  
HETATM   29  C   UNL     1     -12.490  11.584  70.214  1.00  0.00    -0.205 C  
HETATM   30  H   UNL     1     -11.897  13.495  69.643  1.00  0.00     0.000 HD 
HETATM   31  C   UNL     1     -12.883  12.154  71.548  1.00  0.00    -0.394 C  
HETATM   32  O   UNL     1     -12.657  10.406  69.920  1.00  0.00    -0.187 OA 
ENDBRANCH   5  28
TORSDOF 5
ENDMDL
MODEL       97
REMARK 921   NORMALIZED FREE ENERGY PREDICTED BY IDOCK:   -4.39 KCAL/MOL
REMARK 922        TOTAL FREE ENERGY PREDICTED BY IDOCK:   -7.27 KCAL/MOL
REMARK 923 INTER-LIGAND FREE ENERGY PREDICTED BY IDOCK:   -6.42 KCAL/MOL
REMARK 924 INTRA-LIGAND FREE ENERGY PREDICTED BY IDOCK:   -0.84 KCAL/MOL
REMARK 927      BINDING AFFINITY PREDICTED BY RF-SCORE:    0.00 PKD
ROOT
HETATM    1  C   UNL     1      -8.592  12.087  66.922  1.00  0.00    -0.189 C  
HETATM    2  O   UNL     1      -7.500  12.965  67.213  1.00  0.00    -0.147 OA 
HETATM    3  O   UNL     1      -5.403  14.456  67.446  1.00  0.00    -0.334 OA 
HETATM    4  C   UNL     1      -6.540  15.162  67.644  1.00  0.00    -0.171 C  
HETATM    5  C   UNL     1     -10.025  12.705  66.821  1.00  0.00    -0.234 C  
HETATM    6  C   UNL     1      -7.737  14.273  67.535  1.00  0.00    -0.191 C  
HETATM    7  C   UNL     1     -10.200  14.013  67.640  1.00  0.00    -0.241 C  
HETATM    8  C   UNL     1      -8.946  14.791  67.753  1.00  0.00    -0.182 C  
HETATM    9  O   UNL     1      -6.571  16.367  67.843  1.00  0.00    -0.119 OA 
ENDROOT
BRANCH   1  10
HETATM   10  C   UNL     1      -8.587  10.860  67.876  1.00  0.00    -0.130 C  
HETATM   11  O   UNL     1      -7.404  10.827  68.694  1.00  0.00    -0.085 OA 
HETATM   12  H   UNL     1      -7.401  10.078  69.277  1.00  0.00     0.000 HD 
BRANCH  10  13
HETATM   13  C   UNL     1      -8.738   9.479  67.179  1.00  0.00    -0.132 C  
HETATM   14  H   UNL     1      -8.146   8.615  65.489  1.00  0.00     0.000 HD 
HETATM   15  O   UNL     1      -8.053   9.459  65.915  1.00  0.00    -0.111 OA 
BRANCH  13  16
HETATM   16  C   UNL     1     -10.205   9.075  66.945  1.00  0.00    -0.269 C  
HETATM   17  O   UNL     1     -11.061   9.522  68.003  1.00  0.00    -0.495 OA 
HETATM   18  H   UNL     1     -11.966   9.273  67.858  1.00  0.00     0.000 HD 
ENDBRANCH  13  16
ENDBRANCH  10  13
ENDBRANCH   1  10
BRANCH   7  19
HETATM   19  N   UNL     1     -10.683  13.684  68.985  1.00  0.00    -0.377 NA 
HETATM   20  H2  UNL     1     -12.046  15.738  68.108  1.00  0.00     0.000 HD 
HETATM   21  H   UNL     1     -10.252  12.924  69.512  1.00  0.00     0.000 HD 
HETATM   22  C   UNL     1     -11.649  14.354  69.495  1.00  0.00    -0.304 C  
HETATM   23  H1  UNL     1     -12.888  14.567  71.126  1.00  0.00     0.000 HD 
HETATM   24  N   UNL     1     -12.343  15.413  69.029  1.00  0.00    -0.612 NA 
HETATM   25  H2  UNL     1     -11.705  13.259  71.239  1.00  0.00     0.000 HD 
HETATM   26  N   UNL     1     -12.119  14.033  70.720  1.00  0.00    -0.347 NA 
HETATM   27  H1  UNL     1     -13.112  15.947  69.435  1.00  0.00     0.000 HD 
ENDBRANCH   7  19
BRANCH   5  28
HETATM   28  N   UNL     1     -10.449  12.918  65.415  1.00  0.00    -0.287 N  
HETATM   29  C   UNL     1     -11.769  12.772  65.036  1.00  0.00    -0.354 C  
HETATM   30  H   UNL     1      -9.752  13.177  64.715  1.00  0.00     0.000 HD 
HETATM   31  C   UNL     1     -12.035  13.213  63.624  1.00  0.00    -0.580 C  
HETATM   32  O   UNL     1     -12.648  12.347  65.777  1.00  0.00    -0.532 OA 
ENDBRANCH   5  28
TORSDOF 5
ENDMDL
MODEL       98
REMARK 921   NORMALIZED FREE ENERGY PREDICTED BY IDOCK:   -4.30 KCAL/MOL
REMARK 922        TOTAL FREE ENERGY PREDICTED BY IDOCK:   -7.16 KCAL/MOL
REMARK 923 INTER-LIGAND FREE ENERGY PREDICTED BY IDOCK:   -5.88 KCAL/MOL
REMARK 924 INTRA-LIGAND FREE ENERGY PREDICTED BY IDOCK:   -1.27 KCAL/MOL
REMARK 927      BINDING AFFINITY PREDICTED BY RF-SCORE:    0.00 PKD
ROOT
HETATM    1  C   UNL     1     -10.759   9.863  67.026  1.00  0.00    -0.167 C  
HETATM    2  O   UNL     1     -11.268  11.018  66.351  1.00  0.00    -0.156 OA 
HETATM    3  O   UNL     1     -12.464  12.928  65.089  1.00  0.00    -0.472 OA 
HETATM    4  C   UNL     1     -11.962  13.352  66.271  1.00  0.00    -0.411 C  
HETATM    5  C   UNL     1     -10.346  10.010  68.527  1.00  0.00    -0.193 C  
HETATM    6  C   UNL     1     -11.249  12.239  66.969  1.00  0.00    -0.310 C  
HETATM    7  C   UNL     1      -9.939  11.457  68.923  1.00  0.00    -0.131 C  
HETATM    8  C   UNL     1     -10.645  12.489  68.131  1.00  0.00    -0.239 C  
HETATM    9  O   UNL     1     -12.115  14.479  66.715  1.00  0.00    -0.395 OA 
ENDROOT
BRANCH   1  10
HETATM   10  C   UNL     1      -9.620   9.196  66.204  1.00  0.00    -0.266 C  
HETATM   11  O   UNL     1      -9.722   9.511  64.803  1.00  0.00    -0.441 OA 
HETATM   12  H   UNL     1      -9.026   9.104  64.301  1.00  0.00     0.000 HD 
BRANCH  10  13
HETATM   13  C   UNL     1      -9.514   7.653  66.351  1.00  0.00    -0.161 C  
HETATM   14  H   UNL     1     -10.565   6.180  67.177  1.00  0.00     0.000 HD 
HETATM   15  O   UNL     1     -10.630   7.123  67.087  1.00  0.00    -0.280 OA 
BRANCH  13  16
HETATM   16  C   UNL     1      -8.215   7.198  67.044  1.00  0.00    -0.117 C  
HETATM   17  O   UNL     1      -8.160   7.622  68.411  1.00  0.00    -0.121 OA 
HETATM   18  H   UNL     1      -7.359   7.341  68.839  1.00  0.00     0.000 HD 
ENDBRANCH  13  16
ENDBRANCH  10  13
ENDBRANCH   1  10
BRANCH   7  19
HETATM   19  N   UNL     1      -8.492  11.621  68.743  1.00  0.00    -0.334 NA 
HETATM   20  H2  UNL     1      -8.885   9.929  70.699  1.00  0.00     0.000 HD 
HETATM   21  H   UNL     1      -8.134  12.269  68.042  1.00  0.00     0.000 HD 
HETATM   22  C   UNL     1      -7.681  10.946  69.470  1.00  0.00    -0.013 C  
HETATM   23  H1  UNL     1      -5.703  10.532  69.865  1.00  0.00     0.000 HD 
HETATM   24  N   UNL     1      -7.900  10.075  70.478  1.00  0.00    -0.426 NA 
HETATM   25  H2  UNL     1      -5.988  11.699  68.570  1.00  0.00     0.000 HD 
HETATM   26  N   UNL     1      -6.348  11.069  69.286  1.00  0.00    -0.057 NA 
HETATM   27  H1  UNL     1      -7.254   9.538  71.057  1.00  0.00     0.000 HD 
ENDBRANCH   7  19
BRANCH   5  28
HETATM   28  N   UNL     1     -11.387   9.499  69.451  1.00  0.00    -0.443 N  
HETATM   29  C   UNL     1     -11.086   8.561  70.420  1.00  0.00    -0.231 C  
HETATM   30  H   UNL     1     -12.344   9.846  69.370  1.00  0.00     0.000 HD 
HETATM   31  C   UNL     1     -12.217   8.309  71.377  1.00  0.00    -0.328 C  
HETATM   32  O   UNL     1     -10.000   8.000  70.511  1.00  0.00    -0.189 OA 
ENDBRANCH   5  28
TORSDOF 5
ENDMDL
MODEL       99
REMARK 921   NORMALIZED FREE ENERGY PREDICTED BY IDOCK:   -4.28 KCAL/MOL
REMARK 922        TOTAL FREE ENERGY PREDICTED BY IDOCK:   -7.13 KCAL/MOL
REMARK 923 INTER-LIGAND FREE ENERGY PREDICTED BY IDOCK:   -5.16 KCAL/MOL
REMARK 924 INTRA-LIGAND FREE ENERGY PREDICTED BY IDOCK:   -1.97 KCAL/MOL
REMARK 927      BINDING AFFINITY PREDICTED BY RF-SCORE:    0.00 PKD
ROOT
HETATM    1  C   UNL     1      -9.679   8.210  70.735  1.00  0.00    -0.170 C  
HETATM    2  O   UNL     1     -10.916   8.452  71.412  1.00  0.00    -0.233 OA 
HETATM    3  O   UNL     1     -13.117   9.202  72.537  1.00  0.00    -0.429 OA 
HETATM    4  C   UNL     1     -13.308   8.128  71.737  1.00  0.00    -0.345 C  
HETATM    5  C   UNL     1      -9.673   7.184  69.555  1.00  0.00    -0.157 C  
HETATM    6  C   UNL     1     -12.017   7.693  71.123  1.00  0.00    -0.297 C  
HETATM    7  C   UNL     1     -10.794   6.113  69.655  1.00  0.00    -0.356 C  
HETATM    8  C   UNL     1     -12.007   6.613  70.341  1.00  0.00    -0.342 C  
HETATM    9  O   UNL     1     -14.398   7.619  71.524  1.00  0.00    -0.433 OA 
ENDROOT
BRANCH   1  10
HETATM   10  C   UNL     1      -8.544   7.889  71.749  1.00  0.00    -0.119 C  
HETATM   11  O   UNL     1      -7.908   6.633  71.453  1.00  0.00    -0.097 OA 
HETATM   12  H   UNL     1      -7.215   6.437  72.072  1.00  0.00     0.000 HD 
BRANCH  10  13
HETATM   13  C   UNL     1      -8.973   7.881  73.242  1.00  0.00    -0.264 C  
HETATM   14  H   UNL     1      -8.345   8.671  74.956  1.00  0.00     0.000 HD 
HETATM   15  O   UNL     1      -8.083   8.676  74.043  1.00  0.00    -0.385 OA 
BRANCH  13  16
HETATM   16  C   UNL     1      -9.038   6.465  73.846  1.00  0.00    -0.136 C  
HETATM   17  O   UNL     1     -10.081   5.678  73.260  1.00  0.00    -0.172 OA 
HETATM   18  H   UNL     1     -10.120   4.805  73.632  1.00  0.00     0.000 HD 
ENDBRANCH  13  16
ENDBRANCH  10  13
ENDBRANCH   1  10
BRANCH   7  19
HETATM   19  N   UNL     1     -10.284   4.942  70.377  1.00  0.00    -0.245 NA 
HETATM   20  H2  UNL     1      -9.915   4.547  67.817  1.00  0.00     0.000 HD 
HETATM   21  H   UNL     1     -10.364   4.891  71.393  1.00  0.00     0.000 HD 
HETATM   22  C   UNL     1      -9.735   3.984  69.726  1.00  0.00    -0.184 C  
HETATM   23  H1  UNL     1      -8.799   2.156  69.871  1.00  0.00     0.000 HD 
HETATM   24  N   UNL     1      -9.553   3.794  68.403  1.00  0.00    -0.142 NA 
HETATM   25  H2  UNL     1      -9.293   2.876  71.406  1.00  0.00     0.000 HD 
HETATM   26  N   UNL     1      -9.235   2.918  70.389  1.00  0.00    -0.127 NA 
HETATM   27  H1  UNL     1      -9.117   3.032  67.885  1.00  0.00     0.000 HD 
ENDBRANCH   7  19
BRANCH   5  28
HETATM   28  N   UNL     1      -9.716   7.849  68.229  1.00  0.00    -0.156 N  
HETATM   29  C   UNL     1      -8.962   7.383  67.171  1.00  0.00    -0.126 C  
HETATM   30  H   UNL     1     -10.313   8.666  68.098  1.00  0.00     0.000 HD 
HETATM   31  C   UNL     1      -9.280   8.062  65.868  1.00  0.00    -0.128 C  
HETATM   32  O   UNL     1      -8.129   6.489  67.269  1.00  0.00    -0.111 OA 
ENDBRANCH   5  28
TORSDOF 5
ENDMDL
MODEL      100
REMARK 921   NORMALIZED FREE ENERGY PREDICTED BY IDOCK:   -4.28 KCAL/MOL
REMARK 922        TOTAL FREE ENERGY PREDICTED BY IDOCK:   -7.13 KCAL/MOL
REMARK 923 INTER-LIGAND FREE ENERGY PREDICTED BY IDOCK:   -5.68 KCAL/MOL
REMARK 924 INTRA-LIGAND FREE ENERGY PREDICTED BY IDOCK:   -1.45 KCAL/MOL
REMARK 927      BINDING AFFINITY PREDICTED BY RF-SCORE:    0.00 PKD
ROOT
HETATM    1  C   UNL     1     -10.257  10.831  69.139  1.00  0.00    -0.211 C  
HETATM    2  O   UNL     1     -10.968  11.258  67.974  1.00  0.00    -0.212 OA 
HETATM    3  O   UNL     1     -12.273  12.325  66.016  1.00  0.00    -0.646 OA 
HETATM    4  C   UNL     1     -11.144  11.716  65.588  1.00  0.00    -0.249 C  
HETATM    5  C   UNL     1      -8.790  10.320  68.960  1.00  0.00    -0.168 C  
HETATM    6  C   UNL     1     -10.423  11.080  66.732  1.00  0.00    -0.251 C  
HETATM    7  C   UNL     1      -8.498   9.746  67.545  1.00  0.00    -0.122 C  
HETATM    8  C   UNL     1      -9.309  10.389  66.487  1.00  0.00    -0.193 C  
HETATM    9  O   UNL     1     -10.758  11.728  64.429  1.00  0.00    -0.288 OA 
ENDROOT
BRANCH   1  10
HETATM   10  C   UNL     1     -11.097   9.814  69.962  1.00  0.00    -0.267 C  
HETATM   11  O   UNL     1     -11.323   8.597  69.229  1.00  0.00    -0.416 OA 
HETATM   12  H   UNL     1     -11.836   7.975  69.732  1.00  0.00     0.000 HD 
BRANCH  10  13
HETATM   13  C   UNL     1     -12.469  10.343  70.466  1.00  0.00    -0.317 C  
HETATM   14  H   UNL     1     -13.195  12.013  71.267  1.00  0.00     0.000 HD 
HETATM   15  O   UNL     1     -12.357  11.689  70.959  1.00  0.00    -0.360 OA 
BRANCH  13  16
HETATM   16  C   UNL     1     -13.086   9.469  71.574  1.00  0.00    -0.389 C  
HETATM   17  O   UNL     1     -13.086   8.080  71.225  1.00  0.00    -0.474 OA 
HETATM   18  H   UNL     1     -13.466   7.541  71.908  1.00  0.00     0.000 HD 
ENDBRANCH  13  16
ENDBRANCH  10  13
ENDBRANCH   1  10
BRANCH   7  19
HETATM   19  N   UNL     1      -8.761   8.304  67.542  1.00  0.00    -0.128 NA 
HETATM   20  H2  UNL     1      -6.359   8.693  68.502  1.00  0.00     0.000 HD 
HETATM   21  H   UNL     1      -9.642   7.944  67.173  1.00  0.00     0.000 HD 
HETATM   22  C   UNL     1      -7.880   7.496  68.006  1.00  0.00    -0.121 C  
HETATM   23  H1  UNL     1      -7.430   5.526  68.404  1.00  0.00     0.000 HD 
HETATM   24  N   UNL     1      -6.643   7.713  68.498  1.00  0.00    -0.052 NA 
HETATM   25  H2  UNL     1      -9.021   5.810  67.688  1.00  0.00     0.000 HD 
HETATM   26  N   UNL     1      -8.132   6.169  68.035  1.00  0.00    -0.113 NA 
HETATM   27  H1  UNL     1      -5.942   7.071  68.867  1.00  0.00     0.000 HD 
ENDBRANCH   7  19
BRANCH   5  28
HETATM   28  N   UNL     1      -7.785  11.353  69.312  1.00  0.00    -0.355 N  
HETATM   29  C   UNL     1      -6.602  11.016  69.938  1.00  0.00    -0.142 C  
HETATM   30  H   UNL     1      -7.972  12.331  69.088  1.00  0.00     0.000 HD 
HETATM   31  C   UNL     1      -5.634  12.162  70.041  1.00  0.00    -0.124 C  
HETATM   32  O   UNL     1      -6.346   9.891  70.354  1.00  0.00    -0.080 OA 
ENDBRANCH   5  28
TORSDOF 5
ENDMDL
MODEL      101
REMARK 921   NORMALIZED FREE ENERGY PREDICTED BY IDOCK:   -4.28 KCAL/MOL
REMARK 922        TOTAL FREE ENERGY PREDICTED BY IDOCK:   -7.12 KCAL/MOL
REMARK 923 INTER-LIGAND FREE ENERGY PREDICTED BY IDOCK:   -6.41 KCAL/MOL
REMARK 924 INTRA-LIGAND FREE ENERGY PREDICTED BY IDOCK:   -0.72 KCAL/MOL
REMARK 927      BINDING AFFINITY PREDICTED BY RF-SCORE:    0.00 PKD
ROOT
HETATM    1  C   UNL     1      -8.322  14.657  66.959  1.00  0.00    -0.185 C  
HETATM    2  O   UNL     1      -8.316  16.086  66.900  1.00  0.00    -0.195 OA 
HETATM    3  O   UNL     1      -8.084  18.635  66.551  1.00  0.00    -0.266 OA 
HETATM    4  C   UNL     1      -9.378  18.245  66.516  1.00  0.00    -0.302 C  
HETATM    5  C   UNL     1      -9.670  13.915  66.681  1.00  0.00    -0.289 C  
HETATM    6  C   UNL     1      -9.490  16.773  66.751  1.00  0.00    -0.246 C  
HETATM    7  C   UNL     1     -10.929  14.769  66.996  1.00  0.00    -0.324 C  
HETATM    8  C   UNL     1     -10.702  16.219  66.802  1.00  0.00    -0.204 C  
HETATM    9  O   UNL     1     -10.313  18.995  66.282  1.00  0.00    -0.405 OA 
ENDROOT
BRANCH   1  10
HETATM   10  C   UNL     1      -7.678  14.152  68.281  1.00  0.00    -0.139 C  
HETATM   11  O   UNL     1      -8.292  12.933  68.738  1.00  0.00    -0.345 OA 
HETATM   12  H   UNL     1      -7.898  12.625  69.546  1.00  0.00     0.000 HD 
BRANCH  10  13
HETATM   13  C   UNL     1      -7.685  15.173  69.453  1.00  0.00    -0.213 C  
HETATM   14  H   UNL     1      -9.026  16.237  70.466  1.00  0.00     0.000 HD 
HETATM   15  O   UNL     1      -9.022  15.613  69.750  1.00  0.00    -0.222 OA 
BRANCH  13  16
HETATM   16  C   UNL     1      -6.814  16.413  69.181  1.00  0.00    -0.210 C  
HETATM   17  O   UNL     1      -5.646  16.092  68.417  1.00  0.00    -0.096 OA 
HETATM   18  H   UNL     1      -5.109  16.857  68.249  1.00  0.00     0.000 HD 
ENDBRANCH  13  16
ENDBRANCH  10  13
ENDBRANCH   1  10
BRANCH   7  19
HETATM   19  N   UNL     1     -11.345  14.530  68.382  1.00  0.00    -0.275 NA 
HETATM   20  H2  UNL     1     -11.755  12.336  67.018  1.00  0.00     0.000 HD 
HETATM   21  H   UNL     1     -11.290  15.282  69.070  1.00  0.00     0.000 HD 
HETATM   22  C   UNL     1     -11.775  13.373  68.726  1.00  0.00    -0.340 C  
HETATM   23  H1  UNL     1     -12.471  12.218  70.282  1.00  0.00     0.000 HD 
HETATM   24  N   UNL     1     -11.982  12.249  68.009  1.00  0.00    -0.458 NA 
HETATM   25  H2  UNL     1     -12.053  13.882  70.703  1.00  0.00     0.000 HD 
HETATM   26  N   UNL     1     -12.129  13.139  70.009  1.00  0.00    -0.326 NA 
HETATM   27  H1  UNL     1     -12.325  11.328  68.282  1.00  0.00     0.000 HD 
ENDBRANCH   7  19
BRANCH   5  28
HETATM   28  N   UNL     1      -9.745  13.379  65.299  1.00  0.00    -0.531 N  
HETATM   29  C   UNL     1      -9.899  12.027  65.063  1.00  0.00    -0.187 C  
HETATM   30  H   UNL     1      -9.682  14.022  64.509  1.00  0.00     0.000 HD 
HETATM   31  C   UNL     1     -10.146  11.700  63.617  1.00  0.00    -0.435 C  
HETATM   32  O   UNL     1      -9.861  11.173  65.942  1.00  0.00    -0.213 OA 
ENDBRANCH   5  28
TORSDOF 5
ENDMDL
MODEL      102
REMARK 921   NORMALIZED FREE ENERGY PREDICTED BY IDOCK:   -4.26 KCAL/MOL
REMARK 922        TOTAL FREE ENERGY PREDICTED BY IDOCK:   -7.10 KCAL/MOL
REMARK 923 INTER-LIGAND FREE ENERGY PREDICTED BY IDOCK:   -6.11 KCAL/MOL
REMARK 924 INTRA-LIGAND FREE ENERGY PREDICTED BY IDOCK:   -0.99 KCAL/MOL
REMARK 927      BINDING AFFINITY PREDICTED BY RF-SCORE:    0.00 PKD
ROOT
HETATM    1  C   UNL     1      -9.713   8.251  67.841  1.00  0.00    -0.161 C  
HETATM    2  O   UNL     1     -10.666   8.718  68.800  1.00  0.00    -0.181 OA 
HETATM    3  O   UNL     1     -12.204   9.405  70.758  1.00  0.00    -0.259 OA 
HETATM    4  C   UNL     1     -11.830  10.476  70.021  1.00  0.00    -0.308 C  
HETATM    5  C   UNL     1      -8.917   9.314  67.017  1.00  0.00    -0.126 C  
HETATM    6  C   UNL     1     -10.967  10.050  68.877  1.00  0.00    -0.207 C  
HETATM    7  C   UNL     1      -9.661  10.670  66.863  1.00  0.00    -0.171 C  
HETATM    8  C   UNL     1     -10.545  10.972  68.011  1.00  0.00    -0.241 C  
HETATM    9  O   UNL     1     -12.128  11.629  70.289  1.00  0.00    -0.340 OA 
ENDROOT
BRANCH   1  10
HETATM   10  C   UNL     1     -10.346   7.187  66.901  1.00  0.00    -0.279 C  
HETATM   11  O   UNL     1     -11.582   6.676  67.433  1.00  0.00    -0.727 OA 
HETATM   12  H   UNL     1     -11.969   6.026  66.859  1.00  0.00     0.000 HD 
BRANCH  10  13
HETATM   13  C   UNL     1      -9.429   5.982  66.552  1.00  0.00    -0.156 C  
HETATM   14  H   UNL     1      -8.140   5.482  65.122  1.00  0.00     0.000 HD 
HETATM   15  O   UNL     1      -8.700   6.219  65.336  1.00  0.00    -0.134 OA 
BRANCH  13  16
HETATM   16  C   UNL     1     -10.200   4.656  66.406  1.00  0.00    -0.260 C  
HETATM   17  O   UNL     1     -11.195   4.724  65.378  1.00  0.00    -0.896 OA 
HETATM   18  H   UNL     1     -11.670   3.906  65.288  1.00  0.00     0.000 HD 
ENDBRANCH  13  16
ENDBRANCH  10  13
ENDBRANCH   1  10
BRANCH   7  19
HETATM   19  N   UNL     1     -10.461  10.648  65.635  1.00  0.00    -0.207 NA 
HETATM   20  H2  UNL     1      -9.143  12.907  65.710  1.00  0.00     0.000 HD 
HETATM   21  H   UNL     1     -11.074   9.857  65.436  1.00  0.00     0.000 HD 
HETATM   22  C   UNL     1     -10.388  11.627  64.811  1.00  0.00    -0.282 C  
HETATM   23  H1  UNL     1     -11.040  12.376  63.007  1.00  0.00     0.000 HD 
HETATM   24  N   UNL     1      -9.702  12.788  64.864  1.00  0.00    -0.504 NA 
HETATM   25  H2  UNL     1     -11.693  10.796  63.451  1.00  0.00     0.000 HD 
HETATM   26  N   UNL     1     -11.099  11.597  63.662  1.00  0.00    -0.420 NA 
HETATM   27  H1  UNL     1      -9.643  13.567  64.209  1.00  0.00     0.000 HD 
ENDBRANCH   7  19
BRANCH   5  28
HETATM   28  N   UNL     1      -7.551   9.536  67.553  1.00  0.00    -0.094 N  
HETATM   29  C   UNL     1      -6.431   9.194  66.820  1.00  0.00    -0.067 C  
HETATM   30  H   UNL     1      -7.437   9.949  68.479  1.00  0.00     0.000 HD 
HETATM   31  C   UNL     1      -5.146   9.666  67.441  1.00  0.00    -0.035 C  
HETATM   32  O   UNL     1      -6.471   8.585  65.758  1.00  0.00    -0.052 OA 
ENDBRANCH   5  28
TORSDOF 5
ENDMDL
MODEL      103
REMARK 921   NORMALIZED FREE ENERGY PREDICTED BY IDOCK:   -4.26 KCAL/MOL
REMARK 922        TOTAL FREE ENERGY PREDICTED BY IDOCK:   -7.09 KCAL/MOL
REMARK 923 INTER-LIGAND FREE ENERGY PREDICTED BY IDOCK:   -6.06 KCAL/MOL
REMARK 924 INTRA-LIGAND FREE ENERGY PREDICTED BY IDOCK:   -1.04 KCAL/MOL
REMARK 927      BINDING AFFINITY PREDICTED BY RF-SCORE:    0.00 PKD
ROOT
HETATM    1  C   UNL     1     -10.466  10.709  67.591  1.00  0.00    -0.227 C  
HETATM    2  O   UNL     1      -9.048  10.524  67.644  1.00  0.00    -0.141 OA 
HETATM    3  O   UNL     1      -6.540   9.910  67.573  1.00  0.00    -0.067 OA 
HETATM    4  C   UNL     1      -6.758  11.164  67.115  1.00  0.00    -0.106 C  
HETATM    5  C   UNL     1     -11.017  11.977  66.861  1.00  0.00    -0.281 C  
HETATM    6  C   UNL     1      -8.210  11.508  67.195  1.00  0.00    -0.161 C  
HETATM    7  C   UNL     1     -10.018  13.167  66.839  1.00  0.00    -0.245 C  
HETATM    8  C   UNL     1      -8.604  12.729  66.832  1.00  0.00    -0.140 C  
HETATM    9  O   UNL     1      -5.885  11.889  66.664  1.00  0.00    -0.221 OA 
ENDROOT
BRANCH   1  10
HETATM   10  C   UNL     1     -11.098  10.570  69.006  1.00  0.00    -0.249 C  
HETATM   11  O   UNL     1     -10.982  11.791  69.760  1.00  0.00    -0.460 OA 
HETATM   12  H   UNL     1     -11.367  11.706  70.624  1.00  0.00     0.000 HD 
BRANCH  10  13
HETATM   13  C   UNL     1     -10.537   9.407  69.870  1.00  0.00    -0.234 C  
HETATM   14  H   UNL     1      -8.992   9.088  71.081  1.00  0.00     0.000 HD 
HETATM   15  O   UNL     1      -9.334   9.800  70.553  1.00  0.00    -0.219 OA 
BRANCH  13  16
HETATM   16  C   UNL     1     -10.240   8.135  69.054  1.00  0.00    -0.220 C  
HETATM   17  O   UNL     1      -8.834   7.897  68.923  1.00  0.00    -0.141 OA 
HETATM   18  H   UNL     1      -8.650   7.112  68.420  1.00  0.00     0.000 HD 
ENDBRANCH  13  16
ENDBRANCH  10  13
ENDBRANCH   1  10
BRANCH   7  19
HETATM   19  N   UNL     1     -10.250  14.018  68.010  1.00  0.00    -0.232 NA 
HETATM   20  H2  UNL     1     -10.836  15.401  65.868  1.00  0.00     0.000 HD 
HETATM   21  H   UNL     1     -10.049  13.667  68.947  1.00  0.00     0.000 HD 
HETATM   22  C   UNL     1     -10.708  15.205  67.853  1.00  0.00    -0.268 C  
HETATM   23  H1  UNL     1     -11.319  16.926  68.805  1.00  0.00     0.000 HD 
HETATM   24  N   UNL     1     -11.005  15.905  66.739  1.00  0.00    -0.219 NA 
HETATM   25  H2  UNL     1     -10.776  15.624  69.869  1.00  0.00     0.000 HD 
HETATM   26  N   UNL     1     -10.954  15.981  68.931  1.00  0.00    -0.288 NA 
HETATM   27  H1  UNL     1     -11.369  16.850  66.613  1.00  0.00     0.000 HD 
ENDBRANCH   7  19
BRANCH   5  28
HETATM   28  N   UNL     1     -11.488  11.676  65.487  1.00  0.00    -0.179 N  
HETATM   29  C   UNL     1     -12.319  12.547  64.809  1.00  0.00    -0.474 C  
HETATM   30  H   UNL     1     -11.193  10.811  65.034  1.00  0.00     0.000 HD 
HETATM   31  C   UNL     1     -12.533  12.168  63.371  1.00  0.00    -0.625 C  
HETATM   32  O   UNL     1     -12.821  13.544  65.315  1.00  0.00    -0.660 OA 
ENDBRANCH   5  28
TORSDOF 5
ENDMDL
MODEL      104
REMARK 921   NORMALIZED FREE ENERGY PREDICTED BY IDOCK:   -4.25 KCAL/MOL
REMARK 922        TOTAL FREE ENERGY PREDICTED BY IDOCK:   -7.09 KCAL/MOL
REMARK 923 INTER-LIGAND FREE ENERGY PREDICTED BY IDOCK:   -5.63 KCAL/MOL
REMARK 924 INTRA-LIGAND FREE ENERGY PREDICTED BY IDOCK:   -1.45 KCAL/MOL
REMARK 927      BINDING AFFINITY PREDICTED BY RF-SCORE:    0.00 PKD
ROOT
HETATM    1  C   UNL     1     -10.400   5.464  70.553  1.00  0.00    -0.274 C  
HETATM    2  O   UNL     1     -10.079   4.793  69.330  1.00  0.00    -0.218 OA 
HETATM    3  O   UNL     1      -9.749   3.379  67.194  1.00  0.00    -0.156 OA 
HETATM    4  C   UNL     1      -9.845   4.697  66.908  1.00  0.00    -0.213 C  
HETATM    5  C   UNL     1     -10.821   6.968  70.479  1.00  0.00    -0.251 C  
HETATM    6  C   UNL     1     -10.003   5.498  68.160  1.00  0.00    -0.153 C  
HETATM    7  C   UNL     1     -10.252   7.715  69.241  1.00  0.00    -0.210 C  
HETATM    8  C   UNL     1     -10.063   6.827  68.072  1.00  0.00    -0.183 C  
HETATM    9  O   UNL     1      -9.842   5.153  65.775  1.00  0.00    -0.151 OA 
ENDROOT
BRANCH   1  10
HETATM   10  C   UNL     1      -9.279   5.257  71.611  1.00  0.00    -0.146 C  
HETATM   11  O   UNL     1      -9.427   4.004  72.302  1.00  0.00    -0.120 OA 
HETATM   12  H   UNL     1      -8.742   3.877  72.948  1.00  0.00     0.000 HD 
BRANCH  10  13
HETATM   13  C   UNL     1      -9.153   6.388  72.670  1.00  0.00    -0.135 C  
HETATM   14  H   UNL     1      -7.698   7.414  73.557  1.00  0.00     0.000 HD 
HETATM   15  O   UNL     1      -7.775   6.723  72.909  1.00  0.00    -0.094 OA 
BRANCH  13  16
HETATM   16  C   UNL     1      -9.808   6.031  74.018  1.00  0.00    -0.211 C  
HETATM   17  O   UNL     1     -11.185   5.670  73.867  1.00  0.00    -0.374 OA 
HETATM   18  H   UNL     1     -11.589   5.450  74.698  1.00  0.00     0.000 HD 
ENDBRANCH  13  16
ENDBRANCH  10  13
ENDBRANCH   1  10
BRANCH   7  19
HETATM   19  N   UNL     1      -8.966   8.326  69.592  1.00  0.00    -0.148 NA 
HETATM   20  H2  UNL     1     -10.789  10.202  69.598  1.00  0.00     0.000 HD 
HETATM   21  H   UNL     1      -8.118   7.759  69.613  1.00  0.00     0.000 HD 
HETATM   22  C   UNL     1      -8.911   9.576  69.872  1.00  0.00    -0.212 C  
HETATM   23  H1  UNL     1      -7.692  11.131  70.449  1.00  0.00     0.000 HD 
HETATM   24  N   UNL     1      -9.863  10.532  69.870  1.00  0.00    -0.413 NA 
HETATM   25  H2  UNL     1      -6.890   9.567  70.272  1.00  0.00     0.000 HD 
HETATM   26  N   UNL     1      -7.734  10.137  70.226  1.00  0.00    -0.202 NA 
HETATM   27  H1  UNL     1      -9.820  11.526  70.093  1.00  0.00     0.000 HD 
ENDBRANCH   7  19
BRANCH   5  28
HETATM   28  N   UNL     1     -12.292   7.146  70.555  1.00  0.00    -0.607 N  
HETATM   29  C   UNL     1     -12.879   7.801  71.619  1.00  0.00    -0.340 C  
HETATM   30  H   UNL     1     -12.881   6.778  69.806  1.00  0.00     0.000 HD 
HETATM   31  C   UNL     1     -14.349   8.051  71.427  1.00  0.00    -0.490 C  
HETATM   32  O   UNL     1     -12.268   8.166  72.617  1.00  0.00    -0.334 OA 
ENDBRANCH   5  28
TORSDOF 5
ENDMDL
MODEL      105
REMARK 921   NORMALIZED FREE ENERGY PREDICTED BY IDOCK:   -4.21 KCAL/MOL
REMARK 922        TOTAL FREE ENERGY PREDICTED BY IDOCK:   -7.03 KCAL/MOL
REMARK 923 INTER-LIGAND FREE ENERGY PREDICTED BY IDOCK:   -5.81 KCAL/MOL
REMARK 924 INTRA-LIGAND FREE ENERGY PREDICTED BY IDOCK:   -1.22 KCAL/MOL
REMARK 927      BINDING AFFINITY PREDICTED BY RF-SCORE:    0.00 PKD
ROOT
HETATM    1  C   UNL     1      -9.522  10.340  68.164  1.00  0.00    -0.147 C  
HETATM    2  O   UNL     1      -8.433  10.640  69.042  1.00  0.00    -0.143 OA 
HETATM    3  O   UNL     1      -6.390  10.862  70.607  1.00  0.00    -0.321 OA 
HETATM    4  C   UNL     1      -6.342  11.760  69.597  1.00  0.00    -0.129 C  
HETATM    5  C   UNL     1      -9.568  11.056  66.775  1.00  0.00    -0.190 C  
HETATM    6  C   UNL     1      -7.548  11.634  68.723  1.00  0.00    -0.119 C  
HETATM    7  C   UNL     1      -8.831  12.424  66.754  1.00  0.00    -0.189 C  
HETATM    8  C   UNL     1      -7.695  12.478  67.702  1.00  0.00    -0.151 C  
HETATM    9  O   UNL     1      -5.415  12.533  69.412  1.00  0.00    -0.070 OA 
ENDROOT
BRANCH   1  10
HETATM   10  C   UNL     1     -10.885  10.481  68.901  1.00  0.00    -0.235 C  
HETATM   11  O   UNL     1     -10.990  11.743  69.585  1.00  0.00    -0.451 OA 
HETATM   12  H   UNL     1     -11.822  11.829  70.035  1.00  0.00     0.000 HD 
BRANCH  10  13
HETATM   13  C   UNL     1     -11.211   9.347  69.913  1.00  0.00    -0.155 C  
HETATM   14  H   UNL     1     -11.133   9.068  71.881  1.00  0.00     0.000 HD 
HETATM   15  O   UNL     1     -10.934   9.761  71.262  1.00  0.00    -0.351 OA 
BRANCH  13  16
HETATM   16  C   UNL     1     -10.436   8.045  69.635  1.00  0.00    -0.224 C  
HETATM   17  O   UNL     1     -11.193   7.132  68.832  1.00  0.00    -0.455 OA 
HETATM   18  H   UNL     1     -10.715   6.329  68.660  1.00  0.00     0.000 HD 
ENDBRANCH  13  16
ENDBRANCH  10  13
ENDBRANCH   1  10
BRANCH   7  19
HETATM   19  N   UNL     1      -9.780  13.492  67.082  1.00  0.00    -0.238 NA 
HETATM   20  H2  UNL     1      -9.573  13.356  64.478  1.00  0.00     0.000 HD 
HETATM   21  H   UNL     1      -9.975  13.723  68.057  1.00  0.00     0.000 HD 
HETATM   22  C   UNL     1     -10.365  14.134  66.139  1.00  0.00    -0.300 C  
HETATM   23  H1  UNL     1     -11.730  15.608  65.686  1.00  0.00     0.000 HD 
HETATM   24  N   UNL     1     -10.247  14.052  64.798  1.00  0.00    -0.565 NA 
HETATM   25  H2  UNL     1     -11.479  15.313  67.410  1.00  0.00     0.000 HD 
HETATM   26  N   UNL     1     -11.265  15.097  66.437  1.00  0.00    -0.317 NA 
HETATM   27  H1  UNL     1     -10.712  14.563  64.047  1.00  0.00     0.000 HD 
ENDBRANCH   7  19
BRANCH   5  28
HETATM   28  N   UNL     1      -9.073  10.189  65.677  1.00  0.00    -0.169 N  
HETATM   29  C   UNL     1      -9.628  10.247  64.414  1.00  0.00    -0.316 C  
HETATM   30  H   UNL     1      -8.309   9.537  65.859  1.00  0.00     0.000 HD 
HETATM   31  C   UNL     1      -8.874   9.440  63.395  1.00  0.00    -0.199 C  
HETATM   32  O   UNL     1     -10.623  10.906  64.137  1.00  0.00    -0.375 OA 
ENDBRANCH   5  28
TORSDOF 5
ENDMDL
MODEL      106
REMARK 921   NORMALIZED FREE ENERGY PREDICTED BY IDOCK:   -4.20 KCAL/MOL
REMARK 922        TOTAL FREE ENERGY PREDICTED BY IDOCK:   -7.03 KCAL/MOL
REMARK 923 INTER-LIGAND FREE ENERGY PREDICTED BY IDOCK:   -5.80 KCAL/MOL
REMARK 924 INTRA-LIGAND FREE ENERGY PREDICTED BY IDOCK:   -1.23 KCAL/MOL
REMARK 927      BINDING AFFINITY PREDICTED BY RF-SCORE:    0.00 PKD
ROOT
HETATM    1  C   UNL     1     -10.293   7.929  67.164  1.00  0.00    -0.328 C  
HETATM    2  O   UNL     1     -10.279   8.978  66.191  1.00  0.00    -0.267 OA 
HETATM    3  O   UNL     1     -10.564  10.783  64.365  1.00  0.00    -0.347 OA 
HETATM    4  C   UNL     1     -10.117  11.316  65.526  1.00  0.00    -0.257 C  
HETATM    5  C   UNL     1     -10.066   8.313  68.663  1.00  0.00    -0.197 C  
HETATM    6  C   UNL     1      -9.930  10.249  66.556  1.00  0.00    -0.224 C  
HETATM    7  C   UNL     1      -9.249   9.620  68.855  1.00  0.00    -0.147 C  
HETATM    8  C   UNL     1      -9.444  10.586  67.751  1.00  0.00    -0.162 C  
HETATM    9  O   UNL     1      -9.936  12.510  65.705  1.00  0.00    -0.259 OA 
ENDROOT
BRANCH   1  10
HETATM   10  C   UNL     1      -9.347   6.768  66.744  1.00  0.00    -0.160 C  
HETATM   11  O   UNL     1      -9.118   6.759  65.323  1.00  0.00    -0.361 OA 
HETATM   12  H   UNL     1      -8.540   6.050  65.066  1.00  0.00     0.000 HD 
BRANCH  10  13
HETATM   13  C   UNL     1      -9.810   5.348  67.173  1.00  0.00    -0.158 C  
HETATM   14  H   UNL     1      -9.082   3.818  68.214  1.00  0.00     0.000 HD 
HETATM   15  O   UNL     1      -8.799   4.686  67.951  1.00  0.00    -0.103 OA 
BRANCH  13  16
HETATM   16  C   UNL     1     -10.178   4.445  65.982  1.00  0.00    -0.219 C  
HETATM   17  O   UNL     1     -11.446   4.794  65.414  1.00  0.00    -0.990 OA 
HETATM   18  H   UNL     1     -11.672   4.237  64.679  1.00  0.00     0.000 HD 
ENDBRANCH  13  16
ENDBRANCH  10  13
ENDBRANCH   1  10
BRANCH   7  19
HETATM   19  N   UNL     1      -7.823   9.292  68.959  1.00  0.00    -0.081 NA 
HETATM   20  H2  UNL     1      -8.769   9.594  71.379  1.00  0.00     0.000 HD 
HETATM   21  H   UNL     1      -7.265   9.164  68.115  1.00  0.00     0.000 HD 
HETATM   22  C   UNL     1      -7.283   9.165  70.114  1.00  0.00    -0.070 C  
HETATM   23  H1  UNL     1      -5.548   8.729  71.134  1.00  0.00     0.000 HD 
HETATM   24  N   UNL     1      -7.785   9.325  71.356  1.00  0.00    -0.336 NA 
HETATM   25  H2  UNL     1      -5.423   8.679  69.372  1.00  0.00     0.000 HD 
HETATM   26  N   UNL     1      -5.978   8.830  70.214  1.00  0.00    -0.030 NA 
HETATM   27  H1  UNL     1      -7.355   9.224  72.275  1.00  0.00     0.000 HD 
ENDBRANCH   7  19
BRANCH   5  28
HETATM   28  N   UNL     1     -11.337   8.384  69.425  1.00  0.00    -0.348 N  
HETATM   29  C   UNL     1     -11.395   8.019  70.755  1.00  0.00    -0.272 C  
HETATM   30  H   UNL     1     -12.184   8.709  68.958  1.00  0.00     0.000 HD 
HETATM   31  C   UNL     1     -12.712   8.338  71.404  1.00  0.00    -0.279 C  
HETATM   32  O   UNL     1     -10.462   7.503  71.362  1.00  0.00    -0.209 OA 
ENDBRANCH   5  28
TORSDOF 5
ENDMDL
MODEL      107
REMARK 921   NORMALIZED FREE ENERGY PREDICTED BY IDOCK:   -4.17 KCAL/MOL
REMARK 922        TOTAL FREE ENERGY PREDICTED BY IDOCK:   -6.99 KCAL/MOL
REMARK 923 INTER-LIGAND FREE ENERGY PREDICTED BY IDOCK:   -5.07 KCAL/MOL
REMARK 924 INTRA-LIGAND FREE ENERGY PREDICTED BY IDOCK:   -1.92 KCAL/MOL
REMARK 927      BINDING AFFINITY PREDICTED BY RF-SCORE:    0.00 PKD
ROOT
HETATM    1  C   UNL     1      -9.546   8.314  72.248  1.00  0.00    -0.285 C  
HETATM    2  O   UNL     1      -9.846   7.115  72.968  1.00  0.00    -0.167 OA 
HETATM    3  O   UNL     1     -10.421   5.143  74.535  1.00  0.00    -0.275 OA 
HETATM    4  C   UNL     1     -11.207   5.149  73.434  1.00  0.00    -0.290 C  
HETATM    5  C   UNL     1     -10.483   8.714  71.061  1.00  0.00    -0.219 C  
HETATM    6  C   UNL     1     -10.836   6.278  72.528  1.00  0.00    -0.240 C  
HETATM    7  C   UNL     1     -11.212   7.507  70.408  1.00  0.00    -0.253 C  
HETATM    8  C   UNL     1     -11.475   6.409  71.365  1.00  0.00    -0.363 C  
HETATM    9  O   UNL     1     -12.118   4.359  73.239  1.00  0.00    -0.060 OA 
ENDROOT
BRANCH   1  10
HETATM   10  C   UNL     1      -8.056   8.338  71.804  1.00  0.00    -0.141 C  
HETATM   11  O   UNL     1      -7.922   8.675  70.412  1.00  0.00    -0.086 OA 
HETATM   12  H   UNL     1      -7.011   8.690  70.141  1.00  0.00     0.000 HD 
BRANCH  10  13
HETATM   13  C   UNL     1      -7.266   7.025  72.068  1.00  0.00    -0.081 C  
HETATM   14  H   UNL     1      -5.560   6.487  72.936  1.00  0.00     0.000 HD 
HETATM   15  O   UNL     1      -6.042   7.289  72.775  1.00  0.00    -0.053 OA 
BRANCH  13  16
HETATM   16  C   UNL     1      -6.926   6.254  70.778  1.00  0.00    -0.068 C  
HETATM   17  O   UNL     1      -8.080   5.628  70.207  1.00  0.00    -0.100 OA 
HETATM   18  H   UNL     1      -7.871   5.152  69.412  1.00  0.00     0.000 HD 
ENDBRANCH  13  16
ENDBRANCH  10  13
ENDBRANCH   1  10
BRANCH   7  19
HETATM   19  N   UNL     1     -10.403   6.992  69.299  1.00  0.00    -0.194 NA 
HETATM   20  H2  UNL     1     -11.623   9.158  68.483  1.00  0.00     0.000 HD 
HETATM   21  H   UNL     1      -9.870   6.129  69.410  1.00  0.00     0.000 HD 
HETATM   22  C   UNL     1     -10.366   7.632  68.189  1.00  0.00    -0.204 C  
HETATM   23  H1  UNL     1      -9.568   7.689  66.291  1.00  0.00     0.000 HD 
HETATM   24  N   UNL     1     -11.003   8.749  67.782  1.00  0.00    -0.485 NA 
HETATM   25  H2  UNL     1      -9.045   6.330  67.292  1.00  0.00     0.000 HD 
HETATM   26  N   UNL     1      -9.596   7.179  67.175  1.00  0.00    -0.143 NA 
HETATM   27  H1  UNL     1     -10.975   9.259  66.899  1.00  0.00     0.000 HD 
ENDBRANCH   7  19
BRANCH   5  28
HETATM   28  N   UNL     1     -11.463   9.760  71.444  1.00  0.00    -0.380 N  
HETATM   29  C   UNL     1     -11.718  10.837  70.619  1.00  0.00    -0.342 C  
HETATM   30  H   UNL     1     -11.957   9.682  72.334  1.00  0.00     0.000 HD 
HETATM   31  C   UNL     1     -12.871  11.683  71.083  1.00  0.00    -0.392 C  
HETATM   32  O   UNL     1     -11.087  11.077  69.595  1.00  0.00    -0.251 OA 
ENDBRANCH   5  28
TORSDOF 5
ENDMDL
MODEL      108
REMARK 921   NORMALIZED FREE ENERGY PREDICTED BY IDOCK:   -4.15 KCAL/MOL
REMARK 922        TOTAL FREE ENERGY PREDICTED BY IDOCK:   -6.96 KCAL/MOL
REMARK 923 INTER-LIGAND FREE ENERGY PREDICTED BY IDOCK:   -6.11 KCAL/MOL
REMARK 924 INTRA-LIGAND FREE ENERGY PREDICTED BY IDOCK:   -0.85 KCAL/MOL
REMARK 927      BINDING AFFINITY PREDICTED BY RF-SCORE:    0.00 PKD
ROOT
HETATM    1  C   UNL     1      -9.806  11.373  68.444  1.00  0.00    -0.205 C  
HETATM    2  O   UNL     1     -10.551  12.364  69.159  1.00  0.00    -0.110 OA 
HETATM    3  O   UNL     1     -11.673  14.116  70.690  1.00  0.00    -0.277 OA 
HETATM    4  C   UNL     1     -11.446  14.610  69.451  1.00  0.00    -0.296 C  
HETATM    5  C   UNL     1      -9.184  11.772  67.067  1.00  0.00    -0.187 C  
HETATM    6  C   UNL     1     -10.826  13.570  68.575  1.00  0.00    -0.264 C  
HETATM    7  C   UNL     1      -9.939  12.926  66.352  1.00  0.00    -0.267 C  
HETATM    8  C   UNL     1     -10.579  13.866  67.299  1.00  0.00    -0.276 C  
HETATM    9  O   UNL     1     -11.683  15.762  69.120  1.00  0.00    -0.368 OA 
ENDROOT
BRANCH   1  10
HETATM   10  C   UNL     1     -10.616  10.051  68.320  1.00  0.00    -0.226 C  
HETATM   11  O   UNL     1     -12.034  10.292  68.357  1.00  0.00    -0.730 OA 
HETATM   12  H   UNL     1     -12.529   9.485  68.281  1.00  0.00     0.000 HD 
BRANCH  10  13
HETATM   13  C   UNL     1     -10.277   8.965  69.379  1.00  0.00    -0.209 C  
HETATM   14  H   UNL     1      -9.052   8.760  70.933  1.00  0.00     0.000 HD 
HETATM   15  O   UNL     1      -9.260   9.424  70.286  1.00  0.00    -0.209 OA 
BRANCH  13  16
HETATM   16  C   UNL     1      -9.811   7.636  68.756  1.00  0.00    -0.164 C  
HETATM   17  O   UNL     1     -10.912   6.786  68.418  1.00  0.00    -0.377 OA 
HETATM   18  H   UNL     1     -10.625   5.966  68.034  1.00  0.00     0.000 HD 
ENDBRANCH  13  16
ENDBRANCH  10  13
ENDBRANCH   1  10
BRANCH   7  19
HETATM   19  N   UNL     1     -10.965  12.362  65.469  1.00  0.00    -0.284 NA 
HETATM   20  H2  UNL     1      -9.044  13.326  63.976  1.00  0.00     0.000 HD 
HETATM   21  H   UNL     1     -11.816  11.962  65.863  1.00  0.00     0.000 HD 
HETATM   22  C   UNL     1     -10.787  12.374  64.199  1.00  0.00    -0.372 C  
HETATM   23  H1  UNL     1     -11.573  11.836  62.374  1.00  0.00     0.000 HD 
HETATM   24  N   UNL     1      -9.789  12.877  63.443  1.00  0.00    -0.446 NA 
HETATM   25  H2  UNL     1     -12.556  11.405  63.777  1.00  0.00     0.000 HD 
HETATM   26  N   UNL     1     -11.715  11.827  63.384  1.00  0.00    -0.395 NA 
HETATM   27  H1  UNL     1      -9.648  12.886  62.433  1.00  0.00     0.000 HD 
ENDBRANCH   7  19
BRANCH   5  28
HETATM   28  N   UNL     1      -7.738  12.091  67.172  1.00  0.00    -0.175 N  
HETATM   29  C   UNL     1      -6.791  11.092  67.272  1.00  0.00    -0.088 C  
HETATM   30  H   UNL     1      -7.440  13.067  67.171  1.00  0.00     0.000 HD 
HETATM   31  C   UNL     1      -5.379  11.599  67.177  1.00  0.00    -0.104 C  
HETATM   32  O   UNL     1      -7.063   9.904  67.405  1.00  0.00    -0.083 OA 
ENDBRANCH   5  28
TORSDOF 5
ENDMDL
MODEL      109
REMARK 921   NORMALIZED FREE ENERGY PREDICTED BY IDOCK:   -4.14 KCAL/MOL
REMARK 922        TOTAL FREE ENERGY PREDICTED BY IDOCK:   -6.95 KCAL/MOL
REMARK 923 INTER-LIGAND FREE ENERGY PREDICTED BY IDOCK:   -6.04 KCAL/MOL
REMARK 924 INTRA-LIGAND FREE ENERGY PREDICTED BY IDOCK:   -0.90 KCAL/MOL
REMARK 927      BINDING AFFINITY PREDICTED BY RF-SCORE:    0.00 PKD
ROOT
HETATM    1  C   UNL     1      -9.741   7.425  70.034  1.00  0.00    -0.175 C  
HETATM    2  O   UNL     1      -8.884   6.966  71.084  1.00  0.00    -0.141 OA 
HETATM    3  O   UNL     1      -7.089   6.167  72.760  1.00  0.00    -0.075 OA 
HETATM    4  C   UNL     1      -7.836   7.171  73.273  1.00  0.00    -0.096 C  
HETATM    5  C   UNL     1     -10.540   8.750  70.264  1.00  0.00    -0.216 C  
HETATM    6  C   UNL     1      -8.887   7.595  72.298  1.00  0.00    -0.131 C  
HETATM    7  C   UNL     1     -10.810   9.065  71.761  1.00  0.00    -0.367 C  
HETATM    8  C   UNL     1      -9.752   8.545  72.656  1.00  0.00    -0.285 C  
HETATM    9  O   UNL     1      -7.641   7.680  74.366  1.00  0.00    -0.129 OA 
ENDROOT
BRANCH   1  10
HETATM   10  C   UNL     1     -10.687   6.289  69.551  1.00  0.00    -0.303 C  
HETATM   11  O   UNL     1     -10.875   5.288  70.568  1.00  0.00    -0.199 OA 
HETATM   12  H   UNL     1     -11.453   4.594  70.273  1.00  0.00     0.000 HD 
BRANCH  10  13
HETATM   13  C   UNL     1     -10.251   5.578  68.240  1.00  0.00    -0.178 C  
HETATM   14  H   UNL     1      -8.577   5.312  67.200  1.00  0.00     0.000 HD 
HETATM   15  O   UNL     1      -8.843   5.746  68.001  1.00  0.00    -0.110 OA 
BRANCH  13  16
HETATM   16  C   UNL     1     -11.017   6.074  66.999  1.00  0.00    -0.276 C  
HETATM   17  O   UNL     1     -11.118   5.062  65.991  1.00  0.00    -0.698 OA 
HETATM   18  H   UNL     1     -11.591   5.367  65.226  1.00  0.00     0.000 HD 
ENDBRANCH  13  16
ENDBRANCH  10  13
ENDBRANCH   1  10
BRANCH   7  19
HETATM   19  N   UNL     1     -12.098   8.486  72.155  1.00  0.00    -0.360 NA 
HETATM   20  H2  UNL     1     -12.568  10.582  70.662  1.00  0.00     0.000 HD 
HETATM   21  H   UNL     1     -12.128   7.672  72.769  1.00  0.00     0.000 HD 
HETATM   22  C   UNL     1     -13.187   9.006  71.724  1.00  0.00    -0.389 C  
HETATM   23  H1  UNL     1     -15.242   8.871  71.714  1.00  0.00     0.000 HD 
HETATM   24  N   UNL     1     -13.414  10.090  70.953  1.00  0.00    -0.496 NA 
HETATM   25  H2  UNL     1     -14.406   7.629  72.652  1.00  0.00     0.000 HD 
HETATM   26  N   UNL     1     -14.376   8.456  72.058  1.00  0.00    -0.457 NA 
HETATM   27  H1  UNL     1     -14.280  10.505  70.610  1.00  0.00     0.000 HD 
ENDBRANCH   7  19
BRANCH   5  28
HETATM   28  N   UNL     1      -9.903   9.915  69.600  1.00  0.00    -0.219 N  
HETATM   29  C   UNL     1     -10.600  10.691  68.696  1.00  0.00    -0.203 C  
HETATM   30  H   UNL     1      -8.933  10.145  69.817  1.00  0.00     0.000 HD 
HETATM   31  C   UNL     1      -9.856  11.929  68.278  1.00  0.00    -0.199 C  
HETATM   32  O   UNL     1     -11.721  10.419  68.284  1.00  0.00    -0.342 OA 
ENDBRANCH   5  28
TORSDOF 5
ENDMDL
MODEL      110
REMARK 921   NORMALIZED FREE ENERGY PREDICTED BY IDOCK:   -4.13 KCAL/MOL
REMARK 922        TOTAL FREE ENERGY PREDICTED BY IDOCK:   -6.93 KCAL/MOL
REMARK 923 INTER-LIGAND FREE ENERGY PREDICTED BY IDOCK:   -6.35 KCAL/MOL
REMARK 924 INTRA-LIGAND FREE ENERGY PREDICTED BY IDOCK:   -0.58 KCAL/MOL
REMARK 927      BINDING AFFINITY PREDICTED BY RF-SCORE:    0.00 PKD
ROOT
HETATM    1  C   UNL     1      -9.378  13.125  67.584  1.00  0.00    -0.205 C  
HETATM    2  O   UNL     1      -8.749  12.161  66.734  1.00  0.00    -0.194 OA 
HETATM    3  O   UNL     1      -7.495  10.285  65.477  1.00  0.00    -0.140 OA 
HETATM    4  C   UNL     1      -8.795  10.346  65.109  1.00  0.00    -0.189 C  
HETATM    5  C   UNL     1     -10.939  13.223  67.557  1.00  0.00    -0.263 C  
HETATM    6  C   UNL     1      -9.492  11.458  65.825  1.00  0.00    -0.233 C  
HETATM    7  C   UNL     1     -11.571  12.750  66.218  1.00  0.00    -0.379 C  
HETATM    8  C   UNL     1     -10.774  11.699  65.547  1.00  0.00    -0.333 C  
HETATM    9  O   UNL     1      -9.323   9.568  64.330  1.00  0.00    -0.197 OA 
ENDROOT
BRANCH   1  10
HETATM   10  C   UNL     1      -8.735  14.529  67.402  1.00  0.00    -0.199 C  
HETATM   11  O   UNL     1      -8.941  15.038  66.072  1.00  0.00    -0.477 OA 
HETATM   12  H   UNL     1      -8.549  15.896  65.961  1.00  0.00     0.000 HD 
BRANCH  10  13
HETATM   13  C   UNL     1      -7.218  14.609  67.727  1.00  0.00    -0.175 C  
HETATM   14  H   UNL     1      -6.031  14.282  69.289  1.00  0.00     0.000 HD 
HETATM   15  O   UNL     1      -6.958  14.233  69.090  1.00  0.00    -0.110 OA 
BRANCH  13  16
HETATM   16  C   UNL     1      -6.620  16.008  67.486  1.00  0.00    -0.177 C  
HETATM   17  O   UNL     1      -5.207  15.956  67.255  1.00  0.00    -0.312 OA 
HETATM   18  H   UNL     1      -4.839  16.818  67.106  1.00  0.00     0.000 HD 
ENDBRANCH  13  16
ENDBRANCH  10  13
ENDBRANCH   1  10
BRANCH   7  19
HETATM   19  N   UNL     1     -11.709  13.897  65.315  1.00  0.00    -0.327 NA 
HETATM   20  H2  UNL     1     -12.755  11.805  64.143  1.00  0.00     0.000 HD 
HETATM   21  H   UNL     1     -11.331  14.807  65.581  1.00  0.00     0.000 HD 
HETATM   22  C   UNL     1     -12.306  13.752  64.191  1.00  0.00    -0.332 C  
HETATM   23  H1  UNL     1     -12.940  14.697  62.474  1.00  0.00     0.000 HD 
HETATM   24  N   UNL     1     -12.841  12.664  63.599  1.00  0.00    -0.728 NA 
HETATM   25  H2  UNL     1     -12.109  15.729  63.643  1.00  0.00     0.000 HD 
HETATM   26  N   UNL     1     -12.465  14.814  63.369  1.00  0.00    -0.220 NA 
HETATM   27  H1  UNL     1     -13.317  12.548  62.704  1.00  0.00     0.000 HD 
ENDBRANCH   7  19
BRANCH   5  28
HETATM   28  N   UNL     1     -11.568  12.516  68.700  1.00  0.00    -0.292 N  
HETATM   29  C   UNL     1     -11.788  13.156  69.903  1.00  0.00    -0.308 C  
HETATM   30  H   UNL     1     -11.842  11.538  68.594  1.00  0.00     0.000 HD 
HETATM   31  C   UNL     1     -12.603  12.343  70.870  1.00  0.00    -0.337 C  
HETATM   32  O   UNL     1     -11.383  14.284  70.160  1.00  0.00    -0.225 OA 
ENDBRANCH   5  28
TORSDOF 5
ENDMDL
MODEL      111
REMARK 921   NORMALIZED FREE ENERGY PREDICTED BY IDOCK:   -4.13 KCAL/MOL
REMARK 922        TOTAL FREE ENERGY PREDICTED BY IDOCK:   -6.93 KCAL/MOL
REMARK 923 INTER-LIGAND FREE ENERGY PREDICTED BY IDOCK:   -5.17 KCAL/MOL
REMARK 924 INTRA-LIGAND FREE ENERGY PREDICTED BY IDOCK:   -1.75 KCAL/MOL
REMARK 927      BINDING AFFINITY PREDICTED BY RF-SCORE:    0.00 PKD
ROOT
HETATM    1  C   UNL     1      -9.819   5.922  69.682  1.00  0.00    -0.167 C  
HETATM    2  O   UNL     1      -9.616   5.052  68.564  1.00  0.00    -0.131 OA 
HETATM    3  O   UNL     1      -9.347   3.237  66.746  1.00  0.00    -0.178 OA 
HETATM    4  C   UNL     1     -10.104   4.269  66.309  1.00  0.00    -0.172 C  
HETATM    5  C   UNL     1     -10.869   7.072  69.538  1.00  0.00    -0.238 C  
HETATM    6  C   UNL     1     -10.219   5.320  67.366  1.00  0.00    -0.191 C  
HETATM    7  C   UNL     1     -11.095   7.530  68.070  1.00  0.00     0.212 C  
HETATM    8  C   UNL     1     -10.890   6.440  67.091  1.00  0.00    -0.467 C  
HETATM    9  O   UNL     1     -10.646   4.306  65.216  1.00  0.00    -0.248 OA 
ENDROOT
BRANCH   1  10
HETATM   10  C   UNL     1      -8.465   6.476  70.208  1.00  0.00    -0.135 C  
HETATM   11  O   UNL     1      -8.453   7.915  70.231  1.00  0.00    -0.125 OA 
HETATM   12  H   UNL     1      -7.625   8.253  70.553  1.00  0.00     0.000 HD 
BRANCH  10  13
HETATM   13  C   UNL     1      -7.206   5.988  69.438  1.00  0.00    -0.074 C  
HETATM   14  H   UNL     1      -5.390   5.304  69.874  1.00  0.00     0.000 HD 
HETATM   15  O   UNL     1      -6.160   5.602  70.345  1.00  0.00    -0.024 OA 
BRANCH  13  16
HETATM   16  C   UNL     1      -6.643   7.044  68.467  1.00  0.00    -0.055 C  
HETATM   17  O   UNL     1      -7.557   7.337  67.404  1.00  0.00    -0.100 OA 
HETATM   18  H   UNL     1      -7.210   7.988  66.806  1.00  0.00     0.000 HD 
ENDBRANCH  13  16
ENDBRANCH  10  13
ENDBRANCH   1  10
BRANCH   7  19
HETATM   19  N   UNL     1     -10.180   8.633  67.758  1.00  0.00    -0.212 NA 
HETATM   20  H2  UNL     1     -12.497   9.656  68.413  1.00  0.00     0.000 HD 
HETATM   21  H   UNL     1      -9.228   8.436  67.450  1.00  0.00     0.000 HD 
HETATM   22  C   UNL     1     -10.581   9.844  67.876  1.00  0.00    -0.254 C  
HETATM   23  H1  UNL     1     -10.052  11.828  67.715  1.00  0.00     0.000 HD 
HETATM   24  N   UNL     1     -11.782  10.357  68.215  1.00  0.00    -0.741 NA 
HETATM   25  H2  UNL     1      -8.773  10.670  67.336  1.00  0.00     0.000 HD 
HETATM   26  N   UNL     1      -9.732  10.864  67.621  1.00  0.00    -0.169 NA 
HETATM   27  H1  UNL     1     -12.102  11.321  68.309  1.00  0.00     0.000 HD 
ENDBRANCH   7  19
BRANCH   5  28
HETATM   28  N   UNL     1     -12.165   6.736  70.177  1.00  0.00    -0.605 N  
HETATM   29  C   UNL     1     -12.641   7.460  71.252  1.00  0.00    -0.340 C  
HETATM   30  H   UNL     1     -12.714   5.956  69.815  1.00  0.00     0.000 HD 
HETATM   31  C   UNL     1     -14.047   7.096  71.638  1.00  0.00    -0.477 C  
HETATM   32  O   UNL     1     -11.997   8.329  71.828  1.00  0.00    -0.283 OA 
ENDBRANCH   5  28
TORSDOF 5
ENDMDL
MODEL      112
REMARK 921   NORMALIZED FREE ENERGY PREDICTED BY IDOCK:   -4.12 KCAL/MOL
REMARK 922        TOTAL FREE ENERGY PREDICTED BY IDOCK:   -6.92 KCAL/MOL
REMARK 923 INTER-LIGAND FREE ENERGY PREDICTED BY IDOCK:   -6.09 KCAL/MOL
REMARK 924 INTRA-LIGAND FREE ENERGY PREDICTED BY IDOCK:   -0.83 KCAL/MOL
REMARK 927      BINDING AFFINITY PREDICTED BY RF-SCORE:    0.00 PKD
ROOT
HETATM    1  C   UNL     1     -10.392  12.804  65.631  1.00  0.00    -0.279 C  
HETATM    2  O   UNL     1     -10.177  11.794  64.640  1.00  0.00    -0.261 OA 
HETATM    3  O   UNL     1      -9.759  10.219  62.636  1.00  0.00    -0.288 OA 
HETATM    4  C   UNL     1      -8.928   9.943  63.667  1.00  0.00    -0.251 C  
HETATM    5  C   UNL     1      -9.389  12.886  66.828  1.00  0.00    -0.243 C  
HETATM    6  C   UNL     1      -9.209  10.845  64.825  1.00  0.00    -0.201 C  
HETATM    7  C   UNL     1      -8.689  11.537  67.148  1.00  0.00    -0.160 C  
HETATM    8  C   UNL     1      -8.517  10.681  65.953  1.00  0.00    -0.167 C  
HETATM    9  O   UNL     1      -8.047   9.098  63.628  1.00  0.00    -0.142 OA 
ENDROOT
BRANCH   1  10
HETATM   10  C   UNL     1     -11.860  12.777  66.143  1.00  0.00    -0.425 C  
HETATM   11  O   UNL     1     -12.800  12.690  65.057  1.00  0.00    -0.765 OA 
HETATM   12  H   UNL     1     -13.696  12.673  65.370  1.00  0.00     0.000 HD 
BRANCH  10  13
HETATM   13  C   UNL     1     -12.267  13.972  67.048  1.00  0.00    -0.352 C  
HETATM   14  H   UNL     1     -11.752  15.879  67.284  1.00  0.00     0.000 HD 
HETATM   15  O   UNL     1     -11.503  15.148  66.731  1.00  0.00    -0.303 OA 
BRANCH  13  16
HETATM   16  C   UNL     1     -12.105  13.678  68.552  1.00  0.00    -0.286 C  
HETATM   17  O   UNL     1     -11.991  12.275  68.814  1.00  0.00    -0.302 OA 
HETATM   18  H   UNL     1     -11.890  12.093  69.741  1.00  0.00     0.000 HD 
ENDBRANCH  13  16
ENDBRANCH  10  13
ENDBRANCH   1  10
BRANCH   7  19
HETATM   19  N   UNL     1      -9.474  10.808  68.150  1.00  0.00    -0.153 NA 
HETATM   20  H2  UNL     1      -6.951  10.664  68.828  1.00  0.00     0.000 HD 
HETATM   21  H   UNL     1     -10.485  10.723  68.046  1.00  0.00     0.000 HD 
HETATM   22  C   UNL     1      -8.884  10.280  69.158  1.00  0.00    -0.176 C  
HETATM   23  H1  UNL     1      -9.137   9.215  70.902  1.00  0.00     0.000 HD 
HETATM   24  N   UNL     1      -7.579  10.214  69.494  1.00  0.00    -0.123 NA 
HETATM   25  H2  UNL     1     -10.620   9.569  70.010  1.00  0.00     0.000 HD 
HETATM   26  N   UNL     1      -9.607   9.635  70.101  1.00  0.00    -0.243 NA 
HETATM   27  H1  UNL     1      -7.109   9.793  70.296  1.00  0.00     0.000 HD 
ENDBRANCH   7  19
BRANCH   5  28
HETATM   28  N   UNL     1      -8.379  13.958  66.645  1.00  0.00    -0.395 N  
HETATM   29  C   UNL     1      -8.221  14.959  67.583  1.00  0.00    -0.172 C  
HETATM   30  H   UNL     1      -7.791  13.955  65.811  1.00  0.00     0.000 HD 
HETATM   31  C   UNL     1      -7.030  15.837  67.321  1.00  0.00    -0.232 C  
HETATM   32  O   UNL     1      -8.961  15.112  68.548  1.00  0.00    -0.172 OA 
ENDBRANCH   5  28
TORSDOF 5
ENDMDL
MODEL      113
REMARK 921   NORMALIZED FREE ENERGY PREDICTED BY IDOCK:   -4.08 KCAL/MOL
REMARK 922        TOTAL FREE ENERGY PREDICTED BY IDOCK:   -6.87 KCAL/MOL
REMARK 923 INTER-LIGAND FREE ENERGY PREDICTED BY IDOCK:   -5.98 KCAL/MOL
REMARK 924 INTRA-LIGAND FREE ENERGY PREDICTED BY IDOCK:   -0.89 KCAL/MOL
REMARK 927      BINDING AFFINITY PREDICTED BY RF-SCORE:    0.00 PKD
ROOT
HETATM    1  C   UNL     1     -10.424  13.411  67.770  1.00  0.00    -0.243 C  
HETATM    2  O   UNL     1     -10.977  13.707  69.056  1.00  0.00    -0.252 OA 
HETATM    3  O   UNL     1     -12.106  14.510  71.236  1.00  0.00    -0.331 OA 
HETATM    4  C   UNL     1     -12.424  13.226  70.956  1.00  0.00    -0.336 C  
HETATM    5  C   UNL     1     -10.848  12.076  67.076  1.00  0.00    -0.253 C  
HETATM    6  C   UNL     1     -11.735  12.774  69.709  1.00  0.00    -0.282 C  
HETATM    7  C   UNL     1     -11.286  10.967  68.072  1.00  0.00    -0.312 C  
HETATM    8  C   UNL     1     -11.893  11.512  69.307  1.00  0.00    -0.414 C  
HETATM    9  O   UNL     1     -13.200  12.553  71.617  1.00  0.00    -0.399 OA 
ENDROOT
BRANCH   1  10
HETATM   10  C   UNL     1      -8.876  13.557  67.785  1.00  0.00    -0.198 C  
HETATM   11  O   UNL     1      -8.359  13.855  66.475  1.00  0.00    -0.386 OA 
HETATM   12  H   UNL     1      -7.413  13.944  66.484  1.00  0.00     0.000 HD 
BRANCH  10  13
HETATM   13  C   UNL     1      -8.101  12.334  68.350  1.00  0.00    -0.151 C  
HETATM   14  H   UNL     1      -6.897  11.938  69.882  1.00  0.00     0.000 HD 
HETATM   15  O   UNL     1      -7.370  12.686  69.537  1.00  0.00     0.238 OA 
BRANCH  13  16
HETATM   16  C   UNL     1      -7.117  11.719  67.337  1.00  0.00    -0.126 C  
HETATM   17  O   UNL     1      -6.742  10.384  67.695  1.00  0.00    -0.072 OA 
HETATM   18  H   UNL     1      -6.135  10.005  67.070  1.00  0.00     0.000 HD 
ENDBRANCH  13  16
ENDBRANCH  10  13
ENDBRANCH   1  10
BRANCH   7  19
HETATM   19  N   UNL     1     -10.123  10.148  68.430  1.00  0.00    -0.158 NA 
HETATM   20  H2  UNL     1     -11.832   8.627  67.160  1.00  0.00     0.000 HD 
HETATM   21  H   UNL     1      -9.354  10.555  68.961  1.00  0.00     0.000 HD 
HETATM   22  C   UNL     1     -10.078   8.918  68.072  1.00  0.00    -0.195 C  
HETATM   23  H1  UNL     1      -8.959   7.190  68.086  1.00  0.00     0.000 HD 
HETATM   24  N   UNL     1     -10.970   8.147  67.417  1.00  0.00    -0.480 NA 
HETATM   25  H2  UNL     1      -8.214   8.580  68.882  1.00  0.00     0.000 HD 
HETATM   26  N   UNL     1      -8.994   8.168  68.372  1.00  0.00    -0.137 NA 
HETATM   27  H1  UNL     1     -10.934   7.168  67.131  1.00  0.00     0.000 HD 
ENDBRANCH   7  19
BRANCH   5  28
HETATM   28  N   UNL     1     -11.894  12.283  66.045  1.00  0.00    -0.394 N  
HETATM   29  C   UNL     1     -11.562  12.559  64.733  1.00  0.00    -0.337 C  
HETATM   30  H   UNL     1     -12.878  12.222  66.310  1.00  0.00     0.000 HD 
HETATM   31  C   UNL     1     -12.743  12.547  63.804  1.00  0.00    -0.414 C  
HETATM   32  O   UNL     1     -10.417  12.772  64.350  1.00  0.00    -0.346 OA 
ENDBRANCH   5  28
TORSDOF 5
ENDMDL
MODEL      114
REMARK 921   NORMALIZED FREE ENERGY PREDICTED BY IDOCK:   -4.04 KCAL/MOL
REMARK 922        TOTAL FREE ENERGY PREDICTED BY IDOCK:   -6.81 KCAL/MOL
REMARK 923 INTER-LIGAND FREE ENERGY PREDICTED BY IDOCK:   -5.58 KCAL/MOL
REMARK 924 INTRA-LIGAND FREE ENERGY PREDICTED BY IDOCK:   -1.23 KCAL/MOL
REMARK 927      BINDING AFFINITY PREDICTED BY RF-SCORE:    0.00 PKD
ROOT
HETATM    1  C   UNL     1     -10.006  10.951  68.260  1.00  0.00    -0.175 C  
HETATM    2  O   UNL     1      -8.593  11.023  68.473  1.00  0.00    -0.145 OA 
HETATM    3  O   UNL     1      -6.075  11.481  68.825  1.00  0.00    -0.047 OA 
HETATM    4  C   UNL     1      -6.584  10.711  69.815  1.00  0.00    -0.121 C  
HETATM    5  C   UNL     1     -10.890  10.336  69.393  1.00  0.00    -0.245 C  
HETATM    6  C   UNL     1      -8.033  10.434  69.573  1.00  0.00    -0.144 C  
HETATM    7  C   UNL     1     -10.130   9.330  70.302  1.00  0.00    -0.219 C  
HETATM    8  C   UNL     1      -8.689   9.645  70.425  1.00  0.00    -0.213 C  
HETATM    9  O   UNL     1      -5.947  10.337  70.786  1.00  0.00    -0.092 OA 
ENDROOT
BRANCH   1  10
HETATM   10  C   UNL     1     -10.329  10.290  66.890  1.00  0.00    -0.239 C  
HETATM   11  O   UNL     1      -9.779   8.963  66.798  1.00  0.00    -0.179 OA 
HETATM   12  H   UNL     1      -9.976   8.560  65.961  1.00  0.00     0.000 HD 
BRANCH  10  13
HETATM   13  C   UNL     1      -9.872  11.096  65.642  1.00  0.00    -0.235 C  
HETATM   14  H   UNL     1      -8.194  11.389  64.616  1.00  0.00     0.000 HD 
HETATM   15  O   UNL     1      -8.473  10.896  65.378  1.00  0.00    -0.163 OA 
BRANCH  13  16
HETATM   16  C   UNL     1     -10.132  12.609  65.770  1.00  0.00    -0.271 C  
HETATM   17  O   UNL     1     -10.998  13.094  64.737  1.00  0.00    -0.305 OA 
HETATM   18  H   UNL     1     -11.158  14.027  64.816  1.00  0.00     0.000 HD 
ENDBRANCH  13  16
ENDBRANCH  10  13
ENDBRANCH   1  10
BRANCH   7  19
HETATM   19  N   UNL     1     -10.280   7.976  69.760  1.00  0.00    -0.201 NA 
HETATM   20  H2  UNL     1     -12.071   8.307  71.638  1.00  0.00     0.000 HD 
HETATM   21  H   UNL     1      -9.648   7.642  69.032  1.00  0.00     0.000 HD 
HETATM   22  C   UNL     1     -11.209   7.213  70.204  1.00  0.00    -0.262 C  
HETATM   23  H1  UNL     1     -12.112   5.370  70.039  1.00  0.00     0.000 HD 
HETATM   24  N   UNL     1     -12.126   7.399  71.176  1.00  0.00    -0.321 NA 
HETATM   25  H2  UNL     1     -10.756   5.650  68.941  1.00  0.00     0.000 HD 
HETATM   26  N   UNL     1     -11.372   5.976  69.685  1.00  0.00    -0.374 NA 
HETATM   27  H1  UNL     1     -12.866   6.792  71.530  1.00  0.00     0.000 HD 
ENDBRANCH   7  19
BRANCH   5  28
HETATM   28  N   UNL     1     -11.552  11.375  70.219  1.00  0.00    -0.475 N  
HETATM   29  C   UNL     1     -12.744  11.121  70.869  1.00  0.00    -0.344 C  
HETATM   30  H   UNL     1     -11.119  12.295  70.309  1.00  0.00     0.000 HD 
HETATM   31  C   UNL     1     -13.159  12.222  71.804  1.00  0.00    -0.449 C  
HETATM   32  O   UNL     1     -13.396  10.094  70.721  1.00  0.00    -0.361 OA 
ENDBRANCH   5  28
TORSDOF 5
ENDMDL
MODEL      115
REMARK 921   NORMALIZED FREE ENERGY PREDICTED BY IDOCK:   -4.03 KCAL/MOL
REMARK 922        TOTAL FREE ENERGY PREDICTED BY IDOCK:   -6.81 KCAL/MOL
REMARK 923 INTER-LIGAND FREE ENERGY PREDICTED BY IDOCK:   -5.86 KCAL/MOL
REMARK 924 INTRA-LIGAND FREE ENERGY PREDICTED BY IDOCK:   -0.95 KCAL/MOL
REMARK 927      BINDING AFFINITY PREDICTED BY RF-SCORE:    0.00 PKD
ROOT
HETATM    1  C   UNL     1     -10.643   7.424  70.759  1.00  0.00    -0.223 C  
HETATM    2  O   UNL     1     -10.913   7.090  69.394  1.00  0.00    -0.239 OA 
HETATM    3  O   UNL     1     -11.276   6.785  66.855  1.00  0.00    -0.375 OA 
HETATM    4  C   UNL     1     -10.602   5.741  67.390  1.00  0.00    -0.265 C  
HETATM    5  C   UNL     1      -9.656   6.512  71.558  1.00  0.00    -0.161 C  
HETATM    6  C   UNL     1     -10.432   5.925  68.864  1.00  0.00    -0.259 C  
HETATM    7  C   UNL     1      -9.581   5.055  71.024  1.00  0.00    -0.170 C  
HETATM    8  C   UNL     1      -9.832   4.964  69.568  1.00  0.00    -0.287 C  
HETATM    9  O   UNL     1     -10.163   4.804  66.741  1.00  0.00    -0.225 OA 
ENDROOT
BRANCH   1  10
HETATM   10  C   UNL     1     -11.965   7.632  71.552  1.00  0.00    -0.303 C  
HETATM   11  O   UNL     1     -13.114   7.240  70.780  1.00  0.00    -0.603 OA 
HETATM   12  H   UNL     1     -13.921   7.367  71.265  1.00  0.00     0.000 HD 
BRANCH  10  13
HETATM   13  C   UNL     1     -12.200   9.075  72.080  1.00  0.00    -0.357 C  
HETATM   14  H   UNL     1     -13.713  10.150  72.793  1.00  0.00     0.000 HD 
HETATM   15  O   UNL     1     -13.570   9.268  72.471  1.00  0.00    -0.467 OA 
BRANCH  13  16
HETATM   16  C   UNL     1     -11.828  10.163  71.055  1.00  0.00    -0.383 C  
HETATM   17  O   UNL     1     -12.229   9.809  69.727  1.00  0.00    -0.433 OA 
HETATM   18  H   UNL     1     -12.000  10.480  69.095  1.00  0.00     0.000 HD 
ENDBRANCH  13  16
ENDBRANCH  10  13
ENDBRANCH   1  10
BRANCH   7  19
HETATM   19  N   UNL     1     -10.563   4.227  71.732  1.00  0.00     0.053 NA 
HETATM   20  H2  UNL     1      -8.268   4.009  72.969  1.00  0.00     0.000 HD 
HETATM   21  H   UNL     1     -11.519   4.154  71.383  1.00  0.00     0.000 HD 
HETATM   22  C   UNL     1     -10.215   3.595  72.791  1.00  0.00    -0.167 C  
HETATM   23  H1  UNL     1     -10.846   2.353  74.308  1.00  0.00     0.000 HD 
HETATM   24  N   UNL     1      -9.024   3.492  73.418  1.00  0.00    -0.093 NA 
HETATM   25  H2  UNL     1     -12.086   2.802  73.132  1.00  0.00     0.000 HD 
HETATM   26  N   UNL     1     -11.124   2.856  73.465  1.00  0.00    -0.219 NA 
HETATM   27  H1  UNL     1      -8.747   2.989  74.261  1.00  0.00     0.000 HD 
ENDBRANCH   7  19
BRANCH   5  28
HETATM   28  N   UNL     1      -8.295   7.097  71.648  1.00  0.00    -0.110 N  
HETATM   29  C   UNL     1      -8.011   8.112  72.539  1.00  0.00    -0.144 C  
HETATM   30  H   UNL     1      -7.557   6.742  71.040  1.00  0.00     0.000 HD 
HETATM   31  C   UNL     1      -6.546   8.440  72.620  1.00  0.00    -0.104 C  
HETATM   32  O   UNL     1      -8.858   8.682  73.218  1.00  0.00    -0.323 OA 
ENDBRANCH   5  28
TORSDOF 5
ENDMDL
MODEL      116
REMARK 921   NORMALIZED FREE ENERGY PREDICTED BY IDOCK:   -4.03 KCAL/MOL
REMARK 922        TOTAL FREE ENERGY PREDICTED BY IDOCK:   -6.80 KCAL/MOL
REMARK 923 INTER-LIGAND FREE ENERGY PREDICTED BY IDOCK:   -5.26 KCAL/MOL
REMARK 924 INTRA-LIGAND FREE ENERGY PREDICTED BY IDOCK:   -1.55 KCAL/MOL
REMARK 927      BINDING AFFINITY PREDICTED BY RF-SCORE:    0.00 PKD
ROOT
HETATM    1  C   UNL     1      -8.848   5.940  70.564  1.00  0.00    -0.144 C  
HETATM    2  O   UNL     1      -8.792   5.768  69.145  1.00  0.00    -0.112 OA 
HETATM    3  O   UNL     1      -8.522   5.180  66.644  1.00  0.00    -0.108 OA 
HETATM    4  C   UNL     1      -9.814   5.425  66.960  1.00  0.00    -0.162 C  
HETATM    5  C   UNL     1     -10.255   5.986  71.244  1.00  0.00    -0.205 C  
HETATM    6  C   UNL     1      -9.941   5.793  68.403  1.00  0.00    -0.153 C  
HETATM    7  C   UNL     1     -11.390   6.467  70.299  1.00  0.00    -0.403 C  
HETATM    8  C   UNL     1     -11.142   6.119  68.882  1.00  0.00    -0.417 C  
HETATM    9  O   UNL     1     -10.743   5.316  66.175  1.00  0.00    -0.266 OA 
ENDROOT
BRANCH   1  10
HETATM   10  C   UNL     1      -7.980   7.150  71.012  1.00  0.00    -0.103 C  
HETATM   11  O   UNL     1      -6.644   6.745  71.359  1.00  0.00    -0.051 OA 
HETATM   12  H   UNL     1      -6.114   7.484  71.633  1.00  0.00     0.000 HD 
BRANCH  10  13
HETATM   13  C   UNL     1      -8.561   7.980  72.191  1.00  0.00    -0.155 C  
HETATM   14  H   UNL     1      -9.321   9.796  72.475  1.00  0.00     0.000 HD 
HETATM   15  O   UNL     1      -8.966   9.289  71.755  1.00  0.00    -0.298 OA 
BRANCH  13  16
HETATM   16  C   UNL     1      -7.574   8.142  73.362  1.00  0.00    -0.150 C  
HETATM   17  O   UNL     1      -7.335   6.902  74.038  1.00  0.00    -0.092 OA 
HETATM   18  H   UNL     1      -6.726   7.002  74.760  1.00  0.00     0.000 HD 
ENDBRANCH  13  16
ENDBRANCH  10  13
ENDBRANCH   1  10
BRANCH   7  19
HETATM   19  N   UNL     1     -11.537   7.921  70.416  1.00  0.00    -0.458 NA 
HETATM   20  H2  UNL     1     -13.078   6.799  72.207  1.00  0.00     0.000 HD 
HETATM   21  H   UNL     1     -11.035   8.540  69.779  1.00  0.00     0.000 HD 
HETATM   22  C   UNL     1     -12.297   8.412  71.324  1.00  0.00    -0.266 C  
HETATM   23  H1  UNL     1     -13.015  10.142  72.180  1.00  0.00     0.000 HD 
HETATM   24  N   UNL     1     -13.087   7.818  72.242  1.00  0.00    -0.516 NA 
HETATM   25  H2  UNL     1     -11.891  10.372  70.836  1.00  0.00     0.000 HD 
HETATM   26  N   UNL     1     -12.410   9.752  71.457  1.00  0.00    -0.378 NA 
HETATM   27  H1  UNL     1     -13.692   8.208  72.965  1.00  0.00     0.000 HD 
ENDBRANCH   7  19
BRANCH   5  28
HETATM   28  N   UNL     1     -10.622   4.690  71.869  1.00  0.00    -0.101 N  
HETATM   29  C   UNL     1     -10.552   4.511  73.236  1.00  0.00    -0.216 C  
HETATM   30  H   UNL     1     -10.931   3.919  71.277  1.00  0.00     0.000 HD 
HETATM   31  C   UNL     1     -11.141   3.207  73.696  1.00  0.00    -0.321 C  
HETATM   32  O   UNL     1     -10.078   5.336  74.009  1.00  0.00    -0.180 OA 
ENDBRANCH   5  28
TORSDOF 5
ENDMDL
MODEL      117
REMARK 921   NORMALIZED FREE ENERGY PREDICTED BY IDOCK:   -4.01 KCAL/MOL
REMARK 922        TOTAL FREE ENERGY PREDICTED BY IDOCK:   -6.77 KCAL/MOL
REMARK 923 INTER-LIGAND FREE ENERGY PREDICTED BY IDOCK:   -5.41 KCAL/MOL
REMARK 924 INTRA-LIGAND FREE ENERGY PREDICTED BY IDOCK:   -1.36 KCAL/MOL
REMARK 927      BINDING AFFINITY PREDICTED BY RF-SCORE:    0.00 PKD
ROOT
HETATM    1  C   UNL     1      -9.145   9.436  69.722  1.00  0.00    -0.193 C  
HETATM    2  O   UNL     1      -9.090  10.794  69.277  1.00  0.00    -0.143 OA 
HETATM    3  O   UNL     1      -8.746  13.149  68.271  1.00  0.00    -0.176 OA 
HETATM    4  C   UNL     1     -10.042  12.767  68.212  1.00  0.00    -0.237 C  
HETATM    5  C   UNL     1     -10.482   8.650  69.521  1.00  0.00    -0.220 C  
HETATM    6  C   UNL     1     -10.222  11.417  68.827  1.00  0.00    -0.197 C  
HETATM    7  C   UNL     1     -11.739   9.561  69.460  1.00  0.00     0.326 C  
HETATM    8  C   UNL     1     -11.449  10.901  68.902  1.00  0.00    -0.369 C  
HETATM    9  O   UNL     1     -10.926  13.427  67.688  1.00  0.00    -0.251 OA 
ENDROOT
BRANCH   1  10
HETATM   10  C   UNL     1      -8.649   9.312  71.191  1.00  0.00    -0.025 C  
HETATM   11  O   UNL     1      -7.217   9.425  71.279  1.00  0.00    -0.299 OA 
HETATM   12  H   UNL     1      -6.914   9.350  72.176  1.00  0.00     0.000 HD 
BRANCH  10  13
HETATM   13  C   UNL     1      -9.083   8.014  71.929  1.00  0.00    -0.156 C  
HETATM   14  H   UNL     1      -9.549   7.464  73.782  1.00  0.00     0.000 HD 
HETATM   15  O   UNL     1      -9.284   8.257  73.331  1.00  0.00    -0.241 OA 
BRANCH  13  16
HETATM   16  C   UNL     1      -8.072   6.863  71.774  1.00  0.00    -0.101 C  
HETATM   17  O   UNL     1      -8.310   6.094  70.589  1.00  0.00    -0.122 OA 
HETATM   18  H   UNL     1      -7.686   5.384  70.494  1.00  0.00     0.000 HD 
ENDBRANCH  13  16
ENDBRANCH  10  13
ENDBRANCH   1  10
BRANCH   7  19
HETATM   19  N   UNL     1     -12.295   9.713  70.809  1.00  0.00    -0.451 NA 
HETATM   20  H2  UNL     1     -12.872   7.309  69.954  1.00  0.00     0.000 HD 
HETATM   21  H   UNL     1     -12.201  10.600  71.305  1.00  0.00     0.000 HD 
HETATM   22  C   UNL     1     -12.899   8.727  71.362  1.00  0.00    -0.280 C  
HETATM   23  H1  UNL     1     -13.865   8.067  73.056  1.00  0.00     0.000 HD 
HETATM   24  N   UNL     1     -13.190   7.491  70.907  1.00  0.00    -0.591 NA 
HETATM   25  H2  UNL     1     -13.270   9.730  73.123  1.00  0.00     0.000 HD 
HETATM   26  N   UNL     1     -13.384   8.852  72.617  1.00  0.00    -0.400 NA 
HETATM   27  H1  UNL     1     -13.670   6.706  71.347  1.00  0.00     0.000 HD 
ENDBRANCH   7  19
BRANCH   5  28
HETATM   28  N   UNL     1     -10.438   7.756  68.338  1.00  0.00    -0.287 N  
HETATM   29  C   UNL     1     -10.832   6.435  68.424  1.00  0.00    -0.311 C  
HETATM   30  H   UNL     1     -10.110   8.124  67.444  1.00  0.00     0.000 HD 
HETATM   31  C   UNL     1     -10.898   5.745  67.090  1.00  0.00    -0.308 C  
HETATM   32  O   UNL     1     -11.120   5.877  69.476  1.00  0.00    -0.381 OA 
ENDBRANCH   5  28
TORSDOF 5
ENDMDL
MODEL      118
REMARK 921   NORMALIZED FREE ENERGY PREDICTED BY IDOCK:   -3.96 KCAL/MOL
REMARK 922        TOTAL FREE ENERGY PREDICTED BY IDOCK:   -6.71 KCAL/MOL
REMARK 923 INTER-LIGAND FREE ENERGY PREDICTED BY IDOCK:   -5.49 KCAL/MOL
REMARK 924 INTRA-LIGAND FREE ENERGY PREDICTED BY IDOCK:   -1.22 KCAL/MOL
REMARK 927      BINDING AFFINITY PREDICTED BY RF-SCORE:    0.00 PKD
ROOT
HETATM    1  C   UNL     1     -10.442  10.251  67.775  1.00  0.00    -0.226 C  
HETATM    2  O   UNL     1     -10.621   8.862  68.070  1.00  0.00    -0.221 OA 
HETATM    3  O   UNL     1     -11.255   6.434  68.681  1.00  0.00    -0.329 OA 
HETATM    4  C   UNL     1     -10.688   6.506  67.455  1.00  0.00    -0.340 C  
HETATM    5  C   UNL     1     -10.039  10.647  66.317  1.00  0.00    -0.235 C  
HETATM    6  C   UNL     1     -10.302   7.914  67.137  1.00  0.00    -0.328 C  
HETATM    7  C   UNL     1      -9.283   9.526  65.552  1.00  0.00    -0.234 C  
HETATM    8  C   UNL     1      -9.680   8.167  65.984  1.00  0.00    -0.052 C  
HETATM    9  O   UNL     1     -10.555   5.551  66.705  1.00  0.00    -0.264 OA 
ENDROOT
BRANCH   1  10
HETATM   10  C   UNL     1      -9.495  10.922  68.809  1.00  0.00    -0.190 C  
HETATM   11  O   UNL     1      -8.787  12.035  68.235  1.00  0.00    -0.179 OA 
HETATM   12  H   UNL     1      -8.208  12.446  68.867  1.00  0.00     0.000 HD 
BRANCH  10  13
HETATM   13  C   UNL     1      -8.458   9.972  69.471  1.00  0.00    -0.176 C  
HETATM   14  H   UNL     1      -8.188   9.091  71.233  1.00  0.00     0.000 HD 
HETATM   15  O   UNL     1      -8.822   9.671  70.829  1.00  0.00    -0.202 OA 
BRANCH  13  16
HETATM   16  C   UNL     1      -7.026  10.539  69.465  1.00  0.00    -0.114 C  
HETATM   17  O   UNL     1      -6.691  11.165  70.708  1.00  0.00    -0.421 OA 
HETATM   18  H   UNL     1      -5.808  11.515  70.705  1.00  0.00     0.000 HD 
ENDBRANCH  13  16
ENDBRANCH  10  13
ENDBRANCH   1  10
BRANCH   7  19
HETATM   19  N   UNL     1      -7.839   9.689  65.753  1.00  0.00    -0.104 NA 
HETATM   20  H2  UNL     1      -8.441  10.610  63.380  1.00  0.00     0.000 HD 
HETATM   21  H   UNL     1      -7.401   9.360  66.614  1.00  0.00     0.000 HD 
HETATM   22  C   UNL     1      -7.130  10.249  64.844  1.00  0.00    -0.099 C  
HETATM   23  H1  UNL     1      -5.241  10.876  64.315  1.00  0.00     0.000 HD 
HETATM   24  N   UNL     1      -7.456  10.719  63.622  1.00  0.00    -0.338 NA 
HETATM   25  H2  UNL     1      -5.370  10.124  65.908  1.00  0.00     0.000 HD 
HETATM   26  N   UNL     1      -5.805  10.431  65.039  1.00  0.00    -0.130 NA 
HETATM   27  H1  UNL     1      -6.892  11.164  62.898  1.00  0.00     0.000 HD 
ENDBRANCH   7  19
BRANCH   5  28
HETATM   28  N   UNL     1     -11.199  11.119  65.520  1.00  0.00    -0.003 N  
HETATM   29  C   UNL     1     -11.025  11.935  64.419  1.00  0.00    -0.337 C  
HETATM   30  H   UNL     1     -12.141  10.837  65.791  1.00  0.00     0.000 HD 
HETATM   31  C   UNL     1     -12.288  12.151  63.634  1.00  0.00    -0.673 C  
HETATM   32  O   UNL     1      -9.948  12.422  64.095  1.00  0.00    -0.291 OA 
ENDBRANCH   5  28
TORSDOF 5
ENDMDL
MODEL      119
REMARK 921   NORMALIZED FREE ENERGY PREDICTED BY IDOCK:   -3.96 KCAL/MOL
REMARK 922        TOTAL FREE ENERGY PREDICTED BY IDOCK:   -6.71 KCAL/MOL
REMARK 923 INTER-LIGAND FREE ENERGY PREDICTED BY IDOCK:   -5.73 KCAL/MOL
REMARK 924 INTRA-LIGAND FREE ENERGY PREDICTED BY IDOCK:   -0.98 KCAL/MOL
REMARK 927      BINDING AFFINITY PREDICTED BY RF-SCORE:    0.00 PKD
ROOT
HETATM    1  C   UNL     1     -10.872  10.996  66.332  1.00  0.00    -0.191 C  
HETATM    2  O   UNL     1     -11.647  10.984  67.535  1.00  0.00    -0.529 OA 
HETATM    3  O   UNL     1     -13.234  10.734  69.558  1.00  0.00     0.110 OA 
HETATM    4  C   UNL     1     -11.938  10.599  69.922  1.00  0.00    -0.310 C  
HETATM    5  C   UNL     1      -9.361  10.604  66.426  1.00  0.00    -0.169 C  
HETATM    6  C   UNL     1     -11.038  10.779  68.742  1.00  0.00    -0.259 C  
HETATM    7  C   UNL     1      -8.736  10.861  67.825  1.00  0.00    -0.129 C  
HETATM    8  C   UNL     1      -9.719  10.729  68.925  1.00  0.00    -0.207 C  
HETATM    9  O   UNL     1     -11.571  10.327  71.055  1.00  0.00    -0.351 OA 
ENDROOT
BRANCH   1  10
HETATM   10  C   UNL     1     -11.045  12.343  65.572  1.00  0.00    -0.300 C  
HETATM   11  O   UNL     1      -9.776  12.910  65.203  1.00  0.00    -0.486 OA 
HETATM   12  H   UNL     1      -9.881  13.732  64.739  1.00  0.00     0.000 HD 
BRANCH  10  13
HETATM   13  C   UNL     1     -11.865  13.427  66.326  1.00  0.00    -0.394 C  
HETATM   14  H   UNL     1     -13.492  14.525  66.004  1.00  0.00     0.000 HD 
HETATM   15  O   UNL     1     -12.991  13.863  65.544  1.00  0.00    -0.673 OA 
BRANCH  13  16
HETATM   16  C   UNL     1     -11.029  14.663  66.707  1.00  0.00    -0.323 C  
HETATM   17  O   UNL     1      -9.951  14.331  67.588  1.00  0.00    -0.222 OA 
HETATM   18  H   UNL     1      -9.435  15.093  67.823  1.00  0.00     0.000 HD 
ENDBRANCH  13  16
ENDBRANCH  10  13
ENDBRANCH   1  10
BRANCH   7  19
HETATM   19  N   UNL     1      -8.156  12.207  67.859  1.00  0.00    -0.142 NA 
HETATM   20  H2  UNL     1      -6.554  10.662  66.484  1.00  0.00     0.000 HD 
HETATM   21  H   UNL     1      -8.621  12.952  68.378  1.00  0.00     0.000 HD 
HETATM   22  C   UNL     1      -7.063  12.443  67.234  1.00  0.00    -0.128 C  
HETATM   23  H1  UNL     1      -5.671  13.878  66.738  1.00  0.00     0.000 HD 
HETATM   24  N   UNL     1      -6.246  11.634  66.528  1.00  0.00    -0.333 NA 
HETATM   25  H2  UNL     1      -7.017  14.442  67.734  1.00  0.00     0.000 HD 
HETATM   26  N   UNL     1      -6.541  13.690  67.236  1.00  0.00    -0.206 NA 
HETATM   27  H1  UNL     1      -5.376  11.822  66.030  1.00  0.00     0.000 HD 
ENDBRANCH   7  19
BRANCH   5  28
HETATM   28  N   UNL     1      -9.115   9.204  66.002  1.00  0.00    -0.181 N  
HETATM   29  C   UNL     1      -8.047   8.484  66.499  1.00  0.00    -0.103 C  
HETATM   30  H   UNL     1      -9.745   8.766  65.330  1.00  0.00     0.000 HD 
HETATM   31  C   UNL     1      -8.071   7.034  66.104  1.00  0.00    -0.119 C  
HETATM   32  O   UNL     1      -7.172   8.964  67.211  1.00  0.00    -0.082 OA 
ENDBRANCH   5  28
TORSDOF 5
ENDMDL
MODEL      120
REMARK 921   NORMALIZED FREE ENERGY PREDICTED BY IDOCK:   -3.94 KCAL/MOL
REMARK 922        TOTAL FREE ENERGY PREDICTED BY IDOCK:   -6.69 KCAL/MOL
REMARK 923 INTER-LIGAND FREE ENERGY PREDICTED BY IDOCK:   -5.94 KCAL/MOL
REMARK 924 INTRA-LIGAND FREE ENERGY PREDICTED BY IDOCK:   -0.76 KCAL/MOL
REMARK 927      BINDING AFFINITY PREDICTED BY RF-SCORE:    0.00 PKD
ROOT
HETATM    1  C   UNL     1      -7.146  16.371  67.218  1.00  0.00    -0.181 C  
HETATM    2  O   UNL     1      -6.762  14.994  67.159  1.00  0.00    -0.273 OA 
HETATM    3  O   UNL     1      -5.762  12.618  67.003  1.00  0.00    -0.330 OA 
HETATM    4  C   UNL     1      -6.499  12.774  68.127  1.00  0.00    -0.085 C  
HETATM    5  C   UNL     1      -7.793  16.899  68.540  1.00  0.00    -0.240 C  
HETATM    6  C   UNL     1      -7.092  14.145  68.180  1.00  0.00    -0.127 C  
HETATM    7  C   UNL     1      -8.509  15.797  69.368  1.00  0.00    -0.218 C  
HETATM    8  C   UNL     1      -7.894  14.461  69.197  1.00  0.00    -0.026 C  
HETATM    9  O   UNL     1      -6.620  11.919  68.991  1.00  0.00    -0.077 OA 
ENDROOT
BRANCH   1  10
HETATM   10  C   UNL     1      -8.014  16.759  65.987  1.00  0.00    -0.075 C  
HETATM   11  O   UNL     1      -7.800  18.128  65.598  1.00  0.00    -0.520 OA 
HETATM   12  H   UNL     1      -8.330  18.365  64.846  1.00  0.00     0.000 HD 
BRANCH  10  13
HETATM   13  C   UNL     1      -9.541  16.531  66.156  1.00  0.00    -0.315 C  
HETATM   14  H   UNL     1     -10.974  15.468  65.277  1.00  0.00     0.000 HD 
HETATM   15  O   UNL     1     -10.040  15.607  65.174  1.00  0.00    -0.375 OA 
BRANCH  13  16
HETATM   16  C   UNL     1     -10.362  17.831  66.061  1.00  0.00    -0.304 C  
HETATM   17  O   UNL     1     -10.794  18.289  67.348  1.00  0.00    -0.389 OA 
HETATM   18  H   UNL     1     -11.299  19.091  67.289  1.00  0.00     0.000 HD 
ENDBRANCH  13  16
ENDBRANCH  10  13
ENDBRANCH   1  10
BRANCH   7  19
HETATM   19  N   UNL     1      -9.919  15.730  68.971  1.00  0.00    -0.220 NA 
HETATM   20  H2  UNL     1      -9.738  14.973  71.469  1.00  0.00     0.000 HD 
HETATM   21  H   UNL     1     -10.194  15.959  68.015  1.00  0.00     0.000 HD 
HETATM   22  C   UNL     1     -10.805  15.382  69.829  1.00  0.00    -0.288 C  
HETATM   23  H1  UNL     1     -12.814  15.074  70.161  1.00  0.00     0.000 HD 
HETATM   24  N   UNL     1     -10.695  14.994  71.116  1.00  0.00    -0.499 NA 
HETATM   25  H2  UNL     1     -12.388  15.602  68.529  1.00  0.00     0.000 HD 
HETATM   26  N   UNL     1     -12.109  15.350  69.477  1.00  0.00    -0.327 NA 
HETATM   27  H1  UNL     1     -11.400  14.718  71.800  1.00  0.00     0.000 HD 
ENDBRANCH   7  19
BRANCH   5  28
HETATM   28  N   UNL     1      -6.822  17.631  69.390  1.00  0.00    -0.193 N  
HETATM   29  C   UNL     1      -6.626  18.990  69.245  1.00  0.00    -0.302 C  
HETATM   30  H   UNL     1      -6.288  17.120  70.094  1.00  0.00     0.000 HD 
HETATM   31  C   UNL     1      -5.752  19.583  70.314  1.00  0.00    -0.284 C  
HETATM   32  O   UNL     1      -7.128  19.660  68.350  1.00  0.00    -0.287 OA 
ENDBRANCH   5  28
TORSDOF 5
ENDMDL
MODEL      121
REMARK 921   NORMALIZED FREE ENERGY PREDICTED BY IDOCK:   -3.94 KCAL/MOL
REMARK 922        TOTAL FREE ENERGY PREDICTED BY IDOCK:   -6.68 KCAL/MOL
REMARK 923 INTER-LIGAND FREE ENERGY PREDICTED BY IDOCK:   -5.76 KCAL/MOL
REMARK 924 INTRA-LIGAND FREE ENERGY PREDICTED BY IDOCK:   -0.92 KCAL/MOL
REMARK 927      BINDING AFFINITY PREDICTED BY RF-SCORE:    0.00 PKD
ROOT
HETATM    1  C   UNL     1     -10.214   8.577  69.968  1.00  0.00    -0.198 C  
HETATM    2  O   UNL     1     -10.993   9.654  69.438  1.00  0.00    -0.231 OA 
HETATM    3  O   UNL     1     -12.263  11.785  68.717  1.00  0.00    -0.367 OA 
HETATM    4  C   UNL     1     -11.618  11.214  67.674  1.00  0.00    -0.183 C  
HETATM    5  C   UNL     1      -9.167   7.895  69.029  1.00  0.00    -0.147 C  
HETATM    6  C   UNL     1     -10.917   9.967  68.108  1.00  0.00    -0.235 C  
HETATM    7  C   UNL     1      -9.514   8.010  67.519  1.00  0.00    -0.146 C  
HETATM    8  C   UNL     1     -10.269   9.242  67.196  1.00  0.00    -0.324 C  
HETATM    9  O   UNL     1     -11.587  11.686  66.548  1.00  0.00    -0.473 OA 
ENDROOT
BRANCH   1  10
HETATM   10  C   UNL     1     -11.125   7.513  70.643  1.00  0.00    -0.265 C  
HETATM   11  O   UNL     1     -12.000   6.883  69.690  1.00  0.00    -0.612 OA 
HETATM   12  H   UNL     1     -12.556   6.232  70.102  1.00  0.00     0.000 HD 
BRANCH  10  13
HETATM   13  C   UNL     1     -11.986   8.033  71.827  1.00  0.00    -0.301 C  
HETATM   14  H   UNL     1     -13.663   7.516  72.763  1.00  0.00     0.000 HD 
HETATM   15  O   UNL     1     -13.137   7.198  72.039  1.00  0.00    -0.248 OA 
BRANCH  13  16
HETATM   16  C   UNL     1     -12.466   9.484  71.636  1.00  0.00    -0.391 C  
HETATM   17  O   UNL     1     -13.458   9.590  70.609  1.00  0.00    -0.583 OA 
HETATM   18  H   UNL     1     -13.754  10.485  70.491  1.00  0.00     0.000 HD 
ENDBRANCH  13  16
ENDBRANCH  10  13
ENDBRANCH   1  10
BRANCH   7  19
HETATM   19  N   UNL     1     -10.304   6.844  67.111  1.00  0.00    -0.237 NA 
HETATM   20  H2  UNL     1      -7.799   6.383  66.511  1.00  0.00     0.000 HD 
HETATM   21  H   UNL     1     -11.317   6.842  67.234  1.00  0.00     0.000 HD 
HETATM   22  C   UNL     1      -9.716   5.826  66.600  1.00  0.00    -0.157 C  
HETATM   23  H1  UNL     1      -9.968   3.926  65.846  1.00  0.00     0.000 HD 
HETATM   24  N   UNL     1      -8.421   5.604  66.296  1.00  0.00    -0.120 NA 
HETATM   25  H2  UNL     1     -11.445   4.723  66.397  1.00  0.00     0.000 HD 
HETATM   26  N   UNL     1     -10.436   4.736  66.252  1.00  0.00    -0.298 NA 
HETATM   27  H1  UNL     1      -7.953   4.794  65.889  1.00  0.00     0.000 HD 
ENDBRANCH   7  19
BRANCH   5  28
HETATM   28  N   UNL     1      -7.786   8.379  69.277  1.00  0.00    -0.102 N  
HETATM   29  C   UNL     1      -6.960   7.748  70.185  1.00  0.00    -0.050 C  
HETATM   30  H   UNL     1      -7.442   9.193  68.767  1.00  0.00     0.000 HD 
HETATM   31  C   UNL     1      -5.547   8.260  70.159  1.00  0.00    -0.022 C  
HETATM   32  O   UNL     1      -7.326   6.844  70.927  1.00  0.00    -0.075 OA 
ENDBRANCH   5  28
TORSDOF 5
ENDMDL
MODEL      122
REMARK 921   NORMALIZED FREE ENERGY PREDICTED BY IDOCK:   -3.93 KCAL/MOL
REMARK 922        TOTAL FREE ENERGY PREDICTED BY IDOCK:   -6.68 KCAL/MOL
REMARK 923 INTER-LIGAND FREE ENERGY PREDICTED BY IDOCK:   -5.61 KCAL/MOL
REMARK 924 INTRA-LIGAND FREE ENERGY PREDICTED BY IDOCK:   -1.06 KCAL/MOL
REMARK 927      BINDING AFFINITY PREDICTED BY RF-SCORE:    0.00 PKD
ROOT
HETATM    1  C   UNL     1     -10.078   8.831  69.297  1.00  0.00    -0.204 C  
HETATM    2  O   UNL     1     -10.813   9.923  68.737  1.00  0.00    -0.219 OA 
HETATM    3  O   UNL     1     -12.003  12.081  67.962  1.00  0.00    -0.495 OA 
HETATM    4  C   UNL     1     -11.362  11.472  66.938  1.00  0.00    -0.253 C  
HETATM    5  C   UNL     1      -9.039   8.099  68.385  1.00  0.00    -0.136 C  
HETATM    6  C   UNL     1     -10.708  10.211  67.404  1.00  0.00    -0.277 C  
HETATM    7  C   UNL     1      -9.360   8.201  66.868  1.00  0.00    -0.173 C  
HETATM    8  C   UNL     1     -10.070   9.450  66.514  1.00  0.00    -0.332 C  
HETATM    9  O   UNL     1     -11.299  11.923  65.805  1.00  0.00    -0.332 OA 
ENDROOT
BRANCH   1  10
HETATM   10  C   UNL     1     -11.032   7.808  69.975  1.00  0.00    -0.214 C  
HETATM   11  O   UNL     1     -12.138   8.462  70.622  1.00  0.00    -0.490 OA 
HETATM   12  H   UNL     1     -12.721   7.837  71.036  1.00  0.00     0.000 HD 
BRANCH  10  13
HETATM   13  C   UNL     1     -10.359   6.855  71.002  1.00  0.00    -0.205 C  
HETATM   14  H   UNL     1     -10.723   5.076  71.814  1.00  0.00     0.000 HD 
HETATM   15  O   UNL     1     -11.135   5.658  71.186  1.00  0.00    -0.230 OA 
BRANCH  13  16
HETATM   16  C   UNL     1     -10.137   7.508  72.379  1.00  0.00    -0.203 C  
HETATM   17  O   UNL     1     -11.292   7.395  73.219  1.00  0.00    -0.591 OA 
HETATM   18  H   UNL     1     -11.155   7.797  74.069  1.00  0.00     0.000 HD 
ENDBRANCH  13  16
ENDBRANCH  10  13
ENDBRANCH   1  10
BRANCH   7  19
HETATM   19  N   UNL     1     -10.181   7.053  66.468  1.00  0.00    -0.458 NA 
HETATM   20  H2  UNL     1      -7.769   6.187  66.994  1.00  0.00     0.000 HD 
HETATM   21  H   UNL     1     -11.153   7.190  66.191  1.00  0.00     0.000 HD 
HETATM   22  C   UNL     1      -9.672   5.877  66.467  1.00  0.00    -0.155 C  
HETATM   23  H1  UNL     1     -10.027   3.877  66.131  1.00  0.00     0.000 HD 
HETATM   24  N   UNL     1      -8.423   5.446  66.742  1.00  0.00    -0.108 NA 
HETATM   25  H2  UNL     1     -11.411   4.945  65.876  1.00  0.00     0.000 HD 
HETATM   26  N   UNL     1     -10.433   4.813  66.130  1.00  0.00    -0.306 NA 
HETATM   27  H1  UNL     1      -8.017   4.510  66.742  1.00  0.00     0.000 HD 
ENDBRANCH   7  19
BRANCH   5  28
HETATM   28  N   UNL     1      -7.648   8.544  68.646  1.00  0.00    -0.096 N  
HETATM   29  C   UNL     1      -6.659   7.639  68.981  1.00  0.00    -0.048 C  
HETATM   30  H   UNL     1      -7.417   9.535  68.577  1.00  0.00     0.000 HD 
HETATM   31  C   UNL     1      -5.285   8.247  69.020  1.00  0.00    -0.027 C  
HETATM   32  O   UNL     1      -6.868   6.453  69.206  1.00  0.00    -0.060 OA 
ENDBRANCH   5  28
TORSDOF 5
ENDMDL
MODEL      123
REMARK 921   NORMALIZED FREE ENERGY PREDICTED BY IDOCK:   -3.93 KCAL/MOL
REMARK 922        TOTAL FREE ENERGY PREDICTED BY IDOCK:   -6.67 KCAL/MOL
REMARK 923 INTER-LIGAND FREE ENERGY PREDICTED BY IDOCK:   -5.28 KCAL/MOL
REMARK 924 INTRA-LIGAND FREE ENERGY PREDICTED BY IDOCK:   -1.39 KCAL/MOL
REMARK 927      BINDING AFFINITY PREDICTED BY RF-SCORE:    0.00 PKD
ROOT
HETATM    1  C   UNL     1      -9.187   8.813  71.219  1.00  0.00    -0.241 C  
HETATM    2  O   UNL     1      -9.563   7.840  72.198  1.00  0.00    -0.159 OA 
HETATM    3  O   UNL     1     -10.293   6.339  74.170  1.00  0.00    -0.298 OA 
HETATM    4  C   UNL     1     -10.988   6.055  73.044  1.00  0.00    -0.257 C  
HETATM    5  C   UNL     1     -10.019   8.886  69.896  1.00  0.00    -0.188 C  
HETATM    6  C   UNL     1     -10.527   6.913  71.911  1.00  0.00    -0.201 C  
HETATM    7  C   UNL     1     -10.712   7.547  69.521  1.00  0.00    -0.217 C  
HETATM    8  C   UNL     1     -11.068   6.733  70.705  1.00  0.00    -0.323 C  
HETATM    9  O   UNL     1     -11.892   5.236  72.987  1.00  0.00    -0.265 OA 
ENDROOT
BRANCH   1  10
HETATM   10  C   UNL     1      -7.665   8.729  70.908  1.00  0.00    -0.109 C  
HETATM   11  O   UNL     1      -6.884   9.443  71.883  1.00  0.00    -0.310 OA 
HETATM   12  H   UNL     1      -5.955   9.391  71.694  1.00  0.00     0.000 HD 
BRANCH  10  13
HETATM   13  C   UNL     1      -7.250   9.223  69.494  1.00  0.00    -0.061 C  
HETATM   14  H   UNL     1      -6.164   8.559  67.966  1.00  0.00     0.000 HD 
HETATM   15  O   UNL     1      -6.418   8.256  68.830  1.00  0.00    -0.050 OA 
BRANCH  13  16
HETATM   16  C   UNL     1      -6.507  10.572  69.517  1.00  0.00    -0.072 C  
HETATM   17  O   UNL     1      -7.396  11.672  69.740  1.00  0.00    -0.340 OA 
HETATM   18  H   UNL     1      -6.937  12.503  69.754  1.00  0.00     0.000 HD 
ENDBRANCH  13  16
ENDBRANCH  10  13
ENDBRANCH   1  10
BRANCH   7  19
HETATM   19  N   UNL     1      -9.824   6.766  68.653  1.00  0.00    -0.141 NA 
HETATM   20  H2  UNL     1     -12.104   7.086  67.411  1.00  0.00     0.000 HD 
HETATM   21  H   UNL     1      -8.891   6.508  68.974  1.00  0.00     0.000 HD 
HETATM   22  C   UNL     1     -10.225   6.410  67.489  1.00  0.00    -0.170 C  
HETATM   23  H1  UNL     1      -9.719   5.436  65.747  1.00  0.00     0.000 HD 
HETATM   24  N   UNL     1     -11.407   6.583  66.862  1.00  0.00    -0.817 NA 
HETATM   25  H2  UNL     1      -8.457   5.481  66.983  1.00  0.00     0.000 HD 
HETATM   26  N   UNL     1      -9.399   5.719  66.673  1.00  0.00    -0.141 NA 
HETATM   27  H1  UNL     1     -11.727   6.300  65.936  1.00  0.00     0.000 HD 
ENDBRANCH   7  19
BRANCH   5  28
HETATM   28  N   UNL     1     -11.009   9.990  69.914  1.00  0.00    -0.273 N  
HETATM   29  C   UNL     1     -10.949  11.019  68.995  1.00  0.00    -0.233 C  
HETATM   30  H   UNL     1     -11.749   9.989  70.617  1.00  0.00     0.000 HD 
HETATM   31  C   UNL     1     -12.139  11.935  69.048  1.00  0.00    -0.245 C  
HETATM   32  O   UNL     1     -10.030  11.168  68.198  1.00  0.00    -0.168 OA 
ENDBRANCH   5  28
TORSDOF 5
ENDMDL
MODEL      124
REMARK 921   NORMALIZED FREE ENERGY PREDICTED BY IDOCK:   -3.93 KCAL/MOL
REMARK 922        TOTAL FREE ENERGY PREDICTED BY IDOCK:   -6.67 KCAL/MOL
REMARK 923 INTER-LIGAND FREE ENERGY PREDICTED BY IDOCK:   -5.18 KCAL/MOL
REMARK 924 INTRA-LIGAND FREE ENERGY PREDICTED BY IDOCK:   -1.49 KCAL/MOL
REMARK 927      BINDING AFFINITY PREDICTED BY RF-SCORE:    0.00 PKD
ROOT
HETATM    1  C   UNL     1      -9.043  12.009  66.295  1.00  0.00    -0.165 C  
HETATM    2  O   UNL     1      -8.967  10.686  65.756  1.00  0.00    -0.169 OA 
HETATM    3  O   UNL     1      -8.558   8.401  64.624  1.00  0.00    -0.131 OA 
HETATM    4  C   UNL     1      -8.708   8.273  65.962  1.00  0.00    -0.155 C  
HETATM    5  C   UNL     1      -8.964  12.177  67.848  1.00  0.00    -0.184 C  
HETATM    6  C   UNL     1      -8.974   9.603  66.591  1.00  0.00    -0.146 C  
HETATM    7  C   UNL     1      -9.441  10.925  68.635  1.00  0.00    -0.190 C  
HETATM    8  C   UNL     1      -9.200   9.661  67.904  1.00  0.00    -0.134 C  
HETATM    9  O   UNL     1      -8.598   7.217  66.566  1.00  0.00    -0.118 OA 
ENDROOT
BRANCH   1  10
HETATM   10  C   UNL     1     -10.269  12.774  65.720  1.00  0.00    -0.289 C  
HETATM   11  O   UNL     1      -9.953  13.423  64.475  1.00  0.00    -0.630 OA 
HETATM   12  H   UNL     1     -10.702  13.890  64.124  1.00  0.00     0.000 HD 
BRANCH  10  13
HETATM   13  C   UNL     1     -10.899  13.827  66.674  1.00  0.00    -0.288 C  
HETATM   14  H   UNL     1     -12.583  14.052  67.708  1.00  0.00     0.000 HD 
HETATM   15  O   UNL     1     -12.198  13.408  67.125  1.00  0.00    -0.348 OA 
BRANCH  13  16
HETATM   16  C   UNL     1     -11.032  15.222  66.034  1.00  0.00    -0.317 C  
HETATM   17  O   UNL     1      -9.773  15.898  65.953  1.00  0.00    -0.310 OA 
HETATM   18  H   UNL     1      -9.855  16.758  65.557  1.00  0.00     0.000 HD 
ENDBRANCH  13  16
ENDBRANCH  10  13
ENDBRANCH   1  10
BRANCH   7  19
HETATM   19  N   UNL     1     -10.874  11.047  68.922  1.00  0.00    -0.202 NA 
HETATM   20  H2  UNL     1      -9.750   9.777  70.913  1.00  0.00     0.000 HD 
HETATM   21  H   UNL     1     -11.495  11.490  68.245  1.00  0.00     0.000 HD 
HETATM   22  C   UNL     1     -11.342  10.596  70.026  1.00  0.00    -0.324 C  
HETATM   23  H1  UNL     1     -13.028  10.377  71.188  1.00  0.00     0.000 HD 
HETATM   24  N   UNL     1     -10.748   9.942  71.045  1.00  0.00    -0.319 NA 
HETATM   25  H2  UNL     1     -13.275  11.199  69.644  1.00  0.00     0.000 HD 
HETATM   26  N   UNL     1     -12.656  10.736  70.309  1.00  0.00    -0.314 NA 
HETATM   27  H1  UNL     1     -11.120   9.583  71.925  1.00  0.00     0.000 HD 
ENDBRANCH   7  19
BRANCH   5  28
HETATM   28  N   UNL     1      -7.613  12.587  68.303  1.00  0.00    -0.121 N  
HETATM   29  C   UNL     1      -7.293  13.917  68.488  1.00  0.00    -0.116 C  
HETATM   30  H   UNL     1      -6.907  11.872  68.483  1.00  0.00     0.000 HD 
HETATM   31  C   UNL     1      -5.950  14.123  69.131  1.00  0.00    -0.093 C  
HETATM   32  O   UNL     1      -8.033  14.845  68.182  1.00  0.00    -0.120 OA 
ENDBRANCH   5  28
TORSDOF 5
ENDMDL
MODEL      125
REMARK 921   NORMALIZED FREE ENERGY PREDICTED BY IDOCK:   -3.87 KCAL/MOL
REMARK 922        TOTAL FREE ENERGY PREDICTED BY IDOCK:   -6.60 KCAL/MOL
REMARK 923 INTER-LIGAND FREE ENERGY PREDICTED BY IDOCK:   -6.50 KCAL/MOL
REMARK 924 INTRA-LIGAND FREE ENERGY PREDICTED BY IDOCK:   -0.10 KCAL/MOL
REMARK 927      BINDING AFFINITY PREDICTED BY RF-SCORE:    0.00 PKD
ROOT
HETATM    1  C   UNL     1     -10.270  13.455  67.265  1.00  0.00    -0.241 C  
HETATM    2  O   UNL     1     -10.388  13.156  65.871  1.00  0.00    -0.279 OA 
HETATM    3  O   UNL     1     -10.363  12.839  63.307  1.00  0.00    -0.223 OA 
HETATM    4  C   UNL     1     -10.241  11.658  63.955  1.00  0.00    -0.365 C  
HETATM    5  C   UNL     1      -9.862  12.298  68.234  1.00  0.00    -0.217 C  
HETATM    6  C   UNL     1     -10.290  11.863  65.435  1.00  0.00    -0.267 C  
HETATM    7  C   UNL     1     -10.241  10.884  67.712  1.00  0.00    -0.180 C  
HETATM    8  C   UNL     1     -10.234  10.797  66.235  1.00  0.00    -0.301 C  
HETATM    9  O   UNL     1     -10.073  10.586  63.396  1.00  0.00    -0.271 OA 
ENDROOT
BRANCH   1  10
HETATM   10  C   UNL     1     -11.540  14.188  67.785  1.00  0.00    -0.347 C  
HETATM   11  O   UNL     1     -12.531  14.330  66.752  1.00  0.00    -0.575 OA 
HETATM   12  H   UNL     1     -13.307  14.777  67.070  1.00  0.00     0.000 HD 
BRANCH  10  13
HETATM   13  C   UNL     1     -11.286  15.585  68.416  1.00  0.00    -0.341 C  
HETATM   14  H   UNL     1      -9.760  16.843  68.634  1.00  0.00     0.000 HD 
HETATM   15  O   UNL     1      -9.916  15.989  68.249  1.00  0.00    -0.216 OA 
BRANCH  13  16
HETATM   16  C   UNL     1     -11.632  15.646  69.915  1.00  0.00    -0.347 C  
HETATM   17  O   UNL     1     -10.884  14.692  70.678  1.00  0.00    -0.490 OA 
HETATM   18  H   UNL     1     -11.097  14.730  71.603  1.00  0.00     0.000 HD 
ENDBRANCH  13  16
ENDBRANCH  10  13
ENDBRANCH   1  10
BRANCH   7  19
HETATM   19  N   UNL     1     -11.574  10.525  68.207  1.00  0.00    -0.672 NA 
HETATM   20  H2  UNL     1     -10.124  11.287  70.247  1.00  0.00     0.000 HD 
HETATM   21  H   UNL     1     -12.281  10.170  67.563  1.00  0.00     0.000 HD 
HETATM   22  C   UNL     1     -11.846  10.658  69.453  1.00  0.00    -0.253 C  
HETATM   23  H1  UNL     1     -13.299  10.464  70.899  1.00  0.00     0.000 HD 
HETATM   24  N   UNL     1     -11.086  11.052  70.494  1.00  0.00    -0.352 NA 
HETATM   25  H2  UNL     1     -13.799  10.027  69.262  1.00  0.00     0.000 HD 
HETATM   26  N   UNL     1     -13.083  10.358  69.908  1.00  0.00     0.066 NA 
HETATM   27  H1  UNL     1     -11.302  11.159  71.486  1.00  0.00     0.000 HD 
ENDBRANCH   7  19
BRANCH   5  28
HETATM   28  N   UNL     1      -8.423  12.344  68.593  1.00  0.00    -0.356 N  
HETATM   29  C   UNL     1      -7.781  11.239  69.115  1.00  0.00    -0.046 C  
HETATM   30  H   UNL     1      -7.899  13.209  68.452  1.00  0.00     0.000 HD 
HETATM   31  C   UNL     1      -6.293  11.417  69.236  1.00  0.00    -0.084 C  
HETATM   32  O   UNL     1      -8.354  10.203  69.432  1.00  0.00    -0.143 OA 
ENDBRANCH   5  28
TORSDOF 5
ENDMDL
MODEL      126
REMARK 921   NORMALIZED FREE ENERGY PREDICTED BY IDOCK:   -3.85 KCAL/MOL
REMARK 922        TOTAL FREE ENERGY PREDICTED BY IDOCK:   -6.57 KCAL/MOL
REMARK 923 INTER-LIGAND FREE ENERGY PREDICTED BY IDOCK:   -4.90 KCAL/MOL
REMARK 924 INTRA-LIGAND FREE ENERGY PREDICTED BY IDOCK:   -1.66 KCAL/MOL
REMARK 927      BINDING AFFINITY PREDICTED BY RF-SCORE:    0.00 PKD
ROOT
HETATM    1  C   UNL     1      -9.446   8.943  69.888  1.00  0.00    -0.170 C  
HETATM    2  O   UNL     1      -9.989   8.340  71.067  1.00  0.00    -0.180 OA 
HETATM    3  O   UNL     1     -11.033   7.558  73.296  1.00  0.00    -0.393 OA 
HETATM    4  C   UNL     1     -11.591   6.927  72.237  1.00  0.00    -0.270 C  
HETATM    5  C   UNL     1     -10.098   8.588  68.512  1.00  0.00    -0.194 C  
HETATM    6  C   UNL     1     -10.950   7.372  70.962  1.00  0.00    -0.251 C  
HETATM    7  C   UNL     1     -10.800   7.202  68.494  1.00  0.00    -0.095 C  
HETATM    8  C   UNL     1     -11.341   6.815  69.816  1.00  0.00    -0.350 C  
HETATM    9  O   UNL     1     -12.519   6.137  72.322  1.00  0.00    -0.236 OA 
ENDROOT
BRANCH   1  10
HETATM   10  C   UNL     1      -7.903   8.759  69.830  1.00  0.00    -0.093 C  
HETATM   11  O   UNL     1      -7.424   8.723  68.474  1.00  0.00    -0.086 OA 
HETATM   12  H   UNL     1      -6.481   8.610  68.438  1.00  0.00     0.000 HD 
BRANCH  10  13
HETATM   13  C   UNL     1      -7.357   7.509  70.575  1.00  0.00    -0.075 C  
HETATM   14  H   UNL     1      -6.309   7.121  72.220  1.00  0.00     0.000 HD 
HETATM   15  O   UNL     1      -6.642   7.885  71.765  1.00  0.00    -0.045 OA 
BRANCH  13  16
HETATM   16  C   UNL     1      -6.428   6.642  69.704  1.00  0.00    -0.044 C  
HETATM   17  O   UNL     1      -7.164   5.810  68.799  1.00  0.00    -0.077 OA 
HETATM   18  H   UNL     1      -6.591   5.275  68.262  1.00  0.00     0.000 HD 
ENDBRANCH  13  16
ENDBRANCH  10  13
ENDBRANCH   1  10
BRANCH   7  19
HETATM   19  N   UNL     1      -9.846   6.180  68.049  1.00  0.00    -0.123 NA 
HETATM   20  H2  UNL     1     -11.878   6.171  66.402  1.00  0.00     0.000 HD 
HETATM   21  H   UNL     1      -8.994   6.008  68.583  1.00  0.00     0.000 HD 
HETATM   22  C   UNL     1     -10.086   5.506  66.986  1.00  0.00    -0.194 C  
HETATM   23  H1  UNL     1      -9.387   4.050  65.709  1.00  0.00     0.000 HD 
HETATM   24  N   UNL     1     -11.142   5.512  66.146  1.00  0.00    -0.778 NA 
HETATM   25  H2  UNL     1      -8.332   4.429  67.074  1.00  0.00     0.000 HD 
HETATM   26  N   UNL     1      -9.195   4.586  66.555  1.00  0.00    -0.129 NA 
HETATM   27  H1  UNL     1     -11.334   4.976  65.300  1.00  0.00     0.000 HD 
ENDBRANCH   7  19
BRANCH   5  28
HETATM   28  N   UNL     1     -11.030   9.642  68.042  1.00  0.00    -0.475 N  
HETATM   29  C   UNL     1     -10.565  10.781  67.416  1.00  0.00    -0.242 C  
HETATM   30  H   UNL     1     -12.034   9.523  68.183  1.00  0.00     0.000 HD 
HETATM   31  C   UNL     1     -11.660  11.636  66.843  1.00  0.00    -0.246 C  
HETATM   32  O   UNL     1      -9.377  11.066  67.313  1.00  0.00    -0.155 OA 
ENDBRANCH   5  28
TORSDOF 5
ENDMDL
MODEL      127
REMARK 921   NORMALIZED FREE ENERGY PREDICTED BY IDOCK:   -3.84 KCAL/MOL
REMARK 922        TOTAL FREE ENERGY PREDICTED BY IDOCK:   -6.56 KCAL/MOL
REMARK 923 INTER-LIGAND FREE ENERGY PREDICTED BY IDOCK:   -4.83 KCAL/MOL
REMARK 924 INTRA-LIGAND FREE ENERGY PREDICTED BY IDOCK:   -1.73 KCAL/MOL
REMARK 927      BINDING AFFINITY PREDICTED BY RF-SCORE:    0.00 PKD
ROOT
HETATM    1  C   UNL     1      -8.313   7.354  67.779  1.00  0.00    -0.118 C  
HETATM    2  O   UNL     1      -9.363   6.961  68.669  1.00  0.00    -0.137 OA 
HETATM    3  O   UNL     1     -11.019   6.128  70.468  1.00  0.00    -0.274 OA 
HETATM    4  C   UNL     1     -11.219   7.434  70.174  1.00  0.00    -0.218 C  
HETATM    5  C   UNL     1      -8.142   8.877  67.470  1.00  0.00    -0.109 C  
HETATM    6  C   UNL     1     -10.271   7.884  69.110  1.00  0.00    -0.216 C  
HETATM    7  C   UNL     1      -9.452   9.698  67.631  1.00  0.00    -0.133 C  
HETATM    8  C   UNL     1     -10.358   9.135  68.657  1.00  0.00    -0.233 C  
HETATM    9  O   UNL     1     -12.036   8.144  70.738  1.00  0.00    -0.238 OA 
ENDROOT
BRANCH   1  10
HETATM   10  C   UNL     1      -8.363   6.527  66.462  1.00  0.00    -0.116 C  
HETATM   11  O   UNL     1      -9.067   7.229  65.422  1.00  0.00    -0.378 OA 
HETATM   12  H   UNL     1      -9.097   6.724  64.617  1.00  0.00     0.000 HD 
BRANCH  10  13
HETATM   13  C   UNL     1      -8.976   5.106  66.596  1.00  0.00    -0.115 C  
HETATM   14  H   UNL     1      -8.444   3.232  66.194  1.00  0.00     0.000 HD 
HETATM   15  O   UNL     1      -8.068   4.101  66.112  1.00  0.00    -0.098 OA 
BRANCH  13  16
HETATM   16  C   UNL     1     -10.315   4.951  65.851  1.00  0.00    -0.236 C  
HETATM   17  O   UNL     1     -11.353   5.743  66.441  1.00  0.00    -0.723 OA 
HETATM   18  H   UNL     1     -12.178   5.648  65.981  1.00  0.00     0.000 HD 
ENDBRANCH  13  16
ENDBRANCH  10  13
ENDBRANCH   1  10
BRANCH   7  19
HETATM   19  N   UNL     1     -10.155   9.747  66.345  1.00  0.00    -0.245 NA 
HETATM   20  H2  UNL     1      -8.704  11.913  66.565  1.00  0.00     0.000 HD 
HETATM   21  H   UNL     1     -10.801   9.001  66.085  1.00  0.00     0.000 HD 
HETATM   22  C   UNL     1      -9.956  10.732  65.549  1.00  0.00    -0.263 C  
HETATM   23  H1  UNL     1     -10.418  11.550  63.717  1.00  0.00     0.000 HD 
HETATM   24  N   UNL     1      -9.203  11.844  65.678  1.00  0.00    -0.412 NA 
HETATM   25  H2  UNL     1     -11.204  10.009  64.078  1.00  0.00     0.000 HD 
HETATM   26  N   UNL     1     -10.577  10.766  64.350  1.00  0.00    -0.289 NA 
HETATM   27  H1  UNL     1      -9.044  12.628  65.045  1.00  0.00     0.000 HD 
ENDBRANCH   7  19
BRANCH   5  28
HETATM   28  N   UNL     1      -7.049   9.494  68.262  1.00  0.00    -0.074 N  
HETATM   29  C   UNL     1      -6.331  10.568  67.774  1.00  0.00    -0.059 C  
HETATM   30  H   UNL     1      -6.824   9.117  69.183  1.00  0.00     0.000 HD 
HETATM   31  C   UNL     1      -5.401  11.172  68.789  1.00  0.00    -0.040 C  
HETATM   32  O   UNL     1      -6.448  11.006  66.635  1.00  0.00    -0.106 OA 
ENDBRANCH   5  28
TORSDOF 5
ENDMDL
MODEL      128
REMARK 921   NORMALIZED FREE ENERGY PREDICTED BY IDOCK:   -3.83 KCAL/MOL
REMARK 922        TOTAL FREE ENERGY PREDICTED BY IDOCK:   -6.54 KCAL/MOL
REMARK 923 INTER-LIGAND FREE ENERGY PREDICTED BY IDOCK:   -5.66 KCAL/MOL
REMARK 924 INTRA-LIGAND FREE ENERGY PREDICTED BY IDOCK:   -0.88 KCAL/MOL
REMARK 927      BINDING AFFINITY PREDICTED BY RF-SCORE:    0.00 PKD
ROOT
HETATM    1  C   UNL     1      -8.367  12.956  67.207  1.00  0.00    -0.185 C  
HETATM    2  O   UNL     1      -7.442  14.044  67.285  1.00  0.00    -0.157 OA 
HETATM    3  O   UNL     1      -5.664  15.912  67.129  1.00  0.00    -0.333 OA 
HETATM    4  C   UNL     1      -6.887  16.413  67.416  1.00  0.00    -0.169 C  
HETATM    5  C   UNL     1      -9.895  13.285  67.243  1.00  0.00    -0.233 C  
HETATM    6  C   UNL     1      -7.892  15.312  67.532  1.00  0.00    -0.176 C  
HETATM    7  C   UNL     1     -10.230  14.615  67.973  1.00  0.00    -0.231 C  
HETATM    8  C   UNL     1      -9.147  15.618  67.862  1.00  0.00    -0.185 C  
HETATM    9  O   UNL     1      -7.131  17.605  67.522  1.00  0.00    -0.166 OA 
ENDROOT
BRANCH   1  10
HETATM   10  C   UNL     1      -8.017  11.853  68.245  1.00  0.00    -0.148 C  
HETATM   11  O   UNL     1      -7.171  12.360  69.293  1.00  0.00    -0.298 OA 
HETATM   12  H   UNL     1      -6.957  11.687  69.928  1.00  0.00     0.000 HD 
BRANCH  10  13
HETATM   13  C   UNL     1      -7.354  10.576  67.657  1.00  0.00    -0.087 C  
HETATM   14  H   UNL     1      -6.355   8.994  68.333  1.00  0.00     0.000 HD 
HETATM   15  O   UNL     1      -6.761   9.775  68.693  1.00  0.00    -0.051 OA 
BRANCH  13  16
HETATM   16  C   UNL     1      -6.275  10.884  66.602  1.00  0.00    -0.113 C  
HETATM   17  O   UNL     1      -5.378  11.913  67.037  1.00  0.00    -0.109 OA 
HETATM   18  H   UNL     1      -4.712  12.103  66.386  1.00  0.00     0.000 HD 
ENDBRANCH  13  16
ENDBRANCH  10  13
ENDBRANCH   1  10
BRANCH   7  19
HETATM   19  N   UNL     1     -10.486  14.340  69.390  1.00  0.00    -0.430 NA 
HETATM   20  H2  UNL     1     -12.469  15.774  68.466  1.00  0.00     0.000 HD 
HETATM   21  H   UNL     1      -9.807  13.815  69.941  1.00  0.00     0.000 HD 
HETATM   22  C   UNL     1     -11.568  14.761  69.934  1.00  0.00    -0.286 C  
HETATM   23  H1  UNL     1     -12.684  14.818  71.664  1.00  0.00     0.000 HD 
HETATM   24  N   UNL     1     -12.583  15.502  69.443  1.00  0.00    -0.576 NA 
HETATM   25  H2  UNL     1     -11.156  13.938  71.777  1.00  0.00     0.000 HD 
HETATM   26  N   UNL     1     -11.823  14.483  71.231  1.00  0.00    -0.325 NA 
HETATM   27  H1  UNL     1     -13.443  15.838  69.875  1.00  0.00     0.000 HD 
ENDBRANCH   7  19
BRANCH   5  28
HETATM   28  N   UNL     1     -10.507  13.273  65.891  1.00  0.00    -0.280 N  
HETATM   29  C   UNL     1     -11.850  13.538  65.711  1.00  0.00    -0.372 C  
HETATM   30  H   UNL     1      -9.924  13.065  65.079  1.00  0.00     0.000 HD 
HETATM   31  C   UNL     1     -12.243  13.668  64.266  1.00  0.00    -0.445 C  
HETATM   32  O   UNL     1     -12.647  13.676  66.632  1.00  0.00    -0.306 OA 
ENDBRANCH   5  28
TORSDOF 5
ENDMDL
MODEL      129
REMARK 921   NORMALIZED FREE ENERGY PREDICTED BY IDOCK:   -3.82 KCAL/MOL
REMARK 922        TOTAL FREE ENERGY PREDICTED BY IDOCK:   -6.54 KCAL/MOL
REMARK 923 INTER-LIGAND FREE ENERGY PREDICTED BY IDOCK:   -5.77 KCAL/MOL
REMARK 924 INTRA-LIGAND FREE ENERGY PREDICTED BY IDOCK:   -0.77 KCAL/MOL
REMARK 927      BINDING AFFINITY PREDICTED BY RF-SCORE:    0.00 PKD
ROOT
HETATM    1  C   UNL     1      -8.478  16.596  67.352  1.00  0.00    -0.188 C  
HETATM    2  O   UNL     1      -9.448  17.647  67.394  1.00  0.00    -0.251 OA 
HETATM    3  O   UNL     1     -11.293  19.418  67.762  1.00  0.00    -0.055 OA 
HETATM    4  C   UNL     1     -10.102  19.992  67.476  1.00  0.00    -0.425 C  
HETATM    5  C   UNL     1      -6.966  16.992  67.292  1.00  0.00    -0.165 C  
HETATM    6  C   UNL     1      -9.059  18.949  67.237  1.00  0.00    -0.280 C  
HETATM    7  C   UNL     1      -6.712  18.390  66.663  1.00  0.00    -0.194 C  
HETATM    8  C   UNL     1      -7.830  19.334  66.892  1.00  0.00    -0.273 C  
HETATM    9  O   UNL     1      -9.910  21.198  67.461  1.00  0.00    -0.306 OA 
ENDROOT
BRANCH   1  10
HETATM   10  C   UNL     1      -8.822  15.566  66.239  1.00  0.00    -0.303 C  
HETATM   11  O   UNL     1      -9.702  16.129  65.249  1.00  0.00    -0.419 OA 
HETATM   12  H   UNL     1      -9.912  15.500  64.569  1.00  0.00     0.000 HD 
BRANCH  10  13
HETATM   13  C   UNL     1      -9.438  14.231  66.740  1.00  0.00    -0.275 C  
HETATM   14  H   UNL     1      -8.807  12.402  67.198  1.00  0.00     0.000 HD 
HETATM   15  O   UNL     1      -8.429  13.218  66.892  1.00  0.00    -0.166 OA 
BRANCH  13  16
HETATM   16  C   UNL     1     -10.539  13.685  65.810  1.00  0.00    -0.285 C  
HETATM   17  O   UNL     1     -10.055  13.456  64.482  1.00  0.00    -0.601 OA 
HETATM   18  H   UNL     1     -10.733  13.119  63.909  1.00  0.00     0.000 HD 
ENDBRANCH  13  16
ENDBRANCH  10  13
ENDBRANCH   1  10
BRANCH   7  19
HETATM   19  N   UNL     1      -6.497  18.242  65.220  1.00  0.00    -0.394 NA 
HETATM   20  H2  UNL     1      -5.330  20.451  65.996  1.00  0.00     0.000 HD 
HETATM   21  H   UNL     1      -6.905  17.451  64.720  1.00  0.00     0.000 HD 
HETATM   22  C   UNL     1      -5.796  19.109  64.590  1.00  0.00    -0.284 C  
HETATM   23  H1  UNL     1      -5.009  19.650  62.765  1.00  0.00     0.000 HD 
HETATM   24  N   UNL     1      -5.200  20.246  65.005  1.00  0.00    -0.155 NA 
HETATM   25  H2  UNL     1      -5.954  18.157  62.769  1.00  0.00     0.000 HD 
HETATM   26  N   UNL     1      -5.568  18.959  63.266  1.00  0.00    -0.256 NA 
HETATM   27  H1  UNL     1      -4.641  20.937  64.504  1.00  0.00     0.000 HD 
ENDBRANCH   7  19
BRANCH   5  28
HETATM   28  N   UNL     1      -6.306  16.898  68.618  1.00  0.00    -0.155 N  
HETATM   29  C   UNL     1      -5.950  15.676  69.153  1.00  0.00    -0.110 C  
HETATM   30  H   UNL     1      -6.111  17.751  69.142  1.00  0.00     0.000 HD 
HETATM   31  C   UNL     1      -5.126  15.792  70.405  1.00  0.00    -0.146 C  
HETATM   32  O   UNL     1      -6.253  14.598  68.655  1.00  0.00    -0.081 OA 
ENDBRANCH   5  28
TORSDOF 5
ENDMDL
MODEL      130
REMARK 921   NORMALIZED FREE ENERGY PREDICTED BY IDOCK:   -3.82 KCAL/MOL
REMARK 922        TOTAL FREE ENERGY PREDICTED BY IDOCK:   -6.53 KCAL/MOL
REMARK 923 INTER-LIGAND FREE ENERGY PREDICTED BY IDOCK:   -4.74 KCAL/MOL
REMARK 924 INTRA-LIGAND FREE ENERGY PREDICTED BY IDOCK:   -1.79 KCAL/MOL
REMARK 927      BINDING AFFINITY PREDICTED BY RF-SCORE:    0.00 PKD
ROOT
HETATM    1  C   UNL     1      -9.074   7.890  69.771  1.00  0.00    -0.146 C  
HETATM    2  O   UNL     1     -10.032   7.738  70.824  1.00  0.00    -0.182 OA 
HETATM    3  O   UNL     1     -11.712   7.785  72.785  1.00  0.00    -0.337 OA 
HETATM    4  C   UNL     1     -12.264   7.252  71.670  1.00  0.00    -0.343 C  
HETATM    5  C   UNL     1      -9.537   7.593  68.307  1.00  0.00    -0.153 C  
HETATM    6  C   UNL     1     -11.265   7.207  70.560  1.00  0.00    -0.290 C  
HETATM    7  C   UNL     1     -10.725   6.596  68.218  1.00  0.00    -0.257 C  
HETATM    8  C   UNL     1     -11.620   6.664  69.395  1.00  0.00    -0.210 C  
HETATM    9  O   UNL     1     -13.430   6.900  71.585  1.00  0.00    -0.330 OA 
ENDROOT
BRANCH   1  10
HETATM   10  C   UNL     1      -7.761   7.124  70.100  1.00  0.00    -0.095 C  
HETATM   11  O   UNL     1      -7.346   6.288  69.004  1.00  0.00    -0.081 OA 
HETATM   12  H   UNL     1      -6.544   5.821  69.205  1.00  0.00     0.000 HD 
BRANCH  10  13
HETATM   13  C   UNL     1      -7.806   6.256  71.388  1.00  0.00    -0.104 C  
HETATM   14  H   UNL     1      -6.607   5.836  72.919  1.00  0.00     0.000 HD 
HETATM   15  O   UNL     1      -6.580   6.367  72.131  1.00  0.00    -0.060 OA 
BRANCH  13  16
HETATM   16  C   UNL     1      -8.070   4.765  71.105  1.00  0.00    -0.092 C  
HETATM   17  O   UNL     1      -9.470   4.470  71.043  1.00  0.00    -0.139 OA 
HETATM   18  H   UNL     1      -9.632   3.551  70.868  1.00  0.00     0.000 HD 
ENDBRANCH  13  16
ENDBRANCH  10  13
ENDBRANCH   1  10
BRANCH   7  19
HETATM   19  N   UNL     1     -10.205   5.230  68.090  1.00  0.00    -0.162 NA 
HETATM   20  H2  UNL     1     -10.698   6.144  65.689  1.00  0.00     0.000 HD 
HETATM   21  H   UNL     1      -9.979   4.688  68.924  1.00  0.00     0.000 HD 
HETATM   22  C   UNL     1     -10.034   4.722  66.926  1.00  0.00    -0.217 C  
HETATM   23  H1  UNL     1      -9.389   3.073  65.876  1.00  0.00     0.000 HD 
HETATM   24  N   UNL     1     -10.294   5.207  65.695  1.00  0.00    -0.447 NA 
HETATM   25  H2  UNL     1      -9.276   2.942  67.634  1.00  0.00     0.000 HD 
HETATM   26  N   UNL     1      -9.525   3.477  66.802  1.00  0.00    -0.191 NA 
HETATM   27  H1  UNL     1     -10.158   4.803  64.768  1.00  0.00     0.000 HD 
ENDBRANCH   7  19
BRANCH   5  28
HETATM   28  N   UNL     1      -9.848   8.832  67.552  1.00  0.00    -0.168 N  
HETATM   29  C   UNL     1      -9.552   8.944  66.208  1.00  0.00    -0.260 C  
HETATM   30  H   UNL     1     -10.290   9.615  68.035  1.00  0.00     0.000 HD 
HETATM   31  C   UNL     1     -10.111  10.188  65.577  1.00  0.00    -0.338 C  
HETATM   32  O   UNL     1      -8.915   8.107  65.578  1.00  0.00    -0.137 OA 
ENDBRANCH   5  28
TORSDOF 5
ENDMDL
MODEL      131
REMARK 921   NORMALIZED FREE ENERGY PREDICTED BY IDOCK:   -3.79 KCAL/MOL
REMARK 922        TOTAL FREE ENERGY PREDICTED BY IDOCK:   -6.49 KCAL/MOL
REMARK 923 INTER-LIGAND FREE ENERGY PREDICTED BY IDOCK:   -5.64 KCAL/MOL
REMARK 924 INTRA-LIGAND FREE ENERGY PREDICTED BY IDOCK:   -0.86 KCAL/MOL
REMARK 927      BINDING AFFINITY PREDICTED BY RF-SCORE:    0.00 PKD
ROOT
HETATM    1  C   UNL     1      -9.690   8.536  69.343  1.00  0.00    -0.177 C  
HETATM    2  O   UNL     1      -8.648   9.338  69.908  1.00  0.00    -0.138 OA 
HETATM    3  O   UNL     1      -6.634  10.502  71.031  1.00  0.00    -0.326 OA 
HETATM    4  C   UNL     1      -6.787  10.901  69.747  1.00  0.00    -0.134 C  
HETATM    5  C   UNL     1      -9.913   8.601  67.797  1.00  0.00    -0.190 C  
HETATM    6  C   UNL     1      -7.976  10.239  69.129  1.00  0.00    -0.135 C  
HETATM    7  C   UNL     1      -9.445   9.937  67.155  1.00  0.00    -0.158 C  
HETATM    8  C   UNL     1      -8.310  10.554  67.877  1.00  0.00    -0.115 C  
HETATM    9  O   UNL     1      -6.027  11.665  69.173  1.00  0.00    -0.056 OA 
ENDROOT
BRANCH   1  10
HETATM   10  C   UNL     1     -11.031   8.751  70.102  1.00  0.00    -0.223 C  
HETATM   11  O   UNL     1     -11.020   9.973  70.862  1.00  0.00    -0.327 OA 
HETATM   12  H   UNL     1     -11.839  10.104  71.325  1.00  0.00     0.000 HD 
BRANCH  10  13
HETATM   13  C   UNL     1     -11.450   7.591  71.047  1.00  0.00    -0.278 C  
HETATM   14  H   UNL     1     -11.816   5.641  70.907  1.00  0.00     0.000 HD 
HETATM   15  O   UNL     1     -11.560   6.350  70.329  1.00  0.00    -0.399 OA 
BRANCH  13  16
HETATM   16  C   UNL     1     -12.783   7.852  71.774  1.00  0.00    -0.329 C  
HETATM   17  O   UNL     1     -13.883   7.942  70.861  1.00  0.00    -0.578 OA 
HETATM   18  H   UNL     1     -14.705   8.103  71.309  1.00  0.00     0.000 HD 
ENDBRANCH  13  16
ENDBRANCH  10  13
ENDBRANCH   1  10
BRANCH   7  19
HETATM   19  N   UNL     1     -10.567  10.882  67.128  1.00  0.00    -0.240 NA 
HETATM   20  H2  UNL     1      -9.808  10.446  64.663  1.00  0.00     0.000 HD 
HETATM   21  H   UNL     1     -10.987  11.203  68.001  1.00  0.00     0.000 HD 
HETATM   22  C   UNL     1     -11.017  11.301  66.005  1.00  0.00    -0.174 C  
HETATM   23  H1  UNL     1     -12.429  12.480  65.079  1.00  0.00     0.000 HD 
HETATM   24  N   UNL     1     -10.614  11.067  64.739  1.00  0.00    -0.308 NA 
HETATM   25  H2  UNL     1     -12.507  12.451  66.844  1.00  0.00     0.000 HD 
HETATM   26  N   UNL     1     -12.071  12.147  65.974  1.00  0.00    -0.586 NA 
HETATM   27  H1  UNL     1     -10.972  11.401  63.844  1.00  0.00     0.000 HD 
ENDBRANCH   7  19
BRANCH   5  28
HETATM   28  N   UNL     1      -9.300   7.449  67.090  1.00  0.00    -0.136 N  
HETATM   29  C   UNL     1     -10.048   6.341  66.747  1.00  0.00    -0.180 C  
HETATM   30  H   UNL     1      -8.308   7.477  66.853  1.00  0.00     0.000 HD 
HETATM   31  C   UNL     1      -9.306   5.368  65.874  1.00  0.00    -0.155 C  
HETATM   32  O   UNL     1     -11.210   6.167  67.097  1.00  0.00    -0.291 OA 
ENDBRANCH   5  28
TORSDOF 5
ENDMDL
MODEL      132
REMARK 921   NORMALIZED FREE ENERGY PREDICTED BY IDOCK:   -3.78 KCAL/MOL
REMARK 922        TOTAL FREE ENERGY PREDICTED BY IDOCK:   -6.47 KCAL/MOL
REMARK 923 INTER-LIGAND FREE ENERGY PREDICTED BY IDOCK:   -5.06 KCAL/MOL
REMARK 924 INTRA-LIGAND FREE ENERGY PREDICTED BY IDOCK:   -1.41 KCAL/MOL
REMARK 927      BINDING AFFINITY PREDICTED BY RF-SCORE:    0.00 PKD
ROOT
HETATM    1  C   UNL     1      -8.952   8.345  69.361  1.00  0.00    -0.153 C  
HETATM    2  O   UNL     1      -7.632   8.665  69.811  1.00  0.00    -0.075 OA 
HETATM    3  O   UNL     1      -5.278   9.518  70.443  1.00  0.00    -0.027 OA 
HETATM    4  C   UNL     1      -5.999   9.192  71.540  1.00  0.00    -0.071 C  
HETATM    5  C   UNL     1     -10.075   8.175  70.437  1.00  0.00    -0.194 C  
HETATM    6  C   UNL     1      -7.345   8.672  71.148  1.00  0.00    -0.088 C  
HETATM    7  C   UNL     1      -9.542   7.750  71.833  1.00  0.00    -0.165 C  
HETATM    8  C   UNL     1      -8.176   8.253  72.103  1.00  0.00    -0.211 C  
HETATM    9  O   UNL     1      -5.608   9.346  72.686  1.00  0.00    -0.192 OA 
ENDROOT
BRANCH   1  10
HETATM   10  C   UNL     1      -8.930   7.129  68.392  1.00  0.00    -0.125 C  
HETATM   11  O   UNL     1      -8.940   7.548  67.015  1.00  0.00    -0.123 OA 
HETATM   12  H   UNL     1      -8.926   6.805  66.423  1.00  0.00     0.000 HD 
BRANCH  10  13
HETATM   13  C   UNL     1     -10.075   6.098  68.597  1.00  0.00    -0.162 C  
HETATM   14  H   UNL     1     -10.318   4.327  69.470  1.00  0.00     0.000 HD 
HETATM   15  O   UNL     1      -9.618   4.957  69.344  1.00  0.00    -0.138 OA 
BRANCH  13  16
HETATM   16  C   UNL     1     -10.686   5.600  67.274  1.00  0.00    -0.215 C  
HETATM   17  O   UNL     1     -11.618   6.539  66.726  1.00  0.00    -0.731 OA 
HETATM   18  H   UNL     1     -11.994   6.232  65.910  1.00  0.00     0.000 HD 
ENDBRANCH  13  16
ENDBRANCH  10  13
ENDBRANCH   1  10
BRANCH   7  19
HETATM   19  N   UNL     1      -9.542   6.287  71.929  1.00  0.00    -0.153 NA 
HETATM   20  H2  UNL     1     -11.658   7.187  73.177  1.00  0.00     0.000 HD 
HETATM   21  H   UNL     1      -8.775   5.747  71.527  1.00  0.00     0.000 HD 
HETATM   22  C   UNL     1     -10.510   5.689  72.520  1.00  0.00    -0.213 C  
HETATM   23  H1  UNL     1     -11.301   3.864  73.053  1.00  0.00     0.000 HD 
HETATM   24  N   UNL     1     -11.596   6.169  73.161  1.00  0.00    -0.446 NA 
HETATM   25  H2  UNL     1      -9.777   3.797  72.160  1.00  0.00     0.000 HD 
HETATM   26  N   UNL     1     -10.530   4.340  72.583  1.00  0.00    -0.184 NA 
HETATM   27  H1  UNL     1     -12.366   5.693  73.631  1.00  0.00     0.000 HD 
ENDBRANCH   7  19
BRANCH   5  28
HETATM   28  N   UNL     1     -10.927   9.383  70.558  1.00  0.00    -0.253 N  
HETATM   29  C   UNL     1     -12.197   9.311  71.095  1.00  0.00    -0.301 C  
HETATM   30  H   UNL     1     -10.569  10.283  70.238  1.00  0.00     0.000 HD 
HETATM   31  C   UNL     1     -12.829  10.658  71.311  1.00  0.00    -0.535 C  
HETATM   32  O   UNL     1     -12.755   8.260  71.390  1.00  0.00    -0.308 OA 
ENDBRANCH   5  28
TORSDOF 5
ENDMDL
MODEL      133
REMARK 921   NORMALIZED FREE ENERGY PREDICTED BY IDOCK:   -3.71 KCAL/MOL
REMARK 922        TOTAL FREE ENERGY PREDICTED BY IDOCK:   -6.39 KCAL/MOL
REMARK 923 INTER-LIGAND FREE ENERGY PREDICTED BY IDOCK:   -7.70 KCAL/MOL
REMARK 924 INTRA-LIGAND FREE ENERGY PREDICTED BY IDOCK:    1.31 KCAL/MOL
REMARK 927      BINDING AFFINITY PREDICTED BY RF-SCORE:    0.00 PKD
ROOT
HETATM    1  C   UNL     1     -11.713  14.298  68.200  1.00  0.00    -0.350 C  
HETATM    2  O   UNL     1     -12.106  13.756  66.936  1.00  0.00    -0.414 OA 
HETATM    3  O   UNL     1     -13.031  13.027  64.637  1.00  0.00    -0.720 OA 
HETATM    4  C   UNL     1     -11.682  13.120  64.622  1.00  0.00    -0.361 C  
HETATM    5  C   UNL     1     -10.227  14.754  68.374  1.00  0.00    -0.224 C  
HETATM    6  C   UNL     1     -11.168  13.513  65.970  1.00  0.00    -0.295 C  
HETATM    7  C   UNL     1      -9.233  14.015  67.437  1.00  0.00    -0.216 C  
HETATM    8  C   UNL     1      -9.851  13.603  66.156  1.00  0.00    -0.304 C  
HETATM    9  O   UNL     1     -10.994  12.946  63.628  1.00  0.00    -0.401 OA 
ENDROOT
BRANCH   1  10
HETATM   10  C   UNL     1     -12.142  13.362  69.365  1.00  0.00    -0.269 C  
HETATM   11  O   UNL     1     -11.800  13.919  70.647  1.00  0.00    -0.443 OA 
HETATM   12  H   UNL     1     -12.063  13.347  71.358  1.00  0.00     0.000 HD 
BRANCH  10  13
HETATM   13  C   UNL     1     -11.576  11.916  69.294  1.00  0.00    -0.315 C  
HETATM   14  H   UNL     1     -11.735  10.333  68.100  1.00  0.00     0.000 HD 
HETATM   15  O   UNL     1     -12.081  11.217  68.143  1.00  0.00    -0.633 OA 
BRANCH  13  16
HETATM   16  C   UNL     1     -11.891  11.080  70.549  1.00  0.00    -0.367 C  
HETATM   17  O   UNL     1     -10.927  10.042  70.758  1.00  0.00    -0.313 OA 
HETATM   18  H   UNL     1     -11.121   9.527  71.532  1.00  0.00     0.000 HD 
ENDBRANCH  13  16
ENDBRANCH  10  13
ENDBRANCH   1  10
BRANCH   7  19
HETATM   19  N   UNL     1      -8.712  12.827  68.121  1.00  0.00    -0.190 NA 
HETATM   20  H2  UNL     1      -6.901  13.650  66.421  1.00  0.00     0.000 HD 
HETATM   21  H   UNL     1      -9.287  12.337  68.806  1.00  0.00     0.000 HD 
HETATM   22  C   UNL     1      -7.530  12.408  67.855  1.00  0.00    -0.120 C  
HETATM   23  H1  UNL     1      -6.093  11.000  68.294  1.00  0.00     0.000 HD 
HETATM   24  N   UNL     1      -6.607  12.844  66.973  1.00  0.00    -0.463 NA 
HETATM   25  H2  UNL     1      -7.598  10.856  69.208  1.00  0.00     0.000 HD 
HETATM   26  N   UNL     1      -7.034  11.333  68.506  1.00  0.00    -0.073 NA 
HETATM   27  H1  UNL     1      -5.666  12.510  66.761  1.00  0.00     0.000 HD 
ENDBRANCH   7  19
BRANCH   5  28
HETATM   28  N   UNL     1     -10.068  16.223  68.236  1.00  0.00    -0.237 N  
HETATM   29  C   UNL     1     -10.430  16.875  67.074  1.00  0.00    -0.281 C  
HETATM   30  H   UNL     1      -9.684  16.761  69.014  1.00  0.00     0.000 HD 
HETATM   31  C   UNL     1     -10.376  18.373  67.190  1.00  0.00    -0.419 C  
HETATM   32  O   UNL     1     -10.782  16.300  66.050  1.00  0.00    -0.295 OA 
ENDBRANCH   5  28
TORSDOF 5
ENDMDL
MODEL      134
REMARK 921   NORMALIZED FREE ENERGY PREDICTED BY IDOCK:   -3.71 KCAL/MOL
REMARK 922        TOTAL FREE ENERGY PREDICTED BY IDOCK:   -6.39 KCAL/MOL
REMARK 923 INTER-LIGAND FREE ENERGY PREDICTED BY IDOCK:   -5.41 KCAL/MOL
REMARK 924 INTRA-LIGAND FREE ENERGY PREDICTED BY IDOCK:   -0.97 KCAL/MOL
REMARK 927      BINDING AFFINITY PREDICTED BY RF-SCORE:    0.00 PKD
ROOT
HETATM    1  C   UNL     1      -9.083   8.601  68.602  1.00  0.00    -0.138 C  
HETATM    2  O   UNL     1      -9.849   8.402  69.794  1.00  0.00    -0.182 OA 
HETATM    3  O   UNL     1     -11.232   8.371  71.976  1.00  0.00    -0.287 OA 
HETATM    4  C   UNL     1     -11.829   7.652  70.999  1.00  0.00    -0.285 C  
HETATM    5  C   UNL     1      -9.682   8.093  67.249  1.00  0.00    -0.178 C  
HETATM    6  C   UNL     1     -10.997   7.658  69.757  1.00  0.00    -0.170 C  
HETATM    7  C   UNL     1     -10.682   6.915  67.413  1.00  0.00    -0.326 C  
HETATM    8  C   UNL     1     -11.408   6.954  68.702  1.00  0.00     0.013 C  
HETATM    9  O   UNL     1     -12.918   7.112  71.115  1.00  0.00    -0.366 OA 
ENDROOT
BRANCH   1  10
HETATM   10  C   UNL     1      -7.626   8.090  68.785  1.00  0.00    -0.103 C  
HETATM   11  O   UNL     1      -7.596   6.745  69.295  1.00  0.00    -0.092 OA 
HETATM   12  H   UNL     1      -6.706   6.432  69.406  1.00  0.00     0.000 HD 
BRANCH  10  13
HETATM   13  C   UNL     1      -6.723   8.975  69.689  1.00  0.00    -0.046 C  
HETATM   14  H   UNL     1      -6.338   9.180  71.629  1.00  0.00     0.000 HD 
HETATM   15  O   UNL     1      -6.889   8.639  71.077  1.00  0.00    -0.052 OA 
BRANCH  13  16
HETATM   16  C   UNL     1      -6.988  10.483  69.519  1.00  0.00    -0.114 C  
HETATM   17  O   UNL     1      -6.636  11.226  70.691  1.00  0.00    -0.496 OA 
HETATM   18  H   UNL     1      -6.798  12.156  70.586  1.00  0.00     0.000 HD 
ENDBRANCH  13  16
ENDBRANCH  10  13
ENDBRANCH   1  10
BRANCH   7  19
HETATM   19  N   UNL     1      -9.958   5.645  67.309  1.00  0.00    -0.144 NA 
HETATM   20  H2  UNL     1     -11.862   5.647  65.515  1.00  0.00     0.000 HD 
HETATM   21  H   UNL     1      -9.191   5.438  67.950  1.00  0.00     0.000 HD 
HETATM   22  C   UNL     1     -10.291   4.795  66.409  1.00  0.00    -0.273 C  
HETATM   23  H1  UNL     1      -9.871   2.961  65.573  1.00  0.00     0.000 HD 
HETATM   24  N   UNL     1     -11.278   4.811  65.490  1.00  0.00    -0.968 NA 
HETATM   25  H2  UNL     1      -8.824   3.439  66.913  1.00  0.00     0.000 HD 
HETATM   26  N   UNL     1      -9.605   3.637  66.289  1.00  0.00    -0.167 NA 
HETATM   27  H1  UNL     1     -11.544   4.135  64.774  1.00  0.00     0.000 HD 
ENDBRANCH   7  19
BRANCH   5  28
HETATM   28  N   UNL     1     -10.301   9.187  66.460  1.00  0.00    -0.241 N  
HETATM   29  C   UNL     1      -9.569   9.901  65.532  1.00  0.00    -0.277 C  
HETATM   30  H   UNL     1     -11.284   9.415  66.607  1.00  0.00     0.000 HD 
HETATM   31  C   UNL     1     -10.408  10.832  64.702  1.00  0.00    -0.394 C  
HETATM   32  O   UNL     1      -8.359   9.780  65.378  1.00  0.00    -0.129 OA 
ENDBRANCH   5  28
TORSDOF 5
ENDMDL
MODEL      135
REMARK 921   NORMALIZED FREE ENERGY PREDICTED BY IDOCK:   -3.71 KCAL/MOL
REMARK 922        TOTAL FREE ENERGY PREDICTED BY IDOCK:   -6.38 KCAL/MOL
REMARK 923 INTER-LIGAND FREE ENERGY PREDICTED BY IDOCK:   -5.23 KCAL/MOL
REMARK 924 INTRA-LIGAND FREE ENERGY PREDICTED BY IDOCK:   -1.15 KCAL/MOL
REMARK 927      BINDING AFFINITY PREDICTED BY RF-SCORE:    0.00 PKD
ROOT
HETATM    1  C   UNL     1     -10.268  11.507  69.157  1.00  0.00    -0.013 C  
HETATM    2  O   UNL     1     -10.891  12.773  68.922  1.00  0.00    -0.238 OA 
HETATM    3  O   UNL     1     -11.989  15.110  68.825  1.00  0.00    -0.314 OA 
HETATM    4  C   UNL     1     -10.972  15.001  67.940  1.00  0.00    -0.291 C  
HETATM    5  C   UNL     1      -8.904  11.216  68.450  1.00  0.00    -0.157 C  
HETATM    6  C   UNL     1     -10.373  13.632  67.992  1.00  0.00    -0.250 C  
HETATM    7  C   UNL     1      -8.700  12.017  67.135  1.00  0.00    -0.183 C  
HETATM    8  C   UNL     1      -9.387  13.328  67.148  1.00  0.00    -0.240 C  
HETATM    9  O   UNL     1     -10.580  15.915  67.231  1.00  0.00    -0.306 OA 
ENDROOT
BRANCH   1  10
HETATM   10  C   UNL     1     -11.271  10.342  68.920  1.00  0.00    -0.207 C  
HETATM   11  O   UNL     1     -12.587  10.831  68.603  1.00  0.00    -0.669 OA 
HETATM   12  H   UNL     1     -13.199  10.119  68.458  1.00  0.00     0.000 HD 
BRANCH  10  13
HETATM   13  C   UNL     1     -11.395   9.327  70.090  1.00  0.00    -0.164 C  
HETATM   14  H   UNL     1     -11.222   9.341  72.072  1.00  0.00     0.000 HD 
HETATM   15  O   UNL     1     -11.146   9.962  71.356  1.00  0.00    -0.325 OA 
BRANCH  13  16
HETATM   16  C   UNL     1     -10.442   8.125  69.953  1.00  0.00    -0.226 C  
HETATM   17  O   UNL     1      -9.314   8.231  70.830  1.00  0.00    -0.154 OA 
HETATM   18  H   UNL     1      -8.727   7.489  70.745  1.00  0.00     0.000 HD 
ENDBRANCH  13  16
ENDBRANCH  10  13
ENDBRANCH   1  10
BRANCH   7  19
HETATM   19  N   UNL     1      -9.197  11.227  66.003  1.00  0.00    -0.204 NA 
HETATM   20  H2  UNL     1      -6.582  11.196  65.934  1.00  0.00     0.000 HD 
HETATM   21  H   UNL     1     -10.200  11.143  65.838  1.00  0.00     0.000 HD 
HETATM   22  C   UNL     1      -8.365  10.642  65.222  1.00  0.00    -0.127 C  
HETATM   23  H1  UNL     1      -8.156   9.422  63.577  1.00  0.00     0.000 HD 
HETATM   24  N   UNL     1      -7.016  10.637  65.200  1.00  0.00    -0.347 NA 
HETATM   25  H2  UNL     1      -9.821   9.783  64.045  1.00  0.00     0.000 HD 
HETATM   26  N   UNL     1      -8.819   9.887  64.198  1.00  0.00    -0.207 NA 
HETATM   27  H1  UNL     1      -6.354  10.171  64.579  1.00  0.00     0.000 HD 
ENDBRANCH   7  19
BRANCH   5  28
HETATM   28  N   UNL     1      -7.746  11.413  69.357  1.00  0.00    -0.360 N  
HETATM   29  C   UNL     1      -6.849  10.392  69.603  1.00  0.00    -0.108 C  
HETATM   30  H   UNL     1      -7.610  12.319  69.806  1.00  0.00     0.000 HD 
HETATM   31  C   UNL     1      -5.646  10.834  70.388  1.00  0.00    -0.092 C  
HETATM   32  O   UNL     1      -6.999   9.242  69.207  1.00  0.00    -0.052 OA 
ENDBRANCH   5  28
TORSDOF 5
ENDMDL
MODEL      136
REMARK 921   NORMALIZED FREE ENERGY PREDICTED BY IDOCK:   -3.70 KCAL/MOL
REMARK 922        TOTAL FREE ENERGY PREDICTED BY IDOCK:   -6.38 KCAL/MOL
REMARK 923 INTER-LIGAND FREE ENERGY PREDICTED BY IDOCK:   -4.57 KCAL/MOL
REMARK 924 INTRA-LIGAND FREE ENERGY PREDICTED BY IDOCK:   -1.80 KCAL/MOL
REMARK 927      BINDING AFFINITY PREDICTED BY RF-SCORE:    0.00 PKD
ROOT
HETATM    1  C   UNL     1     -10.125   8.005  66.705  1.00  0.00    -0.287 C  
HETATM    2  O   UNL     1      -9.412   6.811  67.044  1.00  0.00    -0.135 OA 
HETATM    3  O   UNL     1      -8.318   4.504  67.433  1.00  0.00    -0.104 OA 
HETATM    4  C   UNL     1      -7.392   5.457  67.176  1.00  0.00    -0.083 C  
HETATM    5  C   UNL     1      -9.314   9.204  66.114  1.00  0.00    -0.228 C  
HETATM    6  C   UNL     1      -8.046   6.787  66.985  1.00  0.00    -0.109 C  
HETATM    7  C   UNL     1      -7.819   9.215  66.538  1.00  0.00    -0.100 C  
HETATM    8  C   UNL     1      -7.279   7.857  66.772  1.00  0.00    -0.088 C  
HETATM    9  O   UNL     1      -6.195   5.238  67.075  1.00  0.00    -0.029 OA 
ENDROOT
BRANCH   1  10
HETATM   10  C   UNL     1     -11.017   8.474  67.889  1.00  0.00     0.165 C  
HETATM   11  O   UNL     1     -11.400   9.855  67.751  1.00  0.00    -0.497 OA 
HETATM   12  H   UNL     1     -11.945  10.141  68.474  1.00  0.00     0.000 HD 
BRANCH  10  13
HETATM   13  C   UNL     1     -10.400   8.278  69.302  1.00  0.00    -0.218 C  
HETATM   14  H   UNL     1     -10.574   7.001  70.817  1.00  0.00     0.000 HD 
HETATM   15  O   UNL     1     -10.952   7.121  69.953  1.00  0.00    -0.252 OA 
BRANCH  13  16
HETATM   16  C   UNL     1     -10.596   9.496  70.224  1.00  0.00    -0.266 C  
HETATM   17  O   UNL     1      -9.653  10.538  69.945  1.00  0.00    -0.419 OA 
HETATM   18  H   UNL     1      -9.775  11.289  70.514  1.00  0.00     0.000 HD 
ENDBRANCH  13  16
ENDBRANCH  10  13
ENDBRANCH   1  10
BRANCH   7  19
HETATM   19  N   UNL     1      -7.667  10.009  67.761  1.00  0.00    -0.090 NA 
HETATM   20  H2  UNL     1      -7.293  11.590  65.710  1.00  0.00     0.000 HD 
HETATM   21  H   UNL     1      -7.747   9.563  68.675  1.00  0.00     0.000 HD 
HETATM   22  C   UNL     1      -7.434  11.267  67.677  1.00  0.00    -0.101 C  
HETATM   23  H1  UNL     1      -7.140  13.009  68.734  1.00  0.00     0.000 HD 
HETATM   24  N   UNL     1      -7.243  12.069  66.610  1.00  0.00    -0.381 NA 
HETATM   25  H2  UNL     1      -7.428  11.569  69.715  1.00  0.00     0.000 HD 
HETATM   26  N   UNL     1      -7.325  12.009  68.801  1.00  0.00    -0.111 NA 
HETATM   27  H1  UNL     1      -7.058  13.070  66.542  1.00  0.00     0.000 HD 
ENDBRANCH   7  19
BRANCH   5  28
HETATM   28  N   UNL     1      -9.430   9.289  64.637  1.00  0.00    -0.409 N  
HETATM   29  C   UNL     1      -9.484  10.510  63.993  1.00  0.00    -0.289 C  
HETATM   30  H   UNL     1      -9.470   8.430  64.087  1.00  0.00     0.000 HD 
HETATM   31  C   UNL     1      -9.407  10.397  62.497  1.00  0.00    -0.318 C  
HETATM   32  O   UNL     1      -9.566  11.585  64.576  1.00  0.00    -0.222 OA 
ENDBRANCH   5  28
TORSDOF 5
ENDMDL
MODEL      137
REMARK 921   NORMALIZED FREE ENERGY PREDICTED BY IDOCK:   -3.65 KCAL/MOL
REMARK 922        TOTAL FREE ENERGY PREDICTED BY IDOCK:   -6.31 KCAL/MOL
REMARK 923 INTER-LIGAND FREE ENERGY PREDICTED BY IDOCK:   -5.46 KCAL/MOL
REMARK 924 INTRA-LIGAND FREE ENERGY PREDICTED BY IDOCK:   -0.85 KCAL/MOL
REMARK 927      BINDING AFFINITY PREDICTED BY RF-SCORE:    0.00 PKD
ROOT
HETATM    1  C   UNL     1      -6.084  17.209  67.390  1.00  0.00    -0.147 C  
HETATM    2  O   UNL     1      -6.131  15.785  67.253  1.00  0.00    -0.288 OA 
HETATM    3  O   UNL     1      -5.897  13.218  67.090  1.00  0.00    -0.317 OA 
HETATM    4  C   UNL     1      -6.935  13.573  67.881  1.00  0.00    -0.144 C  
HETATM    5  C   UNL     1      -7.012  17.877  68.456  1.00  0.00    -0.240 C  
HETATM    6  C   UNL     1      -7.070  15.060  67.935  1.00  0.00    -0.151 C  
HETATM    7  C   UNL     1      -8.286  17.049  68.781  1.00  0.00    -0.245 C  
HETATM    8  C   UNL     1      -8.076  15.591  68.632  1.00  0.00    -0.159 C  
HETATM    9  O   UNL     1      -7.631  12.778  68.494  1.00  0.00    -0.126 OA 
ENDROOT
BRANCH   1  10
HETATM   10  C   UNL     1      -6.241  17.905  66.008  1.00  0.00    -0.246 C  
HETATM   11  O   UNL     1      -5.126  17.624  65.142  1.00  0.00    -0.132 OA 
HETATM   12  H   UNL     1      -5.223  18.049  64.298  1.00  0.00     0.000 HD 
BRANCH  10  13
HETATM   13  C   UNL     1      -6.441  19.445  66.062  1.00  0.00    -0.207 C  
HETATM   14  H   UNL     1      -7.952  20.724  66.250  1.00  0.00     0.000 HD 
HETATM   15  O   UNL     1      -7.830  19.783  66.218  1.00  0.00    -0.299 OA 
BRANCH  13  16
HETATM   16  C   UNL     1      -5.900  20.171  64.816  1.00  0.00    -0.222 C  
HETATM   17  O   UNL     1      -5.141  21.336  65.160  1.00  0.00    -0.187 OA 
HETATM   18  H   UNL     1      -4.808  21.783  64.392  1.00  0.00     0.000 HD 
ENDBRANCH  13  16
ENDBRANCH  10  13
ENDBRANCH   1  10
BRANCH   7  19
HETATM   19  N   UNL     1      -9.378  17.469  67.897  1.00  0.00    -0.260 NA 
HETATM   20  H2  UNL     1      -9.308  19.102  69.939  1.00  0.00     0.000 HD 
HETATM   21  H   UNL     1      -9.588  16.935  67.053  1.00  0.00     0.000 HD 
HETATM   22  C   UNL     1     -10.066  18.509  68.188  1.00  0.00    -0.375 C  
HETATM   23  H1  UNL     1     -11.600  19.747  67.591  1.00  0.00     0.000 HD 
HETATM   24  N   UNL     1     -10.018  19.343  69.247  1.00  0.00    -0.523 NA 
HETATM   25  H2  UNL     1     -11.248  18.400  66.503  1.00  0.00     0.000 HD 
HETATM   26  N   UNL     1     -11.052  18.919  67.359  1.00  0.00    -0.233 NA 
HETATM   27  H1  UNL     1     -10.566  20.172  69.479  1.00  0.00     0.000 HD 
ENDBRANCH   7  19
BRANCH   5  28
HETATM   28  N   UNL     1      -6.286  18.214  69.705  1.00  0.00    -0.238 N  
HETATM   29  C   UNL     1      -6.285  19.501  70.206  1.00  0.00    -0.192 C  
HETATM   30  H   UNL     1      -5.778  17.482  70.202  1.00  0.00     0.000 HD 
HETATM   31  C   UNL     1      -5.661  19.607  71.570  1.00  0.00    -0.343 C  
HETATM   32  O   UNL     1      -6.761  20.463  69.616  1.00  0.00    -0.185 OA 
ENDBRANCH   5  28
TORSDOF 5
ENDMDL
MODEL      138
REMARK 921   NORMALIZED FREE ENERGY PREDICTED BY IDOCK:   -3.62 KCAL/MOL
REMARK 922        TOTAL FREE ENERGY PREDICTED BY IDOCK:   -6.27 KCAL/MOL
REMARK 923 INTER-LIGAND FREE ENERGY PREDICTED BY IDOCK:   -4.97 KCAL/MOL
REMARK 924 INTRA-LIGAND FREE ENERGY PREDICTED BY IDOCK:   -1.30 KCAL/MOL
REMARK 927      BINDING AFFINITY PREDICTED BY RF-SCORE:    0.00 PKD
ROOT
HETATM    1  C   UNL     1      -9.002   8.342  69.396  1.00  0.00    -0.153 C  
HETATM    2  O   UNL     1      -9.210   7.634  68.171  1.00  0.00    -0.138 OA 
HETATM    3  O   UNL     1      -9.256   6.312  65.952  1.00  0.00    -0.127 OA 
HETATM    4  C   UNL     1     -10.118   5.794  66.857  1.00  0.00    -0.192 C  
HETATM    5  C   UNL     1      -9.682   7.788  70.691  1.00  0.00    -0.177 C  
HETATM    6  C   UNL     1     -10.096   6.593  68.120  1.00  0.00    -0.158 C  
HETATM    7  C   UNL     1     -10.964   6.955  70.414  1.00  0.00    -0.274 C  
HETATM    8  C   UNL     1     -10.924   6.256  69.110  1.00  0.00    -0.442 C  
HETATM    9  O   UNL     1     -10.784   4.788  66.670  1.00  0.00    -0.181 OA 
ENDROOT
BRANCH   1  10
HETATM   10  C   UNL     1      -9.305   9.857  69.221  1.00  0.00    -0.206 C  
HETATM   11  O   UNL     1     -10.512  10.073  68.468  1.00  0.00    -0.184 OA 
HETATM   12  H   UNL     1     -10.698  10.999  68.361  1.00  0.00     0.000 HD 
BRANCH  10  13
HETATM   13  C   UNL     1      -8.166  10.689  68.567  1.00  0.00    -0.128 C  
HETATM   14  H   UNL     1      -6.879  12.103  69.115  1.00  0.00     0.000 HD 
HETATM   15  O   UNL     1      -7.575  11.595  69.514  1.00  0.00     0.117 OA 
BRANCH  13  16
HETATM   16  C   UNL     1      -8.634  11.500  67.344  1.00  0.00    -0.145 C  
HETATM   17  O   UNL     1      -9.219  12.751  67.721  1.00  0.00    -0.183 OA 
HETATM   18  H   UNL     1      -9.507  13.252  66.967  1.00  0.00     0.000 HD 
ENDBRANCH  13  16
ENDBRANCH  10  13
ENDBRANCH   1  10
BRANCH   7  19
HETATM   19  N   UNL     1     -12.135   7.837  70.449  1.00  0.00    -0.475 NA 
HETATM   20  H2  UNL     1     -11.458   7.282  72.914  1.00  0.00     0.000 HD 
HETATM   21  H   UNL     1     -12.571   8.144  69.579  1.00  0.00     0.000 HD 
HETATM   22  C   UNL     1     -12.607   8.222  71.576  1.00  0.00    -0.309 C  
HETATM   23  H1  UNL     1     -14.041   9.368  72.511  1.00  0.00     0.000 HD 
HETATM   24  N   UNL     1     -12.246   7.926  72.842  1.00  0.00    -0.612 NA 
HETATM   25  H2  UNL     1     -14.088   9.388  70.745  1.00  0.00     0.000 HD 
HETATM   26  N   UNL     1     -13.666   9.062  71.613  1.00  0.00    -0.392 NA 
HETATM   27  H1  UNL     1     -12.622   8.232  73.740  1.00  0.00     0.000 HD 
ENDBRANCH   7  19
BRANCH   5  28
HETATM   28  N   UNL     1      -8.740   7.015  71.537  1.00  0.00    -0.121 N  
HETATM   29  C   UNL     1      -8.694   7.196  72.905  1.00  0.00    -0.122 C  
HETATM   30  H   UNL     1      -8.114   6.338  71.099  1.00  0.00     0.000 HD 
HETATM   31  C   UNL     1      -7.820   6.196  73.608  1.00  0.00    -0.094 C  
HETATM   32  O   UNL     1      -9.316   8.069  73.499  1.00  0.00    -0.272 OA 
ENDBRANCH   5  28
TORSDOF 5
ENDMDL
MODEL      139
REMARK 921   NORMALIZED FREE ENERGY PREDICTED BY IDOCK:   -3.62 KCAL/MOL
REMARK 922        TOTAL FREE ENERGY PREDICTED BY IDOCK:   -6.27 KCAL/MOL
REMARK 923 INTER-LIGAND FREE ENERGY PREDICTED BY IDOCK:   -5.54 KCAL/MOL
REMARK 924 INTRA-LIGAND FREE ENERGY PREDICTED BY IDOCK:   -0.72 KCAL/MOL
REMARK 927      BINDING AFFINITY PREDICTED BY RF-SCORE:    0.00 PKD
ROOT
HETATM    1  C   UNL     1      -9.989  12.427  66.025  1.00  0.00    -0.255 C  
HETATM    2  O   UNL     1      -8.620  12.020  66.112  1.00  0.00    -0.052 OA 
HETATM    3  O   UNL     1      -6.084  11.531  66.057  1.00  0.00    -0.055 OA 
HETATM    4  C   UNL     1      -6.538  11.660  67.324  1.00  0.00    -0.122 C  
HETATM    5  C   UNL     1     -10.701  12.898  67.335  1.00  0.00    -0.237 C  
HETATM    6  C   UNL     1      -8.012  11.911  67.332  1.00  0.00    -0.162 C  
HETATM    7  C   UNL     1     -10.089  12.293  68.630  1.00  0.00    -0.144 C  
HETATM    8  C   UNL     1      -8.642  12.013  68.503  1.00  0.00    -0.093 C  
HETATM    9  O   UNL     1      -5.825  11.616  68.314  1.00  0.00    -0.046 OA 
ENDROOT
BRANCH   1  10
HETATM   10  C   UNL     1     -10.842  11.355  65.290  1.00  0.00    -0.233 C  
HETATM   11  O   UNL     1     -10.015  10.380  64.629  1.00  0.00    -0.324 OA 
HETATM   12  H   UNL     1     -10.536   9.725  64.180  1.00  0.00     0.000 HD 
BRANCH  10  13
HETATM   13  C   UNL     1     -11.860  11.914  64.256  1.00  0.00    -0.279 C  
HETATM   14  H   UNL     1     -11.809  12.895  62.527  1.00  0.00     0.000 HD 
HETATM   15  O   UNL     1     -11.187  12.553  63.158  1.00  0.00    -0.388 OA 
BRANCH  13  16
HETATM   16  C   UNL     1     -12.855  12.917  64.868  1.00  0.00    -0.295 C  
HETATM   17  O   UNL     1     -12.575  14.263  64.467  1.00  0.00    -0.649 OA 
HETATM   18  H   UNL     1     -13.189  14.882  64.844  1.00  0.00     0.000 HD 
ENDBRANCH  13  16
ENDBRANCH  10  13
ENDBRANCH   1  10
BRANCH   7  19
HETATM   19  N   UNL     1     -10.791  11.049  68.964  1.00  0.00    -0.214 NA 
HETATM   20  H2  UNL     1     -11.561  12.898  70.647  1.00  0.00     0.000 HD 
HETATM   21  H   UNL     1     -10.602  10.197  68.437  1.00  0.00     0.000 HD 
HETATM   22  C   UNL     1     -11.643  11.038  69.921  1.00  0.00    -0.337 C  
HETATM   23  H1  UNL     1     -12.994   9.894  70.973  1.00  0.00     0.000 HD 
HETATM   24  N   UNL     1     -12.030  12.002  70.782  1.00  0.00    -0.444 NA 
HETATM   25  H2  UNL     1     -12.146   9.056  69.670  1.00  0.00     0.000 HD 
HETATM   26  N   UNL     1     -12.316   9.903  70.211  1.00  0.00    -0.082 NA 
HETATM   27  H1  UNL     1     -12.708  11.994  71.543  1.00  0.00     0.000 HD 
ENDBRANCH   7  19
BRANCH   5  28
HETATM   28  N   UNL     1     -10.769  14.376  67.441  1.00  0.00    -0.277 N  
HETATM   29  C   UNL     1     -11.522  14.989  68.422  1.00  0.00    -0.323 C  
HETATM   30  H   UNL     1     -10.248  14.950  66.777  1.00  0.00     0.000 HD 
HETATM   31  C   UNL     1     -11.316  16.477  68.489  1.00  0.00    -0.231 C  
HETATM   32  O   UNL     1     -12.273  14.388  69.182  1.00  0.00    -0.300 OA 
ENDBRANCH   5  28
TORSDOF 5
ENDMDL
MODEL      140
REMARK 921   NORMALIZED FREE ENERGY PREDICTED BY IDOCK:   -3.61 KCAL/MOL
REMARK 922        TOTAL FREE ENERGY PREDICTED BY IDOCK:   -6.26 KCAL/MOL
REMARK 923 INTER-LIGAND FREE ENERGY PREDICTED BY IDOCK:   -5.09 KCAL/MOL
REMARK 924 INTRA-LIGAND FREE ENERGY PREDICTED BY IDOCK:   -1.17 KCAL/MOL
REMARK 927      BINDING AFFINITY PREDICTED BY RF-SCORE:    0.00 PKD
ROOT
HETATM    1  C   UNL     1     -10.735  10.084  67.262  1.00  0.00    -0.244 C  
HETATM    2  O   UNL     1      -9.866   9.108  66.678  1.00  0.00    -0.198 OA 
HETATM    3  O   UNL     1      -8.562   7.247  65.450  1.00  0.00    -0.121 OA 
HETATM    4  C   UNL     1      -7.937   8.442  65.348  1.00  0.00    -0.122 C  
HETATM    5  C   UNL     1     -10.385  11.594  67.060  1.00  0.00    -0.217 C  
HETATM    6  C   UNL     1      -8.693   9.496  66.092  1.00  0.00    -0.145 C  
HETATM    7  C   UNL     1      -8.873  11.859  66.820  1.00  0.00    -0.193 C  
HETATM    8  C   UNL     1      -8.194  10.732  66.142  1.00  0.00    -0.163 C  
HETATM    9  O   UNL     1      -6.918   8.629  64.700  1.00  0.00    -0.072 OA 
ENDROOT
BRANCH   1  10
HETATM   10  C   UNL     1     -10.989   9.773  68.764  1.00  0.00    -0.148 C  
HETATM   11  O   UNL     1     -11.008  10.974  69.558  1.00  0.00    -0.241 OA 
HETATM   12  H   UNL     1     -11.163  10.784  70.476  1.00  0.00     0.000 HD 
BRANCH  10  13
HETATM   13  C   UNL     1      -9.990   8.775  69.412  1.00  0.00    -0.196 C  
HETATM   14  H   UNL     1     -10.058   6.997  70.301  1.00  0.00     0.000 HD 
HETATM   15  O   UNL     1     -10.669   7.607  69.905  1.00  0.00    -0.245 OA 
BRANCH  13  16
HETATM   16  C   UNL     1      -9.180   9.391  70.568  1.00  0.00    -0.259 C  
HETATM   17  O   UNL     1      -7.841   9.713  70.175  1.00  0.00    -0.141 OA 
HETATM   18  H   UNL     1      -7.343  10.094  70.888  1.00  0.00     0.000 HD 
ENDBRANCH  13  16
ENDBRANCH  10  13
ENDBRANCH   1  10
BRANCH   7  19
HETATM   19  N   UNL     1      -8.215  12.111  68.106  1.00  0.00    -0.156 NA 
HETATM   20  H2  UNL     1      -6.668  13.024  66.204  1.00  0.00     0.000 HD 
HETATM   21  H   UNL     1      -8.649  11.799  68.974  1.00  0.00     0.000 HD 
HETATM   22  C   UNL     1      -7.091  12.727  68.134  1.00  0.00    -0.105 C  
HETATM   23  H1  UNL     1      -5.602  13.481  69.340  1.00  0.00     0.000 HD 
HETATM   24  N   UNL     1      -6.304  13.192  67.142  1.00  0.00    -0.475 NA 
HETATM   25  H2  UNL     1      -6.940  12.700  70.189  1.00  0.00     0.000 HD 
HETATM   26  N   UNL     1      -6.496  12.991  69.318  1.00  0.00    -0.105 NA 
HETATM   27  H1  UNL     1      -5.409  13.682  67.164  1.00  0.00     0.000 HD 
ENDBRANCH   7  19
BRANCH   5  28
HETATM   28  N   UNL     1     -11.193  12.221  65.984  1.00  0.00    -0.317 N  
HETATM   29  C   UNL     1     -11.967  13.338  66.229  1.00  0.00    -0.417 C  
HETATM   30  H   UNL     1     -11.176  11.819  65.046  1.00  0.00     0.000 HD 
HETATM   31  C   UNL     1     -12.557  13.938  64.984  1.00  0.00    -0.422 C  
HETATM   32  O   UNL     1     -12.144  13.813  67.345  1.00  0.00    -0.386 OA 
ENDBRANCH   5  28
TORSDOF 5
ENDMDL
MODEL      141
REMARK 921   NORMALIZED FREE ENERGY PREDICTED BY IDOCK:   -3.60 KCAL/MOL
REMARK 922        TOTAL FREE ENERGY PREDICTED BY IDOCK:   -6.25 KCAL/MOL
REMARK 923 INTER-LIGAND FREE ENERGY PREDICTED BY IDOCK:   -8.31 KCAL/MOL
REMARK 924 INTRA-LIGAND FREE ENERGY PREDICTED BY IDOCK:    2.06 KCAL/MOL
REMARK 927      BINDING AFFINITY PREDICTED BY RF-SCORE:    0.00 PKD
ROOT
HETATM    1  C   UNL     1      -9.549  15.802  68.455  1.00  0.00    -0.204 C  
HETATM    2  O   UNL     1     -10.006  17.155  68.363  1.00  0.00    -0.277 OA 
HETATM    3  O   UNL     1     -10.597  19.669  68.417  1.00  0.00    -0.361 OA 
HETATM    4  C   UNL     1     -10.406  19.230  67.152  1.00  0.00    -0.432 C  
HETATM    5  C   UNL     1      -9.005  15.119  67.158  1.00  0.00    -0.213 C  
HETATM    6  C   UNL     1     -10.097  17.768  67.143  1.00  0.00    -0.338 C  
HETATM    7  C   UNL     1      -9.586  15.717  65.847  1.00  0.00    -0.350 C  
HETATM    8  C   UNL     1      -9.928  17.151  65.973  1.00  0.00    -0.270 C  
HETATM    9  O   UNL     1     -10.443  19.949  66.165  1.00  0.00    -0.470 OA 
ENDROOT
BRANCH   1  10
HETATM   10  C   UNL     1     -10.612  14.902  69.147  1.00  0.00    -0.246 C  
HETATM   11  O   UNL     1     -10.511  14.967  70.581  1.00  0.00    -0.520 OA 
HETATM   12  H   UNL     1     -11.160  14.418  71.003  1.00  0.00     0.000 HD 
BRANCH  10  13
HETATM   13  C   UNL     1     -10.590  13.407  68.723  1.00  0.00    -0.210 C  
HETATM   14  H   UNL     1      -9.468  12.217  67.591  1.00  0.00     0.000 HD 
HETATM   15  O   UNL     1      -9.481  13.131  67.850  1.00  0.00    -0.203 OA 
BRANCH  13  16
HETATM   16  C   UNL     1     -11.885  12.956  68.022  1.00  0.00    -0.343 C  
HETATM   17  O   UNL     1     -12.515  14.031  67.315  1.00  0.00    -0.532 OA 
HETATM   18  H   UNL     1     -13.313  13.753  66.883  1.00  0.00     0.000 HD 
ENDBRANCH  13  16
ENDBRANCH  10  13
ENDBRANCH   1  10
BRANCH   7  19
HETATM   19  N   UNL     1     -10.789  14.969  65.464  1.00  0.00    -0.331 NA 
HETATM   20  H2  UNL     1     -10.836  17.277  64.233  1.00  0.00     0.000 HD 
HETATM   21  H   UNL     1     -10.970  14.050  65.867  1.00  0.00     0.000 HD 
HETATM   22  C   UNL     1     -11.611  15.476  64.622  1.00  0.00    -0.281 C  
HETATM   23  H1  UNL     1     -13.357  15.182  63.571  1.00  0.00     0.000 HD 
HETATM   24  N   UNL     1     -11.621  16.671  63.995  1.00  0.00    -1.496 NA 
HETATM   25  H2  UNL     1     -12.874  13.849  64.624  1.00  0.00     0.000 HD 
HETATM   26  N   UNL     1     -12.703  14.778  64.242  1.00  0.00    -0.666 NA 
HETATM   27  H1  UNL     1     -12.275  17.075  63.324  1.00  0.00     0.000 HD 
ENDBRANCH   7  19
BRANCH   5  28
HETATM   28  N   UNL     1      -7.522  15.111  67.105  1.00  0.00    -0.214 N  
HETATM   29  C   UNL     1      -6.767  14.849  68.232  1.00  0.00    -0.112 C  
HETATM   30  H   UNL     1      -7.051  15.302  66.220  1.00  0.00     0.000 HD 
HETATM   31  C   UNL     1      -5.300  14.695  67.944  1.00  0.00    -0.086 C  
HETATM   32  O   UNL     1      -7.240  14.730  69.357  1.00  0.00    -0.154 OA 
ENDBRANCH   5  28
TORSDOF 5
ENDMDL
MODEL      142
REMARK 921   NORMALIZED FREE ENERGY PREDICTED BY IDOCK:   -3.55 KCAL/MOL
REMARK 922        TOTAL FREE ENERGY PREDICTED BY IDOCK:   -6.18 KCAL/MOL
REMARK 923 INTER-LIGAND FREE ENERGY PREDICTED BY IDOCK:   -4.63 KCAL/MOL
REMARK 924 INTRA-LIGAND FREE ENERGY PREDICTED BY IDOCK:   -1.55 KCAL/MOL
REMARK 927      BINDING AFFINITY PREDICTED BY RF-SCORE:    0.00 PKD
ROOT
HETATM    1  C   UNL     1      -8.520   6.669  70.123  1.00  0.00    -0.136 C  
HETATM    2  O   UNL     1      -8.611   6.253  68.757  1.00  0.00    -0.121 OA 
HETATM    3  O   UNL     1      -8.604   5.236  66.383  1.00  0.00    -0.112 OA 
HETATM    4  C   UNL     1      -9.854   5.567  66.778  1.00  0.00    -0.167 C  
HETATM    5  C   UNL     1      -9.850   6.870  70.921  1.00  0.00    -0.185 C  
HETATM    6  C   UNL     1      -9.830   6.182  68.140  1.00  0.00    -0.131 C  
HETATM    7  C   UNL     1     -11.071   7.212  70.023  1.00  0.00    -0.258 C  
HETATM    8  C   UNL     1     -10.973   6.618  68.670  1.00  0.00    -0.317 C  
HETATM    9  O   UNL     1     -10.860   5.350  66.119  1.00  0.00    -0.217 OA 
ENDROOT
BRANCH   1  10
HETATM   10  C   UNL     1      -7.600   7.914  70.266  1.00  0.00    -0.086 C  
HETATM   11  O   UNL     1      -8.288   9.015  70.886  1.00  0.00    -0.167 OA 
HETATM   12  H   UNL     1      -7.726   9.775  70.973  1.00  0.00     0.000 HD 
BRANCH  10  13
HETATM   13  C   UNL     1      -6.961   8.420  68.942  1.00  0.00    -0.062 C  
HETATM   14  H   UNL     1      -5.182   8.366  68.055  1.00  0.00     0.000 HD 
HETATM   15  O   UNL     1      -5.572   8.057  68.863  1.00  0.00    -0.029 OA 
BRANCH  13  16
HETATM   16  C   UNL     1      -7.076   9.945  68.758  1.00  0.00    -0.067 C  
HETATM   17  O   UNL     1      -6.148  10.657  69.584  1.00  0.00    -0.046 OA 
HETATM   18  H   UNL     1      -6.219  11.597  69.470  1.00  0.00     0.000 HD 
ENDBRANCH  13  16
ENDBRANCH  10  13
ENDBRANCH   1  10
BRANCH   7  19
HETATM   19  N   UNL     1     -11.190   8.668  69.899  1.00  0.00    -0.440 NA 
HETATM   20  H2  UNL     1     -12.613   7.905  71.958  1.00  0.00     0.000 HD 
HETATM   21  H   UNL     1     -10.728   9.157  69.132  1.00  0.00     0.000 HD 
HETATM   22  C   UNL     1     -11.877   9.325  70.759  1.00  0.00    -0.243 C  
HETATM   23  H1  UNL     1     -12.510  11.192  71.353  1.00  0.00     0.000 HD 
HETATM   24  N   UNL     1     -12.607   8.916  71.818  1.00  0.00    -0.338 NA 
HETATM   25  H2  UNL     1     -11.482  11.163  69.916  1.00  0.00     0.000 HD 
HETATM   26  N   UNL     1     -11.963  10.670  70.668  1.00  0.00    -0.337 NA 
HETATM   27  H1  UNL     1     -13.153   9.438  72.503  1.00  0.00     0.000 HD 
ENDBRANCH   7  19
BRANCH   5  28
HETATM   28  N   UNL     1     -10.164   5.712  71.795  1.00  0.00    -0.195 N  
HETATM   29  C   UNL     1     -10.733   5.890  73.040  1.00  0.00    -0.256 C  
HETATM   30  H   UNL     1      -9.955   4.768  71.469  1.00  0.00     0.000 HD 
HETATM   31  C   UNL     1     -11.151   4.602  73.693  1.00  0.00    -0.379 C  
HETATM   32  O   UNL     1     -10.905   6.986  73.561  1.00  0.00    -0.341 OA 
ENDBRANCH   5  28
TORSDOF 5
ENDMDL
MODEL      143
REMARK 921   NORMALIZED FREE ENERGY PREDICTED BY IDOCK:   -3.54 KCAL/MOL
REMARK 922        TOTAL FREE ENERGY PREDICTED BY IDOCK:   -6.17 KCAL/MOL
REMARK 923 INTER-LIGAND FREE ENERGY PREDICTED BY IDOCK:   -5.78 KCAL/MOL
REMARK 924 INTRA-LIGAND FREE ENERGY PREDICTED BY IDOCK:   -0.40 KCAL/MOL
REMARK 927      BINDING AFFINITY PREDICTED BY RF-SCORE:    0.00 PKD
ROOT
HETATM    1  C   UNL     1     -10.503  13.909  68.928  1.00  0.00    -0.187 C  
HETATM    2  O   UNL     1      -9.869  15.120  68.506  1.00  0.00    -0.209 OA 
HETATM    3  O   UNL     1      -8.614  17.332  68.054  1.00  0.00    -0.221 OA 
HETATM    4  C   UNL     1      -8.280  16.378  67.155  1.00  0.00    -0.180 C  
HETATM    5  C   UNL     1     -10.091  12.577  68.220  1.00  0.00    -0.228 C  
HETATM    6  C   UNL     1      -9.041  15.119  67.417  1.00  0.00    -0.191 C  
HETATM    7  C   UNL     1      -9.551  12.779  66.777  1.00  0.00    -0.244 C  
HETATM    8  C   UNL     1      -8.875  14.083  66.594  1.00  0.00    -0.117 C  
HETATM    9  O   UNL     1      -7.440  16.526  66.281  1.00  0.00    -0.237 OA 
ENDROOT
BRANCH   1  10
HETATM   10  C   UNL     1     -12.050  14.067  68.945  1.00  0.00    -0.316 C  
HETATM   11  O   UNL     1     -12.586  14.178  67.614  1.00  0.00    -0.468 OA 
HETATM   12  H   UNL     1     -13.531  14.275  67.624  1.00  0.00     0.000 HD 
BRANCH  10  13
HETATM   13  C   UNL     1     -12.584  15.258  69.788  1.00  0.00    -0.115 C  
HETATM   14  H   UNL     1     -12.401  17.238  69.814  1.00  0.00     0.000 HD 
HETATM   15  O   UNL     1     -12.075  16.510  69.299  1.00  0.00     0.146 OA 
BRANCH  13  16
HETATM   16  C   UNL     1     -12.239  15.144  71.285  1.00  0.00    -0.333 C  
HETATM   17  O   UNL     1     -10.828  15.210  71.517  1.00  0.00    -0.529 OA 
HETATM   18  H   UNL     1     -10.615  15.140  72.440  1.00  0.00     0.000 HD 
ENDBRANCH  13  16
ENDBRANCH  10  13
ENDBRANCH   1  10
BRANCH   7  19
HETATM   19  N   UNL     1     -10.662  12.677  65.824  1.00  0.00    -0.263 NA 
HETATM   20  H2  UNL     1      -8.523  11.681  64.694  1.00  0.00     0.000 HD 
HETATM   21  H   UNL     1     -11.582  13.042  66.070  1.00  0.00     0.000 HD 
HETATM   22  C   UNL     1     -10.471  12.126  64.683  1.00  0.00    -0.299 C  
HETATM   23  H1  UNL     1     -11.347  11.562  62.907  1.00  0.00     0.000 HD 
HETATM   24  N   UNL     1      -9.360  11.616  64.113  1.00  0.00    -0.441 NA 
HETATM   25  H2  UNL     1     -12.425  12.344  64.068  1.00  0.00     0.000 HD 
HETATM   26  N   UNL     1     -11.499  12.001  63.815  1.00  0.00    -0.426 NA 
HETATM   27  H1  UNL     1      -9.208  11.178  63.205  1.00  0.00     0.000 HD 
ENDBRANCH   7  19
BRANCH   5  28
HETATM   28  N   UNL     1      -9.125  11.786  69.023  1.00  0.00    -0.376 N  
HETATM   29  C   UNL     1      -9.417  10.499  69.429  1.00  0.00    -0.136 C  
HETATM   30  H   UNL     1      -8.229  12.202  69.281  1.00  0.00     0.000 HD 
HETATM   31  C   UNL     1      -8.251   9.796  70.063  1.00  0.00    -0.207 C  
HETATM   32  O   UNL     1     -10.510   9.966  69.273  1.00  0.00    -0.197 OA 
ENDBRANCH   5  28
TORSDOF 5
ENDMDL
MODEL      144
REMARK 921   NORMALIZED FREE ENERGY PREDICTED BY IDOCK:   -3.54 KCAL/MOL
REMARK 922        TOTAL FREE ENERGY PREDICTED BY IDOCK:   -6.17 KCAL/MOL
REMARK 923 INTER-LIGAND FREE ENERGY PREDICTED BY IDOCK:   -5.00 KCAL/MOL
REMARK 924 INTRA-LIGAND FREE ENERGY PREDICTED BY IDOCK:   -1.17 KCAL/MOL
REMARK 927      BINDING AFFINITY PREDICTED BY RF-SCORE:    0.00 PKD
ROOT
HETATM    1  C   UNL     1      -9.273   7.651  72.100  1.00  0.00    -0.141 C  
HETATM    2  O   UNL     1      -9.289   7.637  70.670  1.00  0.00    -0.162 OA 
HETATM    3  O   UNL     1      -9.113   7.870  68.103  1.00  0.00    -0.134 OA 
HETATM    4  C   UNL     1      -8.850   6.606  68.507  1.00  0.00    -0.122 C  
HETATM    5  C   UNL     1      -8.745   6.380  72.843  1.00  0.00    -0.124 C  
HETATM    6  C   UNL     1      -8.989   6.488  69.991  1.00  0.00    -0.144 C  
HETATM    7  C   UNL     1      -8.897   5.070  72.022  1.00  0.00    -0.129 C  
HETATM    8  C   UNL     1      -8.816   5.295  70.561  1.00  0.00    -0.150 C  
HETATM    9  O   UNL     1      -8.508   5.705  67.757  1.00  0.00    -0.104 OA 
ENDROOT
BRANCH   1  10
HETATM   10  C   UNL     1     -10.655   8.086  72.668  1.00  0.00    -0.350 C  
HETATM   11  O   UNL     1     -11.263   7.037  73.443  1.00  0.00    -0.540 OA 
HETATM   12  H   UNL     1     -12.107   7.303  73.789  1.00  0.00     0.000 HD 
BRANCH  10  13
HETATM   13  C   UNL     1     -11.683   8.570  71.608  1.00  0.00    -0.306 C  
HETATM   14  H   UNL     1     -12.248  10.293  70.790  1.00  0.00     0.000 HD 
HETATM   15  O   UNL     1     -11.620   9.997  71.438  1.00  0.00    -0.368 OA 
BRANCH  13  16
HETATM   16  C   UNL     1     -13.134   8.184  71.950  1.00  0.00    -0.327 C  
HETATM   17  O   UNL     1     -13.609   8.865  73.117  1.00  0.00    -0.997 OA 
HETATM   18  H   UNL     1     -14.504   8.628  73.328  1.00  0.00     0.000 HD 
ENDBRANCH  13  16
ENDBRANCH  10  13
ENDBRANCH   1  10
BRANCH   7  19
HETATM   19  N   UNL     1     -10.184   4.443  72.340  1.00  0.00    -0.187 NA 
HETATM   20  H2  UNL     1      -8.300   3.108  73.571  1.00  0.00     0.000 HD 
HETATM   21  H   UNL     1     -11.045   4.803  71.927  1.00  0.00     0.000 HD 
HETATM   22  C   UNL     1     -10.223   3.442  73.139  1.00  0.00    -0.155 C  
HETATM   23  H1  UNL     1     -11.441   2.085  74.096  1.00  0.00     0.000 HD 
HETATM   24  N   UNL     1      -9.241   2.763  73.767  1.00  0.00    -0.081 NA 
HETATM   25  H2  UNL     1     -12.274   3.255  73.068  1.00  0.00     0.000 HD 
HETATM   26  N   UNL     1     -11.410   2.882  73.460  1.00  0.00    -0.208 NA 
HETATM   27  H1  UNL     1      -9.271   1.966  74.403  1.00  0.00     0.000 HD 
ENDBRANCH   7  19
BRANCH   5  28
HETATM   28  N   UNL     1      -7.344   6.538  73.304  1.00  0.00    -0.085 N  
HETATM   29  C   UNL     1      -6.732   5.572  74.078  1.00  0.00    -0.080 C  
HETATM   30  H   UNL     1      -6.822   7.377  73.045  1.00  0.00     0.000 HD 
HETATM   31  C   UNL     1      -5.264   5.816  74.285  1.00  0.00    -0.028 C  
HETATM   32  O   UNL     1      -7.315   4.597  74.538  1.00  0.00    -0.075 OA 
ENDBRANCH   5  28
TORSDOF 5
ENDMDL
MODEL      145
REMARK 921   NORMALIZED FREE ENERGY PREDICTED BY IDOCK:   -3.53 KCAL/MOL
REMARK 922        TOTAL FREE ENERGY PREDICTED BY IDOCK:   -6.16 KCAL/MOL
REMARK 923 INTER-LIGAND FREE ENERGY PREDICTED BY IDOCK:   -4.66 KCAL/MOL
REMARK 924 INTRA-LIGAND FREE ENERGY PREDICTED BY IDOCK:   -1.50 KCAL/MOL
REMARK 927      BINDING AFFINITY PREDICTED BY RF-SCORE:    0.00 PKD
ROOT
HETATM    1  C   UNL     1     -10.573   9.573  67.413  1.00  0.00    -0.271 C  
HETATM    2  O   UNL     1     -11.304   9.653  68.640  1.00  0.00    -0.026 OA 
HETATM    3  O   UNL     1     -12.828   9.573  70.724  1.00  0.00    -0.187 OA 
HETATM    4  C   UNL     1     -11.528   9.385  71.051  1.00  0.00    -0.334 C  
HETATM    5  C   UNL     1      -9.082   9.106  67.473  1.00  0.00    -0.124 C  
HETATM    6  C   UNL     1     -10.663   9.466  69.834  1.00  0.00    -0.234 C  
HETATM    7  C   UNL     1      -8.395   9.387  68.838  1.00  0.00    -0.120 C  
HETATM    8  C   UNL     1      -9.342   9.355  69.975  1.00  0.00    -0.253 C  
HETATM    9  O   UNL     1     -11.136   9.141  72.181  1.00  0.00    -0.316 OA 
ENDROOT
BRANCH   1  10
HETATM   10  C   UNL     1     -10.703  10.893  66.601  1.00  0.00    -0.230 C  
HETATM   11  O   UNL     1      -9.422  11.511  66.383  1.00  0.00    -0.200 OA 
HETATM   12  H   UNL     1      -9.501  12.317  65.887  1.00  0.00     0.000 HD 
BRANCH  10  13
HETATM   13  C   UNL     1     -11.660  11.955  67.213  1.00  0.00    -0.293 C  
HETATM   14  H   UNL     1     -13.181  13.083  66.607  1.00  0.00     0.000 HD 
HETATM   15  O   UNL     1     -12.597  12.434  66.233  1.00  0.00    -0.298 OA 
BRANCH  13  16
HETATM   16  C   UNL     1     -10.919  13.165  67.811  1.00  0.00    -0.251 C  
HETATM   17  O   UNL     1     -10.117  12.799  68.940  1.00  0.00    -0.412 OA 
HETATM   18  H   UNL     1      -9.659  13.546  69.308  1.00  0.00     0.000 HD 
ENDBRANCH  13  16
ENDBRANCH  10  13
ENDBRANCH   1  10
BRANCH   7  19
HETATM   19  N   UNL     1      -7.745  10.701  68.793  1.00  0.00    -0.108 NA 
HETATM   20  H2  UNL     1      -6.724   9.353  70.790  1.00  0.00     0.000 HD 
HETATM   21  H   UNL     1      -8.029  11.390  68.097  1.00  0.00     0.000 HD 
HETATM   22  C   UNL     1      -6.817  10.980  69.632  1.00  0.00    -0.129 C  
HETATM   23  H1  UNL     1      -5.454  12.398  70.242  1.00  0.00     0.000 HD 
HETATM   24  N   UNL     1      -6.301  10.273  70.659  1.00  0.00    -0.239 NA 
HETATM   25  H2  UNL     1      -6.459  12.858  68.864  1.00  0.00     0.000 HD 
HETATM   26  N   UNL     1      -6.193  12.177  69.574  1.00  0.00    -0.114 NA 
HETATM   27  H1  UNL     1      -5.562  10.494  71.327  1.00  0.00     0.000 HD 
ENDBRANCH   7  19
BRANCH   5  28
HETATM   28  N   UNL     1      -8.923   7.678  67.103  1.00  0.00    -0.123 N  
HETATM   29  C   UNL     1      -8.398   7.310  65.880  1.00  0.00    -0.144 C  
HETATM   30  H   UNL     1      -9.207   6.954  67.764  1.00  0.00     0.000 HD 
HETATM   31  C   UNL     1      -8.138   5.835  65.763  1.00  0.00    -0.116 C  
HETATM   32  O   UNL     1      -8.145   8.103  64.980  1.00  0.00    -0.140 OA 
ENDBRANCH   5  28
TORSDOF 5
ENDMDL
MODEL      146
REMARK 921   NORMALIZED FREE ENERGY PREDICTED BY IDOCK:   -3.51 KCAL/MOL
REMARK 922        TOTAL FREE ENERGY PREDICTED BY IDOCK:   -6.13 KCAL/MOL
REMARK 923 INTER-LIGAND FREE ENERGY PREDICTED BY IDOCK:   -5.34 KCAL/MOL
REMARK 924 INTRA-LIGAND FREE ENERGY PREDICTED BY IDOCK:   -0.80 KCAL/MOL
REMARK 927      BINDING AFFINITY PREDICTED BY RF-SCORE:    0.00 PKD
ROOT
HETATM    1  C   UNL     1     -10.493  10.064  67.162  1.00  0.00    -0.244 C  
HETATM    2  O   UNL     1     -11.471  10.239  68.192  1.00  0.00    -0.270 OA 
HETATM    3  O   UNL     1     -13.408  10.317  69.899  1.00  0.00     0.104 OA 
HETATM    4  C   UNL     1     -12.210  10.177  70.512  1.00  0.00    -0.264 C  
HETATM    5  C   UNL     1      -9.052   9.627  67.582  1.00  0.00    -0.131 C  
HETATM    6  C   UNL     1     -11.104  10.167  69.507  1.00  0.00    -0.250 C  
HETATM    7  C   UNL     1      -8.674  10.036  69.032  1.00  0.00    -0.158 C  
HETATM    8  C   UNL     1      -9.844  10.087  69.937  1.00  0.00    -0.266 C  
HETATM    9  O   UNL     1     -12.071  10.039  71.717  1.00  0.00    -0.373 OA 
ENDROOT
BRANCH   1  10
HETATM   10  C   UNL     1     -10.441  11.307  66.228  1.00  0.00    -0.258 C  
HETATM   11  O   UNL     1     -11.418  12.295  66.604  1.00  0.00    -0.335 OA 
HETATM   12  H   UNL     1     -11.386  13.054  66.034  1.00  0.00     0.000 HD 
BRANCH  10  13
HETATM   13  C   UNL     1     -10.610  11.005  64.713  1.00  0.00    -0.280 C  
HETATM   14  H   UNL     1      -9.444  10.564  63.164  1.00  0.00     0.000 HD 
HETATM   15  O   UNL     1      -9.340  10.749  64.090  1.00  0.00    -0.219 OA 
BRANCH  13  16
HETATM   16  C   UNL     1     -11.311  12.140  63.943  1.00  0.00    -0.426 C  
HETATM   17  O   UNL     1     -12.351  11.648  63.090  1.00  0.00    -0.937 OA 
HETATM   18  H   UNL     1     -12.783  12.348  62.616  1.00  0.00     0.000 HD 
ENDBRANCH  13  16
ENDBRANCH  10  13
ENDBRANCH   1  10
BRANCH   7  19
HETATM   19  N   UNL     1      -8.024  11.350  69.012  1.00  0.00    -0.328 NA 
HETATM   20  H2  UNL     1      -6.464   9.689  70.297  1.00  0.00     0.000 HD 
HETATM   21  H   UNL     1      -8.493  12.147  68.580  1.00  0.00     0.000 HD 
HETATM   22  C   UNL     1      -6.865  11.494  69.540  1.00  0.00    -0.075 C  
HETATM   23  H1  UNL     1      -5.326  12.810  69.916  1.00  0.00     0.000 HD 
HETATM   24  N   UNL     1      -6.072  10.626  70.201  1.00  0.00    -0.095 NA 
HETATM   25  H2  UNL     1      -6.705  13.488  69.043  1.00  0.00     0.000 HD 
HETATM   26  N   UNL     1      -6.249  12.696  69.496  1.00  0.00    -0.116 NA 
HETATM   27  H1  UNL     1      -5.150  10.740  70.621  1.00  0.00     0.000 HD 
ENDBRANCH   7  19
BRANCH   5  28
HETATM   28  N   UNL     1      -8.823   8.174  67.381  1.00  0.00    -0.127 N  
HETATM   29  C   UNL     1      -8.021   7.712  66.356  1.00  0.00    -0.107 C  
HETATM   30  H   UNL     1      -9.266   7.505  68.011  1.00  0.00     0.000 HD 
HETATM   31  C   UNL     1      -7.755   6.234  66.429  1.00  0.00    -0.099 C  
HETATM   32  O   UNL     1      -7.550   8.430  65.482  1.00  0.00    -0.085 OA 
ENDBRANCH   5  28
TORSDOF 5
ENDMDL
MODEL      147
REMARK 921   NORMALIZED FREE ENERGY PREDICTED BY IDOCK:   -3.51 KCAL/MOL
REMARK 922        TOTAL FREE ENERGY PREDICTED BY IDOCK:   -6.13 KCAL/MOL
REMARK 923 INTER-LIGAND FREE ENERGY PREDICTED BY IDOCK:   -4.71 KCAL/MOL
REMARK 924 INTRA-LIGAND FREE ENERGY PREDICTED BY IDOCK:   -1.42 KCAL/MOL
REMARK 927      BINDING AFFINITY PREDICTED BY RF-SCORE:    0.00 PKD
ROOT
HETATM    1  C   UNL     1     -10.923   9.308  69.010  1.00  0.00    -0.033 C  
HETATM    2  O   UNL     1     -10.603   7.984  68.572  1.00  0.00    -0.187 OA 
HETATM    3  O   UNL     1     -10.351   5.549  67.748  1.00  0.00    -0.188 OA 
HETATM    4  C   UNL     1      -9.582   6.399  67.030  1.00  0.00    -0.142 C  
HETATM    5  C   UNL     1     -10.371  10.512  68.179  1.00  0.00    -0.172 C  
HETATM    6  C   UNL     1      -9.720   7.795  67.544  1.00  0.00    -0.158 C  
HETATM    7  C   UNL     1      -9.072  10.183  67.392  1.00  0.00    -0.137 C  
HETATM    8  C   UNL     1      -8.991   8.762  66.986  1.00  0.00    -0.151 C  
HETATM    9  O   UNL     1      -8.905   6.064  66.071  1.00  0.00    -0.148 OA 
ENDROOT
BRANCH   1  10
HETATM   10  C   UNL     1     -10.599   9.487  70.520  1.00  0.00    -0.297 C  
HETATM   11  O   UNL     1      -9.236   9.899  70.725  1.00  0.00    -0.322 OA 
HETATM   12  H   UNL     1      -9.038  10.009  71.648  1.00  0.00     0.000 HD 
BRANCH  10  13
HETATM   13  C   UNL     1     -10.872   8.241  71.408  1.00  0.00    -0.239 C  
HETATM   14  H   UNL     1     -11.761   7.839  73.141  1.00  0.00     0.000 HD 
HETATM   15  O   UNL     1     -11.595   8.600  72.598  1.00  0.00    -0.315 OA 
BRANCH  13  16
HETATM   16  C   UNL     1      -9.587   7.500  71.824  1.00  0.00    -0.152 C  
HETATM   17  O   UNL     1      -8.968   6.837  70.716  1.00  0.00    -0.149 OA 
HETATM   18  H   UNL     1      -8.175   6.381  70.972  1.00  0.00     0.000 HD 
ENDBRANCH  13  16
ENDBRANCH  10  13
ENDBRANCH   1  10
BRANCH   7  19
HETATM   19  N   UNL     1      -7.907  10.513  68.219  1.00  0.00    -0.107 NA 
HETATM   20  H2  UNL     1      -7.723  11.853  65.980  1.00  0.00     0.000 HD 
HETATM   21  H   UNL     1      -7.779  10.064  69.126  1.00  0.00     0.000 HD 
HETATM   22  C   UNL     1      -7.049  11.367  67.798  1.00  0.00    -0.081 C  
HETATM   23  H1  UNL     1      -5.309  12.378  68.234  1.00  0.00     0.000 HD 
HETATM   24  N   UNL     1      -6.968  12.051  66.638  1.00  0.00    -0.382 NA 
HETATM   25  H2  UNL     1      -5.875  11.268  69.487  1.00  0.00     0.000 HD 
HETATM   26  N   UNL     1      -5.991  11.698  68.570  1.00  0.00    -0.049 NA 
HETATM   27  H1  UNL     1      -6.286  12.731  66.302  1.00  0.00     0.000 HD 
ENDBRANCH   7  19
BRANCH   5  28
HETATM   28  N   UNL     1     -11.393  11.084  67.267  1.00  0.00    -0.263 N  
HETATM   29  C   UNL     1     -11.233  12.337  66.710  1.00  0.00    -0.318 C  
HETATM   30  H   UNL     1     -12.229  10.541  67.049  1.00  0.00     0.000 HD 
HETATM   31  C   UNL     1     -12.269  12.663  65.671  1.00  0.00    -0.474 C  
HETATM   32  O   UNL     1     -10.327  13.106  67.009  1.00  0.00    -0.246 OA 
ENDBRANCH   5  28
TORSDOF 5
ENDMDL
MODEL      148
REMARK 921   NORMALIZED FREE ENERGY PREDICTED BY IDOCK:   -3.50 KCAL/MOL
REMARK 922        TOTAL FREE ENERGY PREDICTED BY IDOCK:   -6.11 KCAL/MOL
REMARK 923 INTER-LIGAND FREE ENERGY PREDICTED BY IDOCK:   -4.98 KCAL/MOL
REMARK 924 INTRA-LIGAND FREE ENERGY PREDICTED BY IDOCK:   -1.13 KCAL/MOL
REMARK 927      BINDING AFFINITY PREDICTED BY RF-SCORE:    0.00 PKD
ROOT
HETATM    1  C   UNL     1      -8.664  10.501  65.377  1.00  0.00    -0.183 C  
HETATM    2  O   UNL     1      -7.579  11.139  66.057  1.00  0.00    -0.094 OA 
HETATM    3  O   UNL     1      -5.591  12.481  67.016  1.00  0.00    -0.322 OA 
HETATM    4  C   UNL     1      -6.636  12.458  67.874  1.00  0.00    -0.097 C  
HETATM    5  C   UNL     1     -10.082  10.559  66.035  1.00  0.00    -0.256 C  
HETATM    6  C   UNL     1      -7.761  11.651  67.312  1.00  0.00    -0.154 C  
HETATM    7  C   UNL     1     -10.046  10.726  67.579  1.00  0.00    -0.186 C  
HETATM    8  C   UNL     1      -8.860  11.477  68.048  1.00  0.00    -0.158 C  
HETATM    9  O   UNL     1      -6.659  13.054  68.940  1.00  0.00    -0.084 OA 
ENDROOT
BRANCH   1  10
HETATM   10  C   UNL     1      -8.296   9.040  64.991  1.00  0.00    -0.166 C  
HETATM   11  O   UNL     1      -9.365   8.125  65.296  1.00  0.00    -0.378 OA 
HETATM   12  H   UNL     1      -9.140   7.233  65.060  1.00  0.00     0.000 HD 
BRANCH  10  13
HETATM   13  C   UNL     1      -6.989   8.495  65.632  1.00  0.00    -0.071 C  
HETATM   14  H   UNL     1      -5.352   7.535  65.039  1.00  0.00     0.000 HD 
HETATM   15  O   UNL     1      -6.150   7.868  64.647  1.00  0.00    -0.047 OA 
BRANCH  13  16
HETATM   16  C   UNL     1      -7.246   7.486  66.767  1.00  0.00    -0.084 C  
HETATM   17  O   UNL     1      -7.470   8.136  68.023  1.00  0.00    -0.094 OA 
HETATM   18  H   UNL     1      -7.628   7.513  68.723  1.00  0.00     0.000 HD 
ENDBRANCH  13  16
ENDBRANCH  10  13
ENDBRANCH   1  10
BRANCH   7  19
HETATM   19  N   UNL     1     -10.056   9.402  68.211  1.00  0.00    -0.175 NA 
HETATM   20  H2  UNL     1     -11.709  10.946  69.526  1.00  0.00     0.000 HD 
HETATM   21  H   UNL     1      -9.448   8.662  67.860  1.00  0.00     0.000 HD 
HETATM   22  C   UNL     1     -10.831   9.179  69.207  1.00  0.00    -0.132 C  
HETATM   23  H1  UNL     1     -11.485   7.775  70.564  1.00  0.00     0.000 HD 
HETATM   24  N   UNL     1     -11.679   9.988  69.875  1.00  0.00    -0.422 NA 
HETATM   25  H2  UNL     1     -10.278   7.205  69.407  1.00  0.00     0.000 HD 
HETATM   26  N   UNL     1     -10.867   7.952  69.772  1.00  0.00    -0.235 NA 
HETATM   27  H1  UNL     1     -12.297   9.811  70.667  1.00  0.00     0.000 HD 
ENDBRANCH   7  19
BRANCH   5  28
HETATM   28  N   UNL     1     -10.944  11.602  65.426  1.00  0.00    -0.292 N  
HETATM   29  C   UNL     1     -11.123  11.671  64.058  1.00  0.00    -0.384 C  
HETATM   30  H   UNL     1     -11.413  12.279  66.028  1.00  0.00     0.000 HD 
HETATM   31  C   UNL     1     -12.174  12.664  63.646  1.00  0.00    -0.624 C  
HETATM   32  O   UNL     1     -10.508  10.982  63.253  1.00  0.00    -0.337 OA 
ENDBRANCH   5  28
TORSDOF 5
ENDMDL
MODEL      149
REMARK 921   NORMALIZED FREE ENERGY PREDICTED BY IDOCK:   -3.45 KCAL/MOL
REMARK 922        TOTAL FREE ENERGY PREDICTED BY IDOCK:   -6.06 KCAL/MOL
REMARK 923 INTER-LIGAND FREE ENERGY PREDICTED BY IDOCK:   -6.49 KCAL/MOL
REMARK 924 INTRA-LIGAND FREE ENERGY PREDICTED BY IDOCK:    0.43 KCAL/MOL
REMARK 927      BINDING AFFINITY PREDICTED BY RF-SCORE:    0.00 PKD
ROOT
HETATM    1  C   UNL     1      -9.946  16.350  67.610  1.00  0.00    -0.252 C  
HETATM    2  O   UNL     1     -10.740  16.095  68.773  1.00  0.00    -0.259 OA 
HETATM    3  O   UNL     1     -12.410  15.812  70.723  1.00  0.00    -0.410 OA 
HETATM    4  C   UNL     1     -11.915  14.621  70.315  1.00  0.00    -0.308 C  
HETATM    5  C   UNL     1      -9.453  15.124  66.773  1.00  0.00    -0.242 C  
HETATM    6  C   UNL     1     -10.929  14.813  69.208  1.00  0.00    -0.261 C  
HETATM    7  C   UNL     1      -9.331  13.814  67.598  1.00  0.00    -0.213 C  
HETATM    8  C   UNL     1     -10.300  13.746  68.714  1.00  0.00    -0.198 C  
HETATM    9  O   UNL     1     -12.267  13.543  70.769  1.00  0.00    -0.349 OA 
ENDROOT
BRANCH   1  10
HETATM   10  C   UNL     1      -8.761  17.301  67.943  1.00  0.00    -0.231 C  
HETATM   11  O   UNL     1      -7.847  16.702  68.879  1.00  0.00    -0.228 OA 
HETATM   12  H   UNL     1      -7.123  17.282  69.082  1.00  0.00     0.000 HD 
BRANCH  10  13
HETATM   13  C   UNL     1      -9.167  18.700  68.483  1.00  0.00    -0.347 C  
HETATM   14  H   UNL     1     -10.542  20.083  68.093  1.00  0.00     0.000 HD 
HETATM   15  O   UNL     1     -10.294  19.228  67.763  1.00  0.00    -0.381 OA 
BRANCH  13  16
HETATM   16  C   UNL     1      -8.023  19.730  68.419  1.00  0.00    -0.280 C  
HETATM   17  O   UNL     1      -7.269  19.770  69.636  1.00  0.00    -0.286 OA 
HETATM   18  H   UNL     1      -6.563  20.405  69.596  1.00  0.00     0.000 HD 
ENDBRANCH  13  16
ENDBRANCH  10  13
ENDBRANCH   1  10
BRANCH   7  19
HETATM   19  N   UNL     1      -7.971  13.704  68.137  1.00  0.00    -0.137 NA 
HETATM   20  H2  UNL     1      -8.161  12.109  66.072  1.00  0.00     0.000 HD 
HETATM   21  H   UNL     1      -7.706  14.231  68.969  1.00  0.00     0.000 HD 
HETATM   22  C   UNL     1      -7.117  12.945  67.556  1.00  0.00    -0.152 C  
HETATM   23  H1  UNL     1      -5.174  12.262  67.568  1.00  0.00     0.000 HD 
HETATM   24  N   UNL     1      -7.231  12.127  66.490  1.00  0.00    -0.344 NA 
HETATM   25  H2  UNL     1      -5.580  13.410  68.848  1.00  0.00     0.000 HD 
HETATM   26  N   UNL     1      -5.854  12.866  68.030  1.00  0.00    -0.093 NA 
HETATM   27  H1  UNL     1      -6.551  11.522  66.028  1.00  0.00     0.000 HD 
ENDBRANCH   7  19
BRANCH   5  28
HETATM   28  N   UNL     1     -10.285  14.895  65.566  1.00  0.00    -0.347 N  
HETATM   29  C   UNL     1     -11.635  14.622  65.669  1.00  0.00    -0.328 C  
HETATM   30  H   UNL     1      -9.852  14.941  64.643  1.00  0.00     0.000 HD 
HETATM   31  C   UNL     1     -12.343  14.610  64.343  1.00  0.00    -0.420 C  
HETATM   32  O   UNL     1     -12.212  14.427  66.732  1.00  0.00    -0.420 OA 
ENDBRANCH   5  28
TORSDOF 5
ENDMDL
MODEL      150
REMARK 921   NORMALIZED FREE ENERGY PREDICTED BY IDOCK:   -3.36 KCAL/MOL
REMARK 922        TOTAL FREE ENERGY PREDICTED BY IDOCK:   -5.94 KCAL/MOL
REMARK 923 INTER-LIGAND FREE ENERGY PREDICTED BY IDOCK:   -5.41 KCAL/MOL
REMARK 924 INTRA-LIGAND FREE ENERGY PREDICTED BY IDOCK:   -0.53 KCAL/MOL
REMARK 927      BINDING AFFINITY PREDICTED BY RF-SCORE:    0.00 PKD
ROOT
HETATM    1  C   UNL     1      -9.265  10.663  66.429  1.00  0.00    -0.168 C  
HETATM    2  O   UNL     1      -8.032  10.711  67.154  1.00  0.00    -0.117 OA 
HETATM    3  O   UNL     1      -5.726  11.053  68.267  1.00  0.00    -0.043 OA 
HETATM    4  C   UNL     1      -6.722  11.026  69.183  1.00  0.00    -0.084 C  
HETATM    5  C   UNL     1     -10.594  10.879  67.223  1.00  0.00    -0.251 C  
HETATM    6  C   UNL     1      -8.041  10.797  68.519  1.00  0.00    -0.133 C  
HETATM    7  C   UNL     1     -10.493  10.496  68.725  1.00  0.00    -0.196 C  
HETATM    8  C   UNL     1      -9.133  10.690  69.276  1.00  0.00    -0.117 C  
HETATM    9  O   UNL     1      -6.556  11.208  70.379  1.00  0.00    -0.263 OA 
ENDROOT
BRANCH   1  10
HETATM   10  C   UNL     1      -9.347   9.378  65.557  1.00  0.00    -0.251 C  
HETATM   11  O   UNL     1     -10.133   8.355  66.193  1.00  0.00    -0.462 OA 
HETATM   12  H   UNL     1     -10.183   7.570  65.660  1.00  0.00     0.000 HD 
BRANCH  10  13
HETATM   13  C   UNL     1      -7.977   8.763  65.154  1.00  0.00    -0.125 C  
HETATM   14  H   UNL     1      -6.507   9.162  63.875  1.00  0.00     0.000 HD 
HETATM   15  O   UNL     1      -7.344   9.538  64.121  1.00  0.00    -0.106 OA 
BRANCH  13  16
HETATM   16  C   UNL     1      -8.087   7.305  64.670  1.00  0.00    -0.081 C  
HETATM   17  O   UNL     1      -8.404   7.224  63.276  1.00  0.00    -0.355 OA 
HETATM   18  H   UNL     1      -8.471   6.325  62.977  1.00  0.00     0.000 HD 
ENDBRANCH  13  16
ENDBRANCH  10  13
ENDBRANCH   1  10
BRANCH   7  19
HETATM   19  N   UNL     1     -10.884   9.093  68.896  1.00  0.00    -0.408 NA 
HETATM   20  H2  UNL     1     -10.324  10.077  71.254  1.00  0.00     0.000 HD 
HETATM   21  H   UNL     1     -11.113   8.522  68.082  1.00  0.00     0.000 HD 
HETATM   22  C   UNL     1     -10.937   8.587  70.072  1.00  0.00    -0.196 C  
HETATM   23  H1  UNL     1     -11.370   6.902  71.174  1.00  0.00     0.000 HD 
HETATM   24  N   UNL     1     -10.644   9.108  71.281  1.00  0.00    -0.302 NA 
HETATM   25  H2  UNL     1     -11.580   6.739  69.427  1.00  0.00     0.000 HD 
HETATM   26  N   UNL     1     -11.328   7.304  70.237  1.00  0.00    -0.264 NA 
HETATM   27  H1  UNL     1     -10.687   8.706  72.218  1.00  0.00     0.000 HD 
ENDBRANCH   7  19
BRANCH   5  28
HETATM   28  N   UNL     1     -11.119  12.259  67.079  1.00  0.00    -0.271 N  
HETATM   29  C   UNL     1     -11.947  12.604  66.029  1.00  0.00    -0.417 C  
HETATM   30  H   UNL     1     -10.864  12.967  67.768  1.00  0.00     0.000 HD 
HETATM   31  C   UNL     1     -12.528  13.984  66.156  1.00  0.00    -0.467 C  
HETATM   32  O   UNL     1     -12.207  11.857  65.092  1.00  0.00    -0.334 OA 
ENDBRANCH   5  28
TORSDOF 5
ENDMDL
MODEL      151
REMARK 921   NORMALIZED FREE ENERGY PREDICTED BY IDOCK:   -3.30 KCAL/MOL
REMARK 922        TOTAL FREE ENERGY PREDICTED BY IDOCK:   -5.86 KCAL/MOL
REMARK 923 INTER-LIGAND FREE ENERGY PREDICTED BY IDOCK:   -5.46 KCAL/MOL
REMARK 924 INTRA-LIGAND FREE ENERGY PREDICTED BY IDOCK:   -0.41 KCAL/MOL
REMARK 927      BINDING AFFINITY PREDICTED BY RF-SCORE:    0.00 PKD
ROOT
HETATM    1  C   UNL     1     -10.381   9.112  68.985  1.00  0.00    -0.215 C  
HETATM    2  O   UNL     1      -9.821   8.320  67.933  1.00  0.00    -0.156 OA 
HETATM    3  O   UNL     1      -9.084   6.963  65.863  1.00  0.00    -0.118 OA 
HETATM    4  C   UNL     1      -8.126   7.833  66.254  1.00  0.00    -0.114 C  
HETATM    5  C   UNL     1      -9.586  10.372  69.461  1.00  0.00    -0.157 C  
HETATM    6  C   UNL     1      -8.561   8.584  67.471  1.00  0.00    -0.128 C  
HETATM    7  C   UNL     1      -8.055  10.274  69.213  1.00  0.00    -0.155 C  
HETATM    8  C   UNL     1      -7.718   9.453  68.028  1.00  0.00    -0.084 C  
HETATM    9  O   UNL     1      -7.071   8.001  65.661  1.00  0.00    -0.061 OA 
ENDROOT
BRANCH   1  10
HETATM   10  C   UNL     1     -10.781   8.224  70.197  1.00  0.00    -0.239 C  
HETATM   11  O   UNL     1     -11.786   7.258  69.838  1.00  0.00    -0.522 OA 
HETATM   12  H   UNL     1     -12.030   6.715  70.579  1.00  0.00     0.000 HD 
BRANCH  10  13
HETATM   13  C   UNL     1     -11.274   8.998  71.452  1.00  0.00    -0.324 C  
HETATM   14  H   UNL     1     -10.865   9.055  73.397  1.00  0.00     0.000 HD 
HETATM   15  O   UNL     1     -10.564   8.582  72.631  1.00  0.00    -0.304 OA 
BRANCH  13  16
HETATM   16  C   UNL     1     -12.783   8.837  71.710  1.00  0.00    -0.359 C  
HETATM   17  O   UNL     1     -13.571   9.564  70.761  1.00  0.00    -0.598 OA 
HETATM   18  H   UNL     1     -14.503   9.464  70.920  1.00  0.00     0.000 HD 
ENDBRANCH  13  16
ENDBRANCH  10  13
ENDBRANCH   1  10
BRANCH   7  19
HETATM   19  N   UNL     1      -7.407   9.697  70.396  1.00  0.00    -0.139 NA 
HETATM   20  H2  UNL     1      -5.636  11.135  69.114  1.00  0.00     0.000 HD 
HETATM   21  H   UNL     1      -7.929   9.075  71.013  1.00  0.00     0.000 HD 
HETATM   22  C   UNL     1      -6.183   9.979  70.650  1.00  0.00    -0.103 C  
HETATM   23  H1  UNL     1      -4.617   9.701  71.958  1.00  0.00     0.000 HD 
HETATM   24  N   UNL     1      -5.281  10.724  69.978  1.00  0.00    -0.043 NA 
HETATM   25  H2  UNL     1      -6.118   8.874  72.388  1.00  0.00     0.000 HD 
HETATM   26  N   UNL     1      -5.592   9.477  71.756  1.00  0.00    -0.109 NA 
HETATM   27  H1  UNL     1      -4.307  10.948  70.180  1.00  0.00     0.000 HD 
ENDBRANCH   7  19
BRANCH   5  28
HETATM   28  N   UNL     1     -10.121  11.629  68.881  1.00  0.00    -0.373 N  
HETATM   29  C   UNL     1     -11.458  11.757  68.563  1.00  0.00    -0.296 C  
HETATM   30  H   UNL     1      -9.488  12.412  68.714  1.00  0.00     0.000 HD 
HETATM   31  C   UNL     1     -11.845  13.155  68.170  1.00  0.00    -0.386 C  
HETATM   32  O   UNL     1     -12.263  10.834  68.613  1.00  0.00    -0.472 OA 
ENDBRANCH   5  28
TORSDOF 5
ENDMDL
MODEL      152
REMARK 921   NORMALIZED FREE ENERGY PREDICTED BY IDOCK:   -3.28 KCAL/MOL
REMARK 922        TOTAL FREE ENERGY PREDICTED BY IDOCK:   -5.83 KCAL/MOL
REMARK 923 INTER-LIGAND FREE ENERGY PREDICTED BY IDOCK:   -4.50 KCAL/MOL
REMARK 924 INTRA-LIGAND FREE ENERGY PREDICTED BY IDOCK:   -1.33 KCAL/MOL
REMARK 927      BINDING AFFINITY PREDICTED BY RF-SCORE:    0.00 PKD
ROOT
HETATM    1  C   UNL     1      -9.648  10.238  69.546  1.00  0.00    -0.202 C  
HETATM    2  O   UNL     1      -9.824   9.989  68.148  1.00  0.00    -0.139 OA 
HETATM    3  O   UNL     1      -9.950   9.805  65.575  1.00  0.00    -0.307 OA 
HETATM    4  C   UNL     1      -9.574   8.635  66.139  1.00  0.00    -0.235 C  
HETATM    5  C   UNL     1      -8.970   9.126  70.412  1.00  0.00    -0.229 C  
HETATM    6  C   UNL     1      -9.539   8.757  67.628  1.00  0.00    -0.144 C  
HETATM    7  C   UNL     1      -9.140   7.694  69.833  1.00  0.00    -0.147 C  
HETATM    8  C   UNL     1      -9.237   7.681  68.356  1.00  0.00    -0.140 C  
HETATM    9  O   UNL     1      -9.269   7.637  65.505  1.00  0.00     0.070 OA 
ENDROOT
BRANCH   1  10
HETATM   10  C   UNL     1     -10.979  10.709  70.199  1.00  0.00    -0.222 C  
HETATM   11  O   UNL     1     -11.980   9.676  70.167  1.00  0.00    -0.453 OA 
HETATM   12  H   UNL     1     -12.793   9.963  70.566  1.00  0.00     0.000 HD 
BRANCH  10  13
HETATM   13  C   UNL     1     -11.592  12.002  69.593  1.00  0.00    -0.301 C  
HETATM   14  H   UNL     1     -10.965  13.577  68.553  1.00  0.00     0.000 HD 
HETATM   15  O   UNL     1     -10.590  12.787  68.923  1.00  0.00    -0.212 OA 
BRANCH  13  16
HETATM   16  C   UNL     1     -12.286  12.892  70.641  1.00  0.00    -0.302 C  
HETATM   17  O   UNL     1     -12.921  12.119  71.666  1.00  0.00    -0.399 OA 
HETATM   18  H   UNL     1     -13.349  12.668  72.312  1.00  0.00     0.000 HD 
ENDBRANCH  13  16
ENDBRANCH  10  13
ENDBRANCH   1  10
BRANCH   7  19
HETATM   19  N   UNL     1     -10.347   7.082  70.398  1.00  0.00    -0.200 NA 
HETATM   20  H2  UNL     1      -8.300   6.341  71.849  1.00  0.00     0.000 HD 
HETATM   21  H   UNL     1     -11.252   7.227  69.951  1.00  0.00     0.000 HD 
HETATM   22  C   UNL     1     -10.259   6.364  71.456  1.00  0.00    -0.194 C  
HETATM   23  H1  UNL     1     -11.302   5.252  72.840  1.00  0.00     0.000 HD 
HETATM   24  N   UNL     1      -9.193   5.990  72.194  1.00  0.00    -0.146 NA 
HETATM   25  H2  UNL     1     -12.282   5.987  71.567  1.00  0.00     0.000 HD 
HETATM   26  N   UNL     1     -11.372   5.824  71.998  1.00  0.00    -0.258 NA 
HETATM   27  H1  UNL     1      -9.123   5.419  73.036  1.00  0.00     0.000 HD 
ENDBRANCH   7  19
BRANCH   5  28
HETATM   28  N   UNL     1      -7.537   9.409  70.671  1.00  0.00    -0.147 N  
HETATM   29  C   UNL     1      -6.883   8.856  71.754  1.00  0.00    -0.025 C  
HETATM   30  H   UNL     1      -7.025  10.023  70.037  1.00  0.00     0.000 HD 
HETATM   31  C   UNL     1      -5.400   9.100  71.744  1.00  0.00    -0.057 C  
HETATM   32  O   UNL     1      -7.444   8.209  72.632  1.00  0.00    -0.109 OA 
ENDBRANCH   5  28
TORSDOF 5
ENDMDL
MODEL      153
REMARK 921   NORMALIZED FREE ENERGY PREDICTED BY IDOCK:   -3.28 KCAL/MOL
REMARK 922        TOTAL FREE ENERGY PREDICTED BY IDOCK:   -5.83 KCAL/MOL
REMARK 923 INTER-LIGAND FREE ENERGY PREDICTED BY IDOCK:   -5.30 KCAL/MOL
REMARK 924 INTRA-LIGAND FREE ENERGY PREDICTED BY IDOCK:   -0.52 KCAL/MOL
REMARK 927      BINDING AFFINITY PREDICTED BY RF-SCORE:    0.00 PKD
ROOT
HETATM    1  C   UNL     1      -8.404  16.461  65.980  1.00  0.00    -0.104 C  
HETATM    2  O   UNL     1      -8.854  17.819  65.973  1.00  0.00    -0.494 OA 
HETATM    3  O   UNL     1      -9.570  20.279  65.643  1.00  0.00    -0.219 OA 
HETATM    4  C   UNL     1     -10.572  19.535  66.166  1.00  0.00    -0.487 C  
HETATM    5  C   UNL     1      -9.450  15.342  66.297  1.00  0.00    -0.309 C  
HETATM    6  C   UNL     1     -10.124  18.125  66.377  1.00  0.00    -0.389 C  
HETATM    7  C   UNL     1     -10.645  15.831  67.160  1.00  0.00    -0.313 C  
HETATM    8  C   UNL     1     -10.970  17.258  66.935  1.00  0.00     0.139 C  
HETATM    9  O   UNL     1     -11.694  19.961  66.391  1.00  0.00     0.753 OA 
ENDROOT
BRANCH   1  10
HETATM   10  C   UNL     1      -7.138  16.299  66.869  1.00  0.00    -0.211 C  
HETATM   11  O   UNL     1      -7.435  15.603  68.093  1.00  0.00    -0.118 OA 
HETATM   12  H   UNL     1      -6.661  15.504  68.636  1.00  0.00     0.000 HD 
BRANCH  10  13
HETATM   13  C   UNL     1      -6.405  17.622  67.224  1.00  0.00    -0.146 C  
HETATM   14  H   UNL     1      -6.732  19.225  68.356  1.00  0.00     0.000 HD 
HETATM   15  O   UNL     1      -7.180  18.416  68.139  1.00  0.00    -0.246 OA 
BRANCH  13  16
HETATM   16  C   UNL     1      -6.078  18.484  65.990  1.00  0.00    -0.187 C  
HETATM   17  O   UNL     1      -6.877  19.671  65.937  1.00  0.00    -0.235 OA 
HETATM   18  H   UNL     1      -6.675  20.203  65.176  1.00  0.00     0.000 HD 
ENDBRANCH  13  16
ENDBRANCH  10  13
ENDBRANCH   1  10
BRANCH   7  19
HETATM   19  N   UNL     1     -10.335  15.628  68.580  1.00  0.00    -0.216 NA 
HETATM   20  H2  UNL     1     -12.920  15.959  68.348  1.00  0.00     0.000 HD 
HETATM   21  H   UNL     1      -9.368  15.511  68.881  1.00  0.00     0.000 HD 
HETATM   22  C   UNL     1     -11.285  15.599  69.440  1.00  0.00    -0.313 C  
HETATM   23  H1  UNL     1     -11.763  15.357  71.428  1.00  0.00     0.000 HD 
HETATM   24  N   UNL     1     -12.616  15.772  69.304  1.00  0.00    -0.434 NA 
HETATM   25  H2  UNL     1     -10.043  15.239  71.043  1.00  0.00     0.000 HD 
HETATM   26  N   UNL     1     -11.007  15.381  70.744  1.00  0.00    -0.331 NA 
HETATM   27  H1  UNL     1     -13.372  15.749  69.988  1.00  0.00     0.000 HD 
ENDBRANCH   7  19
BRANCH   5  28
HETATM   28  N   UNL     1      -9.943  14.667  65.071  1.00  0.00    -0.474 N  
HETATM   29  C   UNL     1     -10.313  13.337  65.086  1.00  0.00    -0.323 C  
HETATM   30  H   UNL     1     -10.011  15.197  64.201  1.00  0.00     0.000 HD 
HETATM   31  C   UNL     1     -10.963  12.886  63.808  1.00  0.00    -0.392 C  
HETATM   32  O   UNL     1     -10.151  12.595  66.048  1.00  0.00    -0.254 OA 
ENDBRANCH   5  28
TORSDOF 5
ENDMDL
MODEL      154
REMARK 921   NORMALIZED FREE ENERGY PREDICTED BY IDOCK:   -3.26 KCAL/MOL
REMARK 922        TOTAL FREE ENERGY PREDICTED BY IDOCK:   -5.80 KCAL/MOL
REMARK 923 INTER-LIGAND FREE ENERGY PREDICTED BY IDOCK:   -4.68 KCAL/MOL
REMARK 924 INTRA-LIGAND FREE ENERGY PREDICTED BY IDOCK:   -1.12 KCAL/MOL
REMARK 927      BINDING AFFINITY PREDICTED BY RF-SCORE:    0.00 PKD
ROOT
HETATM    1  C   UNL     1      -9.761  11.947  67.040  1.00  0.00    -0.194 C  
HETATM    2  O   UNL     1     -10.018  11.774  65.643  1.00  0.00    -0.227 OA 
HETATM    3  O   UNL     1     -10.457  11.791  63.098  1.00  0.00    -0.378 OA 
HETATM    4  C   UNL     1      -9.465  10.931  63.426  1.00  0.00    -0.314 C  
HETATM    5  C   UNL     1      -8.491  11.263  67.645  1.00  0.00    -0.124 C  
HETATM    6  C   UNL     1      -9.251  10.915  64.905  1.00  0.00    -0.204 C  
HETATM    7  C   UNL     1      -8.024  10.007  66.859  1.00  0.00    -0.113 C  
HETATM    8  C   UNL     1      -8.343  10.083  65.415  1.00  0.00    -0.154 C  
HETATM    9  O   UNL     1      -8.816  10.293  62.612  1.00  0.00    -0.183 OA 
ENDROOT
BRANCH   1  10
HETATM   10  C   UNL     1     -11.023  11.608  67.884  1.00  0.00    -0.225 C  
HETATM   11  O   UNL     1     -11.616  10.363  67.473  1.00  0.00    -0.555 OA 
HETATM   12  H   UNL     1     -12.387  10.156  67.988  1.00  0.00     0.000 HD 
BRANCH  10  13
HETATM   13  C   UNL     1     -12.129  12.699  67.887  1.00  0.00    -0.099 C  
HETATM   14  H   UNL     1     -13.253  13.657  66.554  1.00  0.00     0.000 HD 
HETATM   15  O   UNL     1     -12.577  12.989  66.552  1.00  0.00    -0.303 OA 
BRANCH  13  16
HETATM   16  C   UNL     1     -11.679  14.016  68.547  1.00  0.00    -0.352 C  
HETATM   17  O   UNL     1     -11.303  13.830  69.916  1.00  0.00    -0.434 OA 
HETATM   18  H   UNL     1     -11.025  14.642  70.322  1.00  0.00     0.000 HD 
ENDBRANCH  13  16
ENDBRANCH  10  13
ENDBRANCH   1  10
BRANCH   7  19
HETATM   19  N   UNL     1      -8.660   8.814  67.428  1.00  0.00    -0.125 NA 
HETATM   20  H2  UNL     1      -6.379   9.186  68.654  1.00  0.00     0.000 HD 
HETATM   21  H   UNL     1      -9.552   8.483  67.058  1.00  0.00     0.000 HD 
HETATM   22  C   UNL     1      -8.091   8.189  68.391  1.00  0.00    -0.128 C  
HETATM   23  H1  UNL     1      -8.235   6.611  69.707  1.00  0.00     0.000 HD 
HETATM   24  N   UNL     1      -6.912   8.394  69.014  1.00  0.00    -0.059 NA 
HETATM   25  H2  UNL     1      -9.591   6.790  68.588  1.00  0.00     0.000 HD 
HETATM   26  N   UNL     1      -8.689   7.108  68.940  1.00  0.00    -0.128 NA 
HETATM   27  H1  UNL     1      -6.459   7.897  69.781  1.00  0.00     0.000 HD 
ENDBRANCH   7  19
BRANCH   5  28
HETATM   28  N   UNL     1      -7.364  12.214  67.810  1.00  0.00    -0.103 N  
HETATM   29  C   UNL     1      -6.506  12.125  68.889  1.00  0.00    -0.088 C  
HETATM   30  H   UNL     1      -7.220  12.946  67.115  1.00  0.00     0.000 HD 
HETATM   31  C   UNL     1      -5.322  13.045  68.785  1.00  0.00    -0.072 C  
HETATM   32  O   UNL     1      -6.673  11.360  69.832  1.00  0.00    -0.122 OA 
ENDBRANCH   5  28
TORSDOF 5
ENDMDL
MODEL      155
REMARK 921   NORMALIZED FREE ENERGY PREDICTED BY IDOCK:   -3.23 KCAL/MOL
REMARK 922        TOTAL FREE ENERGY PREDICTED BY IDOCK:   -5.77 KCAL/MOL
REMARK 923 INTER-LIGAND FREE ENERGY PREDICTED BY IDOCK:   -4.90 KCAL/MOL
REMARK 924 INTRA-LIGAND FREE ENERGY PREDICTED BY IDOCK:   -0.87 KCAL/MOL
REMARK 927      BINDING AFFINITY PREDICTED BY RF-SCORE:    0.00 PKD
ROOT
HETATM    1  C   UNL     1      -9.350  12.686  68.520  1.00  0.00    -0.080 C  
HETATM    2  O   UNL     1      -7.977  12.856  68.157  1.00  0.00    -0.135 OA 
HETATM    3  O   UNL     1      -5.430  13.131  67.823  1.00  0.00    -0.114 OA 
HETATM    4  C   UNL     1      -5.938  12.177  67.009  1.00  0.00    -0.095 C  
HETATM    5  C   UNL     1     -10.126  11.469  67.918  1.00  0.00    -0.189 C  
HETATM    6  C   UNL     1      -7.416  12.058  67.198  1.00  0.00    -0.138 C  
HETATM    7  C   UNL     1      -9.553  10.974  66.561  1.00  0.00    -0.195 C  
HETATM    8  C   UNL     1      -8.095  11.198  66.438  1.00  0.00    -0.159 C  
HETATM    9  O   UNL     1      -5.265  11.488  66.260  1.00  0.00    -0.234 OA 
ENDROOT
BRANCH   1  10
HETATM   10  C   UNL     1     -10.148  14.005  68.312  1.00  0.00    -0.246 C  
HETATM   11  O   UNL     1      -9.850  14.973  69.334  1.00  0.00    -0.281 OA 
HETATM   12  H   UNL     1     -10.336  15.779  69.206  1.00  0.00     0.000 HD 
BRANCH  10  13
HETATM   13  C   UNL     1     -11.691  13.840  68.230  1.00  0.00    -0.359 C  
HETATM   14  H   UNL     1     -13.101  13.878  66.828  1.00  0.00     0.000 HD 
HETATM   15  O   UNL     1     -12.157  13.979  66.877  1.00  0.00    -0.424 OA 
BRANCH  13  16
HETATM   16  C   UNL     1     -12.455  14.843  69.115  1.00  0.00     0.046 C  
HETATM   17  O   UNL     1     -12.664  14.340  70.439  1.00  0.00    -0.347 OA 
HETATM   18  H   UNL     1     -13.135  14.959  70.985  1.00  0.00     0.000 HD 
ENDBRANCH  13  16
ENDBRANCH  10  13
ENDBRANCH   1  10
BRANCH   7  19
HETATM   19  N   UNL     1     -10.239  11.665  65.464  1.00  0.00    -0.249 NA 
HETATM   20  H2  UNL     1      -8.788   9.744  64.440  1.00  0.00     0.000 HD 
HETATM   21  H   UNL     1     -10.834  12.470  65.658  1.00  0.00     0.000 HD 
HETATM   22  C   UNL     1     -10.088  11.251  64.260  1.00  0.00    -0.313 C  
HETATM   23  H1  UNL     1     -10.622  11.535  62.292  1.00  0.00     0.000 HD 
HETATM   24  N   UNL     1      -9.334  10.257  63.747  1.00  0.00    -0.276 NA 
HETATM   25  H2  UNL     1     -11.357  12.654  63.444  1.00  0.00     0.000 HD 
HETATM   26  N   UNL     1     -10.743  11.864  63.250  1.00  0.00    -0.385 NA 
HETATM   27  H1  UNL     1      -9.213   9.928  62.789  1.00  0.00     0.000 HD 
ENDBRANCH   7  19
BRANCH   5  28
HETATM   28  N   UNL     1     -10.232  10.339  68.874  1.00  0.00    -0.193 N  
HETATM   29  C   UNL     1     -11.445   9.984  69.429  1.00  0.00    -0.083 C  
HETATM   30  H   UNL     1      -9.393   9.816  69.126  1.00  0.00     0.000 HD 
HETATM   31  C   UNL     1     -11.387   8.705  70.218  1.00  0.00    -0.146 C  
HETATM   32  O   UNL     1     -12.478  10.627  69.282  1.00  0.00    -0.304 OA 
ENDBRANCH   5  28
TORSDOF 5
ENDMDL
MODEL      156
REMARK 921   NORMALIZED FREE ENERGY PREDICTED BY IDOCK:   -3.21 KCAL/MOL
REMARK 922        TOTAL FREE ENERGY PREDICTED BY IDOCK:   -5.74 KCAL/MOL
REMARK 923 INTER-LIGAND FREE ENERGY PREDICTED BY IDOCK:   -4.85 KCAL/MOL
REMARK 924 INTRA-LIGAND FREE ENERGY PREDICTED BY IDOCK:   -0.89 KCAL/MOL
REMARK 927      BINDING AFFINITY PREDICTED BY RF-SCORE:    0.00 PKD
ROOT
HETATM    1  C   UNL     1      -8.686  11.063  67.293  1.00  0.00    -0.129 C  
HETATM    2  O   UNL     1      -8.791   9.885  68.100  1.00  0.00    -0.118 OA 
HETATM    3  O   UNL     1      -9.067   7.963  69.803  1.00  0.00    -0.146 OA 
HETATM    4  C   UNL     1      -9.777   7.733  68.675  1.00  0.00    -0.157 C  
HETATM    5  C   UNL     1      -9.614  11.182  66.041  1.00  0.00    -0.217 C  
HETATM    6  C   UNL     1      -9.577   8.842  67.693  1.00  0.00    -0.148 C  
HETATM    7  C   UNL     1     -10.062   9.811  65.463  1.00  0.00    -0.172 C  
HETATM    8  C   UNL     1     -10.164   8.758  66.499  1.00  0.00    -0.314 C  
HETATM    9  O   UNL     1     -10.508   6.769  68.512  1.00  0.00    -0.178 OA 
ENDROOT
BRANCH   1  10
HETATM   10  C   UNL     1      -7.205  11.342  66.910  1.00  0.00    -0.144 C  
HETATM   11  O   UNL     1      -6.381  10.176  67.091  1.00  0.00    -0.065 OA 
HETATM   12  H   UNL     1      -5.476  10.347  66.856  1.00  0.00     0.000 HD 
BRANCH  10  13
HETATM   13  C   UNL     1      -6.540  12.532  67.658  1.00  0.00    -0.136 C  
HETATM   14  H   UNL     1      -6.196  13.075  69.540  1.00  0.00     0.000 HD 
HETATM   15  O   UNL     1      -6.602  12.348  69.083  1.00  0.00    -0.093 OA 
BRANCH  13  16
HETATM   16  C   UNL     1      -7.174  13.893  67.314  1.00  0.00     0.044 C  
HETATM   17  O   UNL     1      -8.204  14.255  68.241  1.00  0.00    -0.133 OA 
HETATM   18  H   UNL     1      -8.595  15.094  68.029  1.00  0.00     0.000 HD 
ENDBRANCH  13  16
ENDBRANCH  10  13
ENDBRANCH   1  10
BRANCH   7  19
HETATM   19  N   UNL     1      -9.109   9.382  64.435  1.00  0.00    -0.403 NA 
HETATM   20  H2  UNL     1     -10.446  11.429  63.505  1.00  0.00     0.000 HD 
HETATM   21  H   UNL     1      -8.511   8.571  64.597  1.00  0.00     0.000 HD 
HETATM   22  C   UNL     1      -9.030  10.029  63.332  1.00  0.00    -0.257 C  
HETATM   23  H1  UNL     1      -8.068  10.173  61.516  1.00  0.00     0.000 HD 
HETATM   24  N   UNL     1      -9.728  11.085  62.866  1.00  0.00    -0.490 NA 
HETATM   25  H2  UNL     1      -7.516   8.862  62.564  1.00  0.00     0.000 HD 
HETATM   26  N   UNL     1      -8.131   9.657  62.394  1.00  0.00    -0.123 NA 
HETATM   27  H1  UNL     1      -9.666  11.601  61.988  1.00  0.00     0.000 HD 
ENDBRANCH   7  19
BRANCH   5  28
HETATM   28  N   UNL     1     -10.795  12.044  66.294  1.00  0.00    -0.267 N  
HETATM   29  C   UNL     1     -11.142  13.056  65.421  1.00  0.00    -0.275 C  
HETATM   30  H   UNL     1     -11.360  11.886  67.129  1.00  0.00     0.000 HD 
HETATM   31  C   UNL     1     -12.467  13.690  65.742  1.00  0.00    -0.524 C  
HETATM   32  O   UNL     1     -10.457  13.396  64.464  1.00  0.00    -0.404 OA 
ENDBRANCH   5  28
TORSDOF 5
ENDMDL
MODEL      157
REMARK 921   NORMALIZED FREE ENERGY PREDICTED BY IDOCK:   -3.19 KCAL/MOL
REMARK 922        TOTAL FREE ENERGY PREDICTED BY IDOCK:   -5.71 KCAL/MOL
REMARK 923 INTER-LIGAND FREE ENERGY PREDICTED BY IDOCK:   -4.76 KCAL/MOL
REMARK 924 INTRA-LIGAND FREE ENERGY PREDICTED BY IDOCK:   -0.96 KCAL/MOL
REMARK 927      BINDING AFFINITY PREDICTED BY RF-SCORE:    0.00 PKD
ROOT
HETATM    1  C   UNL     1      -9.697   9.465  69.865  1.00  0.00    -0.212 C  
HETATM    2  O   UNL     1     -10.136   8.165  69.461  1.00  0.00    -0.184 OA 
HETATM    3  O   UNL     1     -11.175   5.856  68.949  1.00  0.00    -0.291 OA 
HETATM    4  C   UNL     1     -10.983   6.576  67.820  1.00  0.00    -0.316 C  
HETATM    5  C   UNL     1      -9.637  10.591  68.782  1.00  0.00    -0.179 C  
HETATM    6  C   UNL     1     -10.352   7.893  68.138  1.00  0.00    -0.200 C  
HETATM    7  C   UNL     1      -9.446  10.057  67.336  1.00  0.00    -0.152 C  
HETATM    8  C   UNL     1     -10.042   8.717  67.136  1.00  0.00    -0.329 C  
HETATM    9  O   UNL     1     -11.320   6.205  66.706  1.00  0.00    -0.188 OA 
ENDROOT
BRANCH   1  10
HETATM   10  C   UNL     1      -8.354   9.380  70.645  1.00  0.00    -0.175 C  
HETATM   11  O   UNL     1      -7.239   9.164  69.761  1.00  0.00    -0.056 OA 
HETATM   12  H   UNL     1      -6.419   9.112  70.238  1.00  0.00     0.000 HD 
BRANCH  10  13
HETATM   13  C   UNL     1      -8.306   8.303  71.765  1.00  0.00    -0.148 C  
HETATM   14  H   UNL     1      -7.821   8.208  73.692  1.00  0.00     0.000 HD 
HETATM   15  O   UNL     1      -7.851   8.866  73.007  1.00  0.00    -0.378 OA 
BRANCH  13  16
HETATM   16  C   UNL     1      -7.404   7.104  71.415  1.00  0.00    -0.078 C  
HETATM   17  O   UNL     1      -7.095   6.311  72.566  1.00  0.00    -0.080 OA 
HETATM   18  H   UNL     1      -6.539   5.571  72.350  1.00  0.00     0.000 HD 
ENDBRANCH  13  16
ENDBRANCH  10  13
ENDBRANCH   1  10
BRANCH   7  19
HETATM   19  N   UNL     1      -8.014   9.997  67.026  1.00  0.00    -0.106 NA 
HETATM   20  H2  UNL     1      -9.273  10.857  64.901  1.00  0.00     0.000 HD 
HETATM   21  H   UNL     1      -7.353   9.653  67.723  1.00  0.00     0.000 HD 
HETATM   22  C   UNL     1      -7.596  10.377  65.876  1.00  0.00    -0.146 C  
HETATM   23  H1  UNL     1      -5.942  10.657  64.681  1.00  0.00     0.000 HD 
HETATM   24  N   UNL     1      -8.260  10.819  64.788  1.00  0.00    -0.362 NA 
HETATM   25  H2  UNL     1      -5.610  10.033  66.300  1.00  0.00     0.000 HD 
HETATM   26  N   UNL     1      -6.274  10.354  65.597  1.00  0.00    -0.117 NA 
HETATM   27  H1  UNL     1      -7.928  11.123  63.872  1.00  0.00     0.000 HD 
ENDBRANCH   7  19
BRANCH   5  28
HETATM   28  N   UNL     1     -10.812  11.496  68.845  1.00  0.00    -0.210 N  
HETATM   29  C   UNL     1     -10.699  12.837  68.538  1.00  0.00    -0.253 C  
HETATM   30  H   UNL     1     -11.720  11.120  69.120  1.00  0.00     0.000 HD 
HETATM   31  C   UNL     1     -12.022  13.547  68.472  1.00  0.00    -0.379 C  
HETATM   32  O   UNL     1      -9.632  13.399  68.318  1.00  0.00    -0.218 OA 
ENDBRANCH   5  28
TORSDOF 5
ENDMDL
MODEL      158
REMARK 921   NORMALIZED FREE ENERGY PREDICTED BY IDOCK:   -3.19 KCAL/MOL
REMARK 922        TOTAL FREE ENERGY PREDICTED BY IDOCK:   -5.71 KCAL/MOL
REMARK 923 INTER-LIGAND FREE ENERGY PREDICTED BY IDOCK:   -6.47 KCAL/MOL
REMARK 924 INTRA-LIGAND FREE ENERGY PREDICTED BY IDOCK:    0.75 KCAL/MOL
REMARK 927      BINDING AFFINITY PREDICTED BY RF-SCORE:    0.00 PKD
ROOT
HETATM    1  C   UNL     1      -9.531  12.426  68.082  1.00  0.00    -0.214 C  
HETATM    2  O   UNL     1      -8.697  11.848  67.074  1.00  0.00    -0.169 OA 
HETATM    3  O   UNL     1      -6.993  10.712  65.500  1.00  0.00    -0.128 OA 
HETATM    4  C   UNL     1      -8.252  10.275  65.268  1.00  0.00    -0.161 C  
HETATM    5  C   UNL     1     -10.997  11.897  68.217  1.00  0.00    -0.230 C  
HETATM    6  C   UNL     1      -9.223  10.968  66.168  1.00  0.00    -0.190 C  
HETATM    7  C   UNL     1     -11.568  11.300  66.901  1.00  0.00     0.090 C  
HETATM    8  C   UNL     1     -10.523  10.698  66.043  1.00  0.00    -0.250 C  
HETATM    9  O   UNL     1      -8.536   9.403  64.462  1.00  0.00    -0.155 OA 
ENDROOT
BRANCH   1  10
HETATM   10  C   UNL     1      -9.512  13.979  67.997  1.00  0.00    -0.206 C  
HETATM   11  O   UNL     1      -8.443  14.540  68.780  1.00  0.00    -0.163 OA 
HETATM   12  H   UNL     1      -8.431  15.488  68.728  1.00  0.00     0.000 HD 
BRANCH  10  13
HETATM   13  C   UNL     1     -10.838  14.680  68.405  1.00  0.00    -0.245 C  
HETATM   14  H   UNL     1     -12.083  16.029  67.639  1.00  0.00     0.000 HD 
HETATM   15  O   UNL     1     -11.273  15.600  67.389  1.00  0.00    -0.306 OA 
BRANCH  13  16
HETATM   16  C   UNL     1     -10.733  15.443  69.740  1.00  0.00    -0.291 C  
HETATM   17  O   UNL     1     -11.048  14.610  70.861  1.00  0.00    -0.517 OA 
HETATM   18  H   UNL     1     -10.983  15.080  71.683  1.00  0.00     0.000 HD 
ENDBRANCH  13  16
ENDBRANCH  10  13
ENDBRANCH   1  10
BRANCH   7  19
HETATM   19  N   UNL     1     -12.258  12.353  66.149  1.00  0.00    -0.609 NA 
HETATM   20  H2  UNL     1      -9.860  12.068  65.142  1.00  0.00     0.000 HD 
HETATM   21  H   UNL     1     -13.203  12.635  66.412  1.00  0.00     0.000 HD 
HETATM   22  C   UNL     1     -11.669  12.917  65.160  1.00  0.00    -0.349 C  
HETATM   23  H1  UNL     1     -11.844  14.314  63.657  1.00  0.00     0.000 HD 
HETATM   24  N   UNL     1     -10.430  12.759  64.652  1.00  0.00    -0.333 NA 
HETATM   25  H2  UNL     1     -13.266  14.132  64.690  1.00  0.00     0.000 HD 
HETATM   26  N   UNL     1     -12.313  13.865  64.444  1.00  0.00    -0.623 NA 
HETATM   27  H1  UNL     1      -9.961  13.208  63.865  1.00  0.00     0.000 HD 
ENDBRANCH   7  19
BRANCH   5  28
HETATM   28  N   UNL     1     -11.146  10.926  69.329  1.00  0.00    -0.229 N  
HETATM   29  C   UNL     1     -11.943  11.206  70.421  1.00  0.00    -0.378 C  
HETATM   30  H   UNL     1     -10.650  10.035  69.286  1.00  0.00     0.000 HD 
HETATM   31  C   UNL     1     -12.120  10.034  71.345  1.00  0.00    -0.498 C  
HETATM   32  O   UNL     1     -12.475  12.293  70.616  1.00  0.00    -0.315 OA 
ENDBRANCH   5  28
TORSDOF 5
ENDMDL
MODEL      159
REMARK 921   NORMALIZED FREE ENERGY PREDICTED BY IDOCK:   -3.08 KCAL/MOL
REMARK 922        TOTAL FREE ENERGY PREDICTED BY IDOCK:   -5.58 KCAL/MOL
REMARK 923 INTER-LIGAND FREE ENERGY PREDICTED BY IDOCK:   -5.00 KCAL/MOL
REMARK 924 INTRA-LIGAND FREE ENERGY PREDICTED BY IDOCK:   -0.58 KCAL/MOL
REMARK 927      BINDING AFFINITY PREDICTED BY RF-SCORE:    0.00 PKD
ROOT
HETATM    1  C   UNL     1      -9.677   7.944  68.567  1.00  0.00    -0.161 C  
HETATM    2  O   UNL     1      -8.355   7.970  68.021  1.00  0.00    -0.124 OA 
HETATM    3  O   UNL     1      -5.876   8.157  67.318  1.00  0.00    -0.040 OA 
HETATM    4  C   UNL     1      -6.346   6.900  67.154  1.00  0.00    -0.044 C  
HETATM    5  C   UNL     1     -10.372   6.555  68.745  1.00  0.00    -0.193 C  
HETATM    6  C   UNL     1      -7.789   6.823  67.536  1.00  0.00    -0.111 C  
HETATM    7  C   UNL     1      -9.851   5.467  67.766  1.00  0.00    -0.143 C  
HETATM    8  C   UNL     1      -8.434   5.665  67.389  1.00  0.00    -0.106 C  
HETATM    9  O   UNL     1      -5.663   5.958  66.782  1.00  0.00    -0.016 OA 
ENDROOT
BRANCH   1  10
HETATM   10  C   UNL     1     -10.610   8.935  67.814  1.00  0.00    -0.202 C  
HETATM   11  O   UNL     1     -10.464   8.819  66.387  1.00  0.00    -0.278 OA 
HETATM   12  H   UNL     1     -11.034   9.424  65.927  1.00  0.00     0.000 HD 
BRANCH  10  13
HETATM   13  C   UNL     1     -10.440  10.430  68.203  1.00  0.00    -0.188 C  
HETATM   14  H   UNL     1      -9.375  11.499  69.499  1.00  0.00     0.000 HD 
HETATM   15  O   UNL     1      -9.478  10.585  69.261  1.00  0.00    -0.206 OA 
BRANCH  13  16
HETATM   16  C   UNL     1     -11.758  11.095  68.643  1.00  0.00    -0.320 C  
HETATM   17  O   UNL     1     -12.254  12.007  67.657  1.00  0.00    -0.484 OA 
HETATM   18  H   UNL     1     -13.067  12.417  67.928  1.00  0.00     0.000 HD 
ENDBRANCH  13  16
ENDBRANCH  10  13
ENDBRANCH   1  10
BRANCH   7  19
HETATM   19  N   UNL     1     -10.675   5.471  66.552  1.00  0.00    -0.536 NA 
HETATM   20  H2  UNL     1      -9.225   3.293  66.547  1.00  0.00     0.000 HD 
HETATM   21  H   UNL     1     -11.292   6.258  66.355  1.00  0.00     0.000 HD 
HETATM   22  C   UNL     1     -10.616   4.480  65.742  1.00  0.00    -0.187 C  
HETATM   23  H1  UNL     1     -11.350   3.675  63.994  1.00  0.00     0.000 HD 
HETATM   24  N   UNL     1      -9.861   3.362  65.753  1.00  0.00    -0.402 NA 
HETATM   25  H2  UNL     1     -12.033   5.239  64.452  1.00  0.00     0.000 HD 
HETATM   26  N   UNL     1     -11.397   4.464  64.639  1.00  0.00    -0.075 NA 
HETATM   27  H1  UNL     1      -9.814   2.573  65.108  1.00  0.00     0.000 HD 
ENDBRANCH   7  19
BRANCH   5  28
HETATM   28  N   UNL     1     -10.302   6.064  70.143  1.00  0.00    -0.206 N  
HETATM   29  C   UNL     1     -11.320   6.315  71.041  1.00  0.00    -0.316 C  
HETATM   30  H   UNL     1      -9.486   5.531  70.447  1.00  0.00     0.000 HD 
HETATM   31  C   UNL     1     -11.161   5.580  72.343  1.00  0.00    -0.305 C  
HETATM   32  O   UNL     1     -12.275   7.046  70.803  1.00  0.00    -0.353 OA 
ENDBRANCH   5  28
TORSDOF 5
ENDMDL
MODEL      160
REMARK 921   NORMALIZED FREE ENERGY PREDICTED BY IDOCK:   -3.02 KCAL/MOL
REMARK 922        TOTAL FREE ENERGY PREDICTED BY IDOCK:   -5.49 KCAL/MOL
REMARK 923 INTER-LIGAND FREE ENERGY PREDICTED BY IDOCK:   -3.95 KCAL/MOL
REMARK 924 INTRA-LIGAND FREE ENERGY PREDICTED BY IDOCK:   -1.54 KCAL/MOL
REMARK 927      BINDING AFFINITY PREDICTED BY RF-SCORE:    0.00 PKD
ROOT
HETATM    1  C   UNL     1      -8.358   6.910  68.229  1.00  0.00    -0.123 C  
HETATM    2  O   UNL     1      -8.295   8.335  68.333  1.00  0.00    -0.129 OA 
HETATM    3  O   UNL     1      -8.042  10.903  68.221  1.00  0.00    -0.113 OA 
HETATM    4  C   UNL     1      -9.310  10.541  68.522  1.00  0.00    -0.168 C  
HETATM    5  C   UNL     1      -9.765   6.229  68.274  1.00  0.00    -0.120 C  
HETATM    6  C   UNL     1      -9.425   9.054  68.611  1.00  0.00    -0.147 C  
HETATM    7  C   UNL     1     -10.835   7.059  69.037  1.00  0.00    -0.182 C  
HETATM    8  C   UNL     1     -10.598   8.518  68.950  1.00  0.00    -0.166 C  
HETATM    9  O   UNL     1     -10.233  11.330  68.657  1.00  0.00    -0.191 OA 
ENDROOT
BRANCH   1  10
HETATM   10  C   UNL     1      -7.387   6.235  69.240  1.00  0.00    -0.092 C  
HETATM   11  O   UNL     1      -7.894   4.968  69.697  1.00  0.00    -0.066 OA 
HETATM   12  H   UNL     1      -7.301   4.556  70.315  1.00  0.00     0.000 HD 
BRANCH  10  13
HETATM   13  C   UNL     1      -7.025   7.095  70.483  1.00  0.00    -0.058 C  
HETATM   14  H   UNL     1      -5.441   8.074  71.182  1.00  0.00     0.000 HD 
HETATM   15  O   UNL     1      -5.663   7.549  70.422  1.00  0.00    -0.024 OA 
BRANCH  13  16
HETATM   16  C   UNL     1      -7.230   6.349  71.816  1.00  0.00    -0.087 C  
HETATM   17  O   UNL     1      -8.603   6.344  72.222  1.00  0.00    -0.118 OA 
HETATM   18  H   UNL     1      -8.730   5.884  73.044  1.00  0.00     0.000 HD 
ENDBRANCH  13  16
ENDBRANCH  10  13
ENDBRANCH   1  10
BRANCH   7  19
HETATM   19  N   UNL     1     -10.846   6.658  70.448  1.00  0.00    -0.248 NA 
HETATM   20  H2  UNL     1     -13.194   7.651  69.863  1.00  0.00     0.000 HD 
HETATM   21  H   UNL     1     -10.004   6.273  70.877  1.00  0.00     0.000 HD 
HETATM   22  C   UNL     1     -11.917   6.794  71.138  1.00  0.00    -0.370 C  
HETATM   23  H1  UNL     1     -12.794   6.504  72.979  1.00  0.00     0.000 HD 
HETATM   24  N   UNL     1     -13.122   7.309  70.822  1.00  0.00    -0.576 NA 
HETATM   25  H2  UNL     1     -11.108   5.988  72.854  1.00  0.00     0.000 HD 
HETATM   26  N   UNL     1     -11.941   6.396  72.430  1.00  0.00    -0.226 NA 
HETATM   27  H1  UNL     1     -13.975   7.417  71.371  1.00  0.00     0.000 HD 
ENDBRANCH   7  19
BRANCH   5  28
HETATM   28  N   UNL     1     -10.261   5.869  66.923  1.00  0.00    -0.190 N  
HETATM   29  C   UNL     1     -10.019   4.623  66.381  1.00  0.00    -0.245 C  
HETATM   30  H   UNL     1     -10.791   6.556  66.385  1.00  0.00     0.000 HD 
HETATM   31  C   UNL     1     -10.758   4.379  65.095  1.00  0.00    -0.144 C  
HETATM   32  O   UNL     1      -9.292   3.783  66.899  1.00  0.00    -0.168 OA 
ENDBRANCH   5  28
TORSDOF 5
ENDMDL
MODEL      161
REMARK 921   NORMALIZED FREE ENERGY PREDICTED BY IDOCK:   -2.98 KCAL/MOL
REMARK 922        TOTAL FREE ENERGY PREDICTED BY IDOCK:   -5.44 KCAL/MOL
REMARK 923 INTER-LIGAND FREE ENERGY PREDICTED BY IDOCK:   -6.40 KCAL/MOL
REMARK 924 INTRA-LIGAND FREE ENERGY PREDICTED BY IDOCK:    0.95 KCAL/MOL
REMARK 927      BINDING AFFINITY PREDICTED BY RF-SCORE:    0.00 PKD
ROOT
HETATM    1  C   UNL     1     -10.678   8.931  70.209  1.00  0.00    -0.221 C  
HETATM    2  O   UNL     1     -10.570   7.507  70.124  1.00  0.00    -0.224 OA 
HETATM    3  O   UNL     1     -10.604   4.954  69.733  1.00  0.00    -0.152 OA 
HETATM    4  C   UNL     1      -9.347   5.450  69.670  1.00  0.00    -0.135 C  
HETATM    5  C   UNL     1      -9.403   9.786  69.910  1.00  0.00    -0.231 C  
HETATM    6  C   UNL     1      -9.348   6.921  69.931  1.00  0.00    -0.150 C  
HETATM    7  C   UNL     1      -8.071   9.032  70.174  1.00  0.00    -0.126 C  
HETATM    8  C   UNL     1      -8.185   7.572  69.959  1.00  0.00    -0.130 C  
HETATM    9  O   UNL     1      -8.361   4.782  69.397  1.00  0.00    -0.076 OA 
ENDROOT
BRANCH   1  10
HETATM   10  C   UNL     1     -11.323   9.359  71.558  1.00  0.00    -0.394 C  
HETATM   11  O   UNL     1     -11.153   8.352  72.571  1.00  0.00    -0.361 OA 
HETATM   12  H   UNL     1     -11.547   8.613  73.395  1.00  0.00     0.000 HD 
BRANCH  10  13
HETATM   13  C   UNL     1     -12.832   9.727  71.483  1.00  0.00    -0.405 C  
HETATM   14  H   UNL     1     -14.024  11.179  72.135  1.00  0.00     0.000 HD 
HETATM   15  O   UNL     1     -13.102  10.955  72.181  1.00  0.00    -0.463 OA 
BRANCH  13  16
HETATM   16  C   UNL     1     -13.752   8.631  72.053  1.00  0.00    -0.426 C  
HETATM   17  O   UNL     1     -14.091   8.874  73.423  1.00  0.00    -1.256 OA 
HETATM   18  H   UNL     1     -14.659   8.198  73.774  1.00  0.00     0.000 HD 
ENDBRANCH  13  16
ENDBRANCH  10  13
ENDBRANCH   1  10
BRANCH   7  19
HETATM   19  N   UNL     1      -7.637   9.281  71.553  1.00  0.00    -0.331 NA 
HETATM   20  H2  UNL     1      -8.733   6.907  71.458  1.00  0.00     0.000 HD 
HETATM   21  H   UNL     1      -7.210  10.173  71.803  1.00  0.00     0.000 HD 
HETATM   22  C   UNL     1      -7.796   8.372  72.443  1.00  0.00    -0.099 C  
HETATM   23  H1  UNL     1      -7.496   7.861  74.415  1.00  0.00     0.000 HD 
HETATM   24  N   UNL     1      -8.365   7.151  72.378  1.00  0.00    -0.108 NA 
HETATM   25  H2  UNL     1      -6.920   9.467  73.953  1.00  0.00     0.000 HD 
HETATM   26  N   UNL     1      -7.369   8.585  73.707  1.00  0.00    -0.343 NA 
HETATM   27  H1  UNL     1      -8.492   6.427  73.086  1.00  0.00     0.000 HD 
ENDBRANCH   7  19
BRANCH   5  28
HETATM   28  N   UNL     1      -9.411  10.349  68.537  1.00  0.00    -0.153 N  
HETATM   29  C   UNL     1     -10.016  11.560  68.264  1.00  0.00    -0.202 C  
HETATM   30  H   UNL     1      -8.962   9.831  67.781  1.00  0.00     0.000 HD 
HETATM   31  C   UNL     1      -9.757  12.053  66.869  1.00  0.00    -0.213 C  
HETATM   32  O   UNL     1     -10.681  12.189  69.079  1.00  0.00    -0.200 OA 
ENDBRANCH   5  28
TORSDOF 5
ENDMDL
MODEL      162
REMARK 921   NORMALIZED FREE ENERGY PREDICTED BY IDOCK:   -2.95 KCAL/MOL
REMARK 922        TOTAL FREE ENERGY PREDICTED BY IDOCK:   -5.41 KCAL/MOL
REMARK 923 INTER-LIGAND FREE ENERGY PREDICTED BY IDOCK:   -3.57 KCAL/MOL
REMARK 924 INTRA-LIGAND FREE ENERGY PREDICTED BY IDOCK:   -1.84 KCAL/MOL
REMARK 927      BINDING AFFINITY PREDICTED BY RF-SCORE:    0.00 PKD
ROOT
HETATM    1  C   UNL     1      -8.234   7.046  65.906  1.00  0.00    -0.133 C  
HETATM    2  O   UNL     1      -8.726   8.363  66.172  1.00  0.00    -0.133 OA 
HETATM    3  O   UNL     1      -9.594  10.791  66.327  1.00  0.00    -0.184 OA 
HETATM    4  C   UNL     1     -10.421   9.926  66.958  1.00  0.00    -0.230 C  
HETATM    5  C   UNL     1      -9.136   5.830  66.299  1.00  0.00    -0.147 C  
HETATM    6  C   UNL     1      -9.883   8.534  66.882  1.00  0.00    -0.242 C  
HETATM    7  C   UNL     1     -10.123   6.135  67.460  1.00  0.00    -0.158 C  
HETATM    8  C   UNL     1     -10.545   7.553  67.497  1.00  0.00    -0.331 C  
HETATM    9  O   UNL     1     -11.479  10.246  67.477  1.00  0.00    -0.323 OA 
ENDROOT
BRANCH   1  10
HETATM   10  C   UNL     1      -6.794   6.867  66.465  1.00  0.00    -0.068 C  
HETATM   11  O   UNL     1      -6.604   5.557  67.030  1.00  0.00    -0.053 OA 
HETATM   12  H   UNL     1      -5.724   5.447  67.371  1.00  0.00     0.000 HD 
BRANCH  10  13
HETATM   13  C   UNL     1      -6.358   7.922  67.519  1.00  0.00    -0.055 C  
HETATM   14  H   UNL     1      -5.047   9.412  67.650  1.00  0.00     0.000 HD 
HETATM   15  O   UNL     1      -5.314   8.768  67.006  1.00  0.00    -0.035 OA 
BRANCH  13  16
HETATM   16  C   UNL     1      -5.870   7.295  68.839  1.00  0.00    -0.019 C  
HETATM   17  O   UNL     1      -6.960   6.906  69.683  1.00  0.00    -0.059 OA 
HETATM   18  H   UNL     1      -6.659   6.518  70.497  1.00  0.00     0.000 HD 
ENDBRANCH  13  16
ENDBRANCH  10  13
ENDBRANCH   1  10
BRANCH   7  19
HETATM   19  N   UNL     1      -9.491   5.789  68.738  1.00  0.00    -0.121 NA 
HETATM   20  H2  UNL     1     -10.110   3.566  67.507  1.00  0.00     0.000 HD 
HETATM   21  H   UNL     1      -9.203   6.526  69.382  1.00  0.00     0.000 HD 
HETATM   22  C   UNL     1      -9.302   4.559  69.041  1.00  0.00    -0.148 C  
HETATM   23  H1  UNL     1      -8.540   3.257  70.444  1.00  0.00     0.000 HD 
HETATM   24  N   UNL     1      -9.628   3.421  68.394  1.00  0.00    -0.136 NA 
HETATM   25  H2  UNL     1      -8.380   4.972  70.837  1.00  0.00     0.000 HD 
HETATM   26  N   UNL     1      -8.691   4.237  70.203  1.00  0.00    -0.072 NA 
HETATM   27  H1  UNL     1      -9.477   2.441  68.635  1.00  0.00     0.000 HD 
ENDBRANCH   7  19
BRANCH   5  28
HETATM   28  N   UNL     1      -9.868   5.272  65.136  1.00  0.00    -0.344 N  
HETATM   29  C   UNL     1      -9.762   3.937  64.797  1.00  0.00    -0.187 C  
HETATM   30  H   UNL     1     -10.461   5.885  64.576  1.00  0.00     0.000 HD 
HETATM   31  C   UNL     1     -10.719   3.519  63.716  1.00  0.00    -0.263 C  
HETATM   32  O   UNL     1      -8.983   3.157  65.334  1.00  0.00    -0.131 OA 
ENDBRANCH   5  28
TORSDOF 5
ENDMDL
MODEL      163
REMARK 921   NORMALIZED FREE ENERGY PREDICTED BY IDOCK:   -2.95 KCAL/MOL
REMARK 922        TOTAL FREE ENERGY PREDICTED BY IDOCK:   -5.41 KCAL/MOL
REMARK 923 INTER-LIGAND FREE ENERGY PREDICTED BY IDOCK:   -4.42 KCAL/MOL
REMARK 924 INTRA-LIGAND FREE ENERGY PREDICTED BY IDOCK:   -0.98 KCAL/MOL
REMARK 927      BINDING AFFINITY PREDICTED BY RF-SCORE:    0.00 PKD
ROOT
HETATM    1  C   UNL     1      -9.302   9.074  68.095  1.00  0.00    -0.142 C  
HETATM    2  O   UNL     1      -9.483   9.978  67.001  1.00  0.00    -0.157 OA 
HETATM    3  O   UNL     1      -9.648  11.830  65.208  1.00  0.00    -0.229 OA 
HETATM    4  C   UNL     1      -9.145  10.685  64.694  1.00  0.00    -0.211 C  
HETATM    5  C   UNL     1      -8.497   7.758  67.837  1.00  0.00    -0.122 C  
HETATM    6  C   UNL     1      -9.089   9.619  65.741  1.00  0.00    -0.185 C  
HETATM    7  C   UNL     1      -8.537   7.283  66.358  1.00  0.00    -0.138 C  
HETATM    8  C   UNL     1      -8.665   8.402  65.399  1.00  0.00    -0.175 C  
HETATM    9  O   UNL     1      -8.756  10.565  63.543  1.00  0.00    -0.176 OA 
ENDROOT
BRANCH   1  10
HETATM   10  C   UNL     1     -10.658   8.763  68.790  1.00  0.00    -0.145 C  
HETATM   11  O   UNL     1     -11.629   9.796  68.545  1.00  0.00    -0.490 OA 
HETATM   12  H   UNL     1     -12.457   9.606  68.969  1.00  0.00     0.000 HD 
BRANCH  10  13
HETATM   13  C   UNL     1     -10.576   8.522  70.323  1.00  0.00    -0.226 C  
HETATM   14  H   UNL     1     -11.203   7.162  71.632  1.00  0.00     0.000 HD 
HETATM   15  O   UNL     1     -11.253   7.309  70.695  1.00  0.00    -0.261 OA 
BRANCH  13  16
HETATM   16  C   UNL     1     -11.163   9.680  71.151  1.00  0.00    -0.384 C  
HETATM   17  O   UNL     1     -12.595   9.683  71.131  1.00  0.00    -0.312 OA 
HETATM   18  H   UNL     1     -12.957  10.397  71.642  1.00  0.00     0.000 HD 
ENDBRANCH  13  16
ENDBRANCH  10  13
ENDBRANCH   1  10
BRANCH   7  19
HETATM   19  N   UNL     1      -9.663   6.362  66.174  1.00  0.00    -0.385 NA 
HETATM   20  H2  UNL     1      -7.527   5.252  65.151  1.00  0.00     0.000 HD 
HETATM   21  H   UNL     1     -10.599   6.629  66.481  1.00  0.00     0.000 HD 
HETATM   22  C   UNL     1      -9.468   5.220  65.625  1.00  0.00    -0.081 C  
HETATM   23  H1  UNL     1     -10.341   3.448  65.045  1.00  0.00     0.000 HD 
HETATM   24  N   UNL     1      -8.358   4.661  65.101  1.00  0.00    -0.121 NA 
HETATM   25  H2  UNL     1     -11.428   4.611  65.810  1.00  0.00     0.000 HD 
HETATM   26  N   UNL     1     -10.497   4.356  65.482  1.00  0.00    -0.251 NA 
HETATM   27  H1  UNL     1      -8.202   3.753  64.664  1.00  0.00     0.000 HD 
ENDBRANCH   7  19
BRANCH   5  28
HETATM   28  N   UNL     1      -7.094   7.854  68.308  1.00  0.00    -0.085 N  
HETATM   29  C   UNL     1      -6.703   7.294  69.509  1.00  0.00    -0.045 C  
HETATM   30  H   UNL     1      -6.405   8.342  67.735  1.00  0.00     0.000 HD 
HETATM   31  C   UNL     1      -5.216   7.326  69.724  1.00  0.00    -0.015 C  
HETATM   32  O   UNL     1      -7.481   6.799  70.316  1.00  0.00    -0.085 OA 
ENDBRANCH   5  28
TORSDOF 5
ENDMDL
MODEL      164
REMARK 921   NORMALIZED FREE ENERGY PREDICTED BY IDOCK:   -2.88 KCAL/MOL
REMARK 922        TOTAL FREE ENERGY PREDICTED BY IDOCK:   -5.31 KCAL/MOL
REMARK 923 INTER-LIGAND FREE ENERGY PREDICTED BY IDOCK:   -5.76 KCAL/MOL
REMARK 924 INTRA-LIGAND FREE ENERGY PREDICTED BY IDOCK:    0.45 KCAL/MOL
REMARK 927      BINDING AFFINITY PREDICTED BY RF-SCORE:    0.00 PKD
ROOT
HETATM    1  C   UNL     1      -9.985  10.796  67.495  1.00  0.00    -0.174 C  
HETATM    2  O   UNL     1     -10.197  11.401  66.216  1.00  0.00    -0.219 OA 
HETATM    3  O   UNL     1     -10.426  12.757  64.030  1.00  0.00    -0.406 OA 
HETATM    4  C   UNL     1      -9.884  11.539  63.804  1.00  0.00    -0.319 C  
HETATM    5  C   UNL     1      -9.136   9.484  67.557  1.00  0.00    -0.130 C  
HETATM    6  C   UNL     1      -9.791  10.761  65.077  1.00  0.00    -0.288 C  
HETATM    7  C   UNL     1      -9.159   8.663  66.238  1.00  0.00    -0.186 C  
HETATM    8  C   UNL     1      -9.325   9.512  65.037  1.00  0.00    -0.294 C  
HETATM    9  O   UNL     1      -9.491  11.156  62.713  1.00  0.00    -0.327 OA 
ENDROOT
BRANCH   1  10
HETATM   10  C   UNL     1     -11.329  10.618  68.256  1.00  0.00    -0.289 C  
HETATM   11  O   UNL     1     -12.248  11.688  67.968  1.00  0.00    -0.551 OA 
HETATM   12  H   UNL     1     -13.069  11.579  68.433  1.00  0.00     0.000 HD 
BRANCH  10  13
HETATM   13  C   UNL     1     -11.204  10.483  69.799  1.00  0.00    -0.298 C  
HETATM   14  H   UNL     1     -11.282   9.033  71.159  1.00  0.00     0.000 HD 
HETATM   15  O   UNL     1     -11.359   9.115  70.215  1.00  0.00    -0.250 OA 
BRANCH  13  16
HETATM   16  C   UNL     1     -12.224  11.344  70.568  1.00  0.00    -0.386 C  
HETATM   17  O   UNL     1     -12.876  10.604  71.606  1.00  0.00    -0.414 OA 
HETATM   18  H   UNL     1     -13.505  11.135  72.080  1.00  0.00     0.000 HD 
ENDBRANCH  13  16
ENDBRANCH  10  13
ENDBRANCH   1  10
BRANCH   7  19
HETATM   19  N   UNL     1     -10.254   7.689  66.292  1.00  0.00    -0.445 NA 
HETATM   20  H2  UNL     1      -8.019   6.435  66.816  1.00  0.00     0.000 HD 
HETATM   21  H   UNL     1     -11.209   7.980  66.084  1.00  0.00     0.000 HD 
HETATM   22  C   UNL     1     -10.005   6.470  66.601  1.00  0.00    -0.143 C  
HETATM   23  H1  UNL     1     -10.816   4.606  66.930  1.00  0.00     0.000 HD 
HETATM   24  N   UNL     1      -8.844   5.837  66.869  1.00  0.00    -0.113 NA 
HETATM   25  H2  UNL     1     -11.974   5.870  66.499  1.00  0.00     0.000 HD 
HETATM   26  N   UNL     1     -11.015   5.576  66.683  1.00  0.00    -0.177 NA 
HETATM   27  H1  UNL     1      -8.646   4.868  67.116  1.00  0.00     0.000 HD 
ENDBRANCH   7  19
BRANCH   5  28
HETATM   28  N   UNL     1      -7.736   9.738  67.980  1.00  0.00    -0.083 N  
HETATM   29  C   UNL     1      -7.184  11.001  67.902  1.00  0.00    -0.086 C  
HETATM   30  H   UNL     1      -7.172   8.965  68.334  1.00  0.00     0.000 HD 
HETATM   31  C   UNL     1      -5.831  11.099  68.549  1.00  0.00    -0.042 C  
HETATM   32  O   UNL     1      -7.741  11.958  67.378  1.00  0.00    -0.139 OA 
ENDBRANCH   5  28
TORSDOF 5
ENDMDL
MODEL      165
REMARK 921   NORMALIZED FREE ENERGY PREDICTED BY IDOCK:   -2.87 KCAL/MOL
REMARK 922        TOTAL FREE ENERGY PREDICTED BY IDOCK:   -5.30 KCAL/MOL
REMARK 923 INTER-LIGAND FREE ENERGY PREDICTED BY IDOCK:   -4.17 KCAL/MOL
REMARK 924 INTRA-LIGAND FREE ENERGY PREDICTED BY IDOCK:   -1.13 KCAL/MOL
REMARK 927      BINDING AFFINITY PREDICTED BY RF-SCORE:    0.00 PKD
ROOT
HETATM    1  C   UNL     1      -8.355   9.684  69.985  1.00  0.00    -0.182 C  
HETATM    2  O   UNL     1      -9.048   8.655  70.697  1.00  0.00    -0.148 OA 
HETATM    3  O   UNL     1     -10.287   6.999  72.245  1.00  0.00    -0.189 OA 
HETATM    4  C   UNL     1     -10.971   7.214  71.098  1.00  0.00    -0.248 C  
HETATM    5  C   UNL     1      -9.057  10.318  68.740  1.00  0.00    -0.159 C  
HETATM    6  C   UNL     1     -10.221   8.150  70.206  1.00  0.00    -0.200 C  
HETATM    7  C   UNL     1     -10.084   9.375  68.055  1.00  0.00    -0.191 C  
HETATM    8  C   UNL     1     -10.724   8.437  69.005  1.00  0.00    -0.101 C  
HETATM    9  O   UNL     1     -12.068   6.736  70.856  1.00  0.00    -0.377 OA 
ENDROOT
BRANCH   1  10
HETATM   10  C   UNL     1      -6.907   9.238  69.633  1.00  0.00    -0.055 C  
HETATM   11  O   UNL     1      -6.874   8.443  68.434  1.00  0.00    -0.063 OA 
HETATM   12  H   UNL     1      -5.990   8.171  68.219  1.00  0.00     0.000 HD 
BRANCH  10  13
HETATM   13  C   UNL     1      -6.163   8.462  70.755  1.00  0.00    -0.033 C  
HETATM   14  H   UNL     1      -6.298   6.696  71.658  1.00  0.00     0.000 HD 
HETATM   15  O   UNL     1      -6.753   7.170  70.972  1.00  0.00    -0.047 OA 
BRANCH  13  16
HETATM   16  C   UNL     1      -6.136   9.217  72.098  1.00  0.00     0.014 C  
HETATM   17  O   UNL     1      -7.101   8.702  73.022  1.00  0.00    -0.297 OA 
HETATM   18  H   UNL     1      -7.084   9.167  73.851  1.00  0.00     0.000 HD 
ENDBRANCH  13  16
ENDBRANCH  10  13
ENDBRANCH   1  10
BRANCH   7  19
HETATM   19  N   UNL     1      -9.412   8.607  67.002  1.00  0.00    -0.160 NA 
HETATM   20  H2  UNL     1     -10.440  10.754  65.916  1.00  0.00     0.000 HD 
HETATM   21  H   UNL     1      -8.972   7.713  67.222  1.00  0.00     0.000 HD 
HETATM   22  C   UNL     1      -9.380   9.063  65.805  1.00  0.00    -0.236 C  
HETATM   23  H1  UNL     1      -8.710   8.738  63.885  1.00  0.00     0.000 HD 
HETATM   24  N   UNL     1      -9.917  10.174  65.259  1.00  0.00    -0.317 NA 
HETATM   25  H2  UNL     1      -8.273   7.493  65.061  1.00  0.00     0.000 HD 
HETATM   26  N   UNL     1      -8.735   8.374  64.838  1.00  0.00    -0.084 NA 
HETATM   27  H1  UNL     1      -9.892  10.537  64.307  1.00  0.00     0.000 HD 
ENDBRANCH   7  19
BRANCH   5  28
HETATM   28  N   UNL     1      -9.687  11.625  69.052  1.00  0.00    -0.413 N  
HETATM   29  C   UNL     1      -9.757  12.629  68.107  1.00  0.00    -0.219 C  
HETATM   30  H   UNL     1     -10.076  11.783  69.982  1.00  0.00     0.000 HD 
HETATM   31  C   UNL     1     -10.594  13.799  68.543  1.00  0.00    -0.261 C  
HETATM   32  O   UNL     1      -9.211  12.574  67.011  1.00  0.00    -0.200 OA 
ENDBRANCH   5  28
TORSDOF 5
ENDMDL
MODEL      166
REMARK 921   NORMALIZED FREE ENERGY PREDICTED BY IDOCK:   -2.86 KCAL/MOL
REMARK 922        TOTAL FREE ENERGY PREDICTED BY IDOCK:   -5.29 KCAL/MOL
REMARK 923 INTER-LIGAND FREE ENERGY PREDICTED BY IDOCK:   -4.40 KCAL/MOL
REMARK 924 INTRA-LIGAND FREE ENERGY PREDICTED BY IDOCK:   -0.88 KCAL/MOL
REMARK 927      BINDING AFFINITY PREDICTED BY RF-SCORE:    0.00 PKD
ROOT
HETATM    1  C   UNL     1      -8.921   9.166  66.791  1.00  0.00    -0.128 C  
HETATM    2  O   UNL     1      -8.375   9.808  67.947  1.00  0.00    -0.113 OA 
HETATM    3  O   UNL     1      -7.155  10.734  70.027  1.00  0.00    -0.144 OA 
HETATM    4  C   UNL     1      -7.358  11.697  69.100  1.00  0.00    -0.032 C  
HETATM    5  C   UNL     1      -9.022   9.993  65.468  1.00  0.00    -0.174 C  
HETATM    6  C   UNL     1      -8.092  11.146  67.920  1.00  0.00    -0.119 C  
HETATM    7  C   UNL     1      -9.122  11.527  65.698  1.00  0.00    -0.126 C  
HETATM    8  C   UNL     1      -8.425  11.970  66.926  1.00  0.00    -0.172 C  
HETATM    9  O   UNL     1      -6.955  12.845  69.206  1.00  0.00    -0.066 OA 
ENDROOT
BRANCH   1  10
HETATM   10  C   UNL     1     -10.281   8.488  67.122  1.00  0.00    -0.284 C  
HETATM   11  O   UNL     1     -11.300   9.461  67.418  1.00  0.00    -0.269 OA 
HETATM   12  H   UNL     1     -12.131   9.047  67.620  1.00  0.00     0.000 HD 
BRANCH  10  13
HETATM   13  C   UNL     1     -10.241   7.454  68.280  1.00  0.00    -0.183 C  
HETATM   14  H   UNL     1     -11.480   6.149  69.129  1.00  0.00     0.000 HD 
HETATM   15  O   UNL     1     -11.504   6.781  68.420  1.00  0.00    -0.047 OA 
BRANCH  13  16
HETATM   16  C   UNL     1      -9.870   8.079  69.638  1.00  0.00    -0.184 C  
HETATM   17  O   UNL     1     -10.611   9.276  69.899  1.00  0.00    -0.208 OA 
HETATM   18  H   UNL     1     -10.382   9.661  70.737  1.00  0.00     0.000 HD 
ENDBRANCH  13  16
ENDBRANCH  10  13
ENDBRANCH   1  10
BRANCH   7  19
HETATM   19  N   UNL     1     -10.534  11.914  65.781  1.00  0.00    -0.247 NA 
HETATM   20  H2  UNL     1      -9.502  13.046  63.660  1.00  0.00     0.000 HD 
HETATM   21  H   UNL     1     -11.107  11.596  66.563  1.00  0.00     0.000 HD 
HETATM   22  C   UNL     1     -11.045  12.654  64.868  1.00  0.00    -0.296 C  
HETATM   23  H1  UNL     1     -12.760  13.575  64.197  1.00  0.00     0.000 HD 
HETATM   24  N   UNL     1     -10.498  13.231  63.778  1.00  0.00    -0.561 NA 
HETATM   25  H2  UNL     1     -12.934  12.650  65.692  1.00  0.00     0.000 HD 
HETATM   26  N   UNL     1     -12.354  12.987  64.924  1.00  0.00    -0.441 NA 
HETATM   27  H1  UNL     1     -10.905  13.820  63.051  1.00  0.00     0.000 HD 
ENDBRANCH   7  19
BRANCH   5  28
HETATM   28  N   UNL     1      -7.918   9.686  64.525  1.00  0.00    -0.131 N  
HETATM   29  C   UNL     1      -8.162   9.478  63.182  1.00  0.00    -0.160 C  
HETATM   30  H   UNL     1      -6.962   9.627  64.875  1.00  0.00     0.000 HD 
HETATM   31  C   UNL     1      -6.909   9.371  62.359  1.00  0.00    -0.093 C  
HETATM   32  O   UNL     1      -9.285   9.407  62.696  1.00  0.00    -0.226 OA 
ENDBRANCH   5  28
TORSDOF 5
ENDMDL
MODEL      167
REMARK 921   NORMALIZED FREE ENERGY PREDICTED BY IDOCK:   -2.75 KCAL/MOL
REMARK 922        TOTAL FREE ENERGY PREDICTED BY IDOCK:   -5.14 KCAL/MOL
REMARK 923 INTER-LIGAND FREE ENERGY PREDICTED BY IDOCK:   -4.58 KCAL/MOL
REMARK 924 INTRA-LIGAND FREE ENERGY PREDICTED BY IDOCK:   -0.56 KCAL/MOL
REMARK 927      BINDING AFFINITY PREDICTED BY RF-SCORE:    0.00 PKD
ROOT
HETATM    1  C   UNL     1      -8.410   8.417  67.083  1.00  0.00    -0.122 C  
HETATM    2  O   UNL     1      -7.838   8.463  68.394  1.00  0.00    -0.109 OA 
HETATM    3  O   UNL     1      -6.557   8.369  70.635  1.00  0.00    -0.036 OA 
HETATM    4  C   UNL     1      -6.889   9.638  70.305  1.00  0.00    -0.107 C  
HETATM    5  C   UNL     1      -8.656   9.770  66.339  1.00  0.00    -0.124 C  
HETATM    6  C   UNL     1      -7.656   9.664  69.022  1.00  0.00    -0.076 C  
HETATM    7  C   UNL     1      -8.852  10.980  67.294  1.00  0.00    -0.135 C  
HETATM    8  C   UNL     1      -8.112  10.832  68.567  1.00  0.00    -0.133 C  
HETATM    9  O   UNL     1      -6.565  10.621  70.953  1.00  0.00    -0.333 OA 
ENDROOT
BRANCH   1  10
HETATM   10  C   UNL     1      -9.693   7.538  67.066  1.00  0.00    -0.198 C  
HETATM   11  O   UNL     1     -10.811   8.221  67.662  1.00  0.00    -0.483 OA 
HETATM   12  H   UNL     1     -11.595   7.685  67.652  1.00  0.00     0.000 HD 
BRANCH  10  13
HETATM   13  C   UNL     1      -9.552   6.147  67.745  1.00  0.00    -0.114 C  
HETATM   14  H   UNL     1      -8.169   4.728  67.911  1.00  0.00     0.000 HD 
HETATM   15  O   UNL     1      -8.255   5.578  67.496  1.00  0.00    -0.101 OA 
BRANCH  13  16
HETATM   16  C   UNL     1     -10.622   5.138  67.287  1.00  0.00    -0.066 C  
HETATM   17  O   UNL     1     -11.240   5.532  66.057  1.00  0.00    -0.771 OA 
HETATM   18  H   UNL     1     -11.900   4.910  65.774  1.00  0.00     0.000 HD 
ENDBRANCH  13  16
ENDBRANCH  10  13
ENDBRANCH   1  10
BRANCH   7  19
HETATM   19  N   UNL     1     -10.280  11.141  67.586  1.00  0.00    -0.178 NA 
HETATM   20  H2  UNL     1      -8.964  12.971  68.914  1.00  0.00     0.000 HD 
HETATM   21  H   UNL     1     -10.962  10.497  67.184  1.00  0.00     0.000 HD 
HETATM   22  C   UNL     1     -10.669  12.094  68.350  1.00  0.00    -0.228 C  
HETATM   23  H1  UNL     1     -12.295  13.026  69.203  1.00  0.00     0.000 HD 
HETATM   24  N   UNL     1      -9.976  13.032  69.029  1.00  0.00    -0.410 NA 
HETATM   25  H2  UNL     1     -12.671  11.639  68.175  1.00  0.00     0.000 HD 
HETATM   26  N   UNL     1     -11.987  12.267  68.596  1.00  0.00    -0.286 NA 
HETATM   27  H1  UNL     1     -10.285  13.791  69.636  1.00  0.00     0.000 HD 
ENDBRANCH   7  19
BRANCH   5  28
HETATM   28  N   UNL     1      -7.596  10.068  65.344  1.00  0.00    -0.132 N  
HETATM   29  C   UNL     1      -7.696   9.627  64.039  1.00  0.00    -0.128 C  
HETATM   30  H   UNL     1      -6.778  10.608  65.630  1.00  0.00     0.000 HD 
HETATM   31  C   UNL     1      -6.629  10.185  63.139  1.00  0.00    -0.136 C  
HETATM   32  O   UNL     1      -8.575   8.873  63.640  1.00  0.00    -0.175 OA 
ENDBRANCH   5  28
TORSDOF 5
ENDMDL
MODEL      168
REMARK 921   NORMALIZED FREE ENERGY PREDICTED BY IDOCK:   -2.57 KCAL/MOL
REMARK 922        TOTAL FREE ENERGY PREDICTED BY IDOCK:   -4.92 KCAL/MOL
REMARK 923 INTER-LIGAND FREE ENERGY PREDICTED BY IDOCK:   -5.23 KCAL/MOL
REMARK 924 INTRA-LIGAND FREE ENERGY PREDICTED BY IDOCK:    0.31 KCAL/MOL
REMARK 927      BINDING AFFINITY PREDICTED BY RF-SCORE:    0.00 PKD
ROOT
HETATM    1  C   UNL     1      -9.073   8.543  68.332  1.00  0.00    -0.139 C  
HETATM    2  O   UNL     1      -9.867   7.507  68.920  1.00  0.00    -0.154 OA 
HETATM    3  O   UNL     1     -11.013   5.486  70.049  1.00  0.00    -0.301 OA 
HETATM    4  C   UNL     1     -11.442   6.657  70.573  1.00  0.00    -0.376 C  
HETATM    5  C   UNL     1      -9.174   9.981  68.938  1.00  0.00    -0.169 C  
HETATM    6  C   UNL     1     -10.789   7.812  69.884  1.00  0.00    -0.226 C  
HETATM    7  C   UNL     1     -10.527  10.266  69.647  1.00  0.00    -0.253 C  
HETATM    8  C   UNL     1     -11.132   9.051  70.237  1.00  0.00    -0.263 C  
HETATM    9  O   UNL     1     -12.223   6.743  71.507  1.00  0.00    -0.338 OA 
ENDROOT
BRANCH   1  10
HETATM   10  C   UNL     1      -9.264   8.580  66.789  1.00  0.00    -0.172 C  
HETATM   11  O   UNL     1     -10.453   7.879  66.384  1.00  0.00    -0.464 OA 
HETATM   12  H   UNL     1     -10.569   7.902  65.442  1.00  0.00     0.000 HD 
BRANCH  10  13
HETATM   13  C   UNL     1      -8.067   8.033  65.961  1.00  0.00    -0.110 C  
HETATM   14  H   UNL     1      -6.093   7.891  66.151  1.00  0.00     0.000 HD 
HETATM   15  O   UNL     1      -6.824   8.225  66.657  1.00  0.00    -0.066 OA 
BRANCH  13  16
HETATM   16  C   UNL     1      -7.950   8.679  64.567  1.00  0.00    -0.144 C  
HETATM   17  O   UNL     1      -8.208  10.087  64.604  1.00  0.00    -0.149 OA 
HETATM   18  H   UNL     1      -8.135  10.485  63.745  1.00  0.00     0.000 HD 
ENDBRANCH  13  16
ENDBRANCH  10  13
ENDBRANCH   1  10
BRANCH   7  19
HETATM   19  N   UNL     1     -11.467  10.850  68.684  1.00  0.00    -0.290 NA 
HETATM   20  H2  UNL     1     -10.026  12.785  69.696  1.00  0.00     0.000 HD 
HETATM   21  H   UNL     1     -12.141  10.256  68.202  1.00  0.00     0.000 HD 
HETATM   22  C   UNL     1     -11.437  12.110  68.452  1.00  0.00    -0.304 C  
HETATM   23  H1  UNL     1     -12.255  13.651  67.357  1.00  0.00     0.000 HD 
HETATM   24  N   UNL     1     -10.687  13.097  68.983  1.00  0.00    -0.409 NA 
HETATM   25  H2  UNL     1     -12.937  12.052  67.041  1.00  0.00     0.000 HD 
HETATM   26  N   UNL     1     -12.279  12.648  67.542  1.00  0.00    -0.340 NA 
HETATM   27  H1  UNL     1     -10.662  14.100  68.798  1.00  0.00     0.000 HD 
ENDBRANCH   7  19
BRANCH   5  28
HETATM   28  N   UNL     1      -8.043  10.291  69.846  1.00  0.00    -0.342 N  
HETATM   29  C   UNL     1      -7.103   9.333  70.171  1.00  0.00    -0.072 C  
HETATM   30  H   UNL     1      -7.958  11.230  70.238  1.00  0.00     0.000 HD 
HETATM   31  C   UNL     1      -5.936   9.881  70.943  1.00  0.00    -0.088 C  
HETATM   32  O   UNL     1      -7.192   8.154  69.848  1.00  0.00    -0.058 OA 
ENDBRANCH   5  28
TORSDOF 5
ENDMDL
MODEL      169
REMARK 921   NORMALIZED FREE ENERGY PREDICTED BY IDOCK:   -2.48 KCAL/MOL
REMARK 922        TOTAL FREE ENERGY PREDICTED BY IDOCK:   -4.80 KCAL/MOL
REMARK 923 INTER-LIGAND FREE ENERGY PREDICTED BY IDOCK:   -4.21 KCAL/MOL
REMARK 924 INTRA-LIGAND FREE ENERGY PREDICTED BY IDOCK:   -0.60 KCAL/MOL
REMARK 927      BINDING AFFINITY PREDICTED BY RF-SCORE:    0.00 PKD
ROOT
HETATM    1  C   UNL     1      -8.574  17.492  66.184  1.00  0.00    -0.133 C  
HETATM    2  O   UNL     1      -8.917  18.243  67.352  1.00  0.00    -0.254 OA 
HETATM    3  O   UNL     1      -9.709  19.796  69.258  1.00  0.00    -0.348 OA 
HETATM    4  C   UNL     1      -9.975  18.499  69.531  1.00  0.00     0.245 C  
HETATM    5  C   UNL     1      -9.011  15.992  66.118  1.00  0.00    -0.345 C  
HETATM    6  C   UNL     1      -9.481  17.617  68.430  1.00  0.00    -0.298 C  
HETATM    7  C   UNL     1      -9.189  15.332  67.513  1.00  0.00    -0.199 C  
HETATM    8  C   UNL     1      -9.612  16.296  68.554  1.00  0.00    -0.222 C  
HETATM    9  O   UNL     1     -10.574  18.118  70.525  1.00  0.00     1.147 OA 
ENDROOT
BRANCH   1  10
HETATM   10  C   UNL     1      -7.061  17.638  65.854  1.00  0.00    -0.215 C  
HETATM   11  O   UNL     1      -6.260  16.720  66.619  1.00  0.00    -0.224 OA 
HETATM   12  H   UNL     1      -5.336  16.810  66.417  1.00  0.00     0.000 HD 
BRANCH  10  13
HETATM   13  C   UNL     1      -6.479  19.067  66.039  1.00  0.00    -0.211 C  
HETATM   14  H   UNL     1      -5.709  20.160  67.512  1.00  0.00     0.000 HD 
HETATM   15  O   UNL     1      -6.064  19.287  67.398  1.00  0.00    -0.189 OA 
BRANCH  13  16
HETATM   16  C   UNL     1      -7.468  20.181  65.646  1.00  0.00    -0.221 C  
HETATM   17  O   UNL     1      -7.961  20.889  66.789  1.00  0.00    -0.554 OA 
HETATM   18  H   UNL     1      -8.570  21.576  66.547  1.00  0.00     0.000 HD 
ENDBRANCH  13  16
ENDBRANCH  10  13
ENDBRANCH   1  10
BRANCH   7  19
HETATM   19  N   UNL     1      -7.925  14.710  67.922  1.00  0.00    -0.132 NA 
HETATM   20  H2  UNL     1      -9.856  13.003  68.369  1.00  0.00     0.000 HD 
HETATM   21  H   UNL     1      -7.052  15.233  67.853  1.00  0.00     0.000 HD 
HETATM   22  C   UNL     1      -7.922  13.508  68.364  1.00  0.00    -0.142 C  
HETATM   23  H1  UNL     1      -6.755  11.962  69.062  1.00  0.00     0.000 HD 
HETATM   24  N   UNL     1      -8.929  12.638  68.590  1.00  0.00    -0.392 NA 
HETATM   25  H2  UNL     1      -5.879  13.432  68.620  1.00  0.00     0.000 HD 
HETATM   26  N   UNL     1      -6.756  12.919  68.711  1.00  0.00    -0.088 NA 
HETATM   27  H1  UNL     1      -8.927  11.681  68.941  1.00  0.00     0.000 HD 
ENDBRANCH   7  19
BRANCH   5  28
HETATM   28  N   UNL     1     -10.232  15.796  65.298  1.00  0.00    -0.338 N  
HETATM   29  C   UNL     1     -10.931  14.606  65.329  1.00  0.00    -0.367 C  
HETATM   30  H   UNL     1     -10.562  16.555  64.701  1.00  0.00     0.000 HD 
HETATM   31  C   UNL     1     -12.237  14.662  64.586  1.00  0.00    -0.447 C  
HETATM   32  O   UNL     1     -10.544  13.603  65.917  1.00  0.00    -0.280 OA 
ENDBRANCH   5  28
TORSDOF 5
ENDMDL
MODEL      170
REMARK 921   NORMALIZED FREE ENERGY PREDICTED BY IDOCK:   -2.36 KCAL/MOL
REMARK 922        TOTAL FREE ENERGY PREDICTED BY IDOCK:   -4.64 KCAL/MOL
REMARK 923 INTER-LIGAND FREE ENERGY PREDICTED BY IDOCK:   -3.92 KCAL/MOL
REMARK 924 INTRA-LIGAND FREE ENERGY PREDICTED BY IDOCK:   -0.72 KCAL/MOL
REMARK 927      BINDING AFFINITY PREDICTED BY RF-SCORE:    0.00 PKD
ROOT
HETATM    1  C   UNL     1      -9.652  14.781  67.666  1.00  0.00    -0.208 C  
HETATM    2  O   UNL     1     -10.104  13.681  66.870  1.00  0.00    -0.251 OA 
HETATM    3  O   UNL     1     -10.622  11.702  65.292  1.00  0.00    -0.265 OA 
HETATM    4  C   UNL     1     -10.896  11.396  66.581  1.00  0.00    -0.289 C  
HETATM    5  C   UNL     1      -9.609  14.597  69.218  1.00  0.00    -0.010 C  
HETATM    6  C   UNL     1     -10.619  12.564  67.470  1.00  0.00    -0.220 C  
HETATM    7  C   UNL     1     -10.616  13.539  69.750  1.00  0.00     0.587 C  
HETATM    8  C   UNL     1     -10.881  12.459  68.773  1.00  0.00    -0.263 C  
HETATM    9  O   UNL     1     -11.277  10.298  66.956  1.00  0.00    -0.171 OA 
ENDROOT
BRANCH   1  10
HETATM   10  C   UNL     1     -10.404  16.088  67.287  1.00  0.00    -0.295 C  
HETATM   11  O   UNL     1     -11.732  15.814  66.805  1.00  0.00     0.200 OA 
HETATM   12  H   UNL     1     -12.192  16.613  66.574  1.00  0.00     0.000 HD 
BRANCH  10  13
HETATM   13  C   UNL     1      -9.682  16.989  66.247  1.00  0.00    -0.283 C  
HETATM   14  H   UNL     1      -8.681  18.708  66.236  1.00  0.00     0.000 HD 
HETATM   15  O   UNL     1      -9.122  18.157  66.872  1.00  0.00    -0.260 OA 
BRANCH  13  16
HETATM   16  C   UNL     1     -10.602  17.446  65.099  1.00  0.00     0.201 C  
HETATM   17  O   UNL     1     -11.155  18.745  65.338  1.00  0.00    -0.333 OA 
HETATM   18  H   UNL     1     -11.722  19.027  64.630  1.00  0.00     0.000 HD 
ENDBRANCH  13  16
ENDBRANCH  10  13
ENDBRANCH   1  10
BRANCH   7  19
HETATM   19  N   UNL     1     -11.880  14.200  70.090  1.00  0.00    -0.301 NA 
HETATM   20  H2  UNL     1     -10.199  14.593  72.056  1.00  0.00     0.000 HD 
HETATM   21  H   UNL     1     -12.678  14.135  69.457  1.00  0.00     0.000 HD 
HETATM   22  C   UNL     1     -11.978  14.859  71.184  1.00  0.00    -0.335 C  
HETATM   23  H1  UNL     1     -13.208  16.021  72.358  1.00  0.00     0.000 HD 
HETATM   24  N   UNL     1     -11.100  15.053  72.190  1.00  0.00    -0.381 NA 
HETATM   25  H2  UNL     1     -13.922  15.453  70.845  1.00  0.00     0.000 HD 
HETATM   26  N   UNL     1     -13.131  15.497  71.487  1.00  0.00    -0.471 NA 
HETATM   27  H1  UNL     1     -11.178  15.577  73.062  1.00  0.00     0.000 HD 
ENDBRANCH   7  19
BRANCH   5  28
HETATM   28  N   UNL     1      -8.242  14.299  69.713  1.00  0.00    -0.039 N  
HETATM   29  C   UNL     1      -7.257  15.267  69.718  1.00  0.00    -0.146 C  
HETATM   30  H   UNL     1      -8.027  13.363  70.057  1.00  0.00     0.000 HD 
HETATM   31  C   UNL     1      -6.004  14.837  70.428  1.00  0.00    -0.159 C  
HETATM   32  O   UNL     1      -7.388  16.376  69.214  1.00  0.00    -0.228 OA 
ENDBRANCH   5  28
TORSDOF 5
ENDMDL
MODEL      171
REMARK 921   NORMALIZED FREE ENERGY PREDICTED BY IDOCK:   -2.10 KCAL/MOL
REMARK 922        TOTAL FREE ENERGY PREDICTED BY IDOCK:   -4.30 KCAL/MOL
REMARK 923 INTER-LIGAND FREE ENERGY PREDICTED BY IDOCK:   -3.60 KCAL/MOL
REMARK 924 INTRA-LIGAND FREE ENERGY PREDICTED BY IDOCK:   -0.70 KCAL/MOL
REMARK 927      BINDING AFFINITY PREDICTED BY RF-SCORE:    0.00 PKD
ROOT
HETATM    1  C   UNL     1     -10.770   7.852  67.066  1.00  0.00    -0.219 C  
HETATM    2  O   UNL     1     -10.541   6.492  66.687  1.00  0.00    -0.230 OA 
HETATM    3  O   UNL     1     -10.417   4.052  65.847  1.00  0.00    -0.042 OA 
HETATM    4  C   UNL     1      -9.295   4.742  65.537  1.00  0.00    -0.159 C  
HETATM    5  C   UNL     1      -9.741   8.931  66.594  1.00  0.00    -0.237 C  
HETATM    6  C   UNL     1      -9.377   6.140  66.060  1.00  0.00    -0.057 C  
HETATM    7  C   UNL     1      -8.318   8.365  66.336  1.00  0.00    -0.116 C  
HETATM    8  C   UNL     1      -8.334   6.953  65.890  1.00  0.00    -0.137 C  
HETATM    9  O   UNL     1      -8.370   4.286  64.883  1.00  0.00    -0.104 OA 
ENDROOT
BRANCH   1  10
HETATM   10  C   UNL     1     -11.027   7.968  68.595  1.00  0.00     0.206 C  
HETATM   11  O   UNL     1     -11.149   9.340  69.010  1.00  0.00    -0.431 OA 
HETATM   12  H   UNL     1     -11.306   9.411  69.945  1.00  0.00     0.000 HD 
BRANCH  10  13
HETATM   13  C   UNL     1      -9.969   7.276  69.498  1.00  0.00    -0.170 C  
HETATM   14  H   UNL     1      -9.551   5.436  70.126  1.00  0.00     0.000 HD 
HETATM   15  O   UNL     1     -10.198   5.858  69.574  1.00  0.00    -0.186 OA 
BRANCH  13  16
HETATM   16  C   UNL     1      -9.932   7.840  70.931  1.00  0.00    -0.183 C  
HETATM   17  O   UNL     1      -8.753   8.616  71.173  1.00  0.00    -0.160 OA 
HETATM   18  H   UNL     1      -8.730   8.964  72.056  1.00  0.00     0.000 HD 
ENDBRANCH  13  16
ENDBRANCH  10  13
ENDBRANCH   1  10
BRANCH   7  19
HETATM   19  N   UNL     1      -7.523   8.470  67.564  1.00  0.00    -0.092 NA 
HETATM   20  H2  UNL     1      -5.910   8.744  65.522  1.00  0.00     0.000 HD 
HETATM   21  H   UNL     1      -7.969   8.358  68.474  1.00  0.00     0.000 HD 
HETATM   22  C   UNL     1      -6.265   8.703  67.489  1.00  0.00    -0.053 C  
HETATM   23  H1  UNL     1      -4.533   9.019  68.558  1.00  0.00     0.000 HD 
HETATM   24  N   UNL     1      -5.446   8.842  66.426  1.00  0.00    -0.034 NA 
HETATM   25  H2  UNL     1      -5.983   8.745  69.529  1.00  0.00     0.000 HD 
HETATM   26  N   UNL     1      -5.534   8.833  68.618  1.00  0.00    -0.037 NA 
HETATM   27  H1  UNL     1      -4.445   9.028  66.365  1.00  0.00     0.000 HD 
ENDBRANCH   7  19
BRANCH   5  28
HETATM   28  N   UNL     1     -10.217   9.684  65.408  1.00  0.00    -0.256 N  
HETATM   29  C   UNL     1      -9.939  11.028  65.255  1.00  0.00    -0.266 C  
HETATM   30  H   UNL     1     -10.761   9.200  64.692  1.00  0.00     0.000 HD 
HETATM   31  C   UNL     1     -10.336  11.569  63.909  1.00  0.00    -0.422 C  
HETATM   32  O   UNL     1      -9.403  11.716  66.116  1.00  0.00    -0.216 OA 
ENDBRANCH   5  28
TORSDOF 5
ENDMDL
MODEL      172
REMARK 921   NORMALIZED FREE ENERGY PREDICTED BY IDOCK:   -1.57 KCAL/MOL
REMARK 922        TOTAL FREE ENERGY PREDICTED BY IDOCK:   -3.63 KCAL/MOL
REMARK 923 INTER-LIGAND FREE ENERGY PREDICTED BY IDOCK:   -3.36 KCAL/MOL
REMARK 924 INTRA-LIGAND FREE ENERGY PREDICTED BY IDOCK:   -0.26 KCAL/MOL
REMARK 927      BINDING AFFINITY PREDICTED BY RF-SCORE:    0.00 PKD
ROOT
HETATM    1  C   UNL     1      -8.781   6.734  67.389  1.00  0.00    -0.119 C  
HETATM    2  O   UNL     1      -7.580   6.167  66.856  1.00  0.00    -0.095 OA 
HETATM    3  O   UNL     1      -5.263   5.258  66.166  1.00  0.00    -0.008 OA 
HETATM    4  C   UNL     1      -6.211   4.294  66.113  1.00  0.00    -0.032 C  
HETATM    5  C   UNL     1      -9.979   5.774  67.687  1.00  0.00    -0.140 C  
HETATM    6  C   UNL     1      -7.547   4.850  66.486  1.00  0.00    -0.088 C  
HETATM    7  C   UNL     1      -9.977   4.485  66.818  1.00  0.00    -0.215 C  
HETATM    8  C   UNL     1      -8.614   4.051  66.439  1.00  0.00    -0.110 C  
HETATM    9  O   UNL     1      -5.985   3.126  65.838  1.00  0.00    -0.022 OA 
ENDROOT
BRANCH   1  10
HETATM   10  C   UNL     1      -9.248   7.949  66.538  1.00  0.00    -0.191 C  
HETATM   11  O   UNL     1      -8.868   7.806  65.157  1.00  0.00    -0.376 OA 
HETATM   12  H   UNL     1      -9.153   8.548  64.637  1.00  0.00     0.000 HD 
BRANCH  10  13
HETATM   13  C   UNL     1      -8.758   9.336  67.039  1.00  0.00    -0.124 C  
HETATM   14  H   UNL     1      -7.615  10.820  66.370  1.00  0.00     0.000 HD 
HETATM   15  O   UNL     1      -7.915   9.972  66.064  1.00  0.00    -0.111 OA 
BRANCH  13  16
HETATM   16  C   UNL     1      -7.990   9.261  68.372  1.00  0.00    -0.102 C  
HETATM   17  O   UNL     1      -8.862   9.385  69.502  1.00  0.00    -0.141 OA 
HETATM   18  H   UNL     1      -8.388   9.339  70.324  1.00  0.00     0.000 HD 
ENDBRANCH  13  16
ENDBRANCH  10  13
ENDBRANCH   1  10
BRANCH   7  19
HETATM   19  N   UNL     1     -10.761   4.719  65.601  1.00  0.00    -0.650 NA 
HETATM   20  H2  UNL     1      -9.643   2.361  65.411  1.00  0.00     0.000 HD 
HETATM   21  H   UNL     1     -11.252   5.604  65.470  1.00  0.00     0.000 HD 
HETATM   22  C   UNL     1     -10.827   3.807  64.703  1.00  0.00     0.004 C  
HETATM   23  H1  UNL     1     -11.627   3.279  62.880  1.00  0.00     0.000 HD 
HETATM   24  N   UNL     1     -10.243   2.594  64.619  1.00  0.00    -0.352 NA 
HETATM   25  H2  UNL     1     -12.085   4.879  63.473  1.00  0.00     0.000 HD 
HETATM   26  N   UNL     1     -11.574   4.005  63.594  1.00  0.00     0.367 NA 
HETATM   27  H1  UNL     1     -10.295   1.868  63.905  1.00  0.00     0.000 HD 
ENDBRANCH   7  19
BRANCH   5  28
HETATM   28  N   UNL     1     -10.077   5.423  69.125  1.00  0.00    -0.203 N  
HETATM   29  C   UNL     1     -10.932   6.101  69.970  1.00  0.00    -0.372 C  
HETATM   30  H   UNL     1      -9.500   4.667  69.497  1.00  0.00     0.000 HD 
HETATM   31  C   UNL     1     -11.034   5.483  71.337  1.00  0.00    -0.208 C  
HETATM   32  O   UNL     1     -11.567   7.097  69.642  1.00  0.00    -0.075 OA 
ENDBRANCH   5  28
TORSDOF 5
ENDMDL
MODEL      173
REMARK 921   NORMALIZED FREE ENERGY PREDICTED BY IDOCK:   -0.89 KCAL/MOL
REMARK 922        TOTAL FREE ENERGY PREDICTED BY IDOCK:   -2.74 KCAL/MOL
REMARK 923 INTER-LIGAND FREE ENERGY PREDICTED BY IDOCK:   -3.48 KCAL/MOL
REMARK 924 INTRA-LIGAND FREE ENERGY PREDICTED BY IDOCK:    0.74 KCAL/MOL
REMARK 927      BINDING AFFINITY PREDICTED BY RF-SCORE:    0.00 PKD
ROOT
HETATM    1  C   UNL     1     -10.250  12.911  65.439  1.00  0.00    -0.287 C  
HETATM    2  O   UNL     1     -10.159  14.306  65.136  1.00  0.00    -0.373 OA 
HETATM    3  O   UNL     1     -10.323  16.834  64.631  1.00  0.00    -0.158 OA 
HETATM    4  C   UNL     1      -9.397  16.576  65.583  1.00  0.00     0.092 C  
HETATM    5  C   UNL     1      -9.471  12.376  66.685  1.00  0.00    -0.232 C  
HETATM    6  C   UNL     1      -9.297  15.106  65.835  1.00  0.00    -0.244 C  
HETATM    7  C   UNL     1      -8.232  13.234  67.062  1.00  0.00    -0.045 C  
HETATM    8  C   UNL     1      -8.394  14.662  66.710  1.00  0.00    -0.078 C  
HETATM    9  O   UNL     1      -8.765  17.438  66.175  1.00  0.00    -0.439 OA 
ENDROOT
BRANCH   1  10
HETATM   10  C   UNL     1      -9.938  12.048  64.183  1.00  0.00    -0.263 C  
HETATM   11  O   UNL     1     -11.096  11.317  63.741  1.00  0.00    -0.503 OA 
HETATM   12  H   UNL     1     -10.905  10.790  62.973  1.00  0.00     0.000 HD 
BRANCH  10  13
HETATM   13  C   UNL     1      -8.760  11.047  64.343  1.00  0.00     0.078 C  
HETATM   14  H   UNL     1      -7.293  10.312  63.219  1.00  0.00     0.000 HD 
HETATM   15  O   UNL     1      -8.013  10.924  63.121  1.00  0.00    -0.003 OA 
BRANCH  13  16
HETATM   16  C   UNL     1      -9.214   9.641  64.780  1.00  0.00    -0.238 C  
HETATM   17  O   UNL     1      -8.709   9.292  66.073  1.00  0.00    -0.140 OA 
HETATM   18  H   UNL     1      -8.989   8.425  66.343  1.00  0.00     0.000 HD 
ENDBRANCH  13  16
ENDBRANCH  10  13
ENDBRANCH   1  10
BRANCH   7  19
HETATM   19  N   UNL     1      -7.048  12.703  66.377  1.00  0.00     0.216 NA 
HETATM   20  H2  UNL     1      -7.110  11.702  68.794  1.00  0.00     0.000 HD 
HETATM   21  H   UNL     1      -6.829  13.001  65.426  1.00  0.00     0.000 HD 
HETATM   22  C   UNL     1      -6.290  11.863  66.979  1.00  0.00    -0.141 C  
HETATM   23  H1  UNL     1      -4.612  10.679  66.820  1.00  0.00     0.000 HD 
HETATM   24  N   UNL     1      -6.335  11.356  68.228  1.00  0.00    -0.046 NA 
HETATM   25  H2  UNL     1      -5.009  11.626  65.382  1.00  0.00     0.000 HD 
HETATM   26  N   UNL     1      -5.216  11.347  66.341  1.00  0.00    -0.180 NA 
HETATM   27  H1  UNL     1      -5.732  10.688  68.707  1.00  0.00     0.000 HD 
ENDBRANCH   7  19
BRANCH   5  28
HETATM   28  N   UNL     1     -10.352  12.199  67.866  1.00  0.00    -0.201 N  
HETATM   29  C   UNL     1     -11.675  12.591  67.837  1.00  0.00    -0.359 C  
HETATM   30  H   UNL     1      -9.972  11.779  68.716  1.00  0.00     0.000 HD 
HETATM   31  C   UNL     1     -12.451  12.160  69.050  1.00  0.00     0.400 C  
HETATM   32  O   UNL     1     -12.182  13.212  66.910  1.00  0.00    -0.342 OA 
ENDBRANCH   5  28
TORSDOF 5
ENDMDL
MODEL      174
REMARK 921   NORMALIZED FREE ENERGY PREDICTED BY IDOCK:    0.82 KCAL/MOL
REMARK 922        TOTAL FREE ENERGY PREDICTED BY IDOCK:   -0.53 KCAL/MOL
REMARK 923 INTER-LIGAND FREE ENERGY PREDICTED BY IDOCK:   -1.88 KCAL/MOL
REMARK 924 INTRA-LIGAND FREE ENERGY PREDICTED BY IDOCK:    1.35 KCAL/MOL
REMARK 927      BINDING AFFINITY PREDICTED BY RF-SCORE:    0.00 PKD
ROOT
HETATM    1  C   UNL     1      -7.363  15.275  67.303  1.00  0.00    -0.195 C  
HETATM    2  O   UNL     1      -7.035  13.884  67.231  1.00  0.00    -0.166 OA 
HETATM    3  O   UNL     1      -6.126  11.470  67.099  1.00  0.00    -0.085 OA 
HETATM    4  C   UNL     1      -7.007  11.614  68.115  1.00  0.00    -0.071 C  
HETATM    5  C   UNL     1      -8.168  15.777  68.546  1.00  0.00    -0.166 C  
HETATM    6  C   UNL     1      -7.543  13.009  68.152  1.00  0.00    -0.136 C  
HETATM    7  C   UNL     1      -9.041  14.677  69.210  1.00  0.00     0.047 C  
HETATM    8  C   UNL     1      -8.467  13.321  69.061  1.00  0.00     0.402 C  
HETATM    9  O   UNL     1      -7.287  10.730  68.909  1.00  0.00    -0.086 OA 
ENDROOT
BRANCH   1  10
HETATM   10  C   UNL     1      -8.029  15.758  65.984  1.00  0.00     0.814 C  
HETATM   11  O   UNL     1      -8.032  17.194  65.886  1.00  0.00    -0.501 OA 
HETATM   12  H   UNL     1      -8.438  17.489  65.080  1.00  0.00     0.000 HD 
BRANCH  10  13
HETATM   13  C   UNL     1      -9.479  15.250  65.750  1.00  0.00    -0.275 C  
HETATM   14  H   UNL     1     -10.441  14.106  64.437  1.00  0.00     0.000 HD 
HETATM   15  O   UNL     1      -9.554  14.417  64.580  1.00  0.00     0.333 OA 
BRANCH  13  16
HETATM   16  C   UNL     1     -10.505  16.389  65.602  1.00  0.00    -0.347 C  
HETATM   17  O   UNL     1     -10.835  16.981  66.864  1.00  0.00    -0.176 OA 
HETATM   18  H   UNL     1     -11.467  17.684  66.773  1.00  0.00     0.000 HD 
ENDBRANCH  13  16
ENDBRANCH  10  13
ENDBRANCH   1  10
BRANCH   7  19
HETATM   19  N   UNL     1     -10.383  14.697  68.617  1.00  0.00    -0.239 NA 
HETATM   20  H2  UNL     1     -10.115  12.464  69.953  1.00  0.00     0.000 HD 
HETATM   21  H   UNL     1     -10.670  15.478  68.027  1.00  0.00     0.000 HD 
HETATM   22  C   UNL     1     -11.192  13.729  68.842  1.00  0.00    -0.272 C  
HETATM   23  H1  UNL     1     -13.083  12.988  68.504  1.00  0.00     0.000 HD 
HETATM   24  N   UNL     1     -11.038  12.581  69.535  1.00  0.00    -0.470 NA 
HETATM   25  H2  UNL     1     -12.737  14.550  67.755  1.00  0.00     0.000 HD 
HETATM   26  N   UNL     1     -12.439  13.759  68.324  1.00  0.00     0.083 NA 
HETATM   27  H1  UNL     1     -11.682  11.811  69.715  1.00  0.00     0.000 HD 
ENDBRANCH   7  19
BRANCH   5  28
HETATM   28  N   UNL     1      -7.297  16.422  69.559  1.00  0.00    -0.145 N  
HETATM   29  C   UNL     1      -6.222  15.753  70.108  1.00  0.00    -0.074 C  
HETATM   30  H   UNL     1      -7.496  17.378  69.856  1.00  0.00     0.000 HD 
HETATM   31  C   UNL     1      -5.351  16.627  70.966  1.00  0.00    -0.045 C  
HETATM   32  O   UNL     1      -5.980  14.568  69.906  1.00  0.00    -0.111 OA 
ENDBRANCH   5  28
TORSDOF 5
ENDMDL
MODEL      175
REMARK 921   NORMALIZED FREE ENERGY PREDICTED BY IDOCK:    7.99 KCAL/MOL
REMARK 922        TOTAL FREE ENERGY PREDICTED BY IDOCK:    8.73 KCAL/MOL
REMARK 923 INTER-LIGAND FREE ENERGY PREDICTED BY IDOCK:    8.83 KCAL/MOL
REMARK 924 INTRA-LIGAND FREE ENERGY PREDICTED BY IDOCK:   -0.10 KCAL/MOL
REMARK 927      BINDING AFFINITY PREDICTED BY RF-SCORE:    0.00 PKD
ROOT
HETATM    1  C   UNL     1      -6.536  16.823  68.329  1.00  0.00    -0.141 C  
HETATM    2  O   UNL     1      -6.207  15.685  67.526  1.00  0.00    -0.149 OA 
HETATM    3  O   UNL     1      -5.297  13.694  66.155  1.00  0.00     3.112 OA 
HETATM    4  C   UNL     1      -6.273  13.306  67.007  1.00  0.00     0.748 C  
HETATM    5  C   UNL     1      -7.456  16.604  69.574  1.00  0.00     0.090 C  
HETATM    6  C   UNL     1      -6.805  14.479  67.767  1.00  0.00    -0.177 C  
HETATM    7  C   UNL     1      -8.394  15.371  69.447  1.00  0.00    -0.250 C  
HETATM    8  C   UNL     1      -7.812  14.290  68.620  1.00  0.00    -0.140 C  
HETATM    9  O   UNL     1      -6.631  12.148  67.156  1.00  0.00    -0.145 OA 
ENDROOT
BRANCH   1  10
HETATM   10  C   UNL     1      -7.069  17.989  67.448  1.00  0.00    -0.192 C  
HETATM   11  O   UNL     1      -8.390  18.395  67.849  1.00  0.00    -0.252 OA 
HETATM   12  H   UNL     1      -8.715  19.108  67.312  1.00  0.00     0.000 HD 
BRANCH  10  13
HETATM   13  C   UNL     1      -7.087  17.709  65.920  1.00  0.00    -0.215 C  
HETATM   14  H   UNL     1      -6.687  18.697  64.241  1.00  0.00     0.000 HD 
HETATM   15  O   UNL     1      -6.676  18.868  65.175  1.00  0.00    -0.483 OA 
BRANCH  13  16
HETATM   16  C   UNL     1      -8.467  17.262  65.401  1.00  0.00     1.458 C  
HETATM   17  O   UNL     1      -9.393  18.352  65.333  1.00  0.00     0.211 OA 
HETATM   18  H   UNL     1     -10.244  18.076  65.013  1.00  0.00     0.000 HD 
ENDBRANCH  13  16
ENDBRANCH  10  13
ENDBRANCH   1  10
BRANCH   7  19
HETATM   19  N   UNL     1      -9.671  15.790  68.860  1.00  0.00    -0.211 NA 
HETATM   20  H2  UNL     1      -9.337  13.244  68.357  1.00  0.00     0.000 HD 
HETATM   21  H   UNL     1      -9.968  16.764  68.923  1.00  0.00     0.000 HD 
HETATM   22  C   UNL     1     -10.411  14.927  68.268  1.00  0.00    -0.232 C  
HETATM   23  H1  UNL     1     -12.192  14.615  67.282  1.00  0.00     0.000 HD 
HETATM   24  N   UNL     1     -10.224  13.615  68.016  1.00  0.00    -0.242 NA 
HETATM   25  H2  UNL     1     -11.913  16.269  67.836  1.00  0.00     0.000 HD 
HETATM   26  N   UNL     1     -11.603  15.302  67.753  1.00  0.00    -0.311 NA 
HETATM   27  H1  UNL     1     -10.813  12.928  67.545  1.00  0.00     0.000 HD 
ENDBRANCH   7  19
BRANCH   5  28
HETATM   28  N   UNL     1      -6.686  16.536  70.840  1.00  0.00     1.746 N  
HETATM   29  C   UNL     1      -6.082  17.658  71.371  1.00  0.00     1.683 C  
HETATM   30  H   UNL     1      -6.600  15.643  71.327  1.00  0.00     0.000 HD 
HETATM   31  C   UNL     1      -5.515  17.435  72.745  1.00  0.00     2.990 C  
HETATM   32  O   UNL     1      -6.028  18.740  70.797  1.00  0.00    -0.070 OA 
ENDBRANCH   5  28
TORSDOF 5
ENDMDL
MODEL      176
REMARK 921   NORMALIZED FREE ENERGY PREDICTED BY IDOCK:   10.74 KCAL/MOL
REMARK 922        TOTAL FREE ENERGY PREDICTED BY IDOCK:   12.29 KCAL/MOL
REMARK 923 INTER-LIGAND FREE ENERGY PREDICTED BY IDOCK:    4.94 KCAL/MOL
REMARK 924 INTRA-LIGAND FREE ENERGY PREDICTED BY IDOCK:    7.35 KCAL/MOL
REMARK 927      BINDING AFFINITY PREDICTED BY RF-SCORE:    0.00 PKD
ROOT
HETATM    1  C   UNL     1      -8.427  13.681  68.943  1.00  0.00     0.165 C  
HETATM    2  O   UNL     1      -7.668  13.185  70.050  1.00  0.00     1.306 OA 
HETATM    3  O   UNL     1      -6.587  12.198  72.178  1.00  0.00     3.315 OA 
HETATM    4  C   UNL     1      -6.014  11.706  71.055  1.00  0.00     0.344 C  
HETATM    5  C   UNL     1      -8.150  13.073  67.529  1.00  0.00    -0.179 C  
HETATM    6  C   UNL     1      -6.634  12.314  69.839  1.00  0.00     0.096 C  
HETATM    7  C   UNL     1      -6.716  12.497  67.368  1.00  0.00    -0.147 C  
HETATM    8  C   UNL     1      -6.158  11.982  68.638  1.00  0.00    -0.053 C  
HETATM    9  O   UNL     1      -5.141  10.852  71.050  1.00  0.00    -0.087 OA 
ENDROOT
BRANCH   1  10
HETATM   10  C   UNL     1      -8.385  15.235  68.891  1.00  0.00    -0.196 C  
HETATM   11  O   UNL     1      -7.867  15.792  70.112  1.00  0.00     0.297 OA 
HETATM   12  H   UNL     1      -7.841  16.741  70.080  1.00  0.00     0.000 HD 
BRANCH  10  13
HETATM   13  C   UNL     1      -9.742  15.923  68.577  1.00  0.00    -0.211 C  
HETATM   14  H   UNL     1     -11.210  16.808  69.587  1.00  0.00     0.000 HD 
HETATM   15  O   UNL     1     -10.380  16.387  69.779  1.00  0.00    -0.266 OA 
BRANCH  13  16
HETATM   16  C   UNL     1     -10.727  15.007  67.826  1.00  0.00    -0.278 C  
HETATM   17  O   UNL     1     -11.529  14.231  68.723  1.00  0.00    -0.261 OA 
HETATM   18  H   UNL     1     -12.136  13.666  68.260  1.00  0.00     0.000 HD 
ENDBRANCH  13  16
ENDBRANCH  10  13
ENDBRANCH   1  10
BRANCH   7  19
HETATM   19  N   UNL     1      -5.830  13.541  66.843  1.00  0.00     0.087 NA 
HETATM   20  H2  UNL     1      -8.014  14.687  67.713  1.00  0.00     0.000 HD 
HETATM   21  H   UNL     1      -4.933  13.289  66.426  1.00  0.00     0.000 HD 
HETATM   22  C   UNL     1      -6.186  14.770  66.909  1.00  0.00     1.385 C  
HETATM   23  H1  UNL     1      -5.643  16.716  66.510  1.00  0.00     0.000 HD 
HETATM   24  N   UNL     1      -7.319  15.346  67.362  1.00  0.00    -0.198 NA 
HETATM   25  H2  UNL     1      -4.452  15.490  66.062  1.00  0.00     0.000 HD 
HETATM   26  N   UNL     1      -5.359  15.737  66.456  1.00  0.00     0.692 NA 
HETATM   27  H1  UNL     1      -7.603  16.324  67.415  1.00  0.00     0.000 HD 
ENDBRANCH   7  19
BRANCH   5  28
HETATM   28  N   UNL     1      -9.159  12.054  67.146  1.00  0.00    -0.180 N  
HETATM   29  C   UNL     1     -10.200  12.363  66.294  1.00  0.00    -0.238 C  
HETATM   30  H   UNL     1      -9.082  11.107  67.520  1.00  0.00     0.000 HD 
HETATM   31  C   UNL     1     -11.002  11.164  65.874  1.00  0.00    -0.171 C  
HETATM   32  O   UNL     1     -10.442  13.497  65.896  1.00  0.00    -0.280 OA 
ENDBRANCH   5  28
TORSDOF 5
ENDMDL
MODEL      177
REMARK 921   NORMALIZED FREE ENERGY PREDICTED BY IDOCK:   36.73 KCAL/MOL
REMARK 922        TOTAL FREE ENERGY PREDICTED BY IDOCK:   45.88 KCAL/MOL
REMARK 923 INTER-LIGAND FREE ENERGY PREDICTED BY IDOCK:   44.96 KCAL/MOL
REMARK 924 INTRA-LIGAND FREE ENERGY PREDICTED BY IDOCK:    0.91 KCAL/MOL
REMARK 927      BINDING AFFINITY PREDICTED BY RF-SCORE:    0.00 PKD
ROOT
HETATM    1  C   UNL     1      -6.531  16.755  68.017  1.00  0.00    -0.143 C  
HETATM    2  O   UNL     1      -6.264  16.307  66.685  1.00  0.00    -0.286 OA 
HETATM    3  O   UNL     1      -5.464  15.486  64.370  1.00  0.00    11.763 OA 
HETATM    4  C   UNL     1      -6.464  14.713  64.853  1.00  0.00    17.188 C  
HETATM    5  C   UNL     1      -7.468  15.882  68.914  1.00  0.00    -0.178 C  
HETATM    6  C   UNL     1      -6.931  15.226  66.177  1.00  0.00     3.219 C  
HETATM    7  C   UNL     1      -8.473  15.015  68.107  1.00  0.00    -0.151 C  
HETATM    8  C   UNL     1      -7.951  14.614  66.781  1.00  0.00     0.173 C  
HETATM    9  O   UNL     1      -6.888  13.714  64.293  1.00  0.00    16.240 OA 
ENDROOT
BRANCH   1  10
HETATM   10  C   UNL     1      -6.993  18.240  68.021  1.00  0.00    -0.221 C  
HETATM   11  O   UNL     1      -7.565  18.614  69.288  1.00  0.00    -0.162 OA 
HETATM   12  H   UNL     1      -7.847  19.521  69.290  1.00  0.00     0.000 HD 
BRANCH  10  13
HETATM   13  C   UNL     1      -7.997  18.624  66.899  1.00  0.00    -0.242 C  
HETATM   14  H   UNL     1      -7.945  19.527  65.128  1.00  0.00     0.000 HD 
HETATM   15  O   UNL     1      -7.331  19.292  65.813  1.00  0.00    -0.322 OA 
BRANCH  13  16
HETATM   16  C   UNL     1      -9.144  19.525  67.394  1.00  0.00    -0.309 C  
HETATM   17  O   UNL     1     -10.274  18.762  67.834  1.00  0.00    -0.357 OA 
HETATM   18  H   UNL     1     -10.981  19.317  68.140  1.00  0.00     0.000 HD 
ENDBRANCH  13  16
ENDBRANCH  10  13
ENDBRANCH   1  10
BRANCH   7  19
HETATM   19  N   UNL     1      -9.722  15.763  67.924  1.00  0.00    -0.215 NA 
HETATM   20  H2  UNL     1      -9.570  15.029  70.430  1.00  0.00     0.000 HD 
HETATM   21  H   UNL     1      -9.980  16.110  67.000  1.00  0.00     0.000 HD 
HETATM   22  C   UNL     1     -10.487  15.978  68.929  1.00  0.00    -0.245 C  
HETATM   23  H1  UNL     1     -12.230  16.865  69.573  1.00  0.00     0.000 HD 
HETATM   24  N   UNL     1     -10.394  15.591  70.219  1.00  0.00    -0.397 NA 
HETATM   25  H2  UNL     1     -11.870  17.063  67.854  1.00  0.00     0.000 HD 
HETATM   26  N   UNL     1     -11.622  16.694  68.772  1.00  0.00    -0.071 NA 
HETATM   27  H1  UNL     1     -11.003  15.762  71.019  1.00  0.00     0.000 HD 
ENDBRANCH   7  19
BRANCH   5  28
HETATM   28  N   UNL     1      -6.708  15.034  69.866  1.00  0.00    -0.177 N  
HETATM   29  C   UNL     1      -6.722  13.657  69.765  1.00  0.00     0.059 C  
HETATM   30  H   UNL     1      -6.165  15.477  70.608  1.00  0.00     0.000 HD 
HETATM   31  C   UNL     1      -5.747  12.983  70.690  1.00  0.00    -0.165 C  
HETATM   32  O   UNL     1      -7.438  13.037  68.988  1.00  0.00    -0.035 OA 
ENDBRANCH   5  28
TORSDOF 5
ENDMDL
MODEL      178
REMARK 921   NORMALIZED FREE ENERGY PREDICTED BY IDOCK:   40.41 KCAL/MOL
REMARK 922        TOTAL FREE ENERGY PREDICTED BY IDOCK:   50.63 KCAL/MOL
REMARK 923 INTER-LIGAND FREE ENERGY PREDICTED BY IDOCK:   49.36 KCAL/MOL
REMARK 924 INTRA-LIGAND FREE ENERGY PREDICTED BY IDOCK:    1.27 KCAL/MOL
REMARK 927      BINDING AFFINITY PREDICTED BY RF-SCORE:    0.00 PKD
ROOT
HETATM    1  C   UNL     1     -10.125  13.792  69.734  1.00  0.00     0.952 C  
HETATM    2  O   UNL     1      -9.769  12.677  68.911  1.00  0.00     0.006 OA 
HETATM    3  O   UNL     1      -9.450  10.589  67.424  1.00  0.00    -0.152 OA 
HETATM    4  C   UNL     1      -8.876  11.684  66.874  1.00  0.00    -0.190 C  
HETATM    5  C   UNL     1      -9.811  15.229  69.201  1.00  0.00    -0.239 C  
HETATM    6  C   UNL     1      -9.046  12.871  67.766  1.00  0.00    -0.197 C  
HETATM    7  C   UNL     1      -8.630  15.277  68.194  1.00  0.00    -0.160 C  
HETATM    8  C   UNL     1      -8.497  14.031  67.405  1.00  0.00    -0.209 C  
HETATM    9  O   UNL     1      -8.334  11.695  65.780  1.00  0.00     0.075 OA 
ENDROOT
BRANCH   1  10
HETATM   10  C   UNL     1      -9.583  13.611  71.180  1.00  0.00     7.378 C  
HETATM   11  O   UNL     1      -8.805  14.746  71.601  1.00  0.00     2.826 OA 
HETATM   12  H   UNL     1      -8.474  14.635  72.485  1.00  0.00     0.000 HD 
BRANCH  10  13
HETATM   13  C   UNL     1      -8.740  12.326  71.415  1.00  0.00    14.526 C  
HETATM   14  H   UNL     1      -8.004  11.314  72.960  1.00  0.00     0.000 HD 
HETATM   15  O   UNL     1      -8.520  12.099  72.817  1.00  0.00    18.989 OA 
BRANCH  13  16
HETATM   16  C   UNL     1      -7.372  12.361  70.707  1.00  0.00     4.127 C  
HETATM   17  O   UNL     1      -6.694  11.102  70.787  1.00  0.00    -0.421 OA 
HETATM   18  H   UNL     1      -5.851  11.124  70.350  1.00  0.00     0.000 HD 
ENDBRANCH  13  16
ENDBRANCH  10  13
ENDBRANCH   1  10
BRANCH   7  19
HETATM   19  N   UNL     1      -7.380  15.519  68.922  1.00  0.00    -0.138 NA 
HETATM   20  H2  UNL     1      -7.966  17.679  67.566  1.00  0.00     0.000 HD 
HETATM   21  H   UNL     1      -6.966  14.779  69.489  1.00  0.00     0.000 HD 
HETATM   22  C   UNL     1      -6.810  16.664  68.842  1.00  0.00    -0.191 C  
HETATM   23  H1  UNL     1      -5.222  17.814  69.473  1.00  0.00     0.000 HD 
HETATM   24  N   UNL     1      -7.125  17.770  68.136  1.00  0.00    -0.212 NA 
HETATM   25  H2  UNL     1      -5.273  16.172  70.123  1.00  0.00     0.000 HD 
HETATM   26  N   UNL     1      -5.675  16.903  69.536  1.00  0.00    -0.174 NA 
HETATM   27  H1  UNL     1      -6.672  18.682  68.073  1.00  0.00     0.000 HD 
ENDBRANCH   7  19
BRANCH   5  28
HETATM   28  N   UNL     1     -11.007  15.889  68.623  1.00  0.00    -0.300 N  
HETATM   29  C   UNL     1     -11.254  15.858  67.264  1.00  0.00    -0.094 C  
HETATM   30  H   UNL     1     -11.659  16.375  69.240  1.00  0.00     0.000 HD 
HETATM   31  C   UNL     1     -12.601  16.411  66.891  1.00  0.00     3.448 C  
HETATM   32  O   UNL     1     -10.469  15.408  66.438  1.00  0.00    -0.287 OA 
ENDBRANCH   5  28
TORSDOF 5
ENDMDL
