MODEL        1
REMARK 921   NORMALIZED FREE ENERGY PREDICTED BY IDOCK:   -8.26 KCAL/MOL
REMARK 922        TOTAL FREE ENERGY PREDICTED BY IDOCK:  -11.45 KCAL/MOL
REMARK 923 INTER-LIGAND FREE ENERGY PREDICTED BY IDOCK:  -11.15 KCAL/MOL
REMARK 924 INTRA-LIGAND FREE ENERGY PREDICTED BY IDOCK:   -0.30 KCAL/MOL
REMARK 927      BINDING AFFINITY PREDICTED BY RF-SCORE:    0.00 PKD
ROOT
HETATM    1  N   UNL     1     -10.212  10.853  63.064  1.00  0.00    -0.711 N  
HETATM    2  H1  UNL     1     -11.155  11.194  63.246  1.00  0.00     0.000 HD 
HETATM    3  C   UNL     1      -9.451  10.419  64.115  1.00  0.00    -0.300 C  
HETATM    4  H2  UNL     1      -9.842  10.835  62.114  1.00  0.00     0.000 HD 
HETATM    5  O   UNL     1      -8.318  10.009  63.895  1.00  0.00    -0.147 OA 
ENDROOT
BRANCH   3   6
HETATM    6  C   UNL     1     -10.091  10.476  65.421  1.00  0.00    -0.358 A  
HETATM    7  C   UNL     1     -10.273   9.384  66.265  1.00  0.00    -0.214 A  
HETATM    8  N   UNL     1     -10.083   8.041  66.120  1.00  0.00    -0.442 NA 
HETATM    9  C   UNL     1     -10.782   7.164  67.061  1.00  0.00    -0.350 C  
HETATM   10  H   UNL     1      -9.480   7.665  65.388  1.00  0.00     0.000 HD 
HETATM   11  C   UNL     1     -10.503   7.645  68.478  1.00  0.00    -0.206 C  
HETATM   12  C   UNL     1     -10.887   9.138  68.688  1.00  0.00    -0.049 C  
HETATM   13  N   UNL     1     -10.701   9.902  67.455  1.00  0.00    -0.272 NA 
HETATM   14  C   UNL     1     -10.654  11.591  66.152  1.00  0.00    -0.266 A  
HETATM   15  N   UNL     1     -11.136  11.164  67.340  1.00  0.00    -0.292 NA 
BRANCH  12  16
HETATM   16  C   UNL     1     -10.245   9.733  70.006  1.00  0.00    -0.308 C  
HETATM   17  C   UNL     1     -11.104   9.641  71.280  1.00  0.00    -0.426 C  
HETATM   18  C   UNL     1     -11.186   8.206  71.770  1.00  0.00    -0.272 C  
HETATM   19  O   UNL     1     -10.876   6.270  73.620  1.00  0.00    -0.242 OA 
HETATM   20  N   UNL     1      -9.864   7.728  72.149  1.00  0.00    -0.177 N  
HETATM   21  C   UNL     1      -8.840   9.228  70.401  1.00  0.00    -0.271 C  
HETATM   22  C   UNL     1      -8.831   7.866  71.120  1.00  0.00    -0.138 C  
HETATM   23  C   UNL     1      -9.853   6.701  73.089  1.00  0.00    -0.170 C  
BRANCH  23  24
HETATM   24  C   UNL     1      -8.531   6.144  73.475  1.00  0.00    -0.118 C  
HETATM   25  C   UNL     1      -7.910   6.615  74.565  1.00  0.00    -0.127 C  
ENDBRANCH  23  24
ENDBRANCH  12  16
BRANCH  14  26
HETATM   26  C   UNL     1     -10.721  13.042  65.854  1.00  0.00    -0.292 A  
HETATM   27  C   UNL     1      -9.612  13.873  66.118  1.00  0.00    -0.249 A  
HETATM   28  C   UNL     1     -11.864  13.663  65.347  1.00  0.00    -0.370 A  
HETATM   29  C   UNL     1      -9.629  15.247  65.832  1.00  0.00    -0.377 A  
HETATM   30  C   UNL     1     -11.894  15.042  65.077  1.00  0.00    -0.244 A  
HETATM   31  C   UNL     1     -10.765  15.837  65.280  1.00  0.00    -0.428 A  
BRANCH  31  32
HETATM   32  O   UNL     1     -10.696  17.193  65.057  1.00  0.00    -0.712 OA 
BRANCH  32  33
HETATM   33  C   UNL     1     -10.470  18.076  66.091  1.00  0.00    -0.331 A  
HETATM   34  C   UNL     1     -10.478  17.547  67.385  1.00  0.00    -0.342 A  
HETATM   35  C   UNL     1     -10.255  18.376  68.487  1.00  0.00    -0.394 A  
HETATM   36  C   UNL     1     -10.019  19.737  68.299  1.00  0.00    -0.557 A  
HETATM   37  C   UNL     1      -9.963  20.260  67.008  1.00  0.00    -0.601 A  
HETATM   38  C   UNL     1     -10.158  19.424  65.904  1.00  0.00    -0.397 A  
ENDBRANCH  32  33
ENDBRANCH  31  32
ENDBRANCH  14  26
ENDBRANCH   3   6
TORSDOF 6
ENDMDL
MODEL        2
REMARK 921   NORMALIZED FREE ENERGY PREDICTED BY IDOCK:   -8.21 KCAL/MOL
REMARK 922        TOTAL FREE ENERGY PREDICTED BY IDOCK:  -11.39 KCAL/MOL
REMARK 923 INTER-LIGAND FREE ENERGY PREDICTED BY IDOCK:  -10.13 KCAL/MOL
REMARK 924 INTRA-LIGAND FREE ENERGY PREDICTED BY IDOCK:   -1.26 KCAL/MOL
REMARK 927      BINDING AFFINITY PREDICTED BY RF-SCORE:    0.00 PKD
ROOT
HETATM    1  N   UNL     1      -9.082   7.081  65.402  1.00  0.00    -0.352 N  
HETATM    2  H1  UNL     1      -8.403   7.707  64.968  1.00  0.00     0.000 HD 
HETATM    3  C   UNL     1     -10.020   7.607  66.247  1.00  0.00     0.049 C  
HETATM    4  H2  UNL     1      -9.061   6.080  65.209  1.00  0.00     0.000 HD 
HETATM    5  O   UNL     1     -10.834   6.856  66.768  1.00  0.00    -0.321 OA 
ENDROOT
BRANCH   3   6
HETATM    6  C   UNL     1      -9.961   9.050  66.433  1.00  0.00    -0.370 A  
HETATM    7  C   UNL     1      -9.953   9.984  65.400  1.00  0.00    -0.294 A  
HETATM    8  N   UNL     1      -9.855   9.886  64.044  1.00  0.00    -0.467 NA 
HETATM    9  C   UNL     1      -9.451  11.091  63.315  1.00  0.00    -0.328 C  
HETATM   10  H   UNL     1     -10.055   9.011  63.558  1.00  0.00     0.000 HD 
HETATM   11  C   UNL     1     -10.336  12.247  63.756  1.00  0.00    -0.464 C  
HETATM   12  C   UNL     1     -10.308  12.468  65.295  1.00  0.00    -0.287 C  
HETATM   13  N   UNL     1     -10.115  11.201  66.000  1.00  0.00    -0.236 NA 
HETATM   14  C   UNL     1      -9.916   9.849  67.639  1.00  0.00    -0.171 A  
HETATM   15  N   UNL     1      -9.876  11.161  67.318  1.00  0.00    -0.173 NA 
BRANCH  12  16
HETATM   16  C   UNL     1     -11.502  13.386  65.782  1.00  0.00    -0.341 C  
HETATM   17  C   UNL     1     -11.475  13.804  67.264  1.00  0.00    -0.367 C  
HETATM   18  C   UNL     1     -10.374  14.818  67.516  1.00  0.00    -0.238 C  
HETATM   19  O   UNL     1      -9.441  17.204  68.357  1.00  0.00    -0.258 OA 
HETATM   20  N   UNL     1     -10.633  16.039  66.765  1.00  0.00    -0.315 N  
HETATM   21  C   UNL     1     -11.778  14.677  64.979  1.00  0.00    -0.385 C  
HETATM   22  C   UNL     1     -10.850  15.854  65.328  1.00  0.00    -0.387 C  
HETATM   23  C   UNL     1     -10.062  17.192  67.295  1.00  0.00    -0.294 C  
BRANCH  23  24
HETATM   24  C   UNL     1     -10.256  18.458  66.541  1.00  0.00    -0.423 C  
HETATM   25  C   UNL     1     -10.826  19.507  67.150  1.00  0.00    -0.555 C  
ENDBRANCH  23  24
ENDBRANCH  12  16
BRANCH  14  26
HETATM   26  C   UNL     1      -9.969   9.484  69.075  1.00  0.00    -0.185 A  
HETATM   27  C   UNL     1      -8.799   9.067  69.744  1.00  0.00    -0.155 A  
HETATM   28  C   UNL     1     -11.150   9.491  69.819  1.00  0.00    -0.216 A  
HETATM   29  C   UNL     1      -8.804   8.731  71.108  1.00  0.00    -0.275 A  
HETATM   30  C   UNL     1     -11.164   9.138  71.180  1.00  0.00    -0.395 A  
HETATM   31  C   UNL     1      -9.986   8.793  71.843  1.00  0.00    -0.331 A  
BRANCH  31  32
HETATM   32  O   UNL     1      -9.897   8.423  73.166  1.00  0.00    -0.198 OA 
BRANCH  32  33
HETATM   33  C   UNL     1      -9.857   7.095  73.534  1.00  0.00    -0.280 A  
HETATM   34  C   UNL     1     -10.969   6.315  73.203  1.00  0.00    -0.251 A  
HETATM   35  C   UNL     1     -11.005   4.960  73.540  1.00  0.00    -0.397 A  
HETATM   36  C   UNL     1      -9.927   4.379  74.206  1.00  0.00    -0.207 A  
HETATM   37  C   UNL     1      -8.797   5.142  74.495  1.00  0.00    -0.110 A  
HETATM   38  C   UNL     1      -8.749   6.491  74.132  1.00  0.00    -0.153 A  
ENDBRANCH  32  33
ENDBRANCH  31  32
ENDBRANCH  14  26
ENDBRANCH   3   6
TORSDOF 6
ENDMDL
MODEL        3
REMARK 921   NORMALIZED FREE ENERGY PREDICTED BY IDOCK:   -8.19 KCAL/MOL
REMARK 922        TOTAL FREE ENERGY PREDICTED BY IDOCK:  -11.37 KCAL/MOL
REMARK 923 INTER-LIGAND FREE ENERGY PREDICTED BY IDOCK:  -10.41 KCAL/MOL
REMARK 924 INTRA-LIGAND FREE ENERGY PREDICTED BY IDOCK:   -0.96 KCAL/MOL
REMARK 927      BINDING AFFINITY PREDICTED BY RF-SCORE:    0.00 PKD
ROOT
HETATM    1  N   UNL     1     -13.411   9.841  72.333  1.00  0.00    -0.598 N  
HETATM    2  H1  UNL     1     -14.060  10.576  72.053  1.00  0.00     0.000 HD 
HETATM    3  C   UNL     1     -12.205   9.744  71.696  1.00  0.00    -0.404 C  
HETATM    4  H2  UNL     1     -13.657   9.188  73.077  1.00  0.00     0.000 HD 
HETATM    5  O   UNL     1     -11.426   8.862  72.032  1.00  0.00    -0.352 OA 
ENDROOT
BRANCH   3   6
HETATM    6  C   UNL     1     -11.958  10.741  70.663  1.00  0.00    -0.466 A  
HETATM    7  C   UNL     1     -12.312  12.085  70.756  1.00  0.00    -0.308 A  
HETATM    8  N   UNL     1     -13.048  12.804  71.650  1.00  0.00    -0.381 NA 
HETATM    9  C   UNL     1     -13.565  14.098  71.199  1.00  0.00    -0.191 C  
HETATM   10  H   UNL     1     -13.230  12.456  72.591  1.00  0.00     0.000 HD 
HETATM   11  C   UNL     1     -12.418  14.902  70.604  1.00  0.00    -0.411 C  
HETATM   12  C   UNL     1     -11.689  14.143  69.459  1.00  0.00    -0.312 C  
HETATM   13  N   UNL     1     -11.712  12.699  69.693  1.00  0.00    -0.313 NA 
HETATM   14  C   UNL     1     -11.315  10.628  69.372  1.00  0.00    -0.284 A  
HETATM   15  N   UNL     1     -11.308  11.831  68.756  1.00  0.00    -0.241 NA 
BRANCH  12  16
HETATM   16  C   UNL     1     -10.287  14.793  69.120  1.00  0.00    -0.237 C  
HETATM   17  C   UNL     1      -9.818  14.670  67.658  1.00  0.00    -0.218 C  
HETATM   18  C   UNL     1     -10.641  15.571  66.753  1.00  0.00    -0.307 C  
HETATM   19  O   UNL     1     -10.935  17.545  64.941  1.00  0.00    -0.887 OA 
HETATM   20  N   UNL     1     -10.441  16.967  67.117  1.00  0.00    -0.316 N  
HETATM   21  C   UNL     1     -10.076  16.273  69.513  1.00  0.00    -0.221 C  
HETATM   22  C   UNL     1     -10.683  17.286  68.526  1.00  0.00    -0.305 C  
HETATM   23  C   UNL     1     -10.661  17.883  66.092  1.00  0.00    -0.242 C  
BRANCH  23  24
HETATM   24  C   UNL     1     -10.517  19.325  66.423  1.00  0.00    -0.563 C  
HETATM   25  C   UNL     1      -9.343  19.935  66.212  1.00  0.00    -0.474 C  
ENDBRANCH  23  24
ENDBRANCH  12  16
BRANCH  14  26
HETATM   26  C   UNL     1     -10.649   9.493  68.690  1.00  0.00    -0.239 A  
HETATM   27  C   UNL     1      -9.940   8.532  69.440  1.00  0.00    -0.194 A  
HETATM   28  C   UNL     1     -10.649   9.331  67.303  1.00  0.00    -0.303 A  
HETATM   29  C   UNL     1      -9.312   7.432  68.834  1.00  0.00    -0.145 A  
HETATM   30  C   UNL     1     -10.006   8.243  66.689  1.00  0.00    -0.348 A  
HETATM   31  C   UNL     1      -9.366   7.265  67.451  1.00  0.00    -0.128 A  
BRANCH  31  32
HETATM   32  O   UNL     1      -8.702   6.171  66.946  1.00  0.00    -0.108 OA 
BRANCH  32  33
HETATM   33  C   UNL     1      -9.242   5.416  65.927  1.00  0.00    -0.156 A  
HETATM   34  C   UNL     1      -8.468   5.273  64.771  1.00  0.00    -0.149 A  
HETATM   35  C   UNL     1      -8.943   4.521  63.693  1.00  0.00    -0.130 A  
HETATM   36  C   UNL     1     -10.193   3.907  63.769  1.00  0.00    -0.197 A  
HETATM   37  C   UNL     1     -10.946   4.008  64.937  1.00  0.00     0.049 A  
HETATM   38  C   UNL     1     -10.457   4.736  66.026  1.00  0.00    -0.332 A  
ENDBRANCH  32  33
ENDBRANCH  31  32
ENDBRANCH  14  26
ENDBRANCH   3   6
TORSDOF 6
ENDMDL
MODEL        4
REMARK 921   NORMALIZED FREE ENERGY PREDICTED BY IDOCK:   -8.16 KCAL/MOL
REMARK 922        TOTAL FREE ENERGY PREDICTED BY IDOCK:  -11.32 KCAL/MOL
REMARK 923 INTER-LIGAND FREE ENERGY PREDICTED BY IDOCK:  -10.40 KCAL/MOL
REMARK 924 INTRA-LIGAND FREE ENERGY PREDICTED BY IDOCK:   -0.92 KCAL/MOL
REMARK 927      BINDING AFFINITY PREDICTED BY RF-SCORE:    0.00 PKD
ROOT
HETATM    1  N   UNL     1     -13.881   9.076  72.801  1.00  0.00    -0.886 N  
HETATM    2  H1  UNL     1     -13.175   9.476  73.419  1.00  0.00     0.000 HD 
HETATM    3  C   UNL     1     -13.485   8.226  71.806  1.00  0.00    -0.352 C  
HETATM    4  H2  UNL     1     -14.867   9.306  72.924  1.00  0.00     0.000 HD 
HETATM    5  O   UNL     1     -14.333   7.747  71.064  1.00  0.00    -0.250 OA 
ENDROOT
BRANCH   3   6
HETATM    6  C   UNL     1     -12.055   7.960  71.739  1.00  0.00    -0.340 A  
HETATM    7  C   UNL     1     -11.436   6.817  72.238  1.00  0.00    -0.276 A  
HETATM    8  N   UNL     1     -11.867   5.767  72.994  1.00  0.00    -0.510 NA 
HETATM    9  C   UNL     1     -10.844   4.977  73.683  1.00  0.00    -0.307 C  
HETATM   10  H   UNL     1     -12.859   5.543  73.077  1.00  0.00     0.000 HD 
HETATM   11  C   UNL     1      -9.778   4.573  72.675  1.00  0.00    -0.189 C  
HETATM   12  C   UNL     1      -9.162   5.794  71.936  1.00  0.00    -0.144 C  
HETATM   13  N   UNL     1     -10.149   6.862  71.779  1.00  0.00    -0.185 NA 
HETATM   14  C   UNL     1     -10.972   8.733  71.169  1.00  0.00    -0.268 A  
HETATM   15  N   UNL     1      -9.802   8.079  71.337  1.00  0.00    -0.167 NA 
BRANCH  12  16
HETATM   16  C   UNL     1      -8.363   5.359  70.641  1.00  0.00    -0.115 C  
HETATM   17  C   UNL     1      -9.171   4.614  69.564  1.00  0.00    -0.182 C  
HETATM   18  C   UNL     1     -10.126   5.560  68.858  1.00  0.00    -0.198 C  
HETATM   19  O   UNL     1     -11.143   6.773  66.676  1.00  0.00    -0.243 OA 
HETATM   20  N   UNL     1      -9.381   6.591  68.151  1.00  0.00    -0.111 N  
HETATM   21  C   UNL     1      -7.567   6.455  69.896  1.00  0.00    -0.100 C  
HETATM   22  C   UNL     1      -8.418   7.337  68.965  1.00  0.00    -0.129 C  
HETATM   23  C   UNL     1     -10.040   7.157  67.063  1.00  0.00    -0.238 C  
BRANCH  23  24
HETATM   24  C   UNL     1      -9.342   8.249  66.334  1.00  0.00    -0.274 C  
HETATM   25  C   UNL     1     -10.035   9.324  65.938  1.00  0.00    -0.289 C  
ENDBRANCH  23  24
ENDBRANCH  12  16
BRANCH  14  26
HETATM   26  C   UNL     1     -10.953  10.013  70.421  1.00  0.00    -0.384 A  
HETATM   27  C   UNL     1      -9.889  10.305  69.542  1.00  0.00    -0.244 A  
HETATM   28  C   UNL     1     -11.935  10.995  70.567  1.00  0.00    -0.474 A  
HETATM   29  C   UNL     1      -9.844  11.498  68.802  1.00  0.00    -0.153 A  
HETATM   30  C   UNL     1     -11.885  12.199  69.842  1.00  0.00    -0.392 A  
HETATM   31  C   UNL     1     -10.860  12.442  68.927  1.00  0.00    -0.197 A  
BRANCH  31  32
HETATM   32  O   UNL     1     -10.717  13.589  68.179  1.00  0.00    -0.239 OA 
BRANCH  32  33
HETATM   33  C   UNL     1     -11.204  13.667  66.891  1.00  0.00    -0.312 A  
HETATM   34  C   UNL     1     -10.933  14.843  66.186  1.00  0.00    -0.334 A  
HETATM   35  C   UNL     1     -11.389  14.999  64.874  1.00  0.00    -0.419 A  
HETATM   36  C   UNL     1     -12.115  13.978  64.263  1.00  0.00    -0.476 A  
HETATM   37  C   UNL     1     -12.346  12.785  64.947  1.00  0.00    -0.551 A  
HETATM   38  C   UNL     1     -11.864  12.618  66.248  1.00  0.00    -0.471 A  
ENDBRANCH  32  33
ENDBRANCH  31  32
ENDBRANCH  14  26
ENDBRANCH   3   6
TORSDOF 6
ENDMDL
MODEL        5
REMARK 921   NORMALIZED FREE ENERGY PREDICTED BY IDOCK:   -8.15 KCAL/MOL
REMARK 922        TOTAL FREE ENERGY PREDICTED BY IDOCK:  -11.31 KCAL/MOL
REMARK 923 INTER-LIGAND FREE ENERGY PREDICTED BY IDOCK:  -10.60 KCAL/MOL
REMARK 924 INTRA-LIGAND FREE ENERGY PREDICTED BY IDOCK:   -0.71 KCAL/MOL
REMARK 927      BINDING AFFINITY PREDICTED BY RF-SCORE:    0.00 PKD
ROOT
HETATM    1  N   UNL     1     -11.190  14.654  70.463  1.00  0.00    -0.479 N  
HETATM    2  H1  UNL     1     -10.523  14.726  69.695  1.00  0.00     0.000 HD 
HETATM    3  C   UNL     1     -12.093  13.627  70.461  1.00  0.00    -0.339 C  
HETATM    4  H2  UNL     1     -11.183  15.337  71.220  1.00  0.00     0.000 HD 
HETATM    5  O   UNL     1     -12.894  13.542  71.384  1.00  0.00    -0.350 OA 
ENDROOT
BRANCH   3   6
HETATM    6  C   UNL     1     -11.996  12.706  69.338  1.00  0.00    -0.318 A  
HETATM    7  C   UNL     1     -12.032  13.081  67.998  1.00  0.00    -0.290 A  
HETATM    8  N   UNL     1     -12.290  14.256  67.356  1.00  0.00    -0.591 NA 
HETATM    9  C   UNL     1     -12.659  14.176  65.941  1.00  0.00    -0.417 C  
HETATM   10  H   UNL     1     -12.230  15.151  67.841  1.00  0.00     0.000 HD 
HETATM   11  C   UNL     1     -11.626  13.327  65.214  1.00  0.00    -0.335 C  
HETATM   12  C   UNL     1     -11.460  11.916  65.847  1.00  0.00    -0.278 C  
HETATM   13  N   UNL     1     -11.690  11.962  67.291  1.00  0.00    -0.577 NA 
HETATM   14  C   UNL     1     -11.830  11.269  69.303  1.00  0.00    -0.354 A  
HETATM   15  N   UNL     1     -11.782  10.843  68.022  1.00  0.00    -0.569 NA 
BRANCH  12  16
HETATM   16  C   UNL     1     -10.139  11.199  65.353  1.00  0.00    -0.317 C  
HETATM   17  C   UNL     1      -8.813  11.818  65.831  1.00  0.00    -0.003 C  
HETATM   18  C   UNL     1      -8.600  11.553  67.311  1.00  0.00    -0.150 C  
HETATM   19  O   UNL     1      -7.205  10.604  69.414  1.00  0.00    -0.099 OA 
HETATM   20  N   UNL     1      -8.480  10.123  67.555  1.00  0.00    -0.118 N  
HETATM   21  C   UNL     1     -10.018   9.680  65.607  1.00  0.00    -0.321 C  
HETATM   22  C   UNL     1      -9.580   9.307  67.035  1.00  0.00    -0.171 C  
HETATM   23  C   UNL     1      -7.762   9.774  68.695  1.00  0.00    -0.080 C  
BRANCH  23  24
HETATM   24  C   UNL     1      -7.650   8.327  69.016  1.00  0.00    -0.089 C  
HETATM   25  C   UNL     1      -6.945   7.943  70.089  1.00  0.00    -0.049 C  
ENDBRANCH  23  24
ENDBRANCH  12  16
BRANCH  14  26
HETATM   26  C   UNL     1     -11.650  10.263  70.378  1.00  0.00    -0.411 A  
HETATM   27  C   UNL     1     -10.375   9.715  70.631  1.00  0.00    -0.365 A  
HETATM   28  C   UNL     1     -12.706   9.783  71.156  1.00  0.00    -0.433 A  
HETATM   29  C   UNL     1     -10.161   8.775  71.652  1.00  0.00    -0.390 A  
HETATM   30  C   UNL     1     -12.500   8.828  72.167  1.00  0.00    -0.460 A  
HETATM   31  C   UNL     1     -11.221   8.347  72.448  1.00  0.00    -0.368 A  
BRANCH  31  32
HETATM   32  O   UNL     1     -10.918   7.407  73.407  1.00  0.00    -0.378 OA 
BRANCH  32  33
HETATM   33  C   UNL     1     -10.638   6.101  73.064  1.00  0.00    -0.241 A  
HETATM   34  C   UNL     1     -10.730   5.148  74.082  1.00  0.00    -0.268 A  
HETATM   35  C   UNL     1     -10.464   3.803  73.816  1.00  0.00    -0.268 A  
HETATM   36  C   UNL     1     -10.108   3.406  72.527  1.00  0.00    -0.232 A  
HETATM   37  C   UNL     1     -10.062   4.345  71.499  1.00  0.00    -0.221 A  
HETATM   38  C   UNL     1     -10.356   5.687  71.761  1.00  0.00    -0.268 A  
ENDBRANCH  32  33
ENDBRANCH  31  32
ENDBRANCH  14  26
ENDBRANCH   3   6
TORSDOF 6
ENDMDL
MODEL        6
REMARK 921   NORMALIZED FREE ENERGY PREDICTED BY IDOCK:   -8.11 KCAL/MOL
REMARK 922        TOTAL FREE ENERGY PREDICTED BY IDOCK:  -11.26 KCAL/MOL
REMARK 923 INTER-LIGAND FREE ENERGY PREDICTED BY IDOCK:  -10.38 KCAL/MOL
REMARK 924 INTRA-LIGAND FREE ENERGY PREDICTED BY IDOCK:   -0.88 KCAL/MOL
REMARK 927      BINDING AFFINITY PREDICTED BY RF-SCORE:    0.00 PKD
ROOT
HETATM    1  N   UNL     1      -8.269  10.780  64.877  1.00  0.00    -0.357 N  
HETATM    2  H1  UNL     1      -7.592  10.543  65.602  1.00  0.00     0.000 HD 
HETATM    3  C   UNL     1      -9.553  10.323  64.997  1.00  0.00    -0.285 C  
HETATM    4  H2  UNL     1      -7.993  11.348  64.077  1.00  0.00     0.000 HD 
HETATM    5  O   UNL     1     -10.365  10.608  64.126  1.00  0.00    -0.351 OA 
ENDROOT
BRANCH   3   6
HETATM    6  C   UNL     1      -9.832   9.536  66.189  1.00  0.00    -0.343 A  
HETATM    7  C   UNL     1      -9.516   8.189  66.344  1.00  0.00    -0.218 A  
HETATM    8  N   UNL     1      -9.042   7.231  65.498  1.00  0.00    -0.378 NA 
HETATM    9  C   UNL     1      -9.238   5.835  65.896  1.00  0.00    -0.113 C  
HETATM   10  H   UNL     1      -8.572   7.476  64.627  1.00  0.00     0.000 HD 
HETATM   11  C   UNL     1      -8.735   5.658  67.322  1.00  0.00    -0.107 C  
HETATM   12  C   UNL     1      -9.411   6.641  68.319  1.00  0.00    -0.119 C  
HETATM   13  N   UNL     1      -9.741   7.906  67.662  1.00  0.00    -0.150 NA 
HETATM   14  C   UNL     1     -10.448   9.907  67.446  1.00  0.00    -0.267 A  
HETATM   15  N   UNL     1     -10.490   8.836  68.269  1.00  0.00    -0.210 NA 
BRANCH  12  16
HETATM   16  C   UNL     1      -8.622   6.727  69.688  1.00  0.00    -0.133 C  
HETATM   17  C   UNL     1      -9.371   7.383  70.862  1.00  0.00    -0.155 C  
HETATM   18  C   UNL     1     -10.478   6.475  71.367  1.00  0.00    -0.213 C  
HETATM   19  O   UNL     1     -11.752   5.060  73.276  1.00  0.00    -0.292 OA 
HETATM   20  N   UNL     1      -9.914   5.241  71.897  1.00  0.00    -0.181 N  
HETATM   21  C   UNL     1      -8.019   5.418  70.245  1.00  0.00    -0.092 C  
HETATM   22  C   UNL     1      -9.025   4.519  70.985  1.00  0.00    -0.121 C  
HETATM   23  C   UNL     1     -10.694   4.596  72.852  1.00  0.00    -0.225 C  
BRANCH  23  24
HETATM   24  C   UNL     1     -10.187   3.307  73.391  1.00  0.00    -0.215 C  
HETATM   25  C   UNL     1     -11.055   2.336  73.702  1.00  0.00    -0.302 C  
ENDBRANCH  23  24
ENDBRANCH  12  16
BRANCH  14  26
HETATM   26  C   UNL     1     -10.947  11.203  67.963  1.00  0.00    -0.307 A  
HETATM   27  C   UNL     1     -10.979  12.337  67.124  1.00  0.00    -0.308 A  
HETATM   28  C   UNL     1     -11.365  11.387  69.283  1.00  0.00    -0.355 A  
HETATM   29  C   UNL     1     -11.461  13.578  67.571  1.00  0.00    -0.361 A  
HETATM   30  C   UNL     1     -11.831  12.631  69.741  1.00  0.00    -0.379 A  
HETATM   31  C   UNL     1     -11.919  13.725  68.879  1.00  0.00    -0.359 A  
BRANCH  31  32
HETATM   32  O   UNL     1     -12.351  14.983  69.232  1.00  0.00    -0.206 OA 
BRANCH  32  33
HETATM   33  C   UNL     1     -12.663  15.290  70.539  1.00  0.00    -0.390 A  
HETATM   34  C   UNL     1     -11.662  15.905  71.298  1.00  0.00    -0.504 A  
HETATM   35  C   UNL     1     -11.899  16.250  72.631  1.00  0.00    -0.596 A  
HETATM   36  C   UNL     1     -13.140  15.985  73.209  1.00  0.00    -0.658 A  
HETATM   37  C   UNL     1     -14.155  15.416  72.442  1.00  0.00    -0.645 A  
HETATM   38  C   UNL     1     -13.927  15.097  71.100  1.00  0.00    -0.487 A  
ENDBRANCH  32  33
ENDBRANCH  31  32
ENDBRANCH  14  26
ENDBRANCH   3   6
TORSDOF 6
ENDMDL
MODEL        7
REMARK 921   NORMALIZED FREE ENERGY PREDICTED BY IDOCK:   -8.09 KCAL/MOL
REMARK 922        TOTAL FREE ENERGY PREDICTED BY IDOCK:  -11.23 KCAL/MOL
REMARK 923 INTER-LIGAND FREE ENERGY PREDICTED BY IDOCK:  -10.44 KCAL/MOL
REMARK 924 INTRA-LIGAND FREE ENERGY PREDICTED BY IDOCK:   -0.79 KCAL/MOL
REMARK 927      BINDING AFFINITY PREDICTED BY RF-SCORE:    0.00 PKD
ROOT
HETATM    1  N   UNL     1     -14.371   7.563  70.931  1.00  0.00    -0.524 N  
HETATM    2  H1  UNL     1     -13.810   7.040  70.259  1.00  0.00     0.000 HD 
HETATM    3  C   UNL     1     -13.735   8.305  71.888  1.00  0.00    -0.369 C  
HETATM    4  H2  UNL     1     -15.389   7.534  70.890  1.00  0.00     0.000 HD 
HETATM    5  O   UNL     1     -14.409   8.933  72.695  1.00  0.00    -0.613 OA 
ENDROOT
BRANCH   3   6
HETATM    6  C   UNL     1     -12.280   8.283  71.838  1.00  0.00    -0.383 A  
HETATM    7  C   UNL     1     -11.484   7.253  72.330  1.00  0.00    -0.287 A  
HETATM    8  N   UNL     1     -11.741   6.135  73.067  1.00  0.00    -0.463 NA 
HETATM    9  C   UNL     1     -10.607   5.518  73.760  1.00  0.00    -0.281 C  
HETATM   10  H   UNL     1     -12.682   5.747  73.134  1.00  0.00     0.000 HD 
HETATM   11  C   UNL     1      -9.478   5.313  72.761  1.00  0.00    -0.157 C  
HETATM   12  C   UNL     1      -9.067   6.631  72.046  1.00  0.00    -0.139 C  
HETATM   13  N   UNL     1     -10.218   7.520  71.889  1.00  0.00    -0.186 NA 
HETATM   14  C   UNL     1     -11.337   9.236  71.292  1.00  0.00    -0.353 A  
HETATM   15  N   UNL     1     -10.075   8.784  71.467  1.00  0.00    -0.272 NA 
BRANCH  12  16
HETATM   16  C   UNL     1      -8.192   6.356  70.756  1.00  0.00    -0.125 C  
HETATM   17  C   UNL     1      -8.850   5.497  69.661  1.00  0.00    -0.120 C  
HETATM   18  C   UNL     1      -9.945   6.276  68.954  1.00  0.00    -0.153 C  
HETATM   19  O   UNL     1     -11.131   7.326  66.772  1.00  0.00    -0.205 OA 
HETATM   20  N   UNL     1      -9.379   7.428  68.267  1.00  0.00    -0.140 N  
HETATM   21  C   UNL     1      -7.587   7.580  70.033  1.00  0.00    -0.088 C  
HETATM   22  C   UNL     1      -8.567   8.316  69.101  1.00  0.00    -0.138 C  
HETATM   23  C   UNL     1     -10.114   7.887  67.177  1.00  0.00    -0.258 C  
BRANCH  23  24
HETATM   24  C   UNL     1      -9.605   9.091  66.469  1.00  0.00    -0.286 C  
HETATM   25  C   UNL     1      -8.680   8.949  65.510  1.00  0.00    -0.215 C  
ENDBRANCH  23  24
ENDBRANCH  12  16
BRANCH  14  26
HETATM   26  C   UNL     1     -11.524  10.512  70.561  1.00  0.00    -0.433 A  
HETATM   27  C   UNL     1     -12.196  11.590  71.175  1.00  0.00    -0.287 A  
HETATM   28  C   UNL     1     -11.097  10.706  69.246  1.00  0.00    -0.306 A  
HETATM   29  C   UNL     1     -12.377  12.820  70.523  1.00  0.00    -0.355 A  
HETATM   30  C   UNL     1     -11.292  11.930  68.582  1.00  0.00    -0.331 A  
HETATM   31  C   UNL     1     -11.898  13.007  69.228  1.00  0.00    -0.316 A  
BRANCH  31  32
HETATM   32  O   UNL     1     -12.143  14.238  68.663  1.00  0.00    -0.325 OA 
BRANCH  32  33
HETATM   33  C   UNL     1     -11.636  14.568  67.424  1.00  0.00    -0.385 A  
HETATM   34  C   UNL     1     -12.379  14.163  66.311  1.00  0.00    -0.451 A  
HETATM   35  C   UNL     1     -11.934  14.461  65.020  1.00  0.00    -0.413 A  
HETATM   36  C   UNL     1     -10.747  15.169  64.839  1.00  0.00    -0.421 A  
HETATM   37  C   UNL     1     -10.029  15.616  65.947  1.00  0.00    -0.379 A  
HETATM   38  C   UNL     1     -10.489  15.342  67.238  1.00  0.00    -0.282 A  
ENDBRANCH  32  33
ENDBRANCH  31  32
ENDBRANCH  14  26
ENDBRANCH   3   6
TORSDOF 6
ENDMDL
MODEL        8
REMARK 921   NORMALIZED FREE ENERGY PREDICTED BY IDOCK:   -7.97 KCAL/MOL
REMARK 922        TOTAL FREE ENERGY PREDICTED BY IDOCK:  -11.06 KCAL/MOL
REMARK 923 INTER-LIGAND FREE ENERGY PREDICTED BY IDOCK:   -9.77 KCAL/MOL
REMARK 924 INTRA-LIGAND FREE ENERGY PREDICTED BY IDOCK:   -1.29 KCAL/MOL
REMARK 927      BINDING AFFINITY PREDICTED BY RF-SCORE:    0.00 PKD
ROOT
HETATM    1  N   UNL     1      -8.683  11.072  64.887  1.00  0.00    -0.362 N  
HETATM    2  H1  UNL     1      -8.255  10.295  65.392  1.00  0.00     0.000 HD 
HETATM    3  C   UNL     1      -9.765  11.703  65.436  1.00  0.00    -0.229 C  
HETATM    4  H2  UNL     1      -8.309  11.372  63.987  1.00  0.00     0.000 HD 
HETATM    5  O   UNL     1     -10.277  12.635  64.830  1.00  0.00    -0.302 OA 
ENDROOT
BRANCH   3   6
HETATM    6  C   UNL     1     -10.198  11.196  66.731  1.00  0.00    -0.272 A  
HETATM    7  C   UNL     1     -10.295   9.848  67.064  1.00  0.00    -0.239 A  
HETATM    8  N   UNL     1     -10.185   8.692  66.350  1.00  0.00    -0.378 NA 
HETATM    9  C   UNL     1     -10.771   7.486  66.940  1.00  0.00    -0.229 C  
HETATM   10  H   UNL     1      -9.716   8.669  65.445  1.00  0.00     0.000 HD 
HETATM   11  C   UNL     1     -10.261   7.343  68.367  1.00  0.00    -0.207 C  
HETATM   12  C   UNL     1     -10.547   8.604  69.232  1.00  0.00    -0.192 C  
HETATM   13  N   UNL     1     -10.517   9.816  68.413  1.00  0.00    -0.208 NA 
HETATM   14  C   UNL     1     -10.596  11.893  67.935  1.00  0.00    -0.201 A  
HETATM   15  N   UNL     1     -10.912  11.000  68.899  1.00  0.00    -0.208 NA 
BRANCH  12  16
HETATM   16  C   UNL     1      -9.689   8.614  70.561  1.00  0.00    -0.210 C  
HETATM   17  C   UNL     1     -10.482   8.574  71.880  1.00  0.00    -0.387 C  
HETATM   18  C   UNL     1     -11.099   7.203  72.093  1.00  0.00    -0.248 C  
HETATM   19  O   UNL     1     -11.512   4.937  73.495  1.00  0.00    -0.311 OA 
HETATM   20  N   UNL     1     -10.055   6.196  72.228  1.00  0.00    -0.178 N  
HETATM   21  C   UNL     1      -8.578   7.549  70.698  1.00  0.00    -0.137 C  
HETATM   22  C   UNL     1      -9.077   6.161  71.138  1.00  0.00    -0.146 C  
HETATM   23  C   UNL     1     -10.417   5.061  72.948  1.00  0.00    -0.208 C  
BRANCH  23  24
HETATM   24  C   UNL     1      -9.403   3.982  73.074  1.00  0.00    -0.131 C  
HETATM   25  C   UNL     1      -9.706   2.743  72.663  1.00  0.00    -0.190 C  
ENDBRANCH  23  24
ENDBRANCH  12  16
BRANCH  14  26
HETATM   26  C   UNL     1     -10.647  13.335  68.278  1.00  0.00    -0.262 A  
HETATM   27  C   UNL     1      -9.453  14.066  68.449  1.00  0.00    -0.213 A  
HETATM   28  C   UNL     1     -11.842  14.026  68.487  1.00  0.00    -0.399 A  
HETATM   29  C   UNL     1      -9.459  15.436  68.755  1.00  0.00    -0.211 A  
HETATM   30  C   UNL     1     -11.854  15.394  68.812  1.00  0.00    -0.339 A  
HETATM   31  C   UNL     1     -10.665  16.117  68.910  1.00  0.00    -0.280 A  
BRANCH  31  32
HETATM   32  O   UNL     1     -10.571  17.452  69.232  1.00  0.00    -0.302 OA 
BRANCH  32  33
HETATM   33  C   UNL     1     -10.001  18.357  68.362  1.00  0.00    -0.379 A  
HETATM   34  C   UNL     1     -10.760  18.723  67.246  1.00  0.00    -0.490 A  
HETATM   35  C   UNL     1     -10.254  19.637  66.318  1.00  0.00    -0.598 A  
HETATM   36  C   UNL     1      -8.989  20.192  66.505  1.00  0.00    -0.392 A  
HETATM   37  C   UNL     1      -8.249  19.866  67.641  1.00  0.00    -0.349 A  
HETATM   38  C   UNL     1      -8.767  18.973  68.584  1.00  0.00    -0.387 A  
ENDBRANCH  32  33
ENDBRANCH  31  32
ENDBRANCH  14  26
ENDBRANCH   3   6
TORSDOF 6
ENDMDL
MODEL        9
REMARK 921   NORMALIZED FREE ENERGY PREDICTED BY IDOCK:   -7.81 KCAL/MOL
REMARK 922        TOTAL FREE ENERGY PREDICTED BY IDOCK:  -10.85 KCAL/MOL
REMARK 923 INTER-LIGAND FREE ENERGY PREDICTED BY IDOCK:  -10.03 KCAL/MOL
REMARK 924 INTRA-LIGAND FREE ENERGY PREDICTED BY IDOCK:   -0.83 KCAL/MOL
REMARK 927      BINDING AFFINITY PREDICTED BY RF-SCORE:    0.00 PKD
ROOT
HETATM    1  N   UNL     1     -14.129   7.811  71.135  1.00  0.00    -0.654 N  
HETATM    2  H1  UNL     1     -13.533   7.126  70.672  1.00  0.00     0.000 HD 
HETATM    3  C   UNL     1     -13.546   8.870  71.776  1.00  0.00    -0.412 C  
HETATM    4  H2  UNL     1     -15.143   7.709  71.121  1.00  0.00     0.000 HD 
HETATM    5  O   UNL     1     -14.262   9.692  72.332  1.00  0.00    -0.183 OA 
ENDROOT
BRANCH   3   6
HETATM    6  C   UNL     1     -12.092   8.919  71.714  1.00  0.00    -0.432 A  
HETATM    7  C   UNL     1     -11.239   8.037  72.372  1.00  0.00    -0.369 A  
HETATM    8  N   UNL     1     -11.433   7.055  73.297  1.00  0.00    -0.493 NA 
HETATM    9  C   UNL     1     -10.266   6.632  74.075  1.00  0.00    -0.369 C  
HETATM   10  H   UNL     1     -12.350   6.633  73.441  1.00  0.00     0.000 HD 
HETATM   11  C   UNL     1      -9.127   6.316  73.116  1.00  0.00    -0.131 C  
HETATM   12  C   UNL     1      -8.791   7.508  72.175  1.00  0.00    -0.125 C  
HETATM   13  N   UNL     1      -9.990   8.291  71.877  1.00  0.00    -0.207 NA 
HETATM   14  C   UNL     1     -11.203   9.810  70.998  1.00  0.00    -0.381 A  
HETATM   15  N   UNL     1      -9.918   9.466  71.237  1.00  0.00    -0.261 NA 
BRANCH  12  16
HETATM   16  C   UNL     1      -7.904   7.057  70.945  1.00  0.00    -0.096 C  
HETATM   17  C   UNL     1      -8.472   5.917  70.081  1.00  0.00    -0.126 C  
HETATM   18  C   UNL     1      -9.654   6.404  69.261  1.00  0.00    -0.137 C  
HETATM   19  O   UNL     1     -10.972   6.827  66.947  1.00  0.00    -0.378 OA 
HETATM   20  N   UNL     1      -9.227   7.435  68.326  1.00  0.00    -0.138 N  
HETATM   21  C   UNL     1      -7.447   8.154  69.959  1.00  0.00    -0.065 C  
HETATM   22  C   UNL     1      -8.511   8.564  68.925  1.00  0.00    -0.123 C  
HETATM   23  C   UNL     1     -10.019   7.568  67.189  1.00  0.00    -0.220 C  
BRANCH  23  24
HETATM   24  C   UNL     1      -9.655   8.639  66.224  1.00  0.00    -0.322 C  
HETATM   25  C   UNL     1      -8.651   8.434  65.361  1.00  0.00    -0.193 C  
ENDBRANCH  23  24
ENDBRANCH  12  16
BRANCH  14  26
HETATM   26  C   UNL     1     -11.462  10.924  70.055  1.00  0.00    -0.411 A  
HETATM   27  C   UNL     1     -11.102  10.803  68.697  1.00  0.00    -0.312 A  
HETATM   28  C   UNL     1     -12.025  12.140  70.449  1.00  0.00    -0.360 A  
HETATM   29  C   UNL     1     -11.348  11.827  67.769  1.00  0.00    -0.358 A  
HETATM   30  C   UNL     1     -12.256  13.177  69.529  1.00  0.00    -0.214 A  
HETATM   31  C   UNL     1     -11.955  13.014  68.176  1.00  0.00    -0.280 A  
BRANCH  31  32
HETATM   32  O   UNL     1     -12.134  13.969  67.201  1.00  0.00    -0.423 OA 
BRANCH  32  33
HETATM   33  C   UNL     1     -11.191  14.951  66.982  1.00  0.00    -0.344 A  
HETATM   34  C   UNL     1     -11.254  16.080  67.805  1.00  0.00    -0.231 A  
HETATM   35  C   UNL     1     -10.333  17.119  67.648  1.00  0.00    -0.344 A  
HETATM   36  C   UNL     1      -9.343  17.030  66.671  1.00  0.00    -0.274 A  
HETATM   37  C   UNL     1      -9.247  15.885  65.881  1.00  0.00    -0.332 A  
HETATM   38  C   UNL     1     -10.151  14.834  66.058  1.00  0.00    -0.327 A  
ENDBRANCH  32  33
ENDBRANCH  31  32
ENDBRANCH  14  26
ENDBRANCH   3   6
TORSDOF 6
ENDMDL
MODEL       10
REMARK 921   NORMALIZED FREE ENERGY PREDICTED BY IDOCK:   -7.80 KCAL/MOL
REMARK 922        TOTAL FREE ENERGY PREDICTED BY IDOCK:  -10.84 KCAL/MOL
REMARK 923 INTER-LIGAND FREE ENERGY PREDICTED BY IDOCK:   -9.85 KCAL/MOL
REMARK 924 INTRA-LIGAND FREE ENERGY PREDICTED BY IDOCK:   -0.99 KCAL/MOL
REMARK 927      BINDING AFFINITY PREDICTED BY RF-SCORE:    0.00 PKD
ROOT
HETATM    1  N   UNL     1     -13.517  11.213  72.112  1.00  0.00    -0.526 N  
HETATM    2  H1  UNL     1     -13.481  10.194  72.093  1.00  0.00     0.000 HD 
HETATM    3  C   UNL     1     -12.675  11.921  71.299  1.00  0.00    -0.298 C  
HETATM    4  H2  UNL     1     -14.171  11.696  72.728  1.00  0.00     0.000 HD 
HETATM    5  O   UNL     1     -12.719  13.144  71.323  1.00  0.00    -0.363 OA 
ENDROOT
BRANCH   3   6
HETATM    6  C   UNL     1     -11.799  11.123  70.453  1.00  0.00    -0.462 A  
HETATM    7  C   UNL     1     -11.524   9.771  70.646  1.00  0.00    -0.324 A  
HETATM    8  N   UNL     1     -11.814   8.885  71.640  1.00  0.00    -0.320 NA 
HETATM    9  C   UNL     1     -11.001   7.668  71.706  1.00  0.00    -0.239 C  
HETATM   10  H   UNL     1     -12.563   9.062  72.309  1.00  0.00     0.000 HD 
HETATM   11  C   UNL     1     -10.982   7.018  70.330  1.00  0.00    -0.304 C  
HETATM   12  C   UNL     1     -10.482   7.985  69.220  1.00  0.00    -0.215 C  
HETATM   13  N   UNL     1     -10.853   9.367  69.526  1.00  0.00    -0.232 NA 
HETATM   14  C   UNL     1     -11.047  11.476  69.268  1.00  0.00    -0.246 A  
HETATM   15  N   UNL     1     -10.376  10.395  68.812  1.00  0.00    -0.184 NA 
BRANCH  12  16
HETATM   16  C   UNL     1     -10.832   7.453  67.771  1.00  0.00    -0.186 C  
HETATM   17  C   UNL     1     -10.101   8.138  66.603  1.00  0.00    -0.344 C  
HETATM   18  C   UNL     1      -8.636   7.737  66.576  1.00  0.00    -0.143 C  
HETATM   19  O   UNL     1      -6.441   6.702  65.402  1.00  0.00    -0.044 OA 
HETATM   20  N   UNL     1      -8.510   6.306  66.338  1.00  0.00    -0.120 N  
HETATM   21  C   UNL     1     -10.703   5.933  67.523  1.00  0.00    -0.359 C  
HETATM   22  C   UNL     1      -9.266   5.451  67.256  1.00  0.00    -0.111 C  
HETATM   23  C   UNL     1      -7.310   5.906  65.757  1.00  0.00    -0.076 C  
BRANCH  23  24
HETATM   24  C   UNL     1      -7.111   4.450  65.536  1.00  0.00    -0.067 C  
HETATM   25  C   UNL     1      -6.077   4.032  64.794  1.00  0.00    -0.023 C  
ENDBRANCH  23  24
ENDBRANCH  12  16
BRANCH  14  26
HETATM   26  C   UNL     1     -10.955  12.733  68.488  1.00  0.00    -0.288 A  
HETATM   27  C   UNL     1      -9.694  13.280  68.170  1.00  0.00    -0.227 A  
HETATM   28  C   UNL     1     -12.076  13.453  68.069  1.00  0.00    -0.283 A  
HETATM   29  C   UNL     1      -9.565  14.459  67.418  1.00  0.00    -0.216 A  
HETATM   30  C   UNL     1     -11.952  14.644  67.332  1.00  0.00    -0.309 A  
HETATM   31  C   UNL     1     -10.698  15.134  66.968  1.00  0.00    -0.307 A  
BRANCH  31  32
HETATM   32  O   UNL     1     -10.471  16.291  66.258  1.00  0.00    -0.312 OA 
BRANCH  32  33
HETATM   33  C   UNL     1     -10.295  17.499  66.900  1.00  0.00    -0.315 A  
HETATM   34  C   UNL     1     -10.500  18.653  66.138  1.00  0.00    -0.473 A  
HETATM   35  C   UNL     1     -10.343  19.916  66.715  1.00  0.00    -0.599 A  
HETATM   36  C   UNL     1      -9.984  20.029  68.058  1.00  0.00    -0.550 A  
HETATM   37  C   UNL     1      -9.826  18.881  68.833  1.00  0.00    -0.447 A  
HETATM   38  C   UNL     1     -10.011  17.618  68.262  1.00  0.00    -0.339 A  
ENDBRANCH  32  33
ENDBRANCH  31  32
ENDBRANCH  14  26
ENDBRANCH   3   6
TORSDOF 6
ENDMDL
MODEL       11
REMARK 921   NORMALIZED FREE ENERGY PREDICTED BY IDOCK:   -7.78 KCAL/MOL
REMARK 922        TOTAL FREE ENERGY PREDICTED BY IDOCK:  -10.81 KCAL/MOL
REMARK 923 INTER-LIGAND FREE ENERGY PREDICTED BY IDOCK:   -9.71 KCAL/MOL
REMARK 924 INTRA-LIGAND FREE ENERGY PREDICTED BY IDOCK:   -1.10 KCAL/MOL
REMARK 927      BINDING AFFINITY PREDICTED BY RF-SCORE:    0.00 PKD
ROOT
HETATM    1  N   UNL     1     -11.866  11.387  62.968  1.00  0.00    -0.867 N  
HETATM    2  H1  UNL     1     -10.865  11.385  62.770  1.00  0.00     0.000 HD 
HETATM    3  C   UNL     1     -12.328  12.110  64.033  1.00  0.00    -0.451 C  
HETATM    4  H2  UNL     1     -12.510  10.859  62.381  1.00  0.00     0.000 HD 
HETATM    5  O   UNL     1     -13.529  12.112  64.270  1.00  0.00    -0.708 OA 
ENDROOT
BRANCH   3   6
HETATM    6  C   UNL     1     -11.317  12.836  64.788  1.00  0.00    -0.346 A  
HETATM    7  C   UNL     1     -11.216  14.223  64.851  1.00  0.00    -0.379 A  
HETATM    8  N   UNL     1     -11.844  15.242  64.198  1.00  0.00    -0.851 NA 
HETATM    9  C   UNL     1     -11.183  16.550  64.211  1.00  0.00     0.285 C  
HETATM   10  H   UNL     1     -12.735  15.100  63.722  1.00  0.00     0.000 HD 
HETATM   11  C   UNL     1     -10.830  16.904  65.648  1.00  0.00    -0.082 C  
HETATM   12  C   UNL     1      -9.962  15.813  66.336  1.00  0.00    -0.277 C  
HETATM   13  N   UNL     1     -10.292  14.484  65.823  1.00  0.00    -0.313 NA 
HETATM   14  C   UNL     1     -10.236  12.360  65.625  1.00  0.00    -0.262 A  
HETATM   15  N   UNL     1      -9.552  13.410  66.131  1.00  0.00    -0.244 NA 
BRANCH  12  16
HETATM   16  C   UNL     1      -9.931  15.988  67.908  1.00  0.00    -0.233 C  
HETATM   17  C   UNL     1      -8.673  15.464  68.624  1.00  0.00    -0.191 C  
HETATM   18  C   UNL     1      -7.479  16.357  68.336  1.00  0.00    -0.171 C  
HETATM   19  O   UNL     1      -5.427  17.947  69.063  1.00  0.00    -0.180 OA 
HETATM   20  N   UNL     1      -7.710  17.692  68.868  1.00  0.00    -0.245 N  
HETATM   21  C   UNL     1     -10.182  17.405  68.470  1.00  0.00    -0.369 C  
HETATM   22  C   UNL     1      -8.954  18.332  68.433  1.00  0.00    -0.309 C  
HETATM   23  C   UNL     1      -6.560  18.417  69.169  1.00  0.00    -0.268 C  
BRANCH  23  24
HETATM   24  C   UNL     1      -6.738  19.804  69.671  1.00  0.00    -0.351 C  
HETATM   25  C   UNL     1      -5.936  20.261  70.642  1.00  0.00    -0.348 C  
ENDBRANCH  23  24
ENDBRANCH  12  16
BRANCH  14  26
HETATM   26  C   UNL     1      -9.827  10.997  66.040  1.00  0.00    -0.273 A  
HETATM   27  C   UNL     1      -9.269  10.106  65.099  1.00  0.00    -0.262 A  
HETATM   28  C   UNL     1     -10.001  10.512  67.338  1.00  0.00    -0.214 A  
HETATM   29  C   UNL     1      -8.853   8.814  65.457  1.00  0.00    -0.229 A  
HETATM   30  C   UNL     1      -9.603   9.213  67.697  1.00  0.00    -0.181 A  
HETATM   31  C   UNL     1      -8.991   8.368  66.770  1.00  0.00    -0.145 A  
BRANCH  31  32
HETATM   32  O   UNL     1      -8.576   7.080  67.020  1.00  0.00    -0.119 OA 
BRANCH  32  33
HETATM   33  C   UNL     1      -9.004   6.397  68.139  1.00  0.00    -0.116 A  
HETATM   34  C   UNL     1      -8.086   6.262  69.184  1.00  0.00    -0.110 A  
HETATM   35  C   UNL     1      -8.442   5.585  70.354  1.00  0.00    -0.122 A  
HETATM   36  C   UNL     1      -9.721   5.044  70.483  1.00  0.00    -0.273 A  
HETATM   37  C   UNL     1     -10.654   5.218  69.462  1.00  0.00    -0.244 A  
HETATM   38  C   UNL     1     -10.306   5.920  68.305  1.00  0.00    -0.263 A  
ENDBRANCH  32  33
ENDBRANCH  31  32
ENDBRANCH  14  26
ENDBRANCH   3   6
TORSDOF 6
ENDMDL
MODEL       12
REMARK 921   NORMALIZED FREE ENERGY PREDICTED BY IDOCK:   -7.77 KCAL/MOL
REMARK 922        TOTAL FREE ENERGY PREDICTED BY IDOCK:  -10.80 KCAL/MOL
REMARK 923 INTER-LIGAND FREE ENERGY PREDICTED BY IDOCK:   -9.92 KCAL/MOL
REMARK 924 INTRA-LIGAND FREE ENERGY PREDICTED BY IDOCK:   -0.88 KCAL/MOL
REMARK 927      BINDING AFFINITY PREDICTED BY RF-SCORE:    0.00 PKD
ROOT
HETATM    1  N   UNL     1      -8.648  10.793  64.728  1.00  0.00    -0.324 N  
HETATM    2  H1  UNL     1      -8.072  10.334  65.434  1.00  0.00     0.000 HD 
HETATM    3  C   UNL     1      -9.944  11.105  65.032  1.00  0.00    -0.273 C  
HETATM    4  H2  UNL     1      -8.263  11.015  63.810  1.00  0.00     0.000 HD 
HETATM    5  O   UNL     1     -10.634  11.656  64.184  1.00  0.00    -0.298 OA 
ENDROOT
BRANCH   3   6
HETATM    6  C   UNL     1     -10.376  10.756  66.377  1.00  0.00    -0.306 A  
HETATM    7  C   UNL     1     -10.425   9.460  66.884  1.00  0.00    -0.211 A  
HETATM    8  N   UNL     1     -10.258   8.226  66.329  1.00  0.00    -0.435 NA 
HETATM    9  C   UNL     1     -10.804   7.083  67.066  1.00  0.00    -0.343 C  
HETATM   10  H   UNL     1      -9.775   8.104  65.439  1.00  0.00     0.000 HD 
HETATM   11  C   UNL     1     -10.311   7.150  68.504  1.00  0.00    -0.203 C  
HETATM   12  C   UNL     1     -10.660   8.500  69.193  1.00  0.00    -0.173 C  
HETATM   13  N   UNL     1     -10.665   9.594  68.223  1.00  0.00    -0.232 NA 
HETATM   14  C   UNL     1     -10.821  11.587  67.476  1.00  0.00    -0.237 A  
HETATM   15  N   UNL     1     -11.115  10.815  68.546  1.00  0.00    -0.241 NA 
BRANCH  12  16
HETATM   16  C   UNL     1      -9.823   8.720  70.518  1.00  0.00    -0.224 C  
HETATM   17  C   UNL     1     -10.615   8.664  71.837  1.00  0.00    -0.411 C  
HETATM   18  C   UNL     1     -11.042   7.240  72.147  1.00  0.00    -0.246 C  
HETATM   19  O   UNL     1     -11.156   5.042  73.704  1.00  0.00    -0.308 OA 
HETATM   20  N   UNL     1      -9.873   6.397  72.351  1.00  0.00    -0.167 N  
HETATM   21  C   UNL     1      -8.579   7.828  70.729  1.00  0.00    -0.133 C  
HETATM   22  C   UNL     1      -8.889   6.419  71.266  1.00  0.00    -0.138 C  
HETATM   23  C   UNL     1     -10.083   5.276  73.149  1.00  0.00    -0.180 C  
BRANCH  23  24
HETATM   24  C   UNL     1      -8.932   4.356  73.351  1.00  0.00    -0.111 C  
HETATM   25  C   UNL     1      -8.995   3.425  74.312  1.00  0.00    -0.094 C  
ENDBRANCH  23  24
ENDBRANCH  12  16
BRANCH  14  26
HETATM   26  C   UNL     1     -10.934  13.057  67.626  1.00  0.00    -0.277 A  
HETATM   27  C   UNL     1     -11.572  13.608  68.758  1.00  0.00    -0.359 A  
HETATM   28  C   UNL     1     -10.468  13.959  66.667  1.00  0.00    -0.272 A  
HETATM   29  C   UNL     1     -11.683  14.995  68.945  1.00  0.00    -0.354 A  
HETATM   30  C   UNL     1     -10.593  15.348  66.841  1.00  0.00    -0.309 A  
HETATM   31  C   UNL     1     -11.166  15.877  67.998  1.00  0.00    -0.319 A  
BRANCH  31  32
HETATM   32  O   UNL     1     -11.343  17.217  68.257  1.00  0.00    -0.121 OA 
BRANCH  32  33
HETATM   33  C   UNL     1     -10.363  18.138  67.952  1.00  0.00    -0.396 A  
HETATM   34  C   UNL     1     -10.724  19.178  67.089  1.00  0.00    -0.567 A  
HETATM   35  C   UNL     1      -9.789  20.153  66.732  1.00  0.00    -0.591 A  
HETATM   36  C   UNL     1      -8.492  20.095  67.240  1.00  0.00    -0.403 A  
HETATM   37  C   UNL     1      -8.143  19.087  68.137  1.00  0.00    -0.347 A  
HETATM   38  C   UNL     1      -9.087  18.128  68.517  1.00  0.00    -0.318 A  
ENDBRANCH  32  33
ENDBRANCH  31  32
ENDBRANCH  14  26
ENDBRANCH   3   6
TORSDOF 6
ENDMDL
MODEL       13
REMARK 921   NORMALIZED FREE ENERGY PREDICTED BY IDOCK:   -7.75 KCAL/MOL
REMARK 922        TOTAL FREE ENERGY PREDICTED BY IDOCK:  -10.78 KCAL/MOL
REMARK 923 INTER-LIGAND FREE ENERGY PREDICTED BY IDOCK:  -10.72 KCAL/MOL
REMARK 924 INTRA-LIGAND FREE ENERGY PREDICTED BY IDOCK:   -0.06 KCAL/MOL
REMARK 927      BINDING AFFINITY PREDICTED BY RF-SCORE:    0.00 PKD
ROOT
HETATM    1  N   UNL     1      -9.615   9.740  63.054  1.00  0.00    -0.540 N  
HETATM    2  H1  UNL     1     -10.633   9.768  63.089  1.00  0.00     0.000 HD 
HETATM    3  C   UNL     1      -8.913   9.729  64.228  1.00  0.00    -0.237 C  
HETATM    4  H2  UNL     1      -9.127   9.721  62.159  1.00  0.00     0.000 HD 
HETATM    5  O   UNL     1      -7.690   9.696  64.186  1.00  0.00    -0.117 OA 
ENDROOT
BRANCH   3   6
HETATM    6  C   UNL     1      -9.717   9.743  65.441  1.00  0.00    -0.383 A  
HETATM    7  C   UNL     1     -10.015   8.620  66.210  1.00  0.00    -0.217 A  
HETATM    8  N   UNL     1      -9.817   7.283  66.037  1.00  0.00    -0.401 NA 
HETATM    9  C   UNL     1     -10.639   6.377  66.843  1.00  0.00    -0.309 C  
HETATM   10  H   UNL     1      -9.127   6.928  65.374  1.00  0.00     0.000 HD 
HETATM   11  C   UNL     1     -10.543   6.799  68.302  1.00  0.00    -0.276 C  
HETATM   12  C   UNL     1     -10.941   8.287  68.521  1.00  0.00     0.217 C  
HETATM   13  N   UNL     1     -10.590   9.097  67.354  1.00  0.00    -0.274 NA 
HETATM   14  C   UNL     1     -10.362  10.835  66.139  1.00  0.00    -0.239 A  
HETATM   15  N   UNL     1     -10.998  10.368  67.236  1.00  0.00    -0.274 NA 
BRANCH  12  16
HETATM   16  C   UNL     1     -10.471   8.822  69.934  1.00  0.00    -0.227 C  
HETATM   17  C   UNL     1      -9.800  10.207  69.945  1.00  0.00    -0.223 C  
HETATM   18  C   UNL     1     -10.822  11.300  69.687  1.00  0.00    -0.095 C  
HETATM   19  O   UNL     1     -12.136  13.569  70.317  1.00  0.00    -0.335 OA 
HETATM   20  N   UNL     1     -11.809  11.330  70.757  1.00  0.00    -0.277 N  
HETATM   21  C   UNL     1     -11.519   8.845  71.069  1.00  0.00    -0.351 C  
HETATM   22  C   UNL     1     -12.473  10.053  71.029  1.00  0.00    -0.362 C  
HETATM   23  C   UNL     1     -12.436  12.557  70.950  1.00  0.00    -0.269 C  
BRANCH  23  24
HETATM   24  C   UNL     1     -13.487  12.629  71.999  1.00  0.00    -0.516 C  
HETATM   25  C   UNL     1     -14.120  13.789  72.218  1.00  0.00    -0.627 C  
ENDBRANCH  23  24
ENDBRANCH  12  16
BRANCH  14  26
HETATM   26  C   UNL     1     -10.380  12.297  65.893  1.00  0.00    -0.280 A  
HETATM   27  C   UNL     1      -9.565  13.155  66.661  1.00  0.00    -0.260 A  
HETATM   28  C   UNL     1     -11.209  12.900  64.945  1.00  0.00    -0.331 A  
HETATM   29  C   UNL     1      -9.539  14.543  66.446  1.00  0.00    -0.324 A  
HETATM   30  C   UNL     1     -11.201  14.291  64.739  1.00  0.00    -0.387 A  
HETATM   31  C   UNL     1     -10.339  15.117  65.460  1.00  0.00    -0.375 A  
BRANCH  31  32
HETATM   32  O   UNL     1     -10.263  16.486  65.340  1.00  0.00    -0.566 OA 
BRANCH  32  33
HETATM   33  C   UNL     1      -9.848  17.273  66.393  1.00  0.00    -0.299 A  
HETATM   34  C   UNL     1      -8.561  17.813  66.308  1.00  0.00    -0.217 A  
HETATM   35  C   UNL     1      -8.067  18.623  67.334  1.00  0.00    -0.258 A  
HETATM   36  C   UNL     1      -8.860  18.900  68.446  1.00  0.00    -0.379 A  
HETATM   37  C   UNL     1     -10.161  18.404  68.512  1.00  0.00    -0.413 A  
HETATM   38  C   UNL     1     -10.665  17.617  67.472  1.00  0.00    -0.294 A  
ENDBRANCH  32  33
ENDBRANCH  31  32
ENDBRANCH  14  26
ENDBRANCH   3   6
TORSDOF 6
ENDMDL
MODEL       14
REMARK 921   NORMALIZED FREE ENERGY PREDICTED BY IDOCK:   -7.72 KCAL/MOL
REMARK 922        TOTAL FREE ENERGY PREDICTED BY IDOCK:  -10.74 KCAL/MOL
REMARK 923 INTER-LIGAND FREE ENERGY PREDICTED BY IDOCK:   -9.45 KCAL/MOL
REMARK 924 INTRA-LIGAND FREE ENERGY PREDICTED BY IDOCK:   -1.28 KCAL/MOL
REMARK 927      BINDING AFFINITY PREDICTED BY RF-SCORE:    0.00 PKD
ROOT
HETATM    1  N   UNL     1     -13.234  10.212  72.318  1.00  0.00    -0.564 N  
HETATM    2  H1  UNL     1     -13.851  10.965  72.016  1.00  0.00     0.000 HD 
HETATM    3  C   UNL     1     -12.055  10.015  71.652  1.00  0.00    -0.334 C  
HETATM    4  H2  UNL     1     -13.491   9.615  73.104  1.00  0.00     0.000 HD 
HETATM    5  O   UNL     1     -11.314   9.111  72.016  1.00  0.00    -0.366 OA 
ENDROOT
BRANCH   3   6
HETATM    6  C   UNL     1     -11.789  10.939  70.559  1.00  0.00    -0.457 A  
HETATM    7  C   UNL     1     -12.146  12.285  70.551  1.00  0.00    -0.282 A  
HETATM    8  N   UNL     1     -12.898  13.063  71.380  1.00  0.00    -0.344 NA 
HETATM    9  C   UNL     1     -13.407  14.323  70.831  1.00  0.00    -0.208 C  
HETATM   10  H   UNL     1     -13.098  12.780  72.339  1.00  0.00     0.000 HD 
HETATM   11  C   UNL     1     -12.249  15.085  70.203  1.00  0.00    -0.392 C  
HETATM   12  C   UNL     1     -11.498  14.250  69.128  1.00  0.00    -0.291 C  
HETATM   13  N   UNL     1     -11.525  12.826  69.460  1.00  0.00    -0.254 NA 
HETATM   14  C   UNL     1     -11.122  10.738  69.290  1.00  0.00    -0.256 A  
HETATM   15  N   UNL     1     -11.103  11.896  68.593  1.00  0.00    -0.228 NA 
BRANCH  12  16
HETATM   16  C   UNL     1     -10.090  14.877  68.771  1.00  0.00    -0.241 C  
HETATM   17  C   UNL     1      -9.713  14.892  67.278  1.00  0.00    -0.228 C  
HETATM   18  C   UNL     1     -10.544  15.915  66.525  1.00  0.00    -0.297 C  
HETATM   19  O   UNL     1     -10.854  18.081  64.949  1.00  0.00    -0.715 OA 
HETATM   20  N   UNL     1     -10.261  17.256  67.018  1.00  0.00    -0.312 N  
HETATM   21  C   UNL     1      -9.790  16.297  69.301  1.00  0.00    -0.252 C  
HETATM   22  C   UNL     1     -10.407  17.433  68.465  1.00  0.00    -0.378 C  
HETATM   23  C   UNL     1     -10.498  18.283  66.109  1.00  0.00    -0.383 C  
BRANCH  23  24
HETATM   24  C   UNL     1     -10.270  19.675  66.578  1.00  0.00    -0.588 C  
HETATM   25  C   UNL     1      -9.088  20.262  66.347  1.00  0.00    -0.313 C  
ENDBRANCH  23  24
ENDBRANCH  12  16
BRANCH  14  26
HETATM   26  C   UNL     1     -10.443   9.559  68.701  1.00  0.00    -0.237 A  
HETATM   27  C   UNL     1     -10.867   9.043  67.458  1.00  0.00    -0.130 A  
HETATM   28  C   UNL     1      -9.400   8.883  69.338  1.00  0.00    -0.153 A  
HETATM   29  C   UNL     1     -10.238   7.941  66.858  1.00  0.00    -0.380 A  
HETATM   30  C   UNL     1      -8.779   7.767  68.751  1.00  0.00    -0.128 A  
HETATM   31  C   UNL     1      -9.167   7.312  67.490  1.00  0.00    -0.130 A  
BRANCH  31  32
HETATM   32  O   UNL     1      -8.630   6.226  66.837  1.00  0.00    -0.112 OA 
BRANCH  32  33
HETATM   33  C   UNL     1      -8.038   6.359  65.599  1.00  0.00    -0.131 A  
HETATM   34  C   UNL     1      -7.038   7.328  65.479  1.00  0.00    -0.064 A  
HETATM   35  C   UNL     1      -6.387   7.524  64.258  1.00  0.00    -0.048 A  
HETATM   36  C   UNL     1      -6.733   6.748  63.153  1.00  0.00    -0.043 A  
HETATM   37  C   UNL     1      -7.697   5.749  63.280  1.00  0.00    -0.089 A  
HETATM   38  C   UNL     1      -8.327   5.534  64.510  1.00  0.00    -0.127 A  
ENDBRANCH  32  33
ENDBRANCH  31  32
ENDBRANCH  14  26
ENDBRANCH   3   6
TORSDOF 6
ENDMDL
MODEL       15
REMARK 921   NORMALIZED FREE ENERGY PREDICTED BY IDOCK:   -7.70 KCAL/MOL
REMARK 922        TOTAL FREE ENERGY PREDICTED BY IDOCK:  -10.70 KCAL/MOL
REMARK 923 INTER-LIGAND FREE ENERGY PREDICTED BY IDOCK:   -9.79 KCAL/MOL
REMARK 924 INTRA-LIGAND FREE ENERGY PREDICTED BY IDOCK:   -0.91 KCAL/MOL
REMARK 927      BINDING AFFINITY PREDICTED BY RF-SCORE:    0.00 PKD
ROOT
HETATM    1  N   UNL     1     -10.925   9.282  71.796  1.00  0.00    -0.364 N  
HETATM    2  H1  UNL     1     -10.022   9.661  71.510  1.00  0.00     0.000 HD 
HETATM    3  C   UNL     1     -12.062   9.776  71.219  1.00  0.00    -0.382 C  
HETATM    4  H2  UNL     1     -10.978   8.548  72.501  1.00  0.00     0.000 HD 
HETATM    5  O   UNL     1     -13.145   9.321  71.562  1.00  0.00    -0.337 OA 
ENDROOT
BRANCH   3   6
HETATM    6  C   UNL     1     -11.860  10.810  70.214  1.00  0.00    -0.438 A  
HETATM    7  C   UNL     1     -12.146  12.160  70.395  1.00  0.00    -0.309 A  
HETATM    8  N   UNL     1     -12.773  12.865  71.380  1.00  0.00    -0.330 NA 
HETATM    9  C   UNL     1     -13.269  14.199  71.033  1.00  0.00    -0.272 C  
HETATM   10  H   UNL     1     -12.891  12.480  72.317  1.00  0.00     0.000 HD 
HETATM   11  C   UNL     1     -12.143  14.984  70.377  1.00  0.00    -0.384 C  
HETATM   12  C   UNL     1     -11.545  14.252  69.142  1.00  0.00    -0.305 C  
HETATM   13  N   UNL     1     -11.611  12.801  69.313  1.00  0.00    -0.300 NA 
HETATM   14  C   UNL     1     -11.333  10.733  68.868  1.00  0.00    -0.284 A  
HETATM   15  N   UNL     1     -11.324  11.963  68.308  1.00  0.00    -0.252 NA 
BRANCH  12  16
HETATM   16  C   UNL     1     -10.150  14.862  68.712  1.00  0.00    -0.241 C  
HETATM   17  C   UNL     1      -9.830  14.830  67.207  1.00  0.00    -0.230 C  
HETATM   18  C   UNL     1     -10.686  15.834  66.455  1.00  0.00    -0.283 C  
HETATM   19  O   UNL     1     -11.048  17.953  64.827  1.00  0.00    -0.785 OA 
HETATM   20  N   UNL     1     -10.380  17.187  66.897  1.00  0.00    -0.317 N  
HETATM   21  C   UNL     1      -9.824  16.296  69.188  1.00  0.00    -0.258 C  
HETATM   22  C   UNL     1     -10.469  17.408  68.342  1.00  0.00    -0.384 C  
HETATM   23  C   UNL     1     -10.648  18.188  65.967  1.00  0.00    -0.264 C  
BRANCH  23  24
HETATM   24  C   UNL     1     -10.397  19.593  66.385  1.00  0.00    -0.609 C  
HETATM   25  C   UNL     1      -9.151  20.083  66.332  1.00  0.00    -0.427 C  
ENDBRANCH  23  24
ENDBRANCH  12  16
BRANCH  14  26
HETATM   26  C   UNL     1     -10.776   9.606  68.082  1.00  0.00    -0.266 A  
HETATM   27  C   UNL     1     -11.012   8.275  68.485  1.00  0.00     0.163 A  
HETATM   28  C   UNL     1      -9.974   9.787  66.953  1.00  0.00    -0.270 A  
HETATM   29  C   UNL     1     -10.518   7.180  67.758  1.00  0.00    -0.284 A  
HETATM   30  C   UNL     1      -9.462   8.695  66.232  1.00  0.00    -0.307 A  
HETATM   31  C   UNL     1      -9.762   7.385  66.606  1.00  0.00    -0.194 A  
BRANCH  31  32
HETATM   32  O   UNL     1      -9.302   6.252  65.974  1.00  0.00    -0.135 OA 
BRANCH  32  33
HETATM   33  C   UNL     1      -8.867   5.160  66.694  1.00  0.00    -0.112 A  
HETATM   34  C   UNL     1      -9.620   3.988  66.576  1.00  0.00    -0.223 A  
HETATM   35  C   UNL     1      -9.245   2.835  67.272  1.00  0.00    -0.191 A  
HETATM   36  C   UNL     1      -8.112   2.851  68.085  1.00  0.00    -0.070 A  
HETATM   37  C   UNL     1      -7.332   4.003  68.167  1.00  0.00    -0.059 A  
HETATM   38  C   UNL     1      -7.692   5.147  67.448  1.00  0.00    -0.092 A  
ENDBRANCH  32  33
ENDBRANCH  31  32
ENDBRANCH  14  26
ENDBRANCH   3   6
TORSDOF 6
ENDMDL
MODEL       16
REMARK 921   NORMALIZED FREE ENERGY PREDICTED BY IDOCK:   -7.64 KCAL/MOL
REMARK 922        TOTAL FREE ENERGY PREDICTED BY IDOCK:  -10.62 KCAL/MOL
REMARK 923 INTER-LIGAND FREE ENERGY PREDICTED BY IDOCK:   -9.96 KCAL/MOL
REMARK 924 INTRA-LIGAND FREE ENERGY PREDICTED BY IDOCK:   -0.65 KCAL/MOL
REMARK 927      BINDING AFFINITY PREDICTED BY RF-SCORE:    0.00 PKD
ROOT
HETATM    1  N   UNL     1     -13.597  15.760  71.148  1.00  0.00    -0.596 N  
HETATM    2  H1  UNL     1     -14.103  15.440  70.323  1.00  0.00     0.000 HD 
HETATM    3  C   UNL     1     -12.233  15.834  71.101  1.00  0.00    -0.423 C  
HETATM    4  H2  UNL     1     -14.102  16.022  71.995  1.00  0.00     0.000 HD 
HETATM    5  O   UNL     1     -11.626  16.220  72.093  1.00  0.00    -0.450 OA 
ENDROOT
BRANCH   3   6
HETATM    6  C   UNL     1     -11.625  15.452  69.834  1.00  0.00    -0.342 A  
HETATM    7  C   UNL     1     -11.047  16.339  68.931  1.00  0.00    -0.345 A  
HETATM    8  N   UNL     1     -10.992  17.699  68.852  1.00  0.00    -0.154 NA 
HETATM    9  C   UNL     1     -10.672  18.279  67.546  1.00  0.00    -0.355 C  
HETATM   10  H   UNL     1     -11.166  18.287  69.668  1.00  0.00     0.000 HD 
HETATM   11  C   UNL     1      -9.415  17.610  67.009  1.00  0.00    -0.266 C  
HETATM   12  C   UNL     1      -9.547  16.063  66.936  1.00  0.00    -0.226 C  
HETATM   13  N   UNL     1     -10.412  15.562  68.003  1.00  0.00    -0.254 NA 
HETATM   14  C   UNL     1     -11.452  14.153  69.221  1.00  0.00    -0.292 A  
HETATM   15  N   UNL     1     -10.820  14.286  68.034  1.00  0.00    -0.236 NA 
BRANCH  12  16
HETATM   16  C   UNL     1      -8.141  15.358  66.761  1.00  0.00    -0.212 C  
HETATM   17  C   UNL     1      -6.904  16.242  67.006  1.00  0.00    -0.235 C  
HETATM   18  C   UNL     1      -6.750  16.551  68.485  1.00  0.00    -0.145 C  
HETATM   19  O   UNL     1      -5.393  16.573  70.814  1.00  0.00    -0.188 OA 
HETATM   20  N   UNL     1      -6.516  15.325  69.234  1.00  0.00    -0.122 N  
HETATM   21  C   UNL     1      -7.897  14.054  67.552  1.00  0.00    -0.197 C  
HETATM   22  C   UNL     1      -7.506  14.267  69.026  1.00  0.00    -0.102 C  
HETATM   23  C   UNL     1      -5.833  15.488  70.436  1.00  0.00    -0.097 C  
BRANCH  23  24
HETATM   24  C   UNL     1      -5.609  14.273  71.263  1.00  0.00    -0.205 C  
HETATM   25  C   UNL     1      -5.267  14.408  72.552  1.00  0.00    -0.208 C  
ENDBRANCH  23  24
ENDBRANCH  12  16
BRANCH  14  26
HETATM   26  C   UNL     1     -11.777  12.783  69.687  1.00  0.00    -0.372 A  
HETATM   27  C   UNL     1     -12.522  12.594  70.870  1.00  0.00    -0.368 A  
HETATM   28  C   UNL     1     -11.346  11.631  69.026  1.00  0.00    -0.337 A  
HETATM   29  C   UNL     1     -12.866  11.314  71.334  1.00  0.00    -0.515 A  
HETATM   30  C   UNL     1     -11.672  10.347  69.496  1.00  0.00    -0.259 A  
HETATM   31  C   UNL     1     -12.466  10.180  70.631  1.00  0.00    -0.284 A  
BRANCH  31  32
HETATM   32  O   UNL     1     -12.830   8.970  71.175  1.00  0.00    -0.275 OA 
BRANCH  32  33
HETATM   33  C   UNL     1     -11.885   8.022  71.506  1.00  0.00    -0.292 A  
HETATM   34  C   UNL     1     -11.857   6.861  70.728  1.00  0.00    -0.427 A  
HETATM   35  C   UNL     1     -10.927   5.853  70.998  1.00  0.00    -0.335 A  
HETATM   36  C   UNL     1     -10.019   6.006  72.045  1.00  0.00    -0.195 A  
HETATM   37  C   UNL     1     -10.013   7.182  72.792  1.00  0.00    -0.219 A  
HETATM   38  C   UNL     1     -10.924   8.202  72.503  1.00  0.00    -0.439 A  
ENDBRANCH  32  33
ENDBRANCH  31  32
ENDBRANCH  14  26
ENDBRANCH   3   6
TORSDOF 6
ENDMDL
MODEL       17
REMARK 921   NORMALIZED FREE ENERGY PREDICTED BY IDOCK:   -7.63 KCAL/MOL
REMARK 922        TOTAL FREE ENERGY PREDICTED BY IDOCK:  -10.61 KCAL/MOL
REMARK 923 INTER-LIGAND FREE ENERGY PREDICTED BY IDOCK:   -9.44 KCAL/MOL
REMARK 924 INTRA-LIGAND FREE ENERGY PREDICTED BY IDOCK:   -1.16 KCAL/MOL
REMARK 927      BINDING AFFINITY PREDICTED BY RF-SCORE:    0.00 PKD
ROOT
HETATM    1  N   UNL     1     -13.383  10.908  71.527  1.00  0.00    -0.276 N  
HETATM    2  H1  UNL     1     -13.355   9.891  71.457  1.00  0.00     0.000 HD 
HETATM    3  C   UNL     1     -12.460  11.644  70.837  1.00  0.00    -0.341 C  
HETATM    4  H2  UNL     1     -14.088  11.369  72.101  1.00  0.00     0.000 HD 
HETATM    5  O   UNL     1     -12.494  12.865  70.921  1.00  0.00    -0.367 OA 
ENDROOT
BRANCH   3   6
HETATM    6  C   UNL     1     -11.515  10.878  70.037  1.00  0.00    -0.411 A  
HETATM    7  C   UNL     1     -11.247   9.522  70.207  1.00  0.00    -0.261 A  
HETATM    8  N   UNL     1     -11.608   8.603  71.147  1.00  0.00    -0.274 NA 
HETATM    9  C   UNL     1     -10.795   7.388  71.237  1.00  0.00    -0.238 C  
HETATM   10  H   UNL     1     -12.409   8.754  71.760  1.00  0.00     0.000 HD 
HETATM   11  C   UNL     1     -10.663   6.783  69.847  1.00  0.00    -0.290 C  
HETATM   12  C   UNL     1     -10.083   7.788  68.811  1.00  0.00    -0.196 C  
HETATM   13  N   UNL     1     -10.486   9.158  69.132  1.00  0.00    -0.216 NA 
HETATM   14  C   UNL     1     -10.674  11.273  68.927  1.00  0.00    -0.207 A  
HETATM   15  N   UNL     1      -9.961  10.211  68.491  1.00  0.00    -0.158 NA 
BRANCH  12  16
HETATM   16  C   UNL     1     -10.313   7.302  67.323  1.00  0.00    -0.349 C  
HETATM   17  C   UNL     1      -9.106   7.424  66.376  1.00  0.00    -0.196 C  
HETATM   18  C   UNL     1      -8.045   6.395  66.723  1.00  0.00    -0.109 C  
HETATM   19  O   UNL     1      -6.409   4.331  66.146  1.00  0.00    -0.031 OA 
HETATM   20  N   UNL     1      -8.566   5.050  66.529  1.00  0.00    -0.110 N  
HETATM   21  C   UNL     1     -10.872   5.876  67.121  1.00  0.00    -0.373 C  
HETATM   22  C   UNL     1      -9.820   4.758  67.228  1.00  0.00    -0.184 C  
HETATM   23  C   UNL     1      -7.606   4.075  66.272  1.00  0.00    -0.089 C  
BRANCH  23  24
HETATM   24  C   UNL     1      -8.081   2.675  66.113  1.00  0.00    -0.084 C  
HETATM   25  C   UNL     1      -7.575   1.715  66.899  1.00  0.00    -0.060 C  
ENDBRANCH  23  24
ENDBRANCH  12  16
BRANCH  14  26
HETATM   26  C   UNL     1     -10.529  12.556  68.198  1.00  0.00    -0.238 A  
HETATM   27  C   UNL     1      -9.252  13.123  68.007  1.00  0.00    -0.211 A  
HETATM   28  C   UNL     1     -11.617  13.280  67.707  1.00  0.00    -0.380 A  
HETATM   29  C   UNL     1      -9.071  14.326  67.306  1.00  0.00    -0.221 A  
HETATM   30  C   UNL     1     -11.444  14.494  67.021  1.00  0.00    -0.383 A  
HETATM   31  C   UNL     1     -10.168  15.006  66.782  1.00  0.00    -0.260 A  
BRANCH  31  32
HETATM   32  O   UNL     1      -9.895  16.188  66.131  1.00  0.00    -0.290 OA 
BRANCH  32  33
HETATM   33  C   UNL     1     -10.017  17.401  66.774  1.00  0.00    -0.307 A  
HETATM   34  C   UNL     1     -10.477  18.477  66.007  1.00  0.00    -0.433 A  
HETATM   35  C   UNL     1     -10.630  19.740  66.585  1.00  0.00    -0.578 A  
HETATM   36  C   UNL     1     -10.329  19.930  67.932  1.00  0.00    -0.545 A  
HETATM   37  C   UNL     1      -9.917  18.850  68.711  1.00  0.00    -0.466 A  
HETATM   38  C   UNL     1      -9.791  17.581  68.140  1.00  0.00    -0.306 A  
ENDBRANCH  32  33
ENDBRANCH  31  32
ENDBRANCH  14  26
ENDBRANCH   3   6
TORSDOF 6
ENDMDL
MODEL       18
REMARK 921   NORMALIZED FREE ENERGY PREDICTED BY IDOCK:   -7.60 KCAL/MOL
REMARK 922        TOTAL FREE ENERGY PREDICTED BY IDOCK:  -10.57 KCAL/MOL
REMARK 923 INTER-LIGAND FREE ENERGY PREDICTED BY IDOCK:   -9.82 KCAL/MOL
REMARK 924 INTRA-LIGAND FREE ENERGY PREDICTED BY IDOCK:   -0.74 KCAL/MOL
REMARK 927      BINDING AFFINITY PREDICTED BY RF-SCORE:    0.00 PKD
ROOT
HETATM    1  N   UNL     1     -12.220  11.605  63.135  1.00  0.00    -0.966 N  
HETATM    2  H1  UNL     1     -11.267  11.519  62.782  1.00  0.00     0.000 HD 
HETATM    3  C   UNL     1     -12.433  12.277  64.307  1.00  0.00    -0.413 C  
HETATM    4  H2  UNL     1     -13.001  11.196  62.623  1.00  0.00     0.000 HD 
HETATM    5  O   UNL     1     -13.577  12.379  64.732  1.00  0.00    -0.391 OA 
ENDROOT
BRANCH   3   6
HETATM    6  C   UNL     1     -11.244  12.831  64.939  1.00  0.00    -0.331 A  
HETATM    7  C   UNL     1     -11.000  14.190  65.119  1.00  0.00    -0.356 A  
HETATM    8  N   UNL     1     -11.625  15.323  64.689  1.00  0.00    -0.527 NA 
HETATM    9  C   UNL     1     -10.847  16.564  64.713  1.00  0.00    -0.127 C  
HETATM   10  H   UNL     1     -12.592  15.306  64.365  1.00  0.00     0.000 HD 
HETATM   11  C   UNL     1     -10.227  16.725  66.093  1.00  0.00    -0.363 C  
HETATM   12  C   UNL     1      -9.367  15.498  66.509  1.00  0.00    -0.283 C  
HETATM   13  N   UNL     1      -9.905  14.265  65.934  1.00  0.00    -0.310 NA 
HETATM   14  C   UNL     1     -10.090  12.180  65.523  1.00  0.00    -0.248 A  
HETATM   15  N   UNL     1      -9.233  13.108  66.002  1.00  0.00     0.001 NA 
BRANCH  12  16
HETATM   16  C   UNL     1      -9.058  15.491  68.060  1.00  0.00    -0.182 C  
HETATM   17  C   UNL     1      -9.798  16.545  68.903  1.00  0.00    -0.260 C  
HETATM   18  C   UNL     1     -11.271  16.195  69.028  1.00  0.00    -0.347 C  
HETATM   19  O   UNL     1     -13.509  15.653  70.428  1.00  0.00    -0.296 OA 
HETATM   20  N   UNL     1     -11.430  14.935  69.739  1.00  0.00    -0.278 N  
HETATM   21  C   UNL     1      -9.221  14.151  68.812  1.00  0.00    -0.080 C  
HETATM   22  C   UNL     1     -10.673  13.807  69.191  1.00  0.00    -0.123 C  
HETATM   23  C   UNL     1     -12.649  14.773  70.391  1.00  0.00    -0.346 C  
BRANCH  23  24
HETATM   24  C   UNL     1     -12.882  13.484  71.094  1.00  0.00    -0.387 C  
HETATM   25  C   UNL     1     -13.504  13.484  72.280  1.00  0.00    -0.669 C  
ENDBRANCH  23  24
ENDBRANCH  12  16
BRANCH  14  26
HETATM   26  C   UNL     1      -9.753  10.750  65.725  1.00  0.00    -0.278 A  
HETATM   27  C   UNL     1     -10.480   9.974  66.653  1.00  0.00    -0.244 A  
HETATM   28  C   UNL     1      -8.703  10.114  65.061  1.00  0.00    -0.190 A  
HETATM   29  C   UNL     1     -10.204   8.613  66.859  1.00  0.00    -0.367 A  
HETATM   30  C   UNL     1      -8.411   8.756  65.277  1.00  0.00    -0.168 A  
HETATM   31  C   UNL     1      -9.183   7.987  66.148  1.00  0.00    -0.163 A  
BRANCH  31  32
HETATM   32  O   UNL     1      -8.972   6.657  66.435  1.00  0.00    -0.141 OA 
BRANCH  32  33
HETATM   33  C   UNL     1      -9.107   6.174  67.719  1.00  0.00    -0.117 A  
HETATM   34  C   UNL     1      -8.206   6.658  68.673  1.00  0.00    -0.119 A  
HETATM   35  C   UNL     1      -8.278   6.219  69.997  1.00  0.00    -0.125 A  
HETATM   36  C   UNL     1      -9.254   5.297  70.373  1.00  0.00    -0.190 A  
HETATM   37  C   UNL     1     -10.183   4.848  69.436  1.00  0.00    -0.229 A  
HETATM   38  C   UNL     1     -10.129   5.310  68.117  1.00  0.00    -0.211 A  
ENDBRANCH  32  33
ENDBRANCH  31  32
ENDBRANCH  14  26
ENDBRANCH   3   6
TORSDOF 6
ENDMDL
MODEL       19
REMARK 921   NORMALIZED FREE ENERGY PREDICTED BY IDOCK:   -7.56 KCAL/MOL
REMARK 922        TOTAL FREE ENERGY PREDICTED BY IDOCK:  -10.51 KCAL/MOL
REMARK 923 INTER-LIGAND FREE ENERGY PREDICTED BY IDOCK:   -9.51 KCAL/MOL
REMARK 924 INTRA-LIGAND FREE ENERGY PREDICTED BY IDOCK:   -1.00 KCAL/MOL
REMARK 927      BINDING AFFINITY PREDICTED BY RF-SCORE:    0.00 PKD
ROOT
HETATM    1  N   UNL     1     -12.641  14.586  63.582  1.00  0.00    -0.992 N  
HETATM    2  H1  UNL     1     -11.994  15.356  63.417  1.00  0.00     0.000 HD 
HETATM    3  C   UNL     1     -12.410  13.742  64.633  1.00  0.00    -0.372 C  
HETATM    4  H2  UNL     1     -13.448  14.447  62.974  1.00  0.00     0.000 HD 
HETATM    5  O   UNL     1     -13.188  12.817  64.831  1.00  0.00    -0.808 OA 
ENDROOT
BRANCH   3   6
HETATM    6  C   UNL     1     -11.239  14.049  65.441  1.00  0.00    -0.319 A  
HETATM    7  C   UNL     1     -10.752  15.332  65.679  1.00  0.00    -0.365 A  
HETATM    8  N   UNL     1     -11.064  16.563  65.183  1.00  0.00    -0.347 NA 
HETATM    9  C   UNL     1     -10.062  17.620  65.342  1.00  0.00     0.434 C  
HETATM   10  H   UNL     1     -11.957  16.740  64.722  1.00  0.00     0.000 HD 
HETATM   11  C   UNL     1      -9.630  17.668  66.800  1.00  0.00    -0.297 C  
HETATM   12  C   UNL     1      -9.108  16.296  67.314  1.00  0.00    -0.203 C  
HETATM   13  N   UNL     1      -9.796  15.192  66.645  1.00  0.00    -0.243 NA 
HETATM   14  C   UNL     1     -10.340  13.184  66.175  1.00  0.00    -0.284 A  
HETATM   15  N   UNL     1      -9.390  13.923  66.789  1.00  0.00    -0.269 NA 
BRANCH  12  16
HETATM   16  C   UNL     1      -9.036  16.246  68.894  1.00  0.00    -0.250 C  
HETATM   17  C   UNL     1     -10.088  17.081  69.647  1.00  0.00     0.062 C  
HETATM   18  C   UNL     1     -11.463  16.449  69.524  1.00  0.00    -0.123 C  
HETATM   19  O   UNL     1     -13.732  15.398  70.534  1.00  0.00    -0.237 OA 
HETATM   20  N   UNL     1     -11.473  15.137  70.156  1.00  0.00    -0.262 N  
HETATM   21  C   UNL     1      -9.040  14.852  69.561  1.00  0.00     0.018 C  
HETATM   22  C   UNL     1     -10.434  14.214  69.694  1.00  0.00     0.211 C  
HETATM   23  C   UNL     1     -12.718  14.703  70.601  1.00  0.00    -0.357 C  
BRANCH  23  24
HETATM   24  C   UNL     1     -12.792  13.350  71.211  1.00  0.00    -0.407 C  
HETATM   25  C   UNL     1     -13.413  13.191  72.387  1.00  0.00    -0.643 C  
ENDBRANCH  23  24
ENDBRANCH  12  16
BRANCH  14  26
HETATM   26  C   UNL     1     -10.334  11.718  66.398  1.00  0.00    -0.257 A  
HETATM   27  C   UNL     1      -9.822  10.852  65.409  1.00  0.00    -0.308 A  
HETATM   28  C   UNL     1     -10.855  11.121  67.548  1.00  0.00    -0.303 A  
HETATM   29  C   UNL     1      -9.782   9.460  65.591  1.00  0.00    -0.336 A  
HETATM   30  C   UNL     1     -10.834   9.727  67.726  1.00  0.00    -0.306 A  
HETATM   31  C   UNL     1     -10.263   8.890  66.767  1.00  0.00    -0.278 A  
BRANCH  31  32
HETATM   32  O   UNL     1     -10.203   7.517  66.844  1.00  0.00    -0.252 OA 
BRANCH  32  33
HETATM   33  C   UNL     1     -10.033   6.877  68.054  1.00  0.00    -0.154 A  
HETATM   34  C   UNL     1      -8.728   6.809  68.553  1.00  0.00    -0.124 A  
HETATM   35  C   UNL     1      -8.472   6.179  69.773  1.00  0.00    -0.128 A  
HETATM   36  C   UNL     1      -9.520   5.617  70.500  1.00  0.00    -0.203 A  
HETATM   37  C   UNL     1     -10.828   5.724  70.029  1.00  0.00    -0.403 A  
HETATM   38  C   UNL     1     -11.087   6.380  68.822  1.00  0.00    -0.404 A  
ENDBRANCH  32  33
ENDBRANCH  31  32
ENDBRANCH  14  26
ENDBRANCH   3   6
TORSDOF 6
ENDMDL
MODEL       20
REMARK 921   NORMALIZED FREE ENERGY PREDICTED BY IDOCK:   -7.53 KCAL/MOL
REMARK 922        TOTAL FREE ENERGY PREDICTED BY IDOCK:  -10.47 KCAL/MOL
REMARK 923 INTER-LIGAND FREE ENERGY PREDICTED BY IDOCK:   -9.31 KCAL/MOL
REMARK 924 INTRA-LIGAND FREE ENERGY PREDICTED BY IDOCK:   -1.16 KCAL/MOL
REMARK 927      BINDING AFFINITY PREDICTED BY RF-SCORE:    0.00 PKD
ROOT
HETATM    1  N   UNL     1     -12.017  11.467  62.896  1.00  0.00    -0.768 N  
HETATM    2  H1  UNL     1     -11.027  11.523  62.658  1.00  0.00     0.000 HD 
HETATM    3  C   UNL     1     -12.463  12.098  64.024  1.00  0.00    -0.440 C  
HETATM    4  H2  UNL     1     -12.664  10.949  62.302  1.00  0.00     0.000 HD 
HETATM    5  O   UNL     1     -13.652  12.032  64.309  1.00  0.00    -0.527 OA 
ENDROOT
BRANCH   3   6
HETATM    6  C   UNL     1     -11.451  12.820  64.783  1.00  0.00    -0.356 A  
HETATM    7  C   UNL     1     -11.323  14.205  64.819  1.00  0.00    -0.371 A  
HETATM    8  N   UNL     1     -11.917  15.223  64.134  1.00  0.00    -0.864 NA 
HETATM    9  C   UNL     1     -11.230  16.517  64.133  1.00  0.00     0.541 C  
HETATM   10  H   UNL     1     -12.802  15.089  63.644  1.00  0.00     0.000 HD 
HETATM   11  C   UNL     1     -10.897  16.894  65.569  1.00  0.00    -0.101 C  
HETATM   12  C   UNL     1     -10.064  15.800  66.296  1.00  0.00    -0.303 C  
HETATM   13  N   UNL     1     -10.412  14.467  65.804  1.00  0.00    -0.306 NA 
HETATM   14  C   UNL     1     -10.396  12.340  65.650  1.00  0.00    -0.257 A  
HETATM   15  N   UNL     1      -9.700  13.385  66.149  1.00  0.00    -0.275 NA 
BRANCH  12  16
HETATM   16  C   UNL     1     -10.059  16.007  67.865  1.00  0.00    -0.241 C  
HETATM   17  C   UNL     1      -8.851  15.426  68.622  1.00  0.00    -0.186 C  
HETATM   18  C   UNL     1      -7.601  16.242  68.344  1.00  0.00    -0.166 C  
HETATM   19  O   UNL     1      -5.477  17.726  69.089  1.00  0.00    -0.180 OA 
HETATM   20  N   UNL     1      -7.766  17.600  68.843  1.00  0.00    -0.245 N  
HETATM   21  C   UNL     1     -10.241  17.448  68.392  1.00  0.00    -0.362 C  
HETATM   22  C   UNL     1      -8.959  18.301  68.365  1.00  0.00    -0.309 C  
HETATM   23  C   UNL     1      -6.582  18.263  69.157  1.00  0.00    -0.258 C  
BRANCH  23  24
HETATM   24  C   UNL     1      -6.691  19.669  69.627  1.00  0.00    -0.341 C  
HETATM   25  C   UNL     1      -5.632  20.482  69.520  1.00  0.00    -0.389 C  
ENDBRANCH  23  24
ENDBRANCH  12  16
BRANCH  14  26
HETATM   26  C   UNL     1     -10.024  10.977  66.101  1.00  0.00    -0.277 A  
HETATM   27  C   UNL     1      -9.195  10.166  65.298  1.00  0.00    -0.257 A  
HETATM   28  C   UNL     1     -10.489  10.416  67.292  1.00  0.00    -0.304 A  
HETATM   29  C   UNL     1      -8.805   8.878  65.699  1.00  0.00    -0.230 A  
HETATM   30  C   UNL     1     -10.117   9.119  67.689  1.00  0.00    -0.273 A  
HETATM   31  C   UNL     1      -9.242   8.357  66.915  1.00  0.00    -0.157 A  
BRANCH  31  32
HETATM   32  O   UNL     1      -8.827   7.078  67.211  1.00  0.00    -0.119 OA 
BRANCH  32  33
HETATM   33  C   UNL     1      -9.078   6.029  66.352  1.00  0.00    -0.150 A  
HETATM   34  C   UNL     1     -10.365   5.485  66.381  1.00  0.00    -0.272 A  
HETATM   35  C   UNL     1     -10.700   4.421  65.540  1.00  0.00    -0.126 A  
HETATM   36  C   UNL     1      -9.750   3.900  64.663  1.00  0.00    -0.186 A  
HETATM   37  C   UNL     1      -8.480   4.471  64.597  1.00  0.00    -0.130 A  
HETATM   38  C   UNL     1      -8.154   5.555  65.419  1.00  0.00    -0.123 A  
ENDBRANCH  32  33
ENDBRANCH  31  32
ENDBRANCH  14  26
ENDBRANCH   3   6
TORSDOF 6
ENDMDL
MODEL       21
REMARK 921   NORMALIZED FREE ENERGY PREDICTED BY IDOCK:   -7.53 KCAL/MOL
REMARK 922        TOTAL FREE ENERGY PREDICTED BY IDOCK:  -10.47 KCAL/MOL
REMARK 923 INTER-LIGAND FREE ENERGY PREDICTED BY IDOCK:   -9.97 KCAL/MOL
REMARK 924 INTRA-LIGAND FREE ENERGY PREDICTED BY IDOCK:   -0.50 KCAL/MOL
REMARK 927      BINDING AFFINITY PREDICTED BY RF-SCORE:    0.00 PKD
ROOT
HETATM    1  N   UNL     1     -13.802   7.429  70.956  1.00  0.00    -0.609 N  
HETATM    2  H1  UNL     1     -13.154   6.902  70.372  1.00  0.00     0.000 HD 
HETATM    3  C   UNL     1     -13.301   8.344  71.840  1.00  0.00    -0.357 C  
HETATM    4  H2  UNL     1     -14.808   7.277  70.882  1.00  0.00     0.000 HD 
HETATM    5  O   UNL     1     -14.079   8.977  72.542  1.00  0.00    -0.483 OA 
ENDROOT
BRANCH   3   6
HETATM    6  C   UNL     1     -11.852   8.486  71.845  1.00  0.00    -0.407 A  
HETATM    7  C   UNL     1     -10.979   7.704  72.597  1.00  0.00    -0.351 A  
HETATM    8  N   UNL     1     -11.158   6.768  73.572  1.00  0.00    -0.498 NA 
HETATM    9  C   UNL     1     -10.008   6.471  74.429  1.00  0.00    -0.351 C  
HETATM   10  H   UNL     1     -12.053   6.295  73.698  1.00  0.00     0.000 HD 
HETATM   11  C   UNL     1      -8.804   6.176  73.547  1.00  0.00    -0.124 C  
HETATM   12  C   UNL     1      -8.496   7.329  72.550  1.00  0.00    -0.108 C  
HETATM   13  N   UNL     1      -9.726   8.011  72.146  1.00  0.00    -0.200 NA 
HETATM   14  C   UNL     1     -10.986   9.390  71.118  1.00  0.00    -0.360 A  
HETATM   15  N   UNL     1      -9.696   9.148  71.438  1.00  0.00    -0.294 NA 
BRANCH  12  16
HETATM   16  C   UNL     1      -7.519   6.866  71.394  1.00  0.00    -0.082 C  
HETATM   17  C   UNL     1      -7.166   5.368  71.365  1.00  0.00    -0.072 C  
HETATM   18  C   UNL     1      -8.358   4.544  70.913  1.00  0.00    -0.088 C  
HETATM   19  O   UNL     1      -9.589   2.770  69.298  1.00  0.00    -0.124 OA 
HETATM   20  N   UNL     1      -8.721   4.891  69.547  1.00  0.00    -0.086 N  
HETATM   21  C   UNL     1      -7.904   7.242  69.946  1.00  0.00    -0.112 C  
HETATM   22  C   UNL     1      -8.955   6.317  69.306  1.00  0.00    -0.125 C  
HETATM   23  C   UNL     1      -9.383   3.893  68.837  1.00  0.00    -0.164 C  
BRANCH  23  24
HETATM   24  C   UNL     1      -9.819   4.213  67.453  1.00  0.00    -0.152 C  
HETATM   25  C   UNL     1      -9.114   3.741  66.415  1.00  0.00    -0.157 C  
ENDBRANCH  23  24
ENDBRANCH  12  16
BRANCH  14  26
HETATM   26  C   UNL     1     -11.267  10.427  70.095  1.00  0.00    -0.393 A  
HETATM   27  C   UNL     1     -10.886  10.221  68.753  1.00  0.00    -0.265 A  
HETATM   28  C   UNL     1     -11.871  11.649  70.396  1.00  0.00    -0.385 A  
HETATM   29  C   UNL     1     -11.151  11.170  67.752  1.00  0.00    -0.344 A  
HETATM   30  C   UNL     1     -12.122  12.611  69.402  1.00  0.00    -0.236 A  
HETATM   31  C   UNL     1     -11.799  12.363  68.068  1.00  0.00    -0.316 A  
BRANCH  31  32
HETATM   32  O   UNL     1     -11.994  13.240  67.026  1.00  0.00    -0.379 OA 
BRANCH  32  33
HETATM   33  C   UNL     1     -11.769  12.859  65.720  1.00  0.00    -0.390 A  
HETATM   34  C   UNL     1     -10.436  12.775  65.308  1.00  0.00    -0.312 A  
HETATM   35  C   UNL     1     -10.124  12.393  64.000  1.00  0.00    -0.342 A  
HETATM   36  C   UNL     1     -11.146  12.090  63.101  1.00  0.00    -0.265 A  
HETATM   37  C   UNL     1     -12.474  12.127  63.521  1.00  0.00    -0.666 A  
HETATM   38  C   UNL     1     -12.784  12.481  64.838  1.00  0.00    -0.371 A  
ENDBRANCH  32  33
ENDBRANCH  31  32
ENDBRANCH  14  26
ENDBRANCH   3   6
TORSDOF 6
ENDMDL
MODEL       22
REMARK 921   NORMALIZED FREE ENERGY PREDICTED BY IDOCK:   -7.51 KCAL/MOL
REMARK 922        TOTAL FREE ENERGY PREDICTED BY IDOCK:  -10.45 KCAL/MOL
REMARK 923 INTER-LIGAND FREE ENERGY PREDICTED BY IDOCK:   -9.58 KCAL/MOL
REMARK 924 INTRA-LIGAND FREE ENERGY PREDICTED BY IDOCK:   -0.87 KCAL/MOL
REMARK 927      BINDING AFFINITY PREDICTED BY RF-SCORE:    0.00 PKD
ROOT
HETATM    1  N   UNL     1     -12.099  11.364  63.098  1.00  0.00    -0.857 N  
HETATM    2  H1  UNL     1     -11.140  11.276  62.765  1.00  0.00     0.000 HD 
HETATM    3  C   UNL     1     -12.348  12.129  64.204  1.00  0.00    -0.409 C  
HETATM    4  H2  UNL     1     -12.861  10.889  62.615  1.00  0.00     0.000 HD 
HETATM    5  O   UNL     1     -13.500  12.234  64.605  1.00  0.00    -0.620 OA 
ENDROOT
BRANCH   3   6
HETATM    6  C   UNL     1     -11.184  12.771  64.799  1.00  0.00    -0.339 A  
HETATM    7  C   UNL     1     -11.040  14.144  64.979  1.00  0.00    -0.370 A  
HETATM    8  N   UNL     1     -11.765  15.227  64.579  1.00  0.00    -0.569 NA 
HETATM    9  C   UNL     1     -11.085  16.524  64.584  1.00  0.00    -0.123 C  
HETATM   10  H   UNL     1     -12.739  15.137  64.288  1.00  0.00     0.000 HD 
HETATM   11  C   UNL     1     -10.432  16.727  65.944  1.00  0.00    -0.311 C  
HETATM   12  C   UNL     1      -9.465  15.569  66.321  1.00  0.00    -0.323 C  
HETATM   13  N   UNL     1      -9.927  14.300  65.757  1.00  0.00    -0.326 NA 
HETATM   14  C   UNL     1      -9.964  12.209  65.339  1.00  0.00    -0.246 A  
HETATM   15  N   UNL     1      -9.165  13.199  65.794  1.00  0.00     0.171 NA 
BRANCH  12  16
HETATM   16  C   UNL     1      -9.103  15.580  67.861  1.00  0.00    -0.175 C  
HETATM   17  C   UNL     1      -9.849  16.613  68.726  1.00  0.00    -0.252 C  
HETATM   18  C   UNL     1     -11.304  16.216  68.902  1.00  0.00    -0.350 C  
HETATM   19  O   UNL     1     -13.474  15.608  70.381  1.00  0.00    -0.296 OA 
HETATM   20  N   UNL     1     -11.397  14.955  69.623  1.00  0.00    -0.268 N  
HETATM   21  C   UNL     1      -9.197  14.239  68.623  1.00  0.00    -0.167 C  
HETATM   22  C   UNL     1     -10.623  13.850  69.053  1.00  0.00    -0.167 C  
HETATM   23  C   UNL     1     -12.588  14.757  70.317  1.00  0.00    -0.315 C  
BRANCH  23  24
HETATM   24  C   UNL     1     -12.754  13.465  71.032  1.00  0.00    -0.387 C  
HETATM   25  C   UNL     1     -13.489  13.422  72.152  1.00  0.00    -0.646 C  
ENDBRANCH  23  24
ENDBRANCH  12  16
BRANCH  14  26
HETATM   26  C   UNL     1      -9.511  10.809  65.520  1.00  0.00    -0.253 A  
HETATM   27  C   UNL     1     -10.181   9.957  66.423  1.00  0.00    -0.292 A  
HETATM   28  C   UNL     1      -8.403  10.275  64.858  1.00  0.00    -0.173 A  
HETATM   29  C   UNL     1      -9.795   8.620  66.608  1.00  0.00    -0.336 A  
HETATM   30  C   UNL     1      -8.000   8.943  65.054  1.00  0.00    -0.125 A  
HETATM   31  C   UNL     1      -8.715   8.095  65.900  1.00  0.00    -0.156 A  
BRANCH  31  32
HETATM   32  O   UNL     1      -8.397   6.783  66.165  1.00  0.00    -0.118 OA 
BRANCH  32  33
HETATM   33  C   UNL     1      -8.747   5.773  65.294  1.00  0.00    -0.096 A  
HETATM   34  C   UNL     1      -9.841   4.981  65.654  1.00  0.00    -0.107 A  
HETATM   35  C   UNL     1     -10.260   3.938  64.823  1.00  0.00    -0.196 A  
HETATM   36  C   UNL     1      -9.588   3.687  63.628  1.00  0.00    -0.147 A  
HETATM   37  C   UNL     1      -8.527   4.505  63.243  1.00  0.00    -0.109 A  
HETATM   38  C   UNL     1      -8.126   5.566  64.060  1.00  0.00    -0.123 A  
ENDBRANCH  32  33
ENDBRANCH  31  32
ENDBRANCH  14  26
ENDBRANCH   3   6
TORSDOF 6
ENDMDL
MODEL       23
REMARK 921   NORMALIZED FREE ENERGY PREDICTED BY IDOCK:   -7.48 KCAL/MOL
REMARK 922        TOTAL FREE ENERGY PREDICTED BY IDOCK:  -10.41 KCAL/MOL
REMARK 923 INTER-LIGAND FREE ENERGY PREDICTED BY IDOCK:   -9.51 KCAL/MOL
REMARK 924 INTRA-LIGAND FREE ENERGY PREDICTED BY IDOCK:   -0.90 KCAL/MOL
REMARK 927      BINDING AFFINITY PREDICTED BY RF-SCORE:    0.00 PKD
ROOT
HETATM    1  N   UNL     1      -7.215  10.417  65.247  1.00  0.00    -0.233 N  
HETATM    2  H1  UNL     1      -7.682   9.717  64.671  1.00  0.00     0.000 HD 
HETATM    3  C   UNL     1      -7.719  10.696  66.487  1.00  0.00    -0.137 C  
HETATM    4  H2  UNL     1      -6.386  10.901  64.903  1.00  0.00     0.000 HD 
HETATM    5  O   UNL     1      -7.158  11.537  67.178  1.00  0.00    -0.121 OA 
ENDROOT
BRANCH   3   6
HETATM    6  C   UNL     1      -8.895   9.931  66.876  1.00  0.00    -0.146 A  
HETATM    7  C   UNL     1      -9.009   8.546  66.777  1.00  0.00    -0.146 A  
HETATM    8  N   UNL     1      -8.232   7.576  66.219  1.00  0.00    -0.119 NA 
HETATM    9  C   UNL     1      -8.874   6.290  65.932  1.00  0.00    -0.139 C  
HETATM   10  H   UNL     1      -7.247   7.737  66.010  1.00  0.00     0.000 HD 
HETATM   11  C   UNL     1      -9.595   5.815  67.185  1.00  0.00    -0.134 C  
HETATM   12  C   UNL     1     -10.614   6.860  67.721  1.00  0.00    -0.244 C  
HETATM   13  N   UNL     1     -10.159   8.222  67.442  1.00  0.00    -0.210 NA 
HETATM   14  C   UNL     1     -10.158  10.355  67.440  1.00  0.00    -0.196 A  
HETATM   15  N   UNL     1     -10.953   9.282  67.646  1.00  0.00    -0.120 NA 
BRANCH  12  16
HETATM   16  C   UNL     1     -11.060   6.542  69.205  1.00  0.00    -0.393 C  
HETATM   17  C   UNL     1     -10.313   5.394  69.907  1.00  0.00    -0.377 C  
HETATM   18  C   UNL     1      -8.892   5.807  70.247  1.00  0.00    -0.141 C  
HETATM   19  O   UNL     1      -6.840   6.207  71.950  1.00  0.00    -0.062 OA 
HETATM   20  N   UNL     1      -8.902   6.910  71.197  1.00  0.00    -0.142 N  
HETATM   21  C   UNL     1     -11.076   7.717  70.209  1.00  0.00    -0.256 C  
HETATM   22  C   UNL     1      -9.698   8.072  70.795  1.00  0.00    -0.165 C  
HETATM   23  C   UNL     1      -7.764   7.019  71.990  1.00  0.00    -0.092 C  
BRANCH  23  24
HETATM   24  C   UNL     1      -7.703   8.158  72.944  1.00  0.00    -0.190 C  
HETATM   25  C   UNL     1      -8.250   8.028  74.160  1.00  0.00    -0.318 C  
ENDBRANCH  23  24
ENDBRANCH  12  16
BRANCH  14  26
HETATM   26  C   UNL     1     -10.661  11.685  67.861  1.00  0.00    -0.225 A  
HETATM   27  C   UNL     1     -11.249  11.851  69.133  1.00  0.00    -0.314 A  
HETATM   28  C   UNL     1     -10.620  12.811  67.037  1.00  0.00    -0.253 A  
HETATM   29  C   UNL     1     -11.719  13.097  69.576  1.00  0.00    -0.382 A  
HETATM   30  C   UNL     1     -11.107  14.057  67.468  1.00  0.00    -0.313 A  
HETATM   31  C   UNL     1     -11.624  14.218  68.754  1.00  0.00    -0.322 A  
BRANCH  31  32
HETATM   32  O   UNL     1     -12.133  15.390  69.265  1.00  0.00    -0.315 OA 
BRANCH  32  33
HETATM   33  C   UNL     1     -12.496  15.492  70.591  1.00  0.00    -0.435 A  
HETATM   34  C   UNL     1     -11.539  16.009  71.469  1.00  0.00    -0.529 A  
HETATM   35  C   UNL     1     -11.829  16.146  72.829  1.00  0.00    -0.577 A  
HETATM   36  C   UNL     1     -13.081  15.770  73.315  1.00  0.00    -0.692 A  
HETATM   37  C   UNL     1     -14.054  15.299  72.435  1.00  0.00    -0.622 A  
HETATM   38  C   UNL     1     -13.772  15.189  71.070  1.00  0.00    -0.450 A  
ENDBRANCH  32  33
ENDBRANCH  31  32
ENDBRANCH  14  26
ENDBRANCH   3   6
TORSDOF 6
ENDMDL
MODEL       24
REMARK 921   NORMALIZED FREE ENERGY PREDICTED BY IDOCK:   -7.47 KCAL/MOL
REMARK 922        TOTAL FREE ENERGY PREDICTED BY IDOCK:  -10.39 KCAL/MOL
REMARK 923 INTER-LIGAND FREE ENERGY PREDICTED BY IDOCK:   -9.56 KCAL/MOL
REMARK 924 INTRA-LIGAND FREE ENERGY PREDICTED BY IDOCK:   -0.83 KCAL/MOL
REMARK 927      BINDING AFFINITY PREDICTED BY RF-SCORE:    0.00 PKD
ROOT
HETATM    1  N   UNL     1     -13.589   9.046  72.750  1.00  0.00    -0.845 N  
HETATM    2  H1  UNL     1     -13.303   8.073  72.648  1.00  0.00     0.000 HD 
HETATM    3  C   UNL     1     -13.033   9.989  71.930  1.00  0.00    -0.447 C  
HETATM    4  H2  UNL     1     -14.278   9.312  73.453  1.00  0.00     0.000 HD 
HETATM    5  O   UNL     1     -13.377  11.157  72.053  1.00  0.00    -0.454 OA 
ENDROOT
BRANCH   3   6
HETATM    6  C   UNL     1     -12.074   9.488  70.955  1.00  0.00    -0.398 A  
HETATM    7  C   UNL     1     -11.591   8.183  70.914  1.00  0.00    -0.267 A  
HETATM    8  N   UNL     1     -11.710   7.109  71.747  1.00  0.00    -0.277 NA 
HETATM    9  C   UNL     1     -10.720   6.040  71.600  1.00  0.00    -0.251 C  
HETATM   10  H   UNL     1     -12.455   7.054  72.441  1.00  0.00     0.000 HD 
HETATM   11  C   UNL     1     -10.648   5.639  70.134  1.00  0.00    -0.380 C  
HETATM   12  C   UNL     1     -10.337   6.842  69.200  1.00  0.00    -0.195 C  
HETATM   13  N   UNL     1     -10.903   8.079  69.738  1.00  0.00    -0.229 NA 
HETATM   14  C   UNL     1     -11.424  10.145  69.841  1.00  0.00    -0.254 A  
HETATM   15  N   UNL     1     -10.612   9.273  69.205  1.00  0.00    -0.221 NA 
BRANCH  12  16
HETATM   16  C   UNL     1     -10.649   6.510  67.685  1.00  0.00    -0.332 C  
HETATM   17  C   UNL     1      -9.835   7.292  66.638  1.00  0.00    -0.257 C  
HETATM   18  C   UNL     1      -8.392   6.819  66.616  1.00  0.00    -0.118 C  
HETATM   19  O   UNL     1      -6.202   5.818  65.405  1.00  0.00    -0.034 OA 
HETATM   20  N   UNL     1      -8.326   5.423  66.207  1.00  0.00    -0.113 N  
HETATM   21  C   UNL     1     -10.584   5.027  67.255  1.00  0.00    -0.075 C  
HETATM   22  C   UNL     1      -9.162   4.504  66.984  1.00  0.00    -0.134 C  
HETATM   23  C   UNL     1      -7.123   5.033  65.626  1.00  0.00    -0.067 C  
BRANCH  23  24
HETATM   24  C   UNL     1      -6.986   3.606  65.234  1.00  0.00    -0.061 C  
HETATM   25  C   UNL     1      -5.843   2.958  65.496  1.00  0.00    -0.019 C  
ENDBRANCH  23  24
ENDBRANCH  12  16
BRANCH  14  26
HETATM   26  C   UNL     1     -11.550  11.514  69.285  1.00  0.00    -0.388 A  
HETATM   27  C   UNL     1     -11.607  12.628  70.148  1.00  0.00    -0.141 A  
HETATM   28  C   UNL     1     -11.657  11.773  67.917  1.00  0.00    -0.377 A  
HETATM   29  C   UNL     1     -11.707  13.941  69.660  1.00  0.00    -0.370 A  
HETATM   30  C   UNL     1     -11.777  13.084  67.424  1.00  0.00    -0.427 A  
HETATM   31  C   UNL     1     -11.763  14.179  68.288  1.00  0.00    -0.348 A  
BRANCH  31  32
HETATM   32  O   UNL     1     -11.884  15.495  67.906  1.00  0.00    -0.240 OA 
BRANCH  32  33
HETATM   33  C   UNL     1     -10.772  16.262  67.627  1.00  0.00    -0.311 A  
HETATM   34  C   UNL     1     -10.416  17.224  68.578  1.00  0.00    -0.375 A  
HETATM   35  C   UNL     1      -9.301  18.040  68.371  1.00  0.00    -0.306 A  
HETATM   36  C   UNL     1      -8.536  17.895  67.214  1.00  0.00    -0.241 A  
HETATM   37  C   UNL     1      -8.861  16.906  66.287  1.00  0.00    -0.314 A  
HETATM   38  C   UNL     1      -9.959  16.070  66.508  1.00  0.00    -0.293 A  
ENDBRANCH  32  33
ENDBRANCH  31  32
ENDBRANCH  14  26
ENDBRANCH   3   6
TORSDOF 6
ENDMDL
MODEL       25
REMARK 921   NORMALIZED FREE ENERGY PREDICTED BY IDOCK:   -7.42 KCAL/MOL
REMARK 922        TOTAL FREE ENERGY PREDICTED BY IDOCK:  -10.32 KCAL/MOL
REMARK 923 INTER-LIGAND FREE ENERGY PREDICTED BY IDOCK:   -9.38 KCAL/MOL
REMARK 924 INTRA-LIGAND FREE ENERGY PREDICTED BY IDOCK:   -0.94 KCAL/MOL
REMARK 927      BINDING AFFINITY PREDICTED BY RF-SCORE:    0.00 PKD
ROOT
HETATM    1  N   UNL     1     -13.720   7.345  71.068  1.00  0.00    -0.613 N  
HETATM    2  H1  UNL     1     -13.024   6.787  70.574  1.00  0.00     0.000 HD 
HETATM    3  C   UNL     1     -13.301   8.395  71.837  1.00  0.00    -0.357 C  
HETATM    4  H2  UNL     1     -14.712   7.124  70.989  1.00  0.00     0.000 HD 
HETATM    5  O   UNL     1     -14.137   9.065  72.430  1.00  0.00    -0.469 OA 
ENDROOT
BRANCH   3   6
HETATM    6  C   UNL     1     -11.863   8.625  71.859  1.00  0.00    -0.420 A  
HETATM    7  C   UNL     1     -10.947   7.853  72.569  1.00  0.00    -0.350 A  
HETATM    8  N   UNL     1     -11.071   6.851  73.485  1.00  0.00    -0.517 NA 
HETATM    9  C   UNL     1      -9.907   6.573  74.330  1.00  0.00    -0.332 C  
HETATM   10  H   UNL     1     -11.936   6.318  73.577  1.00  0.00     0.000 HD 
HETATM   11  C   UNL     1      -8.685   6.405  73.440  1.00  0.00    -0.129 C  
HETATM   12  C   UNL     1      -8.445   7.633  72.516  1.00  0.00    -0.120 C  
HETATM   13  N   UNL     1      -9.713   8.262  72.146  1.00  0.00    -0.245 NA 
HETATM   14  C   UNL     1     -11.052   9.622  71.193  1.00  0.00    -0.374 A  
HETATM   15  N   UNL     1      -9.751   9.439  71.507  1.00  0.00    -0.220 NA 
BRANCH  12  16
HETATM   16  C   UNL     1      -7.439   7.300  71.341  1.00  0.00    -0.082 C  
HETATM   17  C   UNL     1      -7.156   5.807  71.093  1.00  0.00    -0.069 C  
HETATM   18  C   UNL     1      -8.363   5.127  70.473  1.00  0.00    -0.110 C  
HETATM   19  O   UNL     1      -9.600   3.691  68.556  1.00  0.00    -0.162 OA 
HETATM   20  N   UNL     1      -8.646   5.699  69.164  1.00  0.00    -0.105 N  
HETATM   21  C   UNL     1      -7.738   7.913  69.955  1.00  0.00    -0.098 C  
HETATM   22  C   UNL     1      -8.800   7.155  69.139  1.00  0.00    -0.135 C  
HETATM   23  C   UNL     1      -9.320   4.858  68.284  1.00  0.00    -0.130 C  
BRANCH  23  24
HETATM   24  C   UNL     1      -9.675   5.409  66.950  1.00  0.00    -0.166 C  
HETATM   25  C   UNL     1     -10.959   5.668  66.665  1.00  0.00    -0.173 C  
ENDBRANCH  23  24
ENDBRANCH  12  16
BRANCH  14  26
HETATM   26  C   UNL     1     -11.393  10.699  70.233  1.00  0.00    -0.401 A  
HETATM   27  C   UNL     1     -10.984  10.604  68.886  1.00  0.00    -0.296 A  
HETATM   28  C   UNL     1     -12.082  11.856  70.600  1.00  0.00    -0.389 A  
HETATM   29  C   UNL     1     -11.303  11.594  67.942  1.00  0.00    -0.369 A  
HETATM   30  C   UNL     1     -12.388  12.859  69.663  1.00  0.00    -0.083 A  
HETATM   31  C   UNL     1     -12.035  12.717  68.321  1.00  0.00    -0.229 A  
BRANCH  31  32
HETATM   32  O   UNL     1     -12.279  13.643  67.333  1.00  0.00    -0.350 OA 
BRANCH  32  33
HETATM   33  C   UNL     1     -11.357  14.622  67.028  1.00  0.00    -0.355 A  
HETATM   34  C   UNL     1     -10.841  14.621  65.729  1.00  0.00    -0.326 A  
HETATM   35  C   UNL     1      -9.904  15.581  65.341  1.00  0.00    -0.291 A  
HETATM   36  C   UNL     1      -9.481  16.550  66.251  1.00  0.00    -0.339 A  
HETATM   37  C   UNL     1     -10.028  16.583  67.532  1.00  0.00    -0.255 A  
HETATM   38  C   UNL     1     -10.988  15.640  67.911  1.00  0.00    -0.319 A  
ENDBRANCH  32  33
ENDBRANCH  31  32
ENDBRANCH  14  26
ENDBRANCH   3   6
TORSDOF 6
ENDMDL
MODEL       26
REMARK 921   NORMALIZED FREE ENERGY PREDICTED BY IDOCK:   -7.33 KCAL/MOL
REMARK 922        TOTAL FREE ENERGY PREDICTED BY IDOCK:  -10.20 KCAL/MOL
REMARK 923 INTER-LIGAND FREE ENERGY PREDICTED BY IDOCK:   -9.59 KCAL/MOL
REMARK 924 INTRA-LIGAND FREE ENERGY PREDICTED BY IDOCK:   -0.61 KCAL/MOL
REMARK 927      BINDING AFFINITY PREDICTED BY RF-SCORE:    0.00 PKD
ROOT
HETATM    1  N   UNL     1     -11.897  16.947  71.944  1.00  0.00    -0.323 N  
HETATM    2  H1  UNL     1     -12.261  17.584  71.236  1.00  0.00     0.000 HD 
HETATM    3  C   UNL     1     -11.408  15.732  71.551  1.00  0.00    -0.348 C  
HETATM    4  H2  UNL     1     -11.897  17.212  72.928  1.00  0.00     0.000 HD 
HETATM    5  O   UNL     1     -10.971  14.967  72.402  1.00  0.00    -0.002 OA 
ENDROOT
BRANCH   3   6
HETATM    6  C   UNL     1     -11.444  15.472  70.119  1.00  0.00    -0.342 A  
HETATM    7  C   UNL     1     -11.135  16.406  69.134  1.00  0.00    -0.303 A  
HETATM    8  N   UNL     1     -10.877  17.745  69.156  1.00  0.00    -0.180 NA 
HETATM    9  C   UNL     1     -11.017  18.471  67.891  1.00  0.00    -0.047 C  
HETATM   10  H   UNL     1     -10.599  18.220  70.014  1.00  0.00     0.000 HD 
HETATM   11  C   UNL     1     -10.224  17.738  66.817  1.00  0.00    -0.351 C  
HETATM   12  C   UNL     1     -10.646  16.248  66.676  1.00  0.00    -0.252 C  
HETATM   13  N   UNL     1     -11.079  15.704  67.963  1.00  0.00    -0.325 NA 
HETATM   14  C   UNL     1     -11.767  14.269  69.383  1.00  0.00    -0.316 A  
HETATM   15  N   UNL     1     -11.658  14.499  68.056  1.00  0.00    -0.320 NA 
BRANCH  12  16
HETATM   16  C   UNL     1      -9.580  15.408  65.863  1.00  0.00    -0.386 C  
HETATM   17  C   UNL     1      -8.292  15.036  66.618  1.00  0.00    -0.115 C  
HETATM   18  C   UNL     1      -8.572  13.975  67.667  1.00  0.00    -0.188 C  
HETATM   19  O   UNL     1      -8.186  11.572  68.829  1.00  0.00    -0.145 OA 
HETATM   20  N   UNL     1      -9.027  12.746  67.032  1.00  0.00    -0.216 N  
HETATM   21  C   UNL     1     -10.068  14.108  65.184  1.00  0.00    -0.348 C  
HETATM   22  C   UNL     1     -10.170  12.897  66.129  1.00  0.00    -0.278 C  
HETATM   23  C   UNL     1      -8.794  11.582  67.759  1.00  0.00    -0.153 C  
BRANCH  23  24
HETATM   24  C   UNL     1      -9.283  10.305  67.177  1.00  0.00    -0.163 C  
HETATM   25  C   UNL     1      -8.448   9.551  66.449  1.00  0.00    -0.131 C  
ENDBRANCH  23  24
ENDBRANCH  12  16
BRANCH  14  26
HETATM   26  C   UNL     1     -12.112  12.896  69.825  1.00  0.00    -0.312 A  
HETATM   27  C   UNL     1     -12.729  12.687  71.076  1.00  0.00    -0.316 A  
HETATM   28  C   UNL     1     -11.820  11.757  69.071  1.00  0.00    -0.379 A  
HETATM   29  C   UNL     1     -13.088  11.405  71.522  1.00  0.00    -0.438 A  
HETATM   30  C   UNL     1     -12.160  10.470  69.521  1.00  0.00    -0.208 A  
HETATM   31  C   UNL     1     -12.831  10.287  70.731  1.00  0.00    -0.344 A  
BRANCH  31  32
HETATM   32  O   UNL     1     -13.197   9.072  71.262  1.00  0.00    -0.301 OA 
BRANCH  32  33
HETATM   33  C   UNL     1     -12.264   8.083  71.493  1.00  0.00    -0.299 A  
HETATM   34  C   UNL     1     -11.508   8.192  72.664  1.00  0.00    -0.454 A  
HETATM   35  C   UNL     1     -10.543   7.229  72.973  1.00  0.00    -0.371 A  
HETATM   36  C   UNL     1     -10.333   6.153  72.112  1.00  0.00    -0.227 A  
HETATM   37  C   UNL     1     -11.117   6.016  70.968  1.00  0.00    -0.348 A  
HETATM   38  C   UNL     1     -12.102   6.964  70.675  1.00  0.00    -0.363 A  
ENDBRANCH  32  33
ENDBRANCH  31  32
ENDBRANCH  14  26
ENDBRANCH   3   6
TORSDOF 6
ENDMDL
MODEL       27
REMARK 921   NORMALIZED FREE ENERGY PREDICTED BY IDOCK:   -7.29 KCAL/MOL
REMARK 922        TOTAL FREE ENERGY PREDICTED BY IDOCK:  -10.16 KCAL/MOL
REMARK 923 INTER-LIGAND FREE ENERGY PREDICTED BY IDOCK:   -8.80 KCAL/MOL
REMARK 924 INTRA-LIGAND FREE ENERGY PREDICTED BY IDOCK:   -1.36 KCAL/MOL
REMARK 927      BINDING AFFINITY PREDICTED BY RF-SCORE:    0.00 PKD
ROOT
HETATM    1  N   UNL     1     -13.773  14.579  70.835  1.00  0.00    -0.458 N  
HETATM    2  H1  UNL     1     -13.975  13.698  70.364  1.00  0.00     0.000 HD 
HETATM    3  C   UNL     1     -12.518  15.113  70.730  1.00  0.00    -0.372 C  
HETATM    4  H2  UNL     1     -14.494  15.055  71.376  1.00  0.00     0.000 HD 
HETATM    5  O   UNL     1     -12.275  16.171  71.296  1.00  0.00    -0.402 OA 
ENDROOT
BRANCH   3   6
HETATM    6  C   UNL     1     -11.578  14.353  69.918  1.00  0.00    -0.341 A  
HETATM    7  C   UNL     1     -11.563  12.965  69.810  1.00  0.00    -0.218 A  
HETATM    8  N   UNL     1     -12.228  11.964  70.454  1.00  0.00    -0.338 NA 
HETATM    9  C   UNL     1     -11.647  10.621  70.378  1.00  0.00    -0.351 C  
HETATM   10  H   UNL     1     -13.091  12.143  70.966  1.00  0.00     0.000 HD 
HETATM   11  C   UNL     1     -11.365  10.293  68.919  1.00  0.00    -0.230 C  
HETATM   12  C   UNL     1     -10.457  11.352  68.233  1.00  0.00    -0.198 C  
HETATM   13  N   UNL     1     -10.689  12.682  68.798  1.00  0.00    -0.230 NA 
HETATM   14  C   UNL     1     -10.500  14.791  69.057  1.00  0.00    -0.249 A  
HETATM   15  N   UNL     1      -9.897  13.720  68.495  1.00  0.00    -0.224 NA 
BRANCH  12  16
HETATM   16  C   UNL     1     -10.490  11.226  66.656  1.00  0.00    -0.292 C  
HETATM   17  C   UNL     1      -9.286  11.820  65.903  1.00  0.00    -0.214 C  
HETATM   18  C   UNL     1      -8.049  10.965  66.110  1.00  0.00    -0.160 C  
HETATM   19  O   UNL     1      -5.974   9.478  65.243  1.00  0.00    -0.061 OA 
HETATM   20  N   UNL     1      -8.253   9.639  65.546  1.00  0.00    -0.122 N  
HETATM   21  C   UNL     1     -10.714   9.818  66.061  1.00  0.00     0.210 C  
HETATM   22  C   UNL     1      -9.452   8.939  66.014  1.00  0.00    -0.252 C  
HETATM   23  C   UNL     1      -7.092   8.969  65.172  1.00  0.00    -0.087 C  
BRANCH  23  24
HETATM   24  C   UNL     1      -7.242   7.591  64.634  1.00  0.00    -0.068 C  
HETATM   25  C   UNL     1      -7.450   7.415  63.323  1.00  0.00    -0.101 C  
ENDBRANCH  23  24
ENDBRANCH  12  16
BRANCH  14  26
HETATM   26  C   UNL     1     -10.025  16.141  68.668  1.00  0.00    -0.228 A  
HETATM   27  C   UNL     1     -10.901  17.044  68.029  1.00  0.00    -0.330 A  
HETATM   28  C   UNL     1      -8.713  16.573  68.868  1.00  0.00    -0.247 A  
HETATM   29  C   UNL     1     -10.495  18.337  67.662  1.00  0.00    -0.431 A  
HETATM   30  C   UNL     1      -8.296  17.860  68.486  1.00  0.00    -0.305 A  
HETATM   31  C   UNL     1      -9.193  18.764  67.916  1.00  0.00    -0.294 A  
BRANCH  31  32
HETATM   32  O   UNL     1      -8.882  20.039  67.500  1.00  0.00    -0.326 OA 
BRANCH  32  33
HETATM   33  C   UNL     1      -7.653  20.328  66.945  1.00  0.00    -0.299 A  
HETATM   34  C   UNL     1      -7.467  19.972  65.606  1.00  0.00    -0.275 A  
HETATM   35  C   UNL     1      -6.250  20.234  64.970  1.00  0.00    -0.312 A  
HETATM   36  C   UNL     1      -5.217  20.855  65.670  1.00  0.00    -0.237 A  
HETATM   37  C   UNL     1      -5.416  21.254  66.991  1.00  0.00    -0.339 A  
HETATM   38  C   UNL     1      -6.643  21.019  67.618  1.00  0.00    -0.416 A  
ENDBRANCH  32  33
ENDBRANCH  31  32
ENDBRANCH  14  26
ENDBRANCH   3   6
TORSDOF 6
ENDMDL
MODEL       28
REMARK 921   NORMALIZED FREE ENERGY PREDICTED BY IDOCK:   -7.27 KCAL/MOL
REMARK 922        TOTAL FREE ENERGY PREDICTED BY IDOCK:  -10.12 KCAL/MOL
REMARK 923 INTER-LIGAND FREE ENERGY PREDICTED BY IDOCK:   -8.85 KCAL/MOL
REMARK 924 INTRA-LIGAND FREE ENERGY PREDICTED BY IDOCK:   -1.26 KCAL/MOL
REMARK 927      BINDING AFFINITY PREDICTED BY RF-SCORE:    0.00 PKD
ROOT
HETATM    1  N   UNL     1      -6.452   9.038  71.666  1.00  0.00    -0.077 N  
HETATM    2  H1  UNL     1      -6.682   8.045  71.686  1.00  0.00     0.000 HD 
HETATM    3  C   UNL     1      -6.829   9.783  70.583  1.00  0.00    -0.103 C  
HETATM    4  H2  UNL     1      -5.949   9.468  72.442  1.00  0.00     0.000 HD 
HETATM    5  O   UNL     1      -6.553  10.976  70.561  1.00  0.00    -0.299 OA 
ENDROOT
BRANCH   3   6
HETATM    6  C   UNL     1      -7.554   9.064  69.547  1.00  0.00    -0.077 A  
HETATM    7  C   UNL     1      -7.203   7.809  69.056  1.00  0.00    -0.080 A  
HETATM    8  N   UNL     1      -6.123   6.997  69.237  1.00  0.00    -0.032 NA 
HETATM    9  C   UNL     1      -5.898   5.954  68.234  1.00  0.00    -0.012 C  
HETATM   10  H   UNL     1      -5.499   7.111  70.036  1.00  0.00     0.000 HD 
HETATM   11  C   UNL     1      -7.191   5.174  68.041  1.00  0.00    -0.067 C  
HETATM   12  C   UNL     1      -8.389   6.090  67.661  1.00  0.00    -0.108 C  
HETATM   13  N   UNL     1      -8.251   7.411  68.274  1.00  0.00    -0.124 NA 
HETATM   14  C   UNL     1      -8.751   9.414  68.811  1.00  0.00    -0.131 A  
HETATM   15  N   UNL     1      -9.064   8.424  67.946  1.00  0.00    -0.133 NA 
BRANCH  12  16
HETATM   16  C   UNL     1      -9.777   5.353  67.847  1.00  0.00    -0.165 C  
HETATM   17  C   UNL     1      -9.909   4.460  69.094  1.00  0.00    -0.198 C  
HETATM   18  C   UNL     1     -10.001   5.305  70.352  1.00  0.00    -0.233 C  
HETATM   19  O   UNL     1     -11.198   6.119  72.627  1.00  0.00    -0.260 OA 
HETATM   20  N   UNL     1     -11.205   6.123  70.322  1.00  0.00    -0.367 N  
HETATM   21  C   UNL     1     -11.053   6.223  67.808  1.00  0.00    -0.361 C  
HETATM   22  C   UNL     1     -11.367   6.953  69.126  1.00  0.00    -0.036 C  
HETATM   23  C   UNL     1     -11.696   6.501  71.568  1.00  0.00    -0.324 C  
BRANCH  23  24
HETATM   24  C   UNL     1     -12.897   7.376  71.593  1.00  0.00    -0.406 C  
HETATM   25  C   UNL     1     -12.812   8.595  72.143  1.00  0.00    -0.442 C  
ENDBRANCH  23  24
ENDBRANCH  12  16
BRANCH  14  26
HETATM   26  C   UNL     1      -9.665  10.578  68.898  1.00  0.00    -0.206 A  
HETATM   27  C   UNL     1     -10.866  10.485  69.633  1.00  0.00    -0.320 A  
HETATM   28  C   UNL     1      -9.422  11.787  68.244  1.00  0.00    -0.193 A  
HETATM   29  C   UNL     1     -11.748  11.570  69.754  1.00  0.00    -0.426 A  
HETATM   30  C   UNL     1     -10.311  12.871  68.346  1.00  0.00    -0.249 A  
HETATM   31  C   UNL     1     -11.460  12.784  69.133  1.00  0.00    -0.306 A  
BRANCH  31  32
HETATM   32  O   UNL     1     -12.394  13.782  69.289  1.00  0.00    -0.312 OA 
BRANCH  32  33
HETATM   33  C   UNL     1     -12.514  14.468  70.480  1.00  0.00    -0.344 A  
HETATM   34  C   UNL     1     -13.746  14.384  71.134  1.00  0.00    -0.297 A  
HETATM   35  C   UNL     1     -13.947  15.049  72.347  1.00  0.00    -0.593 A  
HETATM   36  C   UNL     1     -12.914  15.797  72.910  1.00  0.00    -0.600 A  
HETATM   37  C   UNL     1     -11.670  15.844  72.284  1.00  0.00    -0.586 A  
HETATM   38  C   UNL     1     -11.461  15.155  71.086  1.00  0.00    -0.387 A  
ENDBRANCH  32  33
ENDBRANCH  31  32
ENDBRANCH  14  26
ENDBRANCH   3   6
TORSDOF 6
ENDMDL
MODEL       29
REMARK 921   NORMALIZED FREE ENERGY PREDICTED BY IDOCK:   -7.26 KCAL/MOL
REMARK 922        TOTAL FREE ENERGY PREDICTED BY IDOCK:  -10.11 KCAL/MOL
REMARK 923 INTER-LIGAND FREE ENERGY PREDICTED BY IDOCK:   -9.27 KCAL/MOL
REMARK 924 INTRA-LIGAND FREE ENERGY PREDICTED BY IDOCK:   -0.83 KCAL/MOL
REMARK 927      BINDING AFFINITY PREDICTED BY RF-SCORE:    0.00 PKD
ROOT
HETATM    1  N   UNL     1     -11.616   6.474  68.886  1.00  0.00    -0.563 N  
HETATM    2  H1  UNL     1     -11.373   7.066  69.679  1.00  0.00     0.000 HD 
HETATM    3  C   UNL     1     -10.823   6.504  67.772  1.00  0.00    -0.314 C  
HETATM    4  H2  UNL     1     -12.435   5.868  68.923  1.00  0.00     0.000 HD 
HETATM    5  O   UNL     1     -11.114   5.792  66.819  1.00  0.00    -0.230 OA 
ENDROOT
BRANCH   3   6
HETATM    6  C   UNL     1      -9.673   7.393  67.842  1.00  0.00    -0.166 A  
HETATM    7  C   UNL     1      -8.422   7.119  67.295  1.00  0.00    -0.122 A  
HETATM    8  N   UNL     1      -7.869   6.014  66.718  1.00  0.00    -0.100 NA 
HETATM    9  C   UNL     1      -6.407   5.957  66.652  1.00  0.00    -0.041 C  
HETATM   10  H   UNL     1      -8.449   5.259  66.350  1.00  0.00     0.000 HD 
HETATM   11  C   UNL     1      -5.896   7.254  66.041  1.00  0.00    -0.036 C  
HETATM   12  C   UNL     1      -6.389   8.512  66.811  1.00  0.00    -0.056 C  
HETATM   13  N   UNL     1      -7.714   8.284  67.388  1.00  0.00    -0.100 NA 
HETATM   14  C   UNL     1      -9.524   8.705  68.434  1.00  0.00    -0.138 A  
HETATM   15  N   UNL     1      -8.264   9.154  68.245  1.00  0.00    -0.115 NA 
BRANCH  12  16
HETATM   16  C   UNL     1      -6.192   9.835  65.967  1.00  0.00    -0.071 C  
HETATM   17  C   UNL     1      -6.823   9.844  64.563  1.00  0.00    -0.124 C  
HETATM   18  C   UNL     1      -8.336   9.932  64.655  1.00  0.00    -0.163 C  
HETATM   19  O   UNL     1     -10.722  11.067  64.119  1.00  0.00    -0.378 OA 
HETATM   20  N   UNL     1      -8.731  11.189  65.274  1.00  0.00    -0.092 N  
HETATM   21  C   UNL     1      -6.605  11.169  66.629  1.00  0.00    -0.137 C  
HETATM   22  C   UNL     1      -8.115  11.465  66.574  1.00  0.00    -0.141 C  
HETATM   23  C   UNL     1     -10.003  11.642  64.936  1.00  0.00    -0.255 C  
BRANCH  23  24
HETATM   24  C   UNL     1     -10.474  12.897  65.578  1.00  0.00    -0.305 C  
HETATM   25  C   UNL     1     -11.788  13.142  65.660  1.00  0.00    -0.430 C  
ENDBRANCH  23  24
ENDBRANCH  12  16
BRANCH  14  26
HETATM   26  C   UNL     1     -10.490   9.604  69.112  1.00  0.00    -0.230 A  
HETATM   27  C   UNL     1     -10.786   9.425  70.479  1.00  0.00    -0.336 A  
HETATM   28  C   UNL     1     -11.173  10.626  68.450  1.00  0.00    -0.347 A  
HETATM   29  C   UNL     1     -11.680  10.266  71.161  1.00  0.00    -0.430 A  
HETATM   30  C   UNL     1     -12.083  11.459  69.123  1.00  0.00    -0.331 A  
HETATM   31  C   UNL     1     -12.314  11.310  70.491  1.00  0.00    -0.356 A  
BRANCH  31  32
HETATM   32  O   UNL     1     -13.189  12.066  71.237  1.00  0.00    -0.217 OA 
BRANCH  32  33
HETATM   33  C   UNL     1     -12.916  13.383  71.539  1.00  0.00    -0.341 A  
HETATM   34  C   UNL     1     -13.532  13.909  72.679  1.00  0.00    -0.652 A  
HETATM   35  C   UNL     1     -13.306  15.236  73.055  1.00  0.00    -0.610 A  
HETATM   36  C   UNL     1     -12.459  16.040  72.294  1.00  0.00    -0.536 A  
HETATM   37  C   UNL     1     -11.806  15.506  71.184  1.00  0.00    -0.435 A  
HETATM   38  C   UNL     1     -12.011  14.170  70.825  1.00  0.00    -0.377 A  
ENDBRANCH  32  33
ENDBRANCH  31  32
ENDBRANCH  14  26
ENDBRANCH   3   6
TORSDOF 6
ENDMDL
MODEL       30
REMARK 921   NORMALIZED FREE ENERGY PREDICTED BY IDOCK:   -7.18 KCAL/MOL
REMARK 922        TOTAL FREE ENERGY PREDICTED BY IDOCK:  -10.00 KCAL/MOL
REMARK 923 INTER-LIGAND FREE ENERGY PREDICTED BY IDOCK:   -9.05 KCAL/MOL
REMARK 924 INTRA-LIGAND FREE ENERGY PREDICTED BY IDOCK:   -0.95 KCAL/MOL
REMARK 927      BINDING AFFINITY PREDICTED BY RF-SCORE:    0.00 PKD
ROOT
HETATM    1  N   UNL     1      -6.060  10.970  65.338  1.00  0.00    -0.364 N  
HETATM    2  H1  UNL     1      -6.467  11.883  65.137  1.00  0.00     0.000 HD 
HETATM    3  C   UNL     1      -6.441  10.311  66.474  1.00  0.00    -0.080 C  
HETATM    4  H2  UNL     1      -5.378  10.555  64.703  1.00  0.00     0.000 HD 
HETATM    5  O   UNL     1      -5.952   9.215  66.715  1.00  0.00    -0.054 OA 
ENDROOT
BRANCH   3   6
HETATM    6  C   UNL     1      -7.432  10.993  67.294  1.00  0.00    -0.107 A  
HETATM    7  C   UNL     1      -7.580  12.375  67.376  1.00  0.00    -0.160 A  
HETATM    8  N   UNL     1      -6.853  13.428  66.904  1.00  0.00    -0.289 NA 
HETATM    9  C   UNL     1      -7.071  14.728  67.544  1.00  0.00    -0.184 C  
HETATM   10  H   UNL     1      -6.187  13.316  66.140  1.00  0.00     0.000 HD 
HETATM   11  C   UNL     1      -8.565  15.014  67.573  1.00  0.00    -0.192 C  
HETATM   12  C   UNL     1      -9.376  13.886  68.271  1.00  0.00    -0.209 C  
HETATM   13  N   UNL     1      -8.741  12.584  68.064  1.00  0.00    -0.179 NA 
HETATM   14  C   UNL     1      -8.462  10.471  68.166  1.00  0.00    -0.123 A  
HETATM   15  N   UNL     1      -9.155  11.491  68.721  1.00  0.00    -0.112 NA 
BRANCH  12  16
HETATM   16  C   UNL     1     -10.923  13.988  67.956  1.00  0.00    -0.266 C  
HETATM   17  C   UNL     1     -11.792  12.812  68.437  1.00  0.00    -0.353 C  
HETATM   18  C   UNL     1     -11.931  12.829  69.949  1.00  0.00    -0.298 C  
HETATM   19  O   UNL     1     -13.353  12.887  72.239  1.00  0.00    -0.534 OA 
HETATM   20  N   UNL     1     -12.625  14.035  70.377  1.00  0.00    -0.331 N  
HETATM   21  C   UNL     1     -11.655  15.272  68.406  1.00  0.00    -0.365 C  
HETATM   22  C   UNL     1     -12.049  15.292  69.894  1.00  0.00    -0.343 C  
HETATM   23  C   UNL     1     -13.290  13.934  71.595  1.00  0.00    -0.362 C  
BRANCH  23  24
HETATM   24  C   UNL     1     -13.976  15.152  72.102  1.00  0.00    -0.635 C  
HETATM   25  C   UNL     1     -13.408  15.867  73.083  1.00  0.00    -0.681 C  
ENDBRANCH  23  24
ENDBRANCH  12  16
BRANCH  14  26
HETATM   26  C   UNL     1      -8.894   9.087  68.476  1.00  0.00    -0.134 A  
HETATM   27  C   UNL     1      -8.117   8.277  69.332  1.00  0.00    -0.115 A  
HETATM   28  C   UNL     1     -10.037   8.504  67.926  1.00  0.00    -0.258 A  
HETATM   29  C   UNL     1      -8.501   6.968  69.664  1.00  0.00    -0.134 A  
HETATM   30  C   UNL     1     -10.416   7.188  68.241  1.00  0.00    -0.235 A  
HETATM   31  C   UNL     1      -9.673   6.424  69.142  1.00  0.00    -0.136 A  
BRANCH  31  32
HETATM   32  O   UNL     1      -9.955   5.127  69.506  1.00  0.00    -0.190 OA 
BRANCH  32  33
HETATM   33  C   UNL     1     -10.204   4.793  70.821  1.00  0.00    -0.176 A  
HETATM   34  C   UNL     1     -11.023   5.663  71.547  1.00  0.00    -0.268 A  
HETATM   35  C   UNL     1     -11.326   5.395  72.885  1.00  0.00    -0.365 A  
HETATM   36  C   UNL     1     -10.814   4.253  73.499  1.00  0.00    -0.351 A  
HETATM   37  C   UNL     1     -10.037   3.359  72.764  1.00  0.00    -0.232 A  
HETATM   38  C   UNL     1      -9.758   3.613  71.418  1.00  0.00    -0.241 A  
ENDBRANCH  32  33
ENDBRANCH  31  32
ENDBRANCH  14  26
ENDBRANCH   3   6
TORSDOF 6
ENDMDL
MODEL       31
REMARK 921   NORMALIZED FREE ENERGY PREDICTED BY IDOCK:   -7.13 KCAL/MOL
REMARK 922        TOTAL FREE ENERGY PREDICTED BY IDOCK:   -9.94 KCAL/MOL
REMARK 923 INTER-LIGAND FREE ENERGY PREDICTED BY IDOCK:   -8.71 KCAL/MOL
REMARK 924 INTRA-LIGAND FREE ENERGY PREDICTED BY IDOCK:   -1.23 KCAL/MOL
REMARK 927      BINDING AFFINITY PREDICTED BY RF-SCORE:    0.00 PKD
ROOT
HETATM    1  N   UNL     1     -13.216  13.240  71.806  1.00  0.00    -0.414 N  
HETATM    2  H1  UNL     1     -12.844  12.351  72.138  1.00  0.00     0.000 HD 
HETATM    3  C   UNL     1     -12.785  13.730  70.604  1.00  0.00    -0.260 C  
HETATM    4  H2  UNL     1     -13.899  13.755  72.361  1.00  0.00     0.000 HD 
HETATM    5  O   UNL     1     -13.233  14.798  70.206  1.00  0.00    -0.163 OA 
ENDROOT
BRANCH   3   6
HETATM    6  C   UNL     1     -11.823  12.899  69.895  1.00  0.00    -0.373 A  
HETATM    7  C   UNL     1     -11.614  11.544  70.135  1.00  0.00    -0.249 A  
HETATM    8  N   UNL     1     -12.063  10.677  71.088  1.00  0.00    -0.353 NA 
HETATM    9  C   UNL     1     -11.300   9.441  71.276  1.00  0.00    -0.366 C  
HETATM   10  H   UNL     1     -12.892  10.882  71.645  1.00  0.00     0.000 HD 
HETATM   11  C   UNL     1     -11.109   8.774  69.921  1.00  0.00    -0.129 C  
HETATM   12  C   UNL     1     -10.434   9.714  68.882  1.00  0.00    -0.215 C  
HETATM   13  N   UNL     1     -10.806  11.109  69.123  1.00  0.00    -0.227 NA 
HETATM   14  C   UNL     1     -10.906  13.218  68.822  1.00  0.00    -0.243 A  
HETATM   15  N   UNL     1     -10.207  12.115  68.472  1.00  0.00    -0.219 NA 
BRANCH  12  16
HETATM   16  C   UNL     1     -10.595   9.173  67.404  1.00  0.00    -0.315 C  
HETATM   17  C   UNL     1      -9.498   9.589  66.407  1.00  0.00    -0.251 C  
HETATM   18  C   UNL     1      -8.197   8.865  66.707  1.00  0.00    -0.111 C  
HETATM   19  O   UNL     1      -6.117   7.278  66.058  1.00  0.00    -0.036 OA 
HETATM   20  N   UNL     1      -8.368   7.430  66.532  1.00  0.00    -0.119 N  
HETATM   21  C   UNL     1     -10.782   7.650  67.222  1.00  0.00    -0.344 C  
HETATM   22  C   UNL     1      -9.477   6.836  67.283  1.00  0.00    -0.135 C  
HETATM   23  C   UNL     1      -7.204   6.728  66.233  1.00  0.00    -0.072 C  
BRANCH  23  24
HETATM   24  C   UNL     1      -7.314   5.252  66.091  1.00  0.00    -0.081 C  
HETATM   25  C   UNL     1      -6.633   4.458  66.927  1.00  0.00    -0.046 C  
ENDBRANCH  23  24
ENDBRANCH  12  16
BRANCH  14  26
HETATM   26  C   UNL     1     -10.672  14.463  68.051  1.00  0.00    -0.244 A  
HETATM   27  C   UNL     1     -10.299  15.650  68.717  1.00  0.00    -0.218 A  
HETATM   28  C   UNL     1     -10.841  14.546  66.668  1.00  0.00    -0.311 A  
HETATM   29  C   UNL     1     -10.051  16.844  68.022  1.00  0.00    -0.293 A  
HETATM   30  C   UNL     1     -10.613  15.744  65.969  1.00  0.00    -0.334 A  
HETATM   31  C   UNL     1     -10.179  16.890  66.635  1.00  0.00    -0.312 A  
BRANCH  31  32
HETATM   32  O   UNL     1      -9.938  18.110  66.044  1.00  0.00    -0.499 OA 
BRANCH  32  33
HETATM   33  C   UNL     1      -8.839  18.866  66.391  1.00  0.00    -0.306 A  
HETATM   34  C   UNL     1      -7.585  18.352  66.047  1.00  0.00    -0.231 A  
HETATM   35  C   UNL     1      -6.422  19.059  66.362  1.00  0.00    -0.210 A  
HETATM   36  C   UNL     1      -6.509  20.285  67.019  1.00  0.00    -0.248 A  
HETATM   37  C   UNL     1      -7.758  20.824  67.322  1.00  0.00    -0.332 A  
HETATM   38  C   UNL     1      -8.923  20.129  66.981  1.00  0.00    -0.453 A  
ENDBRANCH  32  33
ENDBRANCH  31  32
ENDBRANCH  14  26
ENDBRANCH   3   6
TORSDOF 6
ENDMDL
MODEL       32
REMARK 921   NORMALIZED FREE ENERGY PREDICTED BY IDOCK:   -7.10 KCAL/MOL
REMARK 922        TOTAL FREE ENERGY PREDICTED BY IDOCK:   -9.89 KCAL/MOL
REMARK 923 INTER-LIGAND FREE ENERGY PREDICTED BY IDOCK:   -9.15 KCAL/MOL
REMARK 924 INTRA-LIGAND FREE ENERGY PREDICTED BY IDOCK:   -0.74 KCAL/MOL
REMARK 927      BINDING AFFINITY PREDICTED BY RF-SCORE:    0.00 PKD
ROOT
HETATM    1  N   UNL     1      -9.831  12.149  63.826  1.00  0.00    -0.576 N  
HETATM    2  H1  UNL     1     -10.385  12.569  64.572  1.00  0.00     0.000 HD 
HETATM    3  C   UNL     1      -9.270  10.919  64.031  1.00  0.00    -0.197 C  
HETATM    4  H2  UNL     1      -9.698  12.638  62.941  1.00  0.00     0.000 HD 
HETATM    5  O   UNL     1      -8.606  10.415  63.135  1.00  0.00    -0.168 OA 
ENDROOT
BRANCH   3   6
HETATM    6  C   UNL     1      -9.543  10.311  65.326  1.00  0.00    -0.324 A  
HETATM    7  C   UNL     1      -9.272   8.985  65.654  1.00  0.00    -0.225 A  
HETATM    8  N   UNL     1      -8.859   7.904  64.934  1.00  0.00    -0.374 NA 
HETATM    9  C   UNL     1      -9.094   6.583  65.522  1.00  0.00     0.166 C  
HETATM   10  H   UNL     1      -8.407   8.010  64.026  1.00  0.00     0.000 HD 
HETATM   11  C   UNL     1      -8.556   6.579  66.945  1.00  0.00    -0.114 C  
HETATM   12  C   UNL     1      -9.165   7.713  67.817  1.00  0.00    -0.136 C  
HETATM   13  N   UNL     1      -9.467   8.891  67.003  1.00  0.00    -0.157 NA 
HETATM   14  C   UNL     1     -10.107  10.871  66.535  1.00  0.00    -0.222 A  
HETATM   15  N   UNL     1     -10.164   9.924  67.497  1.00  0.00    -0.201 NA 
BRANCH  12  16
HETATM   16  C   UNL     1      -8.333   7.951  69.142  1.00  0.00    -0.133 C  
HETATM   17  C   UNL     1      -8.863   9.043  70.089  1.00  0.00    -0.196 C  
HETATM   18  C   UNL     1     -10.138   8.585  70.775  1.00  0.00    -0.198 C  
HETATM   19  O   UNL     1     -11.650   8.049  72.942  1.00  0.00    -0.397 OA 
HETATM   20  N   UNL     1      -9.869   7.428  71.616  1.00  0.00    -0.165 N  
HETATM   21  C   UNL     1      -8.044   6.719  70.029  1.00  0.00    -0.125 C  
HETATM   22  C   UNL     1      -9.211   6.306  70.943  1.00  0.00    -0.157 C  
HETATM   23  C   UNL     1     -10.750   7.252  72.680  1.00  0.00    -0.278 C  
BRANCH  23  24
HETATM   24  C   UNL     1     -10.548   6.058  73.543  1.00  0.00    -0.284 C  
HETATM   25  C   UNL     1     -11.275   4.955  73.320  1.00  0.00    -0.423 C  
ENDBRANCH  23  24
ENDBRANCH  12  16
BRANCH  14  26
HETATM   26  C   UNL     1     -10.542  12.245  66.885  1.00  0.00    -0.249 A  
HETATM   27  C   UNL     1      -9.743  13.050  67.724  1.00  0.00    -0.218 A  
HETATM   28  C   UNL     1     -11.750  12.795  66.451  1.00  0.00    -0.464 A  
HETATM   29  C   UNL     1     -10.111  14.362  68.062  1.00  0.00    -0.232 A  
HETATM   30  C   UNL     1     -12.132  14.101  66.802  1.00  0.00    -0.474 A  
HETATM   31  C   UNL     1     -11.298  14.908  67.578  1.00  0.00    -0.342 A  
BRANCH  31  32
HETATM   32  O   UNL     1     -11.585  16.191  67.982  1.00  0.00    -0.236 OA 
BRANCH  32  33
HETATM   33  C   UNL     1     -10.715  17.230  67.730  1.00  0.00    -0.333 A  
HETATM   34  C   UNL     1     -10.199  17.904  68.842  1.00  0.00    -0.331 A  
HETATM   35  C   UNL     1      -9.308  18.967  68.671  1.00  0.00    -0.428 A  
HETATM   36  C   UNL     1      -8.928  19.358  67.388  1.00  0.00    -0.354 A  
HETATM   37  C   UNL     1      -9.403  18.659  66.280  1.00  0.00    -0.251 A  
HETATM   38  C   UNL     1     -10.271  17.577  66.452  1.00  0.00    -0.354 A  
ENDBRANCH  32  33
ENDBRANCH  31  32
ENDBRANCH  14  26
ENDBRANCH   3   6
TORSDOF 6
ENDMDL
MODEL       33
REMARK 921   NORMALIZED FREE ENERGY PREDICTED BY IDOCK:   -7.02 KCAL/MOL
REMARK 922        TOTAL FREE ENERGY PREDICTED BY IDOCK:   -9.79 KCAL/MOL
REMARK 923 INTER-LIGAND FREE ENERGY PREDICTED BY IDOCK:   -9.27 KCAL/MOL
REMARK 924 INTRA-LIGAND FREE ENERGY PREDICTED BY IDOCK:   -0.52 KCAL/MOL
REMARK 927      BINDING AFFINITY PREDICTED BY RF-SCORE:    0.00 PKD
ROOT
HETATM    1  N   UNL     1     -10.937   7.416  67.764  1.00  0.00    -0.504 N  
HETATM    2  H1  UNL     1     -11.880   7.063  67.929  1.00  0.00     0.000 HD 
HETATM    3  C   UNL     1     -10.032   7.388  68.789  1.00  0.00    -0.169 C  
HETATM    4  H2  UNL     1     -10.674   7.783  66.850  1.00  0.00     0.000 HD 
HETATM    5  O   UNL     1      -8.901   7.812  68.590  1.00  0.00    -0.131 OA 
ENDROOT
BRANCH   3   6
HETATM    6  C   UNL     1     -10.517   6.827  70.041  1.00  0.00    -0.241 A  
HETATM    7  C   UNL     1     -10.221   5.548  70.506  1.00  0.00    -0.242 A  
HETATM    8  N   UNL     1      -9.590   4.471  69.958  1.00  0.00    -0.178 NA 
HETATM    9  C   UNL     1      -9.841   3.166  70.575  1.00  0.00     0.092 C  
HETATM   10  H   UNL     1      -8.971   4.569  69.153  1.00  0.00     0.000 HD 
HETATM   11  C   UNL     1      -9.606   3.282  72.074  1.00  0.00    -0.215 C  
HETATM   12  C   UNL     1     -10.463   4.403  72.728  1.00  0.00    -0.186 C  
HETATM   13  N   UNL     1     -10.680   5.506  71.793  1.00  0.00    -0.235 NA 
HETATM   14  C   UNL     1     -11.356   7.397  71.073  1.00  0.00    -0.275 A  
HETATM   15  N   UNL     1     -11.538   6.499  72.066  1.00  0.00    -0.297 NA 
BRANCH  12  16
HETATM   16  C   UNL     1      -9.939   4.779  74.173  1.00  0.00    -0.210 C  
HETATM   17  C   UNL     1      -8.558   4.221  74.561  1.00  0.00    -0.091 C  
HETATM   18  C   UNL     1      -7.457   4.933  73.796  1.00  0.00    -0.090 C  
HETATM   19  O   UNL     1      -5.184   6.374  73.625  1.00  0.00    -0.038 OA 
HETATM   20  N   UNL     1      -7.428   6.344  74.154  1.00  0.00    -0.089 N  
HETATM   21  C   UNL     1      -9.916   6.277  74.552  1.00  0.00    -0.356 C  
HETATM   22  C   UNL     1      -8.702   7.052  74.009  1.00  0.00    -0.170 C  
HETATM   23  C   UNL     1      -6.198   6.973  73.984  1.00  0.00    -0.066 C  
BRANCH  23  24
HETATM   24  C   UNL     1      -6.125   8.426  74.289  1.00  0.00    -0.135 C  
HETATM   25  C   UNL     1      -5.313   9.210  73.569  1.00  0.00    -0.105 C  
ENDBRANCH  23  24
ENDBRANCH  12  16
BRANCH  14  26
HETATM   26  C   UNL     1     -11.955   8.744  71.235  1.00  0.00    -0.353 A  
HETATM   27  C   UNL     1     -13.023   8.942  72.135  1.00  0.00    -0.473 A  
HETATM   28  C   UNL     1     -11.539   9.855  70.500  1.00  0.00    -0.386 A  
HETATM   29  C   UNL     1     -13.604  10.205  72.331  1.00  0.00    -0.109 A  
HETATM   30  C   UNL     1     -12.130  11.119  70.677  1.00  0.00    -0.477 A  
HETATM   31  C   UNL     1     -13.139  11.311  71.621  1.00  0.00    -0.408 A  
BRANCH  31  32
HETATM   32  O   UNL     1     -13.786  12.502  71.862  1.00  0.00    -0.264 OA 
BRANCH  32  33
HETATM   33  C   UNL     1     -13.101  13.699  71.861  1.00  0.00    -0.387 A  
HETATM   34  C   UNL     1     -12.784  14.241  70.612  1.00  0.00    -0.409 A  
HETATM   35  C   UNL     1     -12.093  15.453  70.525  1.00  0.00    -0.411 A  
HETATM   36  C   UNL     1     -11.721  16.128  71.686  1.00  0.00    -0.558 A  
HETATM   37  C   UNL     1     -12.078  15.614  72.932  1.00  0.00    -0.583 A  
HETATM   38  C   UNL     1     -12.794  14.416  73.018  1.00  0.00    -0.521 A  
ENDBRANCH  32  33
ENDBRANCH  31  32
ENDBRANCH  14  26
ENDBRANCH   3   6
TORSDOF 6
ENDMDL
MODEL       34
REMARK 921   NORMALIZED FREE ENERGY PREDICTED BY IDOCK:   -7.02 KCAL/MOL
REMARK 922        TOTAL FREE ENERGY PREDICTED BY IDOCK:   -9.78 KCAL/MOL
REMARK 923 INTER-LIGAND FREE ENERGY PREDICTED BY IDOCK:   -8.53 KCAL/MOL
REMARK 924 INTRA-LIGAND FREE ENERGY PREDICTED BY IDOCK:   -1.25 KCAL/MOL
REMARK 927      BINDING AFFINITY PREDICTED BY RF-SCORE:    0.00 PKD
ROOT
HETATM    1  N   UNL     1      -6.613  10.617  64.272  1.00  0.00    -0.358 N  
HETATM    2  H1  UNL     1      -7.056   9.991  63.601  1.00  0.00     0.000 HD 
HETATM    3  C   UNL     1      -7.027  10.591  65.575  1.00  0.00    -0.100 C  
HETATM    4  H2  UNL     1      -5.872  11.252  63.977  1.00  0.00     0.000 HD 
HETATM    5  O   UNL     1      -6.494  11.343  66.381  1.00  0.00    -0.116 OA 
ENDROOT
BRANCH   3   6
HETATM    6  C   UNL     1      -8.079   9.631  65.881  1.00  0.00    -0.112 A  
HETATM    7  C   UNL     1      -8.017   8.269  65.602  1.00  0.00    -0.113 A  
HETATM    8  N   UNL     1      -7.142   7.491  64.904  1.00  0.00    -0.058 NA 
HETATM    9  C   UNL     1      -7.623   6.179  64.461  1.00  0.00    -0.094 C  
HETATM   10  H   UNL     1      -6.195   7.808  64.699  1.00  0.00     0.000 HD 
HETATM   11  C   UNL     1      -8.230   5.454  65.653  1.00  0.00    -0.124 C  
HETATM   12  C   UNL     1      -9.354   6.276  66.344  1.00  0.00    -0.151 C  
HETATM   13  N   UNL     1      -9.090   7.711  66.240  1.00  0.00    -0.169 NA 
HETATM   14  C   UNL     1      -9.365   9.808  66.522  1.00  0.00    -0.162 A  
HETATM   15  N   UNL     1     -10.006   8.621  66.599  1.00  0.00    -0.265 NA 
BRANCH  12  16
HETATM   16  C   UNL     1      -9.700   5.712  67.781  1.00  0.00    -0.140 C  
HETATM   17  C   UNL     1      -8.621   5.903  68.862  1.00  0.00    -0.110 C  
HETATM   18  C   UNL     1      -8.527   7.361  69.276  1.00  0.00    -0.136 C  
HETATM   19  O   UNL     1      -8.586   9.363  71.080  1.00  0.00    -0.297 OA 
HETATM   20  N   UNL     1      -9.777   7.793  69.884  1.00  0.00    -0.175 N  
HETATM   21  C   UNL     1     -11.031   6.168  68.421  1.00  0.00    -0.391 C  
HETATM   22  C   UNL     1     -10.977   7.559  69.078  1.00  0.00     0.031 C  
HETATM   23  C   UNL     1      -9.666   8.860  70.771  1.00  0.00    -0.227 C  
BRANCH  23  24
HETATM   24  C   UNL     1     -10.919   9.371  71.384  1.00  0.00    -0.443 C  
HETATM   25  C   UNL     1     -11.599  10.351  70.773  1.00  0.00    -0.450 C  
ENDBRANCH  23  24
ENDBRANCH  12  16
BRANCH  14  26
HETATM   26  C   UNL     1     -10.019  10.993  67.126  1.00  0.00    -0.218 A  
HETATM   27  C   UNL     1     -11.222  11.494  66.583  1.00  0.00    -0.336 A  
HETATM   28  C   UNL     1      -9.482  11.689  68.211  1.00  0.00    -0.191 A  
HETATM   29  C   UNL     1     -11.882  12.602  67.138  1.00  0.00    -0.399 A  
HETATM   30  C   UNL     1     -10.129  12.810  68.759  1.00  0.00    -0.057 A  
HETATM   31  C   UNL     1     -11.352  13.251  68.252  1.00  0.00    -0.300 A  
BRANCH  31  32
HETATM   32  O   UNL     1     -12.057  14.341  68.710  1.00  0.00    -0.324 OA 
BRANCH  32  33
HETATM   33  C   UNL     1     -12.335  14.497  70.051  1.00  0.00    -0.323 A  
HETATM   34  C   UNL     1     -11.966  15.714  70.634  1.00  0.00    -0.438 A  
HETATM   35  C   UNL     1     -12.215  15.952  71.988  1.00  0.00    -0.570 A  
HETATM   36  C   UNL     1     -12.839  14.975  72.763  1.00  0.00    -0.505 A  
HETATM   37  C   UNL     1     -13.252  13.781  72.175  1.00  0.00    -0.538 A  
HETATM   38  C   UNL     1     -13.028  13.555  70.814  1.00  0.00    -0.168 A  
ENDBRANCH  32  33
ENDBRANCH  31  32
ENDBRANCH  14  26
ENDBRANCH   3   6
TORSDOF 6
ENDMDL
MODEL       35
REMARK 921   NORMALIZED FREE ENERGY PREDICTED BY IDOCK:   -6.98 KCAL/MOL
REMARK 922        TOTAL FREE ENERGY PREDICTED BY IDOCK:   -9.72 KCAL/MOL
REMARK 923 INTER-LIGAND FREE ENERGY PREDICTED BY IDOCK:   -8.65 KCAL/MOL
REMARK 924 INTRA-LIGAND FREE ENERGY PREDICTED BY IDOCK:   -1.08 KCAL/MOL
REMARK 927      BINDING AFFINITY PREDICTED BY RF-SCORE:    0.00 PKD
ROOT
HETATM    1  N   UNL     1     -12.846  14.870  69.908  1.00  0.00    -0.606 N  
HETATM    2  H1  UNL     1     -12.847  14.444  68.981  1.00  0.00     0.000 HD 
HETATM    3  C   UNL     1     -11.903  15.817  70.200  1.00  0.00    -0.355 C  
HETATM    4  H2  UNL     1     -13.538  14.595  70.605  1.00  0.00     0.000 HD 
HETATM    5  O   UNL     1     -11.903  16.329  71.312  1.00  0.00    -0.424 OA 
ENDROOT
BRANCH   3   6
HETATM    6  C   UNL     1     -10.981  16.140  69.121  1.00  0.00    -0.309 A  
HETATM    7  C   UNL     1     -10.377  17.381  68.935  1.00  0.00    -0.340 A  
HETATM    8  N   UNL     1     -10.535  18.600  69.524  1.00  0.00    -0.134 NA 
HETATM    9  C   UNL     1     -10.041  19.765  68.786  1.00  0.00    -0.421 C  
HETATM   10  H   UNL     1     -10.978  18.697  70.438  1.00  0.00     0.000 HD 
HETATM   11  C   UNL     1      -8.604  19.501  68.362  1.00  0.00    -0.389 C  
HETATM   12  C   UNL     1      -8.455  18.192  67.536  1.00  0.00    -0.248 C  
HETATM   13  N   UNL     1      -9.436  17.193  67.963  1.00  0.00    -0.256 NA 
HETATM   14  C   UNL     1     -10.463  15.325  68.041  1.00  0.00    -0.248 A  
HETATM   15  N   UNL     1      -9.621  16.056  67.278  1.00  0.00    -0.223 NA 
BRANCH  12  16
HETATM   16  C   UNL     1      -6.948  17.722  67.440  1.00  0.00    -0.197 C  
HETATM   17  C   UNL     1      -6.170  17.663  68.767  1.00  0.00    -0.197 C  
HETATM   18  C   UNL     1      -6.649  16.501  69.618  1.00  0.00    -0.169 C  
HETATM   19  O   UNL     1      -6.284  14.221  71.011  1.00  0.00    -0.184 OA 
HETATM   20  N   UNL     1      -6.380  15.238  68.945  1.00  0.00    -0.093 N  
HETATM   21  C   UNL     1      -6.665  16.386  66.718  1.00  0.00    -0.144 C  
HETATM   22  C   UNL     1      -6.905  15.134  67.581  1.00  0.00    -0.180 C  
HETATM   23  C   UNL     1      -6.248  14.136  69.784  1.00  0.00    -0.138 C  
BRANCH  23  24
HETATM   24  C   UNL     1      -6.020  12.814  69.143  1.00  0.00    -0.086 C  
HETATM   25  C   UNL     1      -5.956  11.715  69.907  1.00  0.00    -0.137 C  
ENDBRANCH  23  24
ENDBRANCH  12  16
BRANCH  14  26
HETATM   26  C   UNL     1     -10.648  13.894  67.701  1.00  0.00    -0.247 A  
HETATM   27  C   UNL     1      -9.834  12.911  68.303  1.00  0.00    -0.228 A  
HETATM   28  C   UNL     1     -11.581  13.448  66.763  1.00  0.00    -0.404 A  
HETATM   29  C   UNL     1      -9.990  11.545  68.021  1.00  0.00    -0.197 A  
HETATM   30  C   UNL     1     -11.728  12.083  66.463  1.00  0.00    -0.330 A  
HETATM   31  C   UNL     1     -10.961  11.119  67.118  1.00  0.00    -0.291 A  
BRANCH  31  32
HETATM   32  O   UNL     1     -11.023   9.763  66.889  1.00  0.00    -0.117 OA 
BRANCH  32  33
HETATM   33  C   UNL     1      -9.996   9.099  66.252  1.00  0.00    -0.282 A  
HETATM   34  C   UNL     1      -9.676   7.826  66.733  1.00  0.00    -0.296 A  
HETATM   35  C   UNL     1      -8.648   7.086  66.141  1.00  0.00    -0.148 A  
HETATM   36  C   UNL     1      -7.940   7.617  65.063  1.00  0.00    -0.131 A  
HETATM   37  C   UNL     1      -8.288   8.866  64.551  1.00  0.00    -0.178 A  
HETATM   38  C   UNL     1      -9.336   9.592  65.126  1.00  0.00    -0.322 A  
ENDBRANCH  32  33
ENDBRANCH  31  32
ENDBRANCH  14  26
ENDBRANCH   3   6
TORSDOF 6
ENDMDL
MODEL       36
REMARK 921   NORMALIZED FREE ENERGY PREDICTED BY IDOCK:   -6.96 KCAL/MOL
REMARK 922        TOTAL FREE ENERGY PREDICTED BY IDOCK:   -9.71 KCAL/MOL
REMARK 923 INTER-LIGAND FREE ENERGY PREDICTED BY IDOCK:   -9.15 KCAL/MOL
REMARK 924 INTRA-LIGAND FREE ENERGY PREDICTED BY IDOCK:   -0.56 KCAL/MOL
REMARK 927      BINDING AFFINITY PREDICTED BY RF-SCORE:    0.00 PKD
ROOT
HETATM    1  N   UNL     1     -10.538  17.125  70.017  1.00  0.00    -0.127 N  
HETATM    2  H1  UNL     1     -11.456  17.478  69.745  1.00  0.00     0.000 HD 
HETATM    3  C   UNL     1     -10.043  16.016  69.388  1.00  0.00    -0.271 C  
HETATM    4  H2  UNL     1      -9.999  17.592  70.746  1.00  0.00     0.000 HD 
HETATM    5  O   UNL     1      -8.942  15.593  69.714  1.00  0.00    -0.222 OA 
ENDROOT
BRANCH   3   6
HETATM    6  C   UNL     1     -10.895  15.447  68.353  1.00  0.00    -0.268 A  
HETATM    7  C   UNL     1     -10.943  15.886  67.033  1.00  0.00    -0.189 A  
HETATM    8  N   UNL     1     -10.401  16.951  66.376  1.00  0.00    -0.313 NA 
HETATM    9  C   UNL     1     -11.012  17.327  65.099  1.00  0.00     0.122 C  
HETATM   10  H   UNL     1      -9.606  17.463  66.757  1.00  0.00     0.000 HD 
HETATM   11  C   UNL     1     -11.114  16.088  64.222  1.00  0.00     0.043 C  
HETATM   12  C   UNL     1     -11.889  14.929  64.912  1.00  0.00    -0.337 C  
HETATM   13  N   UNL     1     -11.687  14.958  66.361  1.00  0.00    -0.256 NA 
HETATM   14  C   UNL     1     -11.837  14.349  68.399  1.00  0.00    -0.319 A  
HETATM   15  N   UNL     1     -12.397  14.173  67.182  1.00  0.00    -0.296 NA 
BRANCH  12  16
HETATM   16  C   UNL     1     -11.655  13.545  64.182  1.00  0.00    -0.415 C  
HETATM   17  C   UNL     1     -10.195  13.067  64.086  1.00  0.00    -0.263 C  
HETATM   18  C   UNL     1      -9.686  12.623  65.446  1.00  0.00    -0.061 C  
HETATM   19  O   UNL     1      -8.608  10.833  67.150  1.00  0.00    -0.127 OA 
HETATM   20  N   UNL     1     -10.448  11.477  65.920  1.00  0.00    -0.248 N  
HETATM   21  C   UNL     1     -12.471  12.332  64.682  1.00  0.00    -0.424 C  
HETATM   22  C   UNL     1     -11.901  11.660  65.944  1.00  0.00     0.283 C  
HETATM   23  C   UNL     1      -9.781  10.654  66.822  1.00  0.00    -0.185 C  
BRANCH  23  24
HETATM   24  C   UNL     1     -10.531   9.495  67.373  1.00  0.00    -0.336 C  
HETATM   25  C   UNL     1     -10.107   8.251  67.110  1.00  0.00    -0.334 C  
ENDBRANCH  23  24
ENDBRANCH  12  16
BRANCH  14  26
HETATM   26  C   UNL     1     -12.211  13.407  69.481  1.00  0.00    -0.260 A  
HETATM   27  C   UNL     1     -12.130  12.014  69.269  1.00  0.00    -0.249 A  
HETATM   28  C   UNL     1     -12.690  13.825  70.724  1.00  0.00    -0.361 A  
HETATM   29  C   UNL     1     -12.457  11.090  70.274  1.00  0.00    -0.365 A  
HETATM   30  C   UNL     1     -13.037  12.904  71.727  1.00  0.00    -0.458 A  
HETATM   31  C   UNL     1     -12.887  11.532  71.524  1.00  0.00    -0.380 A  
BRANCH  31  32
HETATM   32  O   UNL     1     -13.207  10.553  72.436  1.00  0.00    -0.299 OA 
BRANCH  32  33
HETATM   33  C   UNL     1     -13.054   9.217  72.132  1.00  0.00    -0.446 A  
HETATM   34  C   UNL     1     -11.749   8.714  72.138  1.00  0.00    -0.442 A  
HETATM   35  C   UNL     1     -11.510   7.369  71.842  1.00  0.00    -0.300 A  
HETATM   36  C   UNL     1     -12.576   6.522  71.543  1.00  0.00    -0.175 A  
HETATM   37  C   UNL     1     -13.882   7.008  71.583  1.00  0.00    -0.357 A  
HETATM   38  C   UNL     1     -14.123   8.346  71.907  1.00  0.00    -0.516 A  
ENDBRANCH  32  33
ENDBRANCH  31  32
ENDBRANCH  14  26
ENDBRANCH   3   6
TORSDOF 6
ENDMDL
MODEL       37
REMARK 921   NORMALIZED FREE ENERGY PREDICTED BY IDOCK:   -6.94 KCAL/MOL
REMARK 922        TOTAL FREE ENERGY PREDICTED BY IDOCK:   -9.68 KCAL/MOL
REMARK 923 INTER-LIGAND FREE ENERGY PREDICTED BY IDOCK:   -8.96 KCAL/MOL
REMARK 924 INTRA-LIGAND FREE ENERGY PREDICTED BY IDOCK:   -0.72 KCAL/MOL
REMARK 927      BINDING AFFINITY PREDICTED BY RF-SCORE:    0.00 PKD
ROOT
HETATM    1  N   UNL     1     -12.470  14.129  67.582  1.00  0.00    -0.485 N  
HETATM    2  H1  UNL     1     -12.690  13.943  66.604  1.00  0.00     0.000 HD 
HETATM    3  C   UNL     1     -11.667  13.253  68.258  1.00  0.00    -0.353 C  
HETATM    4  H2  UNL     1     -12.843  14.956  68.048  1.00  0.00     0.000 HD 
HETATM    5  O   UNL     1     -11.403  13.478  69.432  1.00  0.00    -0.260 OA 
ENDROOT
BRANCH   3   6
HETATM    6  C   UNL     1     -11.181  12.120  67.484  1.00  0.00    -0.357 A  
HETATM    7  C   UNL     1     -11.008  12.116  66.103  1.00  0.00    -0.298 A  
HETATM    8  N   UNL     1     -11.331  12.996  65.112  1.00  0.00    -0.286 NA 
HETATM    9  C   UNL     1     -11.383  12.470  63.746  1.00  0.00    -0.466 C  
HETATM   10  H   UNL     1     -11.529  13.976  65.314  1.00  0.00     0.000 HD 
HETATM   11  C   UNL     1     -10.090  11.719  63.463  1.00  0.00    -0.463 C  
HETATM   12  C   UNL     1      -9.813  10.595  64.501  1.00  0.00    -0.327 C  
HETATM   13  N   UNL     1     -10.338  10.960  65.817  1.00  0.00    -0.251 NA 
HETATM   14  C   UNL     1     -10.763  10.798  67.901  1.00  0.00    -0.239 A  
HETATM   15  N   UNL     1     -10.380  10.077  66.824  1.00  0.00    -0.227 NA 
BRANCH  12  16
HETATM   16  C   UNL     1      -8.314  10.092  64.441  1.00  0.00    -0.171 C  
HETATM   17  C   UNL     1      -7.840   9.230  65.625  1.00  0.00    -0.099 C  
HETATM   18  C   UNL     1      -8.477   7.853  65.575  1.00  0.00    -0.139 C  
HETATM   19  O   UNL     1      -8.393   5.159  65.495  1.00  0.00    -0.116 OA 
HETATM   20  N   UNL     1      -8.053   7.145  64.375  1.00  0.00    -0.099 N  
HETATM   21  C   UNL     1      -7.865   9.348  63.164  1.00  0.00    -0.132 C  
HETATM   22  C   UNL     1      -8.270   7.863  63.117  1.00  0.00    -0.035 C  
HETATM   23  C   UNL     1      -8.092   5.757  64.462  1.00  0.00    -0.132 C  
BRANCH  23  24
HETATM   24  C   UNL     1      -7.714   4.986  63.248  1.00  0.00    -0.070 C  
HETATM   25  C   UNL     1      -8.409   3.888  62.923  1.00  0.00    -0.082 C  
ENDBRANCH  23  24
ENDBRANCH  12  16
BRANCH  14  26
HETATM   26  C   UNL     1     -10.634  10.173  69.239  1.00  0.00    -0.254 A  
HETATM   27  C   UNL     1     -11.752  10.093  70.096  1.00  0.00    -0.330 A  
HETATM   28  C   UNL     1      -9.427   9.676  69.735  1.00  0.00    -0.242 A  
HETATM   29  C   UNL     1     -11.675   9.492  71.362  1.00  0.00    -0.465 A  
HETATM   30  C   UNL     1      -9.340   9.090  71.009  1.00  0.00    -0.339 A  
HETATM   31  C   UNL     1     -10.470   8.959  71.816  1.00  0.00    -0.360 A  
BRANCH  31  32
HETATM   32  O   UNL     1     -10.487   8.411  73.079  1.00  0.00    -0.180 OA 
BRANCH  32  33
HETATM   33  C   UNL     1     -10.612   7.051  73.265  1.00  0.00    -0.344 A  
HETATM   34  C   UNL     1     -11.243   6.331  72.246  1.00  0.00    -0.325 A  
HETATM   35  C   UNL     1     -11.408   4.947  72.358  1.00  0.00     0.016 A  
HETATM   36  C   UNL     1     -10.937   4.279  73.488  1.00  0.00    -0.373 A  
HETATM   37  C   UNL     1     -10.266   4.987  74.483  1.00  0.00    -0.305 A  
HETATM   38  C   UNL     1     -10.076   6.366  74.358  1.00  0.00    -0.367 A  
ENDBRANCH  32  33
ENDBRANCH  31  32
ENDBRANCH  14  26
ENDBRANCH   3   6
TORSDOF 6
ENDMDL
MODEL       38
REMARK 921   NORMALIZED FREE ENERGY PREDICTED BY IDOCK:   -6.93 KCAL/MOL
REMARK 922        TOTAL FREE ENERGY PREDICTED BY IDOCK:   -9.67 KCAL/MOL
REMARK 923 INTER-LIGAND FREE ENERGY PREDICTED BY IDOCK:   -8.76 KCAL/MOL
REMARK 924 INTRA-LIGAND FREE ENERGY PREDICTED BY IDOCK:   -0.91 KCAL/MOL
REMARK 927      BINDING AFFINITY PREDICTED BY RF-SCORE:    0.00 PKD
ROOT
HETATM    1  N   UNL     1     -11.267   6.308  66.771  1.00  0.00    -0.746 N  
HETATM    2  H1  UNL     1     -11.462   5.511  67.376  1.00  0.00     0.000 HD 
HETATM    3  C   UNL     1     -10.770   7.454  67.326  1.00  0.00    -0.308 C  
HETATM    4  H2  UNL     1     -11.440   6.250  65.767  1.00  0.00     0.000 HD 
HETATM    5  O   UNL     1     -10.536   8.411  66.598  1.00  0.00    -0.294 OA 
ENDROOT
BRANCH   3   6
HETATM    6  C   UNL     1     -10.548   7.412  68.764  1.00  0.00    -0.189 A  
HETATM    7  C   UNL     1     -10.119   6.291  69.469  1.00  0.00    -0.176 A  
HETATM    8  N   UNL     1      -9.931   4.983  69.132  1.00  0.00    -0.195 NA 
HETATM    9  C   UNL     1      -9.886   4.013  70.229  1.00  0.00    -0.134 C  
HETATM   10  H   UNL     1      -9.826   4.694  68.160  1.00  0.00     0.000 HD 
HETATM   11  C   UNL     1      -8.888   4.499  71.270  1.00  0.00    -0.154 C  
HETATM   12  C   UNL     1      -9.210   5.931  71.783  1.00  0.00    -0.148 C  
HETATM   13  N   UNL     1      -9.830   6.734  70.729  1.00  0.00    -0.183 NA 
HETATM   14  C   UNL     1     -10.684   8.440  69.774  1.00  0.00    -0.211 A  
HETATM   15  N   UNL     1     -10.360   7.938  70.986  1.00  0.00    -0.201 NA 
BRANCH  12  16
HETATM   16  C   UNL     1      -7.983   6.574  72.547  1.00  0.00    -0.104 C  
HETATM   17  C   UNL     1      -6.596   6.342  71.920  1.00  0.00    -0.062 C  
HETATM   18  C   UNL     1      -6.440   7.154  70.647  1.00  0.00    -0.043 C  
HETATM   19  O   UNL     1      -5.207   8.971  69.083  1.00  0.00    -0.035 OA 
HETATM   20  N   UNL     1      -6.506   8.577  70.946  1.00  0.00    -0.039 N  
HETATM   21  C   UNL     1      -8.059   8.083  72.869  1.00  0.00    -0.214 C  
HETATM   22  C   UNL     1      -7.692   9.004  71.692  1.00  0.00     0.076 C  
HETATM   23  C   UNL     1      -5.854   9.404  70.036  1.00  0.00    -0.035 C  
BRANCH  23  24
HETATM   24  C   UNL     1      -5.931  10.870  70.269  1.00  0.00    -0.130 C  
HETATM   25  C   UNL     1      -6.577  11.644  69.386  1.00  0.00    -0.115 C  
ENDBRANCH  23  24
ENDBRANCH  12  16
BRANCH  14  26
HETATM   26  C   UNL     1     -11.035   9.878  69.687  1.00  0.00    -0.285 A  
HETATM   27  C   UNL     1     -12.150  10.380  70.392  1.00  0.00    -0.402 A  
HETATM   28  C   UNL     1     -10.331  10.787  68.895  1.00  0.00    -0.220 A  
HETATM   29  C   UNL     1     -12.503  11.738  70.350  1.00  0.00    -0.280 A  
HETATM   30  C   UNL     1     -10.692  12.144  68.835  1.00  0.00    -0.212 A  
HETATM   31  C   UNL     1     -11.756  12.637  69.591  1.00  0.00    -0.303 A  
BRANCH  31  32
HETATM   32  O   UNL     1     -12.193  13.942  69.594  1.00  0.00    -0.333 OA 
BRANCH  32  33
HETATM   33  C   UNL     1     -12.604  14.555  70.759  1.00  0.00    -0.351 A  
HETATM   34  C   UNL     1     -11.605  15.095  71.573  1.00  0.00    -0.443 A  
HETATM   35  C   UNL     1     -11.940  15.735  72.770  1.00  0.00    -0.598 A  
HETATM   36  C   UNL     1     -13.276  15.839  73.153  1.00  0.00    -0.694 A  
HETATM   37  C   UNL     1     -14.278  15.344  72.321  1.00  0.00    -0.639 A  
HETATM   38  C   UNL     1     -13.944  14.730  71.110  1.00  0.00    -0.355 A  
ENDBRANCH  32  33
ENDBRANCH  31  32
ENDBRANCH  14  26
ENDBRANCH   3   6
TORSDOF 6
ENDMDL
MODEL       39
REMARK 921   NORMALIZED FREE ENERGY PREDICTED BY IDOCK:   -6.92 KCAL/MOL
REMARK 922        TOTAL FREE ENERGY PREDICTED BY IDOCK:   -9.65 KCAL/MOL
REMARK 923 INTER-LIGAND FREE ENERGY PREDICTED BY IDOCK:   -8.59 KCAL/MOL
REMARK 924 INTRA-LIGAND FREE ENERGY PREDICTED BY IDOCK:   -1.05 KCAL/MOL
REMARK 927      BINDING AFFINITY PREDICTED BY RF-SCORE:    0.00 PKD
ROOT
HETATM    1  N   UNL     1     -11.636  11.167  62.590  1.00  0.00    -0.089 N  
HETATM    2  H1  UNL     1     -10.621  11.110  62.511  1.00  0.00     0.000 HD 
HETATM    3  C   UNL     1     -12.180  11.886  63.620  1.00  0.00    -0.479 C  
HETATM    4  H2  UNL     1     -12.236  10.698  61.913  1.00  0.00     0.000 HD 
HETATM    5  O   UNL     1     -13.398  11.955  63.714  1.00  0.00    -0.614 OA 
ENDROOT
BRANCH   3   6
HETATM    6  C   UNL     1     -11.225  12.525  64.513  1.00  0.00    -0.370 A  
HETATM    7  C   UNL     1     -11.169  13.893  64.768  1.00  0.00    -0.369 A  
HETATM    8  N   UNL     1     -11.797  14.977  64.230  1.00  0.00    -0.695 NA 
HETATM    9  C   UNL     1     -11.177  16.285  64.452  1.00  0.00    -0.107 C  
HETATM   10  H   UNL     1     -12.661  14.880  63.697  1.00  0.00     0.000 HD 
HETATM   11  C   UNL     1     -10.899  16.448  65.939  1.00  0.00    -0.116 C  
HETATM   12  C   UNL     1     -10.029  15.294  66.514  1.00  0.00    -0.265 C  
HETATM   13  N   UNL     1     -10.296  14.040  65.810  1.00  0.00    -0.307 NA 
HETATM   14  C   UNL     1     -10.168  11.966  65.329  1.00  0.00    -0.272 A  
HETATM   15  N   UNL     1      -9.539  12.952  66.005  1.00  0.00    -0.212 NA 
BRANCH  12  16
HETATM   16  C   UNL     1     -10.074  15.253  68.095  1.00  0.00    -0.229 C  
HETATM   17  C   UNL     1     -11.459  15.031  68.729  1.00  0.00    -0.337 C  
HETATM   18  C   UNL     1     -11.924  13.602  68.515  1.00  0.00    -0.361 C  
HETATM   19  O   UNL     1     -12.785  11.194  69.368  1.00  0.00    -0.240 OA 
HETATM   20  N   UNL     1     -11.027  12.674  69.188  1.00  0.00    -0.190 N  
HETATM   21  C   UNL     1      -9.116  14.272  68.807  1.00  0.00    -0.103 C  
HETATM   22  C   UNL     1      -9.610  12.815  68.846  1.00  0.00     0.236 C  
HETATM   23  C   UNL     1     -11.595  11.453  69.543  1.00  0.00    -0.331 C  
BRANCH  23  24
HETATM   24  C   UNL     1     -10.709  10.451  70.191  1.00  0.00    -0.292 C  
HETATM   25  C   UNL     1     -11.211   9.639  71.131  1.00  0.00    -0.454 C  
ENDBRANCH  23  24
ENDBRANCH  12  16
BRANCH  14  26
HETATM   26  C   UNL     1      -9.738  10.568  65.575  1.00  0.00    -0.298 A  
HETATM   27  C   UNL     1     -10.413   9.775  66.526  1.00  0.00    -0.212 A  
HETATM   28  C   UNL     1      -8.647   9.982  64.929  1.00  0.00    -0.184 A  
HETATM   29  C   UNL     1     -10.049   8.442  66.774  1.00  0.00    -0.373 A  
HETATM   30  C   UNL     1      -8.266   8.654  65.187  1.00  0.00    -0.152 A  
HETATM   31  C   UNL     1      -8.987   7.863  66.082  1.00  0.00    -0.175 A  
BRANCH  31  32
HETATM   32  O   UNL     1      -8.689   6.559  66.410  1.00  0.00    -0.129 OA 
BRANCH  32  33
HETATM   33  C   UNL     1      -8.893   6.080  67.686  1.00  0.00    -0.106 A  
HETATM   34  C   UNL     1      -9.840   5.062  67.833  1.00  0.00    -0.200 A  
HETATM   35  C   UNL     1     -10.104   4.520  69.094  1.00  0.00    -0.083 A  
HETATM   36  C   UNL     1      -9.418   4.992  70.212  1.00  0.00    -0.237 A  
HETATM   37  C   UNL     1      -8.439   5.973  70.062  1.00  0.00    -0.131 A  
HETATM   38  C   UNL     1      -8.155   6.494  68.796  1.00  0.00    -0.118 A  
ENDBRANCH  32  33
ENDBRANCH  31  32
ENDBRANCH  14  26
ENDBRANCH   3   6
TORSDOF 6
ENDMDL
MODEL       40
REMARK 921   NORMALIZED FREE ENERGY PREDICTED BY IDOCK:   -6.91 KCAL/MOL
REMARK 922        TOTAL FREE ENERGY PREDICTED BY IDOCK:   -9.63 KCAL/MOL
REMARK 923 INTER-LIGAND FREE ENERGY PREDICTED BY IDOCK:   -8.92 KCAL/MOL
REMARK 924 INTRA-LIGAND FREE ENERGY PREDICTED BY IDOCK:   -0.72 KCAL/MOL
REMARK 927      BINDING AFFINITY PREDICTED BY RF-SCORE:    0.00 PKD
ROOT
HETATM    1  N   UNL     1     -12.931  11.987  71.585  1.00  0.00    -0.391 N  
HETATM    2  H1  UNL     1     -13.009  10.970  71.594  1.00  0.00     0.000 HD 
HETATM    3  C   UNL     1     -12.249  12.589  70.563  1.00  0.00    -0.297 C  
HETATM    4  H2  UNL     1     -13.354  12.546  72.325  1.00  0.00     0.000 HD 
HETATM    5  O   UNL     1     -12.156  13.809  70.552  1.00  0.00    -0.330 OA 
ENDROOT
BRANCH   3   6
HETATM    6  C   UNL     1     -11.704  11.690  69.556  1.00  0.00    -0.410 A  
HETATM    7  C   UNL     1     -11.540  12.009  68.211  1.00  0.00    -0.334 A  
HETATM    8  N   UNL     1     -11.921  13.069  67.443  1.00  0.00    -0.351 NA 
HETATM    9  C   UNL     1     -11.951  12.864  65.992  1.00  0.00    -0.446 C  
HETATM   10  H   UNL     1     -12.175  13.965  67.860  1.00  0.00     0.000 HD 
HETATM   11  C   UNL     1     -10.619  12.273  65.555  1.00  0.00    -0.304 C  
HETATM   12  C   UNL     1     -10.268  10.962  66.314  1.00  0.00    -0.247 C  
HETATM   13  N   UNL     1     -10.805  10.989  67.675  1.00  0.00    -0.237 NA 
HETATM   14  C   UNL     1     -11.205  10.335  69.665  1.00  0.00    -0.269 A  
HETATM   15  N   UNL     1     -10.788   9.900  68.456  1.00  0.00    -0.231 NA 
BRANCH  12  16
HETATM   16  C   UNL     1      -8.743  10.575  66.151  1.00  0.00    -0.167 C  
HETATM   17  C   UNL     1      -8.255   9.378  66.987  1.00  0.00    -0.116 C  
HETATM   18  C   UNL     1      -8.814   8.077  66.438  1.00  0.00    -0.157 C  
HETATM   19  O   UNL     1      -8.579   5.583  65.440  1.00  0.00    -0.144 OA 
HETATM   20  N   UNL     1      -8.319   7.847  65.088  1.00  0.00    -0.142 N  
HETATM   21  C   UNL     1      -8.219  10.338  64.717  1.00  0.00    -0.163 C  
HETATM   22  C   UNL     1      -8.541   8.945  64.145  1.00  0.00    -0.106 C  
HETATM   23  C   UNL     1      -8.283   6.513  64.690  1.00  0.00    -0.052 C  
BRANCH  23  24
HETATM   24  C   UNL     1      -7.831   6.226  63.303  1.00  0.00    -0.099 C  
HETATM   25  C   UNL     1      -6.537   5.963  63.074  1.00  0.00    -0.036 C  
ENDBRANCH  23  24
ENDBRANCH  12  16
BRANCH  14  26
HETATM   26  C   UNL     1     -11.031   9.432  70.829  1.00  0.00    -0.371 A  
HETATM   27  C   UNL     1      -9.736   9.069  71.256  1.00  0.00    -0.371 A  
HETATM   28  C   UNL     1     -12.103   8.871  71.525  1.00  0.00    -0.395 A  
HETATM   29  C   UNL     1      -9.529   8.232  72.364  1.00  0.00    -0.357 A  
HETATM   30  C   UNL     1     -11.901   8.018  72.624  1.00  0.00    -0.380 A  
HETATM   31  C   UNL     1     -10.614   7.723  73.075  1.00  0.00    -0.379 A  
BRANCH  31  32
HETATM   32  O   UNL     1     -10.312   6.893  74.131  1.00  0.00    -0.373 OA 
BRANCH  32  33
HETATM   33  C   UNL     1     -10.036   5.557  73.932  1.00  0.00    -0.219 A  
HETATM   34  C   UNL     1     -11.111   4.738  73.573  1.00  0.00    -0.412 A  
HETATM   35  C   UNL     1     -10.915   3.372  73.352  1.00  0.00    -0.306 A  
HETATM   36  C   UNL     1      -9.641   2.822  73.486  1.00  0.00    -0.126 A  
HETATM   37  C   UNL     1      -8.559   3.643  73.797  1.00  0.00    -0.086 A  
HETATM   38  C   UNL     1      -8.751   5.014  73.990  1.00  0.00    -0.114 A  
ENDBRANCH  32  33
ENDBRANCH  31  32
ENDBRANCH  14  26
ENDBRANCH   3   6
TORSDOF 6
ENDMDL
MODEL       41
REMARK 921   NORMALIZED FREE ENERGY PREDICTED BY IDOCK:   -6.88 KCAL/MOL
REMARK 922        TOTAL FREE ENERGY PREDICTED BY IDOCK:   -9.59 KCAL/MOL
REMARK 923 INTER-LIGAND FREE ENERGY PREDICTED BY IDOCK:   -8.48 KCAL/MOL
REMARK 924 INTRA-LIGAND FREE ENERGY PREDICTED BY IDOCK:   -1.11 KCAL/MOL
REMARK 927      BINDING AFFINITY PREDICTED BY RF-SCORE:    0.00 PKD
ROOT
HETATM    1  N   UNL     1     -12.275  14.256  67.607  1.00  0.00    -0.597 N  
HETATM    2  H1  UNL     1     -12.681  14.020  66.703  1.00  0.00     0.000 HD 
HETATM    3  C   UNL     1     -11.410  13.375  68.195  1.00  0.00    -0.287 C  
HETATM    4  H2  UNL     1     -12.509  15.136  68.066  1.00  0.00     0.000 HD 
HETATM    5  O   UNL     1     -10.922  13.660  69.282  1.00  0.00    -0.228 OA 
ENDROOT
BRANCH   3   6
HETATM    6  C   UNL     1     -11.139  12.161  67.439  1.00  0.00    -0.330 A  
HETATM    7  C   UNL     1     -10.968  12.107  66.058  1.00  0.00    -0.293 A  
HETATM    8  N   UNL     1     -11.126  13.016  65.054  1.00  0.00    -0.287 NA 
HETATM    9  C   UNL     1     -11.272  12.490  63.695  1.00  0.00    -0.483 C  
HETATM   10  H   UNL     1     -11.143  14.019  65.242  1.00  0.00     0.000 HD 
HETATM   11  C   UNL     1     -10.137  11.512  63.426  1.00  0.00    -0.454 C  
HETATM   12  C   UNL     1     -10.069  10.371  64.480  1.00  0.00    -0.295 C  
HETATM   13  N   UNL     1     -10.520  10.844  65.789  1.00  0.00    -0.236 NA 
HETATM   14  C   UNL     1     -10.968  10.791  67.874  1.00  0.00    -0.289 A  
HETATM   15  N   UNL     1     -10.722   9.998  66.809  1.00  0.00    -0.151 NA 
BRANCH  12  16
HETATM   16  C   UNL     1      -8.687   9.604  64.431  1.00  0.00    -0.230 C  
HETATM   17  C   UNL     1      -7.435  10.440  64.755  1.00  0.00    -0.049 C  
HETATM   18  C   UNL     1      -7.383  10.778  66.234  1.00  0.00    -0.138 C  
HETATM   19  O   UNL     1      -6.212  10.797  68.662  1.00  0.00    -0.043 OA 
HETATM   20  N   UNL     1      -7.262   9.561  67.024  1.00  0.00    -0.086 N  
HETATM   21  C   UNL     1      -8.563   8.309  65.266  1.00  0.00    -0.159 C  
HETATM   22  C   UNL     1      -8.279   8.540  66.761  1.00  0.00    -0.105 C  
HETATM   23  C   UNL     1      -6.668   9.722  68.273  1.00  0.00    -0.060 C  
BRANCH  23  24
HETATM   24  C   UNL     1      -6.563   8.520  69.140  1.00  0.00    -0.047 C  
HETATM   25  C   UNL     1      -6.013   8.631  70.356  1.00  0.00    -0.027 C  
ENDBRANCH  23  24
ENDBRANCH  12  16
BRANCH  14  26
HETATM   26  C   UNL     1     -10.955  10.172  69.221  1.00  0.00    -0.279 A  
HETATM   27  C   UNL     1     -12.141  10.105  69.983  1.00  0.00    -0.166 A  
HETATM   28  C   UNL     1      -9.797   9.668  69.817  1.00  0.00    -0.253 A  
HETATM   29  C   UNL     1     -12.174   9.510  71.254  1.00  0.00    -0.433 A  
HETATM   30  C   UNL     1      -9.821   9.088  71.097  1.00  0.00    -0.371 A  
HETATM   31  C   UNL     1     -11.015   8.970  71.808  1.00  0.00    -0.372 A  
BRANCH  31  32
HETATM   32  O   UNL     1     -11.141   8.429  73.068  1.00  0.00    -0.144 OA 
BRANCH  32  33
HETATM   33  C   UNL     1     -10.898   7.091  73.297  1.00  0.00    -0.311 A  
HETATM   34  C   UNL     1     -11.389   6.189  72.349  1.00  0.00    -0.340 A  
HETATM   35  C   UNL     1     -11.182   4.816  72.508  1.00  0.00    -0.066 A  
HETATM   36  C   UNL     1     -10.480   4.341  73.615  1.00  0.00    -0.273 A  
HETATM   37  C   UNL     1      -9.948   5.241  74.537  1.00  0.00    -0.258 A  
HETATM   38  C   UNL     1     -10.130   6.615  74.362  1.00  0.00    -0.343 A  
ENDBRANCH  32  33
ENDBRANCH  31  32
ENDBRANCH  14  26
ENDBRANCH   3   6
TORSDOF 6
ENDMDL
MODEL       42
REMARK 921   NORMALIZED FREE ENERGY PREDICTED BY IDOCK:   -6.86 KCAL/MOL
REMARK 922        TOTAL FREE ENERGY PREDICTED BY IDOCK:   -9.57 KCAL/MOL
REMARK 923 INTER-LIGAND FREE ENERGY PREDICTED BY IDOCK:   -9.73 KCAL/MOL
REMARK 924 INTRA-LIGAND FREE ENERGY PREDICTED BY IDOCK:    0.17 KCAL/MOL
REMARK 927      BINDING AFFINITY PREDICTED BY RF-SCORE:    0.00 PKD
ROOT
HETATM    1  N   UNL     1     -13.435   9.890  72.429  1.00  0.00    -0.625 N  
HETATM    2  H1  UNL     1     -13.176   8.925  72.634  1.00  0.00     0.000 HD 
HETATM    3  C   UNL     1     -12.696  10.594  71.520  1.00  0.00    -0.444 C  
HETATM    4  H2  UNL     1     -14.233  10.322  72.894  1.00  0.00     0.000 HD 
HETATM    5  O   UNL     1     -13.007  11.752  71.273  1.00  0.00    -0.359 OA 
ENDROOT
BRANCH   3   6
HETATM    6  C   UNL     1     -11.592   9.868  70.909  1.00  0.00    -0.456 A  
HETATM    7  C   UNL     1     -11.133   8.621  71.327  1.00  0.00    -0.272 A  
HETATM    8  N   UNL     1     -11.415   7.826  72.398  1.00  0.00    -0.338 NA 
HETATM    9  C   UNL     1     -10.434   6.791  72.736  1.00  0.00    -0.220 C  
HETATM   10  H   UNL     1     -12.270   7.947  72.941  1.00  0.00     0.000 HD 
HETATM   11  C   UNL     1     -10.116   5.992  71.481  1.00  0.00    -0.232 C  
HETATM   12  C   UNL     1      -9.626   6.889  70.309  1.00  0.00    -0.168 C  
HETATM   13  N   UNL     1     -10.254   8.209  70.366  1.00  0.00    -0.198 NA 
HETATM   14  C   UNL     1     -10.746  10.201  69.782  1.00  0.00    -0.279 A  
HETATM   15  N   UNL     1      -9.852   9.210  69.571  1.00  0.00    -0.172 NA 
BRANCH  12  16
HETATM   16  C   UNL     1      -9.676   6.128  68.923  1.00  0.00    -0.151 C  
HETATM   17  C   UNL     1     -10.787   6.564  67.950  1.00  0.00    -0.383 C  
HETATM   18  C   UNL     1     -10.488   7.937  67.374  1.00  0.00    -0.290 C  
HETATM   19  O   UNL     1     -10.074   9.661  65.343  1.00  0.00    -0.272 OA 
HETATM   20  N   UNL     1      -9.264   7.896  66.586  1.00  0.00    -0.167 N  
HETATM   21  C   UNL     1      -8.375   6.081  68.091  1.00  0.00    -0.113 C  
HETATM   22  C   UNL     1      -8.092   7.357  67.279  1.00  0.00    -0.112 C  
HETATM   23  C   UNL     1      -9.168   8.866  65.592  1.00  0.00    -0.204 C  
BRANCH  23  24
HETATM   24  C   UNL     1      -7.918   8.899  64.789  1.00  0.00    -0.129 C  
HETATM   25  C   UNL     1      -7.988   9.129  63.471  1.00  0.00    -0.145 C  
ENDBRANCH  23  24
ENDBRANCH  12  16
BRANCH  14  26
HETATM   26  C   UNL     1     -10.748  11.349  68.845  1.00  0.00    -0.248 A  
HETATM   27  C   UNL     1      -9.549  12.039  68.565  1.00  0.00    -0.146 A  
HETATM   28  C   UNL     1     -11.906  11.829  68.230  1.00  0.00    -0.340 A  
HETATM   29  C   UNL     1      -9.506  13.119  67.669  1.00  0.00    -0.207 A  
HETATM   30  C   UNL     1     -11.872  12.922  67.347  1.00  0.00    -0.418 A  
HETATM   31  C   UNL     1     -10.667  13.550  67.030  1.00  0.00    -0.277 A  
BRANCH  31  32
HETATM   32  O   UNL     1     -10.530  14.629  66.187  1.00  0.00    -0.285 OA 
BRANCH  32  33
HETATM   33  C   UNL     1     -10.425  15.912  66.682  1.00  0.00    -0.306 A  
HETATM   34  C   UNL     1     -10.288  16.940  65.745  1.00  0.00    -0.298 A  
HETATM   35  C   UNL     1     -10.177  18.268  66.165  1.00  0.00    -0.393 A  
HETATM   36  C   UNL     1     -10.207  18.572  67.525  1.00  0.00    -0.414 A  
HETATM   37  C   UNL     1     -10.390  17.555  68.460  1.00  0.00    -0.380 A  
HETATM   38  C   UNL     1     -10.530  16.230  68.038  1.00  0.00    -0.293 A  
ENDBRANCH  32  33
ENDBRANCH  31  32
ENDBRANCH  14  26
ENDBRANCH   3   6
TORSDOF 6
ENDMDL
MODEL       43
REMARK 921   NORMALIZED FREE ENERGY PREDICTED BY IDOCK:   -6.85 KCAL/MOL
REMARK 922        TOTAL FREE ENERGY PREDICTED BY IDOCK:   -9.55 KCAL/MOL
REMARK 923 INTER-LIGAND FREE ENERGY PREDICTED BY IDOCK:   -9.02 KCAL/MOL
REMARK 924 INTRA-LIGAND FREE ENERGY PREDICTED BY IDOCK:   -0.53 KCAL/MOL
REMARK 927      BINDING AFFINITY PREDICTED BY RF-SCORE:    0.00 PKD
ROOT
HETATM    1  N   UNL     1     -11.127   5.671  66.201  1.00  0.00    -0.756 N  
HETATM    2  H1  UNL     1     -11.238   4.663  66.305  1.00  0.00     0.000 HD 
HETATM    3  C   UNL     1     -10.742   6.410  67.285  1.00  0.00    -0.353 C  
HETATM    4  H2  UNL     1     -11.300   6.121  65.302  1.00  0.00     0.000 HD 
HETATM    5  O   UNL     1     -10.608   7.620  67.159  1.00  0.00    -0.315 OA 
ENDROOT
BRANCH   3   6
HETATM    6  C   UNL     1     -10.508   5.656  68.509  1.00  0.00    -0.273 A  
HETATM    7  C   UNL     1      -9.878   4.416  68.570  1.00  0.00    -0.069 A  
HETATM    8  N   UNL     1      -9.458   3.527  67.626  1.00  0.00    -0.201 NA 
HETATM    9  C   UNL     1      -9.232   2.147  68.063  1.00  0.00    -0.196 C  
HETATM   10  H   UNL     1      -9.308   3.810  66.657  1.00  0.00     0.000 HD 
HETATM   11  C   UNL     1      -8.333   2.166  69.291  1.00  0.00    -0.074 C  
HETATM   12  C   UNL     1      -8.906   3.046  70.437  1.00  0.00    -0.083 C  
HETATM   13  N   UNL     1      -9.668   4.173  69.898  1.00  0.00    -0.212 NA 
HETATM   14  C   UNL     1     -10.822   5.967  69.887  1.00  0.00    -0.369 A  
HETATM   15  N   UNL     1     -10.406   4.963  70.690  1.00  0.00    -0.205 NA 
BRANCH  12  16
HETATM   16  C   UNL     1      -7.812   3.377  71.531  1.00  0.00    -0.057 C  
HETATM   17  C   UNL     1      -6.654   4.286  71.078  1.00  0.00    -0.030 C  
HETATM   18  C   UNL     1      -7.135   5.714  70.889  1.00  0.00    -0.070 C  
HETATM   19  O   UNL     1      -7.066   8.365  71.376  1.00  0.00    -0.060 OA 
HETATM   20  N   UNL     1      -7.596   6.262  72.157  1.00  0.00    -0.094 N  
HETATM   21  C   UNL     1      -8.305   3.952  72.878  1.00  0.00    -0.095 C  
HETATM   22  C   UNL     1      -8.607   5.462  72.853  1.00  0.00    -0.119 C  
HETATM   23  C   UNL     1      -7.537   7.648  72.259  1.00  0.00    -0.082 C  
BRANCH  23  24
HETATM   24  C   UNL     1      -8.040   8.263  73.516  1.00  0.00    -0.237 C  
HETATM   25  C   UNL     1      -7.205   8.423  74.551  1.00  0.00    -0.244 C  
ENDBRANCH  23  24
ENDBRANCH  12  16
BRANCH  14  26
HETATM   26  C   UNL     1     -11.429   7.161  70.523  1.00  0.00    -0.334 A  
HETATM   27  C   UNL     1     -10.643   8.305  70.778  1.00  0.00    -0.236 A  
HETATM   28  C   UNL     1     -12.763   7.211  70.932  1.00  0.00    -0.225 A  
HETATM   29  C   UNL     1     -11.185   9.462  71.361  1.00  0.00    -0.452 A  
HETATM   30  C   UNL     1     -13.305   8.360  71.533  1.00  0.00    -0.311 A  
HETATM   31  C   UNL     1     -12.531   9.506  71.717  1.00  0.00    -0.401 A  
BRANCH  31  32
HETATM   32  O   UNL     1     -12.965  10.674  72.302  1.00  0.00    -0.353 OA 
BRANCH  32  33
HETATM   33  C   UNL     1     -12.793  11.892  71.679  1.00  0.00    -0.312 A  
HETATM   34  C   UNL     1     -13.351  13.007  72.311  1.00  0.00    -0.606 A  
HETATM   35  C   UNL     1     -13.218  14.278  71.745  1.00  0.00    -0.444 A  
HETATM   36  C   UNL     1     -12.523  14.438  70.547  1.00  0.00    -0.416 A  
HETATM   37  C   UNL     1     -11.925  13.335  69.939  1.00  0.00    -0.400 A  
HETATM   38  C   UNL     1     -12.033  12.069  70.521  1.00  0.00    -0.338 A  
ENDBRANCH  32  33
ENDBRANCH  31  32
ENDBRANCH  14  26
ENDBRANCH   3   6
TORSDOF 6
ENDMDL
MODEL       44
REMARK 921   NORMALIZED FREE ENERGY PREDICTED BY IDOCK:   -6.77 KCAL/MOL
REMARK 922        TOTAL FREE ENERGY PREDICTED BY IDOCK:   -9.45 KCAL/MOL
REMARK 923 INTER-LIGAND FREE ENERGY PREDICTED BY IDOCK:   -8.65 KCAL/MOL
REMARK 924 INTRA-LIGAND FREE ENERGY PREDICTED BY IDOCK:   -0.80 KCAL/MOL
REMARK 927      BINDING AFFINITY PREDICTED BY RF-SCORE:    0.00 PKD
ROOT
HETATM    1  N   UNL     1     -11.193  14.283  70.433  1.00  0.00    -0.487 N  
HETATM    2  H1  UNL     1     -10.339  13.823  70.120  1.00  0.00     0.000 HD 
HETATM    3  C   UNL     1     -11.599  15.426  69.801  1.00  0.00    -0.323 C  
HETATM    4  H2  UNL     1     -11.737  13.896  71.204  1.00  0.00     0.000 HD 
HETATM    5  O   UNL     1     -12.625  15.977  70.177  1.00  0.00    -0.259 OA 
ENDROOT
BRANCH   3   6
HETATM    6  C   UNL     1     -10.752  15.872  68.704  1.00  0.00    -0.274 A  
HETATM    7  C   UNL     1     -10.331  17.185  68.509  1.00  0.00    -0.364 A  
HETATM    8  N   UNL     1     -10.645  18.371  69.103  1.00  0.00    -0.269 NA 
HETATM    9  C   UNL     1     -10.334  19.593  68.357  1.00  0.00    -0.386 C  
HETATM   10  H   UNL     1     -11.078  18.406  70.026  1.00  0.00     0.000 HD 
HETATM   11  C   UNL     1      -8.882  19.531  67.903  1.00  0.00    -0.372 C  
HETATM   12  C   UNL     1      -8.570  18.254  67.073  1.00  0.00    -0.254 C  
HETATM   13  N   UNL     1      -9.393  17.129  67.517  1.00  0.00    -0.236 NA 
HETATM   14  C   UNL     1     -10.149  15.137  67.613  1.00  0.00    -0.231 A  
HETATM   15  N   UNL     1      -9.432  15.977  66.834  1.00  0.00    -0.220 NA 
BRANCH  12  16
HETATM   16  C   UNL     1      -7.014  17.999  66.945  1.00  0.00    -0.218 C  
HETATM   17  C   UNL     1      -6.154  18.437  68.144  1.00  0.00    -0.183 C  
HETATM   18  C   UNL     1      -6.375  17.512  69.328  1.00  0.00    -0.244 C  
HETATM   19  O   UNL     1      -5.542  15.807  71.244  1.00  0.00     0.055 OA 
HETATM   20  N   UNL     1      -5.940  16.162  69.001  1.00  0.00    -0.123 N  
HETATM   21  C   UNL     1      -6.555  16.567  66.590  1.00  0.00    -0.071 C  
HETATM   22  C   UNL     1      -6.525  15.595  67.784  1.00  0.00    -0.160 C  
HETATM   23  C   UNL     1      -5.570  15.378  70.090  1.00  0.00    -0.136 C  
BRANCH  23  24
HETATM   24  C   UNL     1      -5.163  13.976  69.816  1.00  0.00    -0.092 C  
HETATM   25  C   UNL     1      -5.896  12.969  70.310  1.00  0.00    -0.157 C  
ENDBRANCH  23  24
ENDBRANCH  12  16
BRANCH  14  26
HETATM   26  C   UNL     1     -10.139  13.694  67.274  1.00  0.00    -0.239 A  
HETATM   27  C   UNL     1     -11.350  12.973  67.202  1.00  0.00    -0.348 A  
HETATM   28  C   UNL     1      -8.965  12.972  67.050  1.00  0.00    -0.225 A  
HETATM   29  C   UNL     1     -11.384  11.610  66.866  1.00  0.00    -0.364 A  
HETATM   30  C   UNL     1      -8.992  11.603  66.731  1.00  0.00    -0.189 A  
HETATM   31  C   UNL     1     -10.202  10.922  66.599  1.00  0.00    -0.234 A  
BRANCH  31  32
HETATM   32  O   UNL     1     -10.334   9.585  66.301  1.00  0.00    -0.244 OA 
BRANCH  32  33
HETATM   33  C   UNL     1     -10.473   8.642  67.297  1.00  0.00    -0.289 A  
HETATM   34  C   UNL     1     -10.751   7.333  66.891  1.00  0.00    -0.346 A  
HETATM   35  C   UNL     1     -10.905   6.318  67.840  1.00  0.00    -0.417 A  
HETATM   36  C   UNL     1     -10.778   6.609  69.197  1.00  0.00    -0.304 A  
HETATM   37  C   UNL     1     -10.454   7.903  69.603  1.00  0.00    -0.226 A  
HETATM   38  C   UNL     1     -10.271   8.911  68.652  1.00  0.00    -0.221 A  
ENDBRANCH  32  33
ENDBRANCH  31  32
ENDBRANCH  14  26
ENDBRANCH   3   6
TORSDOF 6
ENDMDL
MODEL       45
REMARK 921   NORMALIZED FREE ENERGY PREDICTED BY IDOCK:   -6.75 KCAL/MOL
REMARK 922        TOTAL FREE ENERGY PREDICTED BY IDOCK:   -9.41 KCAL/MOL
REMARK 923 INTER-LIGAND FREE ENERGY PREDICTED BY IDOCK:   -8.27 KCAL/MOL
REMARK 924 INTRA-LIGAND FREE ENERGY PREDICTED BY IDOCK:   -1.14 KCAL/MOL
REMARK 927      BINDING AFFINITY PREDICTED BY RF-SCORE:    0.00 PKD
ROOT
HETATM    1  N   UNL     1      -6.613  10.740  64.285  1.00  0.00    -0.339 N  
HETATM    2  H1  UNL     1      -7.384  11.388  64.129  1.00  0.00     0.000 HD 
HETATM    3  C   UNL     1      -6.487  10.145  65.510  1.00  0.00    -0.107 C  
HETATM    4  H2  UNL     1      -5.946  10.537  63.540  1.00  0.00     0.000 HD 
HETATM    5  O   UNL     1      -5.562   9.366  65.698  1.00  0.00    -0.047 OA 
ENDROOT
BRANCH   3   6
HETATM    6  C   UNL     1      -7.507  10.497  66.488  1.00  0.00    -0.128 A  
HETATM    7  C   UNL     1      -7.676  11.766  67.037  1.00  0.00    -0.158 A  
HETATM    8  N   UNL     1      -6.953  12.920  66.978  1.00  0.00    -0.390 NA 
HETATM    9  C   UNL     1      -7.204  13.918  68.021  1.00  0.00    -0.141 C  
HETATM   10  H   UNL     1      -6.267  13.081  66.241  1.00  0.00     0.000 HD 
HETATM   11  C   UNL     1      -8.702  14.169  68.106  1.00  0.00    -0.181 C  
HETATM   12  C   UNL     1      -9.514  12.865  68.349  1.00  0.00    -0.162 C  
HETATM   13  N   UNL     1      -8.857  11.718  67.723  1.00  0.00    -0.156 NA 
HETATM   14  C   UNL     1      -8.551   9.702  67.097  1.00  0.00    -0.132 A  
HETATM   15  N   UNL     1      -9.271  10.464  67.950  1.00  0.00    -0.138 NA 
BRANCH  12  16
HETATM   16  C   UNL     1     -11.054  13.063  68.046  1.00  0.00    -0.288 C  
HETATM   17  C   UNL     1     -12.016  12.099  68.764  1.00  0.00    -0.292 C  
HETATM   18  C   UNL     1     -12.096  12.425  70.245  1.00  0.00    -0.297 C  
HETATM   19  O   UNL     1     -13.420  13.074  72.502  1.00  0.00    -0.554 OA 
HETATM   20  N   UNL     1     -12.653  13.756  70.438  1.00  0.00    -0.292 N  
HETATM   21  C   UNL     1     -11.641  14.479  68.246  1.00  0.00    -0.358 C  
HETATM   22  C   UNL     1     -11.975  14.829  69.707  1.00  0.00    -0.321 C  
HETATM   23  C   UNL     1     -13.280  13.964  71.664  1.00  0.00    -0.370 C  
BRANCH  23  24
HETATM   24  C   UNL     1     -13.824  15.321  71.931  1.00  0.00    -0.624 C  
HETATM   25  C   UNL     1     -13.650  15.874  73.139  1.00  0.00    -0.580 C  
ENDBRANCH  23  24
ENDBRANCH  12  16
BRANCH  14  26
HETATM   26  C   UNL     1      -8.970   8.293  66.898  1.00  0.00    -0.169 A  
HETATM   27  C   UNL     1     -10.313   7.916  67.113  1.00  0.00    -0.398 A  
HETATM   28  C   UNL     1      -8.083   7.278  66.537  1.00  0.00    -0.114 A  
HETATM   29  C   UNL     1     -10.753   6.597  66.917  1.00  0.00    -0.401 A  
HETATM   30  C   UNL     1      -8.514   5.952  66.357  1.00  0.00    -0.120 A  
HETATM   31  C   UNL     1      -9.858   5.610  66.508  1.00  0.00    -0.168 A  
BRANCH  31  32
HETATM   32  O   UNL     1     -10.377   4.343  66.365  1.00  0.00    -0.222 OA 
BRANCH  32  33
HETATM   33  C   UNL     1     -10.073   3.567  65.267  1.00  0.00     0.081 A  
HETATM   34  C   UNL     1      -9.157   2.530  65.462  1.00  0.00    -0.116 A  
HETATM   35  C   UNL     1      -8.798   1.697  64.399  1.00  0.00    -0.099 A  
HETATM   36  C   UNL     1      -9.358   1.897  63.138  1.00  0.00    -0.092 A  
HETATM   37  C   UNL     1     -10.307   2.900  62.951  1.00  0.00    -0.148 A  
HETATM   38  C   UNL     1     -10.687   3.714  64.021  1.00  0.00    -0.250 A  
ENDBRANCH  32  33
ENDBRANCH  31  32
ENDBRANCH  14  26
ENDBRANCH   3   6
TORSDOF 6
ENDMDL
MODEL       46
REMARK 921   NORMALIZED FREE ENERGY PREDICTED BY IDOCK:   -6.66 KCAL/MOL
REMARK 922        TOTAL FREE ENERGY PREDICTED BY IDOCK:   -9.30 KCAL/MOL
REMARK 923 INTER-LIGAND FREE ENERGY PREDICTED BY IDOCK:   -8.19 KCAL/MOL
REMARK 924 INTRA-LIGAND FREE ENERGY PREDICTED BY IDOCK:   -1.11 KCAL/MOL
REMARK 927      BINDING AFFINITY PREDICTED BY RF-SCORE:    0.00 PKD
ROOT
HETATM    1  N   UNL     1     -12.941  13.725  65.324  1.00  0.00    -0.754 N  
HETATM    2  H1  UNL     1     -13.398  12.824  65.465  1.00  0.00     0.000 HD 
HETATM    3  C   UNL     1     -11.835  14.030  66.069  1.00  0.00    -0.388 C  
HETATM    4  H2  UNL     1     -13.303  14.388  64.638  1.00  0.00     0.000 HD 
HETATM    5  O   UNL     1     -11.287  15.111  65.899  1.00  0.00    -0.319 OA 
ENDROOT
BRANCH   3   6
HETATM    6  C   UNL     1     -11.403  13.000  67.002  1.00  0.00    -0.343 A  
HETATM    7  C   UNL     1     -11.789  12.924  68.337  1.00  0.00    -0.318 A  
HETATM    8  N   UNL     1     -12.485  13.756  69.163  1.00  0.00    -0.318 NA 
HETATM    9  C   UNL     1     -12.329  13.547  70.605  1.00  0.00    -0.358 C  
HETATM   10  H   UNL     1     -13.088  14.491  68.793  1.00  0.00     0.000 HD 
HETATM   11  C   UNL     1     -12.572  12.077  70.915  1.00  0.00    -0.347 C  
HETATM   12  C   UNL     1     -11.648  11.134  70.093  1.00  0.00    -0.323 C  
HETATM   13  N   UNL     1     -11.347  11.710  68.783  1.00  0.00    -0.237 NA 
HETATM   14  C   UNL     1     -10.537  11.854  66.814  1.00  0.00    -0.229 A  
HETATM   15  N   UNL     1     -10.428  11.167  67.973  1.00  0.00    -0.181 NA 
BRANCH  12  16
HETATM   16  C   UNL     1     -12.160   9.637  70.119  1.00  0.00     0.050 C  
HETATM   17  C   UNL     1     -11.142   8.565  69.690  1.00  0.00    -0.018 C  
HETATM   18  C   UNL     1     -10.069   8.389  70.749  1.00  0.00    -0.193 C  
HETATM   19  O   UNL     1      -8.632   6.935  72.507  1.00  0.00    -0.121 OA 
HETATM   20  N   UNL     1     -10.659   7.902  71.988  1.00  0.00    -0.224 N  
HETATM   21  C   UNL     1     -12.792   9.125  71.432  1.00  0.00    -0.376 C  
HETATM   22  C   UNL     1     -11.773   8.700  72.505  1.00  0.00    -0.260 C  
HETATM   23  C   UNL     1      -9.793   7.195  72.818  1.00  0.00    -0.179 C  
BRANCH  23  24
HETATM   24  C   UNL     1     -10.333   6.717  74.118  1.00  0.00    -0.347 C  
HETATM   25  C   UNL     1     -10.478   5.401  74.326  1.00  0.00    -0.294 C  
ENDBRANCH  23  24
ENDBRANCH  12  16
BRANCH  14  26
HETATM   26  C   UNL     1      -9.851  11.314  65.616  1.00  0.00    -0.277 A  
HETATM   27  C   UNL     1      -8.539  10.806  65.719  1.00  0.00    -0.187 A  
HETATM   28  C   UNL     1     -10.428  11.311  64.345  1.00  0.00    -0.407 A  
HETATM   29  C   UNL     1      -7.863  10.268  64.613  1.00  0.00    -0.123 A  
HETATM   30  C   UNL     1      -9.748  10.791  63.230  1.00  0.00    -0.396 A  
HETATM   31  C   UNL     1      -8.477  10.231  63.362  1.00  0.00    -0.185 A  
BRANCH  31  32
HETATM   32  O   UNL     1      -7.727   9.707  62.334  1.00  0.00    -0.113 OA 
BRANCH  32  33
HETATM   33  C   UNL     1      -7.122   8.473  62.448  1.00  0.00    -0.097 A  
HETATM   34  C   UNL     1      -7.962   7.356  62.434  1.00  0.00    -0.136 A  
HETATM   35  C   UNL     1      -7.427   6.069  62.543  1.00  0.00    -0.060 A  
HETATM   36  C   UNL     1      -6.049   5.897  62.663  1.00  0.00    -0.025 A  
HETATM   37  C   UNL     1      -5.205   7.005  62.629  1.00  0.00    -0.033 A  
HETATM   38  C   UNL     1      -5.739   8.290  62.491  1.00  0.00    -0.075 A  
ENDBRANCH  32  33
ENDBRANCH  31  32
ENDBRANCH  14  26
ENDBRANCH   3   6
TORSDOF 6
ENDMDL
MODEL       47
REMARK 921   NORMALIZED FREE ENERGY PREDICTED BY IDOCK:   -6.64 KCAL/MOL
REMARK 922        TOTAL FREE ENERGY PREDICTED BY IDOCK:   -9.27 KCAL/MOL
REMARK 923 INTER-LIGAND FREE ENERGY PREDICTED BY IDOCK:   -7.98 KCAL/MOL
REMARK 924 INTRA-LIGAND FREE ENERGY PREDICTED BY IDOCK:   -1.29 KCAL/MOL
REMARK 927      BINDING AFFINITY PREDICTED BY RF-SCORE:    0.00 PKD
ROOT
HETATM    1  N   UNL     1     -10.746   6.577  74.004  1.00  0.00    -0.452 N  
HETATM    2  H1  UNL     1     -10.707   7.593  74.090  1.00  0.00     0.000 HD 
HETATM    3  C   UNL     1     -10.995   6.026  72.777  1.00  0.00    -0.264 C  
HETATM    4  H2  UNL     1     -10.601   5.982  74.819  1.00  0.00     0.000 HD 
HETATM    5  O   UNL     1     -11.041   4.807  72.674  1.00  0.00    -0.188 OA 
ENDROOT
BRANCH   3   6
HETATM    6  C   UNL     1     -11.168   6.974  71.685  1.00  0.00    -0.276 A  
HETATM    7  C   UNL     1     -11.881   8.167  71.775  1.00  0.00    -0.300 A  
HETATM    8  N   UNL     1     -12.682   8.715  72.733  1.00  0.00    -0.587 NA 
HETATM    9  C   UNL     1     -13.599   9.775  72.308  1.00  0.00    -0.308 C  
HETATM   10  H   UNL     1     -12.644   8.399  73.702  1.00  0.00     0.000 HD 
HETATM   11  C   UNL     1     -12.810  10.823  71.536  1.00  0.00    -0.567 C  
HETATM   12  C   UNL     1     -12.033  10.218  70.332  1.00  0.00    -0.303 C  
HETATM   13  N   UNL     1     -11.612   8.846  70.620  1.00  0.00    -0.252 NA 
HETATM   14  C   UNL     1     -10.677   6.952  70.324  1.00  0.00    -0.242 A  
HETATM   15  N   UNL     1     -11.088   8.060  69.670  1.00  0.00    -0.094 NA 
BRANCH  12  16
HETATM   16  C   UNL     1     -10.927  11.208  69.785  1.00  0.00    -0.216 C  
HETATM   17  C   UNL     1     -10.234  10.794  68.474  1.00  0.00    -0.192 C  
HETATM   18  C   UNL     1     -11.182  10.940  67.297  1.00  0.00    -0.233 C  
HETATM   19  O   UNL     1     -11.898  11.905  64.884  1.00  0.00    -0.277 OA 
HETATM   20  N   UNL     1     -11.557  12.336  67.123  1.00  0.00    -0.352 N  
HETATM   21  C   UNL     1     -11.326  12.690  69.608  1.00  0.00    -0.174 C  
HETATM   22  C   UNL     1     -12.105  12.989  68.314  1.00  0.00    -0.156 C  
HETATM   23  C   UNL     1     -11.938  12.689  65.832  1.00  0.00    -0.438 C  
BRANCH  23  24
HETATM   24  C   UNL     1     -12.377  14.092  65.609  1.00  0.00    -0.473 C  
HETATM   25  C   UNL     1     -12.187  14.659  64.410  1.00  0.00    -0.473 C  
ENDBRANCH  23  24
ENDBRANCH  12  16
BRANCH  14  26
HETATM   26  C   UNL     1      -9.797   6.002  69.601  1.00  0.00    -0.205 A  
HETATM   27  C   UNL     1      -8.483   5.765  70.056  1.00  0.00    -0.124 A  
HETATM   28  C   UNL     1     -10.189   5.335  68.439  1.00  0.00    -0.206 A  
HETATM   29  C   UNL     1      -7.626   4.860  69.411  1.00  0.00    -0.060 A  
HETATM   30  C   UNL     1      -9.329   4.441  67.778  1.00  0.00    -0.190 A  
HETATM   31  C   UNL     1      -8.056   4.168  68.280  1.00  0.00    -0.081 A  
BRANCH  31  32
HETATM   32  O   UNL     1      -7.139   3.320  67.703  1.00  0.00    -0.050 OA 
BRANCH  32  33
HETATM   33  C   UNL     1      -6.945   3.300  66.338  1.00  0.00    -0.054 A  
HETATM   34  C   UNL     1      -6.246   4.378  65.785  1.00  0.00    -0.031 A  
HETATM   35  C   UNL     1      -6.006   4.432  64.410  1.00  0.00    -0.018 A  
HETATM   36  C   UNL     1      -6.461   3.405  63.583  1.00  0.00    -0.030 A  
HETATM   37  C   UNL     1      -7.116   2.307  64.136  1.00  0.00    -0.048 A  
HETATM   38  C   UNL     1      -7.330   2.239  65.516  1.00  0.00    -0.066 A  
ENDBRANCH  32  33
ENDBRANCH  31  32
ENDBRANCH  14  26
ENDBRANCH   3   6
TORSDOF 6
ENDMDL
MODEL       48
REMARK 921   NORMALIZED FREE ENERGY PREDICTED BY IDOCK:   -6.60 KCAL/MOL
REMARK 922        TOTAL FREE ENERGY PREDICTED BY IDOCK:   -9.22 KCAL/MOL
REMARK 923 INTER-LIGAND FREE ENERGY PREDICTED BY IDOCK:   -8.06 KCAL/MOL
REMARK 924 INTRA-LIGAND FREE ENERGY PREDICTED BY IDOCK:   -1.16 KCAL/MOL
REMARK 927      BINDING AFFINITY PREDICTED BY RF-SCORE:    0.00 PKD
ROOT
HETATM    1  N   UNL     1     -11.576  11.668  64.060  1.00  0.00    -0.328 N  
HETATM    2  H1  UNL     1     -12.221  11.622  64.849  1.00  0.00     0.000 HD 
HETATM    3  C   UNL     1     -10.271  11.308  64.251  1.00  0.00    -0.327 C  
HETATM    4  H2  UNL     1     -11.900  11.978  63.144  1.00  0.00     0.000 HD 
HETATM    5  O   UNL     1      -9.497  11.364  63.304  1.00  0.00    -0.308 OA 
ENDROOT
BRANCH   3   6
HETATM    6  C   UNL     1      -9.930  10.867  65.596  1.00  0.00    -0.305 A  
HETATM    7  C   UNL     1      -9.491   9.588  65.926  1.00  0.00    -0.244 A  
HETATM    8  N   UNL     1      -9.388   8.420  65.229  1.00  0.00    -0.381 NA 
HETATM    9  C   UNL     1      -9.292   7.185  66.010  1.00  0.00     0.036 C  
HETATM   10  H   UNL     1      -9.379   8.408  64.209  1.00  0.00     0.000 HD 
HETATM   11  C   UNL     1      -8.191   7.347  67.047  1.00  0.00    -0.121 C  
HETATM   12  C   UNL     1      -8.406   8.588  67.958  1.00  0.00    -0.127 C  
HETATM   13  N   UNL     1      -9.078   9.662  67.226  1.00  0.00    -0.134 NA 
HETATM   14  C   UNL     1      -9.936  11.579  66.856  1.00  0.00    -0.205 A  
HETATM   15  N   UNL     1      -9.532  10.757  67.850  1.00  0.00    -0.155 NA 
BRANCH  12  16
HETATM   16  C   UNL     1      -7.092   8.973  68.752  1.00  0.00    -0.070 C  
HETATM   17  C   UNL     1      -5.902   9.453  67.900  1.00  0.00    -0.045 C  
HETATM   18  C   UNL     1      -6.168  10.838  67.339  1.00  0.00    -0.055 C  
HETATM   19  O   UNL     1      -5.576  13.442  66.967  1.00  0.00    -0.187 OA 
HETATM   20  N   UNL     1      -6.295  11.804  68.421  1.00  0.00    -0.050 N  
HETATM   21  C   UNL     1      -7.231   9.994  69.904  1.00  0.00    -0.145 C  
HETATM   22  C   UNL     1      -7.280  11.464  69.449  1.00  0.00    -0.030 C  
HETATM   23  C   UNL     1      -5.991  13.119  68.080  1.00  0.00    -0.117 C  
BRANCH  23  24
HETATM   24  C   UNL     1      -6.150  14.153  69.136  1.00  0.00    -0.097 C  
HETATM   25  C   UNL     1      -6.965  15.194  68.920  1.00  0.00    -0.124 C  
ENDBRANCH  23  24
ENDBRANCH  12  16
BRANCH  14  26
HETATM   26  C   UNL     1     -10.231  12.992  67.198  1.00  0.00    -0.243 A  
HETATM   27  C   UNL     1     -11.115  13.297  68.254  1.00  0.00    -0.294 A  
HETATM   28  C   UNL     1      -9.701  14.073  66.491  1.00  0.00    -0.305 A  
HETATM   29  C   UNL     1     -11.406  14.621  68.620  1.00  0.00    -0.305 A  
HETATM   30  C   UNL     1     -10.003  15.400  66.841  1.00  0.00    -0.247 A  
HETATM   31  C   UNL     1     -10.826  15.684  67.932  1.00  0.00    -0.306 A  
BRANCH  31  32
HETATM   32  O   UNL     1     -11.188  16.945  68.347  1.00  0.00    -0.299 OA 
BRANCH  32  33
HETATM   33  C   UNL     1     -10.481  18.059  67.949  1.00  0.00    -0.396 A  
HETATM   34  C   UNL     1      -9.309  18.347  68.655  1.00  0.00    -0.339 A  
HETATM   35  C   UNL     1      -8.534  19.458  68.312  1.00  0.00    -0.376 A  
HETATM   36  C   UNL     1      -8.926  20.282  67.258  1.00  0.00    -0.472 A  
HETATM   37  C   UNL     1     -10.067  19.971  66.521  1.00  0.00    -0.606 A  
HETATM   38  C   UNL     1     -10.827  18.843  66.847  1.00  0.00    -0.347 A  
ENDBRANCH  32  33
ENDBRANCH  31  32
ENDBRANCH  14  26
ENDBRANCH   3   6
TORSDOF 6
ENDMDL
MODEL       49
REMARK 921   NORMALIZED FREE ENERGY PREDICTED BY IDOCK:   -6.58 KCAL/MOL
REMARK 922        TOTAL FREE ENERGY PREDICTED BY IDOCK:   -9.20 KCAL/MOL
REMARK 923 INTER-LIGAND FREE ENERGY PREDICTED BY IDOCK:   -8.16 KCAL/MOL
REMARK 924 INTRA-LIGAND FREE ENERGY PREDICTED BY IDOCK:   -1.04 KCAL/MOL
REMARK 927      BINDING AFFINITY PREDICTED BY RF-SCORE:    0.00 PKD
ROOT
HETATM    1  N   UNL     1     -11.397  11.477  63.161  1.00  0.00    -0.848 N  
HETATM    2  H1  UNL     1     -12.094  11.196  63.850  1.00  0.00     0.000 HD 
HETATM    3  C   UNL     1     -10.074  11.446  63.507  1.00  0.00    -0.395 C  
HETATM    4  H2  UNL     1     -11.682  11.776  62.229  1.00  0.00     0.000 HD 
HETATM    5  O   UNL     1      -9.238  11.783  62.679  1.00  0.00    -0.303 OA 
ENDROOT
BRANCH   3   6
HETATM    6  C   UNL     1      -9.789  10.985  64.859  1.00  0.00    -0.327 A  
HETATM    7  C   UNL     1      -9.277   9.731  65.179  1.00  0.00    -0.240 A  
HETATM    8  N   UNL     1      -9.043   8.598  64.457  1.00  0.00    -0.357 NA 
HETATM    9  C   UNL     1      -8.905   7.347  65.206  1.00  0.00     0.181 C  
HETATM   10  H   UNL     1      -8.968   8.621  63.440  1.00  0.00     0.000 HD 
HETATM   11  C   UNL     1      -7.887   7.553  66.318  1.00  0.00    -0.102 C  
HETATM   12  C   UNL     1      -8.253   8.744  67.249  1.00  0.00    -0.104 C  
HETATM   13  N   UNL     1      -8.955   9.790  66.506  1.00  0.00    -0.148 NA 
HETATM   14  C   UNL     1      -9.928  11.652  66.136  1.00  0.00    -0.221 A  
HETATM   15  N   UNL     1      -9.529  10.828  67.130  1.00  0.00    -0.159 NA 
BRANCH  12  16
HETATM   16  C   UNL     1      -7.025   9.196  68.139  1.00  0.00    -0.076 C  
HETATM   17  C   UNL     1      -7.339  10.186  69.275  1.00  0.00    -0.098 C  
HETATM   18  C   UNL     1      -8.105   9.496  70.391  1.00  0.00    -0.183 C  
HETATM   19  O   UNL     1      -8.468   8.732  72.951  1.00  0.00    -0.409 OA 
HETATM   20  N   UNL     1      -7.288   8.451  70.990  1.00  0.00    -0.062 N  
HETATM   21  C   UNL     1      -6.156   8.085  68.768  1.00  0.00    -0.040 C  
HETATM   22  C   UNL     1      -6.742   7.468  70.051  1.00  0.00    -0.046 C  
HETATM   23  C   UNL     1      -7.607   8.133  72.307  1.00  0.00    -0.117 C  
BRANCH  23  24
HETATM   24  C   UNL     1      -6.834   7.038  72.952  1.00  0.00    -0.069 C  
HETATM   25  C   UNL     1      -7.489   6.050  73.576  1.00  0.00    -0.093 C  
ENDBRANCH  23  24
ENDBRANCH  12  16
BRANCH  14  26
HETATM   26  C   UNL     1     -10.349  13.027  66.498  1.00  0.00    -0.278 A  
HETATM   27  C   UNL     1     -10.152  14.091  65.593  1.00  0.00    -0.342 A  
HETATM   28  C   UNL     1     -10.913  13.350  67.734  1.00  0.00    -0.281 A  
HETATM   29  C   UNL     1     -10.554  15.403  65.891  1.00  0.00    -0.349 A  
HETATM   30  C   UNL     1     -11.300  14.665  68.045  1.00  0.00    -0.329 A  
HETATM   31  C   UNL     1     -11.159  15.693  67.112  1.00  0.00    -0.218 A  
BRANCH  31  32
HETATM   32  O   UNL     1     -11.497  17.010  67.323  1.00  0.00     0.300 OA 
BRANCH  32  33
HETATM   33  C   UNL     1     -10.546  18.007  67.282  1.00  0.00    -0.346 A  
HETATM   34  C   UNL     1      -9.538  17.956  68.250  1.00  0.00    -0.312 A  
HETATM   35  C   UNL     1      -8.535  18.929  68.275  1.00  0.00    -0.365 A  
HETATM   36  C   UNL     1      -8.534  19.953  67.328  1.00  0.00    -0.375 A  
HETATM   37  C   UNL     1      -9.509  19.979  66.333  1.00  0.00    -0.512 A  
HETATM   38  C   UNL     1     -10.496  18.990  66.291  1.00  0.00    -0.534 A  
ENDBRANCH  32  33
ENDBRANCH  31  32
ENDBRANCH  14  26
ENDBRANCH   3   6
TORSDOF 6
ENDMDL
MODEL       50
REMARK 921   NORMALIZED FREE ENERGY PREDICTED BY IDOCK:   -6.52 KCAL/MOL
REMARK 922        TOTAL FREE ENERGY PREDICTED BY IDOCK:   -9.11 KCAL/MOL
REMARK 923 INTER-LIGAND FREE ENERGY PREDICTED BY IDOCK:   -7.93 KCAL/MOL
REMARK 924 INTRA-LIGAND FREE ENERGY PREDICTED BY IDOCK:   -1.18 KCAL/MOL
REMARK 927      BINDING AFFINITY PREDICTED BY RF-SCORE:    0.00 PKD
ROOT
HETATM    1  N   UNL     1      -6.465   9.788  70.821  1.00  0.00    -0.107 N  
HETATM    2  H1  UNL     1      -6.738   8.951  70.306  1.00  0.00     0.000 HD 
HETATM    3  C   UNL     1      -6.367  10.976  70.149  1.00  0.00    -0.147 C  
HETATM    4  H2  UNL     1      -6.269   9.740  71.820  1.00  0.00     0.000 HD 
HETATM    5  O   UNL     1      -6.040  11.980  70.769  1.00  0.00    -0.306 OA 
ENDROOT
BRANCH   3   6
HETATM    6  C   UNL     1      -6.687  10.924  68.730  1.00  0.00    -0.062 A  
HETATM    7  C   UNL     1      -6.520   9.805  67.918  1.00  0.00    -0.060 A  
HETATM    8  N   UNL     1      -5.937   8.587  68.104  1.00  0.00    -0.045 NA 
HETATM    9  C   UNL     1      -5.572   7.832  66.903  1.00  0.00    -0.032 C  
HETATM   10  H   UNL     1      -5.762   8.218  69.039  1.00  0.00     0.000 HD 
HETATM   11  C   UNL     1      -6.781   7.768  65.981  1.00  0.00    -0.049 C  
HETATM   12  C   UNL     1      -7.339   9.176  65.629  1.00  0.00    -0.086 C  
HETATM   13  N   UNL     1      -7.138  10.109  66.738  1.00  0.00    -0.090 NA 
HETATM   14  C   UNL     1      -7.237  11.929  67.846  1.00  0.00    -0.095 A  
HETATM   15  N   UNL     1      -7.371  11.421  66.601  1.00  0.00    -0.134 NA 
BRANCH  12  16
HETATM   16  C   UNL     1      -8.794   9.097  65.013  1.00  0.00    -0.230 C  
HETATM   17  C   UNL     1      -9.929   8.756  65.995  1.00  0.00    -0.153 C  
HETATM   18  C   UNL     1     -10.206   9.927  66.922  1.00  0.00    -0.240 C  
HETATM   19  O   UNL     1     -11.800  11.794  68.037  1.00  0.00    -0.484 OA 
HETATM   20  N   UNL     1     -10.676  11.074  66.158  1.00  0.00    -0.231 N  
HETATM   21  C   UNL     1      -9.287  10.313  64.197  1.00  0.00    -0.336 C  
HETATM   22  C   UNL     1      -9.809  11.483  65.050  1.00  0.00    -0.257 C  
HETATM   23  C   UNL     1     -11.462  11.977  66.868  1.00  0.00    -0.337 C  
BRANCH  23  24
HETATM   24  C   UNL     1     -11.928  13.190  66.147  1.00  0.00    -0.478 C  
HETATM   25  C   UNL     1     -12.121  14.327  66.828  1.00  0.00    -0.446 C  
ENDBRANCH  23  24
ENDBRANCH  12  16
BRANCH  14  26
HETATM   26  C   UNL     1      -7.708  13.314  68.087  1.00  0.00    -0.143 A  
HETATM   27  C   UNL     1      -8.974  13.542  68.666  1.00  0.00    -0.002 A  
HETATM   28  C   UNL     1      -6.968  14.443  67.731  1.00  0.00    -0.191 A  
HETATM   29  C   UNL     1      -9.448  14.838  68.928  1.00  0.00    -0.191 A  
HETATM   30  C   UNL     1      -7.445  15.743  67.973  1.00  0.00    -0.136 A  
HETATM   31  C   UNL     1      -8.670  15.949  68.609  1.00  0.00    -0.199 A  
BRANCH  31  32
HETATM   32  O   UNL     1      -9.228  17.177  68.881  1.00  0.00    -0.262 OA 
BRANCH  32  33
HETATM   33  C   UNL     1      -9.668  18.002  67.868  1.00  0.00    -0.297 A  
HETATM   34  C   UNL     1      -9.417  19.370  68.015  1.00  0.00    -0.413 A  
HETATM   35  C   UNL     1      -9.830  20.272  67.030  1.00  0.00    -0.607 A  
HETATM   36  C   UNL     1     -10.490  19.809  65.894  1.00  0.00    -0.587 A  
HETATM   37  C   UNL     1     -10.699  18.441  65.721  1.00  0.00    -0.161 A  
HETATM   38  C   UNL     1     -10.261  17.537  66.693  1.00  0.00    -0.332 A  
ENDBRANCH  32  33
ENDBRANCH  31  32
ENDBRANCH  14  26
ENDBRANCH   3   6
TORSDOF 6
ENDMDL
MODEL       51
REMARK 921   NORMALIZED FREE ENERGY PREDICTED BY IDOCK:   -6.52 KCAL/MOL
REMARK 922        TOTAL FREE ENERGY PREDICTED BY IDOCK:   -9.11 KCAL/MOL
REMARK 923 INTER-LIGAND FREE ENERGY PREDICTED BY IDOCK:   -8.11 KCAL/MOL
REMARK 924 INTRA-LIGAND FREE ENERGY PREDICTED BY IDOCK:   -1.00 KCAL/MOL
REMARK 927      BINDING AFFINITY PREDICTED BY RF-SCORE:    0.00 PKD
ROOT
HETATM    1  N   UNL     1      -6.422   9.168  71.488  1.00  0.00    -0.073 N  
HETATM    2  H1  UNL     1      -6.617   8.168  71.516  1.00  0.00     0.000 HD 
HETATM    3  C   UNL     1      -6.893   9.906  70.437  1.00  0.00    -0.140 C  
HETATM    4  H2  UNL     1      -5.884   9.612  72.232  1.00  0.00     0.000 HD 
HETATM    5  O   UNL     1      -6.659  11.107  70.405  1.00  0.00    -0.263 OA 
ENDROOT
BRANCH   3   6
HETATM    6  C   UNL     1      -7.662   9.167  69.445  1.00  0.00    -0.080 A  
HETATM    7  C   UNL     1      -7.310   7.920  68.935  1.00  0.00    -0.085 A  
HETATM    8  N   UNL     1      -6.202   7.134  69.053  1.00  0.00    -0.030 NA 
HETATM    9  C   UNL     1      -6.012   6.095  68.039  1.00  0.00    -0.016 C  
HETATM   10  H   UNL     1      -5.535   7.265  69.814  1.00  0.00     0.000 HD 
HETATM   11  C   UNL     1      -7.295   5.285  67.923  1.00  0.00    -0.076 C  
HETATM   12  C   UNL     1      -8.535   6.171  67.613  1.00  0.00    -0.108 C  
HETATM   13  N   UNL     1      -8.392   7.496  68.217  1.00  0.00    -0.125 NA 
HETATM   14  C   UNL     1      -8.908   9.487  68.781  1.00  0.00    -0.132 A  
HETATM   15  N   UNL     1      -9.247   8.489  67.936  1.00  0.00    -0.139 NA 
BRANCH  12  16
HETATM   16  C   UNL     1      -9.891   5.402  67.881  1.00  0.00    -0.179 C  
HETATM   17  C   UNL     1      -9.784   3.875  68.048  1.00  0.00    -0.127 C  
HETATM   18  C   UNL     1      -9.132   3.524  69.373  1.00  0.00    -0.134 C  
HETATM   19  O   UNL     1      -9.061   2.306  71.777  1.00  0.00    -0.077 OA 
HETATM   20  N   UNL     1      -9.959   3.986  70.479  1.00  0.00    -0.140 N  
HETATM   21  C   UNL     1     -10.770   5.898  69.051  1.00  0.00    -0.379 C  
HETATM   22  C   UNL     1     -10.321   5.405  70.438  1.00  0.00    -0.283 C  
HETATM   23  C   UNL     1      -9.796   3.288  71.672  1.00  0.00    -0.150 C  
BRANCH  23  24
HETATM   24  C   UNL     1     -10.582   3.749  72.846  1.00  0.00    -0.229 C  
HETATM   25  C   UNL     1     -10.693   2.953  73.918  1.00  0.00    -0.281 C  
ENDBRANCH  23  24
ENDBRANCH  12  16
BRANCH  14  26
HETATM   26  C   UNL     1      -9.842  10.630  68.921  1.00  0.00    -0.210 A  
HETATM   27  C   UNL     1     -11.055  10.473  69.625  1.00  0.00    -0.338 A  
HETATM   28  C   UNL     1      -9.607  11.881  68.348  1.00  0.00    -0.196 A  
HETATM   29  C   UNL     1     -11.957  11.535  69.795  1.00  0.00    -0.415 A  
HETATM   30  C   UNL     1     -10.515  12.943  68.499  1.00  0.00    -0.260 A  
HETATM   31  C   UNL     1     -11.677  12.789  69.255  1.00  0.00    -0.319 A  
BRANCH  31  32
HETATM   32  O   UNL     1     -12.632  13.760  69.454  1.00  0.00    -0.151 OA 
BRANCH  32  33
HETATM   33  C   UNL     1     -12.679  14.486  70.626  1.00  0.00    -0.360 A  
HETATM   34  C   UNL     1     -13.757  14.235  71.479  1.00  0.00    -0.428 A  
HETATM   35  C   UNL     1     -13.876  14.927  72.687  1.00  0.00    -0.516 A  
HETATM   36  C   UNL     1     -12.914  15.870  73.048  1.00  0.00    -0.630 A  
HETATM   37  C   UNL     1     -11.813  16.088  72.222  1.00  0.00    -0.628 A  
HETATM   38  C   UNL     1     -11.679  15.374  71.027  1.00  0.00    -0.408 A  
ENDBRANCH  32  33
ENDBRANCH  31  32
ENDBRANCH  14  26
ENDBRANCH   3   6
TORSDOF 6
ENDMDL
MODEL       52
REMARK 921   NORMALIZED FREE ENERGY PREDICTED BY IDOCK:   -6.49 KCAL/MOL
REMARK 922        TOTAL FREE ENERGY PREDICTED BY IDOCK:   -9.07 KCAL/MOL
REMARK 923 INTER-LIGAND FREE ENERGY PREDICTED BY IDOCK:   -7.93 KCAL/MOL
REMARK 924 INTRA-LIGAND FREE ENERGY PREDICTED BY IDOCK:   -1.14 KCAL/MOL
REMARK 927      BINDING AFFINITY PREDICTED BY RF-SCORE:    0.00 PKD
ROOT
HETATM    1  N   UNL     1     -11.710   7.746  73.146  1.00  0.00    -0.545 N  
HETATM    2  H1  UNL     1     -10.801   7.296  73.253  1.00  0.00     0.000 HD 
HETATM    3  C   UNL     1     -12.145   8.067  71.889  1.00  0.00    -0.317 C  
HETATM    4  H2  UNL     1     -12.286   7.953  73.962  1.00  0.00     0.000 HD 
HETATM    5  O   UNL     1     -13.237   8.607  71.761  1.00  0.00    -0.332 OA 
ENDROOT
BRANCH   3   6
HETATM    6  C   UNL     1     -11.246   7.708  70.802  1.00  0.00    -0.282 A  
HETATM    7  C   UNL     1     -10.634   6.467  70.654  1.00  0.00    -0.237 A  
HETATM    8  N   UNL     1     -10.550   5.359  71.445  1.00  0.00    -0.232 NA 
HETATM    9  C   UNL     1      -9.472   4.411  71.152  1.00  0.00    -0.160 C  
HETATM   10  H   UNL     1     -11.208   5.199  72.208  1.00  0.00     0.000 HD 
HETATM   11  C   UNL     1      -9.512   4.070  69.669  1.00  0.00    -0.262 C  
HETATM   12  C   UNL     1      -9.431   5.332  68.764  1.00  0.00    -0.128 C  
HETATM   13  N   UNL     1     -10.066   6.480  69.411  1.00  0.00    -0.167 NA 
HETATM   14  C   UNL     1     -10.790   8.471  69.659  1.00  0.00    -0.151 A  
HETATM   15  N   UNL     1      -9.961   7.716  68.905  1.00  0.00    -0.172 NA 
BRANCH  12  16
HETATM   16  C   UNL     1      -9.862   5.018  67.274  1.00  0.00    -0.205 C  
HETATM   17  C   UNL     1      -9.252   5.921  66.187  1.00  0.00    -0.164 C  
HETATM   18  C   UNL     1      -7.777   5.613  65.999  1.00  0.00    -0.095 C  
HETATM   19  O   UNL     1      -5.631   4.905  64.529  1.00  0.00    -0.013 OA 
HETATM   20  N   UNL     1      -7.605   4.248  65.523  1.00  0.00    -0.084 N  
HETATM   21  C   UNL     1      -9.685   3.567  66.774  1.00  0.00    -0.045 C  
HETATM   22  C   UNL     1      -8.251   3.216  66.337  1.00  0.00    -0.090 C  
HETATM   23  C   UNL     1      -6.434   4.014  64.806  1.00  0.00    -0.042 C  
BRANCH  23  24
HETATM   24  C   UNL     1      -6.187   2.626  64.338  1.00  0.00    -0.019 C  
HETATM   25  C   UNL     1      -6.777   2.195  63.215  1.00  0.00    -0.026 C  
ENDBRANCH  23  24
ENDBRANCH  12  16
BRANCH  14  26
HETATM   26  C   UNL     1     -11.119   9.835  69.180  1.00  0.00    -0.158 A  
HETATM   27  C   UNL     1     -11.450  10.850  70.103  1.00  0.00    -0.405 A  
HETATM   28  C   UNL     1     -11.158  10.178  67.828  1.00  0.00    -0.293 A  
HETATM   29  C   UNL     1     -11.748  12.159  69.691  1.00  0.00    -0.396 A  
HETATM   30  C   UNL     1     -11.475  11.482  67.408  1.00  0.00    -0.349 A  
HETATM   31  C   UNL     1     -11.734  12.491  68.337  1.00  0.00    -0.328 A  
BRANCH  31  32
HETATM   32  O   UNL     1     -12.062  13.791  68.029  1.00  0.00    -0.362 OA 
BRANCH  32  33
HETATM   33  C   UNL     1     -11.150  14.634  67.429  1.00  0.00    -0.326 A  
HETATM   34  C   UNL     1     -11.304  14.855  66.057  1.00  0.00    -0.306 A  
HETATM   35  C   UNL     1     -10.422  15.698  65.375  1.00  0.00    -0.435 A  
HETATM   36  C   UNL     1      -9.386  16.326  66.065  1.00  0.00    -0.361 A  
HETATM   37  C   UNL     1      -9.259  16.146  67.442  1.00  0.00    -0.213 A  
HETATM   38  C   UNL     1     -10.159  15.325  68.128  1.00  0.00    -0.229 A  
ENDBRANCH  32  33
ENDBRANCH  31  32
ENDBRANCH  14  26
ENDBRANCH   3   6
TORSDOF 6
ENDMDL
MODEL       53
REMARK 921   NORMALIZED FREE ENERGY PREDICTED BY IDOCK:   -6.48 KCAL/MOL
REMARK 922        TOTAL FREE ENERGY PREDICTED BY IDOCK:   -9.06 KCAL/MOL
REMARK 923 INTER-LIGAND FREE ENERGY PREDICTED BY IDOCK:   -8.17 KCAL/MOL
REMARK 924 INTRA-LIGAND FREE ENERGY PREDICTED BY IDOCK:   -0.89 KCAL/MOL
REMARK 927      BINDING AFFINITY PREDICTED BY RF-SCORE:    0.00 PKD
ROOT
HETATM    1  N   UNL     1      -6.181   8.990  71.669  1.00  0.00    -0.081 N  
HETATM    2  H1  UNL     1      -6.199   7.975  71.765  1.00  0.00     0.000 HD 
HETATM    3  C   UNL     1      -6.779   9.562  70.581  1.00  0.00    -0.110 C  
HETATM    4  H2  UNL     1      -5.724   9.568  72.373  1.00  0.00     0.000 HD 
HETATM    5  O   UNL     1      -6.757  10.781  70.466  1.00  0.00    -0.312 OA 
ENDROOT
BRANCH   3   6
HETATM    6  C   UNL     1      -7.414   8.637  69.653  1.00  0.00    -0.068 A  
HETATM    7  C   UNL     1      -6.998   7.327  69.428  1.00  0.00    -0.062 A  
HETATM    8  N   UNL     1      -5.913   6.604  69.825  1.00  0.00    -0.022 NA 
HETATM    9  C   UNL     1      -5.593   5.402  69.050  1.00  0.00    -0.008 C  
HETATM   10  H   UNL     1      -5.349   6.887  70.626  1.00  0.00     0.000 HD 
HETATM   11  C   UNL     1      -6.850   4.553  68.925  1.00  0.00    -0.050 C  
HETATM   12  C   UNL     1      -8.042   5.337  68.306  1.00  0.00    -0.094 C  
HETATM   13  N   UNL     1      -7.979   6.753  68.670  1.00  0.00    -0.117 NA 
HETATM   14  C   UNL     1      -8.565   8.800  68.791  1.00  0.00    -0.137 A  
HETATM   15  N   UNL     1      -8.793   7.657  68.107  1.00  0.00    -0.125 NA 
BRANCH  12  16
HETATM   16  C   UNL     1      -9.420   4.596  68.539  1.00  0.00    -0.206 C  
HETATM   17  C   UNL     1      -9.647   4.012  69.945  1.00  0.00    -0.281 C  
HETATM   18  C   UNL     1      -9.884   5.121  70.955  1.00  0.00    -0.199 C  
HETATM   19  O   UNL     1     -11.318   6.381  72.859  1.00  0.00    -0.225 OA 
HETATM   20  N   UNL     1     -11.102   5.848  70.627  1.00  0.00    -0.292 N  
HETATM   21  C   UNL     1     -10.710   5.368  68.184  1.00  0.00    -0.076 C  
HETATM   22  C   UNL     1     -11.170   6.369  69.259  1.00  0.00    -0.375 C  
HETATM   23  C   UNL     1     -11.722   6.481  71.701  1.00  0.00    -0.324 C  
BRANCH  23  24
HETATM   24  C   UNL     1     -12.943   7.277  71.413  1.00  0.00    -0.420 C  
HETATM   25  C   UNL     1     -12.997   8.560  71.793  1.00  0.00    -0.380 C  
ENDBRANCH  23  24
ENDBRANCH  12  16
BRANCH  14  26
HETATM   26  C   UNL     1      -9.512   9.925  68.601  1.00  0.00    -0.153 A  
HETATM   27  C   UNL     1      -9.203  10.968  67.703  1.00  0.00    -0.151 A  
HETATM   28  C   UNL     1     -10.711  10.039  69.307  1.00  0.00    -0.249 A  
HETATM   29  C   UNL     1     -10.082  12.041  67.481  1.00  0.00    -0.205 A  
HETATM   30  C   UNL     1     -11.586  11.121  69.103  1.00  0.00    -0.393 A  
HETATM   31  C   UNL     1     -11.296  12.108  68.161  1.00  0.00    -0.293 A  
BRANCH  31  32
HETATM   32  O   UNL     1     -12.079  13.208  67.895  1.00  0.00    -0.321 OA 
BRANCH  32  33
HETATM   33  C   UNL     1     -11.798  14.046  66.837  1.00  0.00    -0.430 A  
HETATM   34  C   UNL     1     -12.547  13.863  65.671  1.00  0.00    -0.553 A  
HETATM   35  C   UNL     1     -12.324  14.673  64.555  1.00  0.00    -0.416 A  
HETATM   36  C   UNL     1     -11.353  15.673  64.603  1.00  0.00    -0.355 A  
HETATM   37  C   UNL     1     -10.637  15.889  65.779  1.00  0.00    -0.368 A  
HETATM   38  C   UNL     1     -10.881  15.097  66.905  1.00  0.00    -0.317 A  
ENDBRANCH  32  33
ENDBRANCH  31  32
ENDBRANCH  14  26
ENDBRANCH   3   6
TORSDOF 6
ENDMDL
MODEL       54
REMARK 921   NORMALIZED FREE ENERGY PREDICTED BY IDOCK:   -6.48 KCAL/MOL
REMARK 922        TOTAL FREE ENERGY PREDICTED BY IDOCK:   -9.05 KCAL/MOL
REMARK 923 INTER-LIGAND FREE ENERGY PREDICTED BY IDOCK:   -9.04 KCAL/MOL
REMARK 924 INTRA-LIGAND FREE ENERGY PREDICTED BY IDOCK:   -0.02 KCAL/MOL
REMARK 927      BINDING AFFINITY PREDICTED BY RF-SCORE:    0.00 PKD
ROOT
HETATM    1  N   UNL     1      -7.313   9.273  64.234  1.00  0.00    -0.103 N  
HETATM    2  H1  UNL     1      -6.871   8.689  64.942  1.00  0.00     0.000 HD 
HETATM    3  C   UNL     1      -8.662   9.487  64.300  1.00  0.00    -0.207 C  
HETATM    4  H2  UNL     1      -6.758   9.692  63.488  1.00  0.00     0.000 HD 
HETATM    5  O   UNL     1      -9.193  10.189  63.449  1.00  0.00    -0.254 OA 
ENDROOT
BRANCH   3   6
HETATM    6  C   UNL     1      -9.345   8.852  65.418  1.00  0.00    -0.158 A  
HETATM    7  C   UNL     1      -9.244   7.503  65.748  1.00  0.00     0.100 A  
HETATM    8  N   UNL     1      -8.676   6.425  65.136  1.00  0.00    -0.353 NA 
HETATM    9  C   UNL     1      -9.136   5.100  65.557  1.00  0.00    -0.153 C  
HETATM   10  H   UNL     1      -7.963   6.537  64.415  1.00  0.00     0.000 HD 
HETATM   11  C   UNL     1      -9.063   5.017  67.075  1.00  0.00    -0.117 C  
HETATM   12  C   UNL     1      -9.861   6.153  67.774  1.00  0.00    -0.123 C  
HETATM   13  N   UNL     1      -9.849   7.373  66.966  1.00  0.00    -0.191 NA 
HETATM   14  C   UNL     1     -10.229   9.401  66.424  1.00  0.00    -0.230 A  
HETATM   15  N   UNL     1     -10.619   8.425  67.274  1.00  0.00    -0.298 NA 
BRANCH  12  16
HETATM   16  C   UNL     1      -9.468   6.299  69.300  1.00  0.00    -0.142 C  
HETATM   17  C   UNL     1      -9.083   7.714  69.769  1.00  0.00    -0.147 C  
HETATM   18  C   UNL     1     -10.306   8.612  69.828  1.00  0.00    -0.212 C  
HETATM   19  O   UNL     1     -12.023  10.266  71.087  1.00  0.00    -0.342 OA 
HETATM   20  N   UNL     1     -11.250   8.111  70.816  1.00  0.00    -0.261 N  
HETATM   21  C   UNL     1     -10.469   5.761  70.346  1.00  0.00    -0.342 C  
HETATM   22  C   UNL     1     -11.643   6.709  70.651  1.00  0.00    -0.382 C  
HETATM   23  C   UNL     1     -12.101   9.068  71.361  1.00  0.00    -0.327 C  
BRANCH  23  24
HETATM   24  C   UNL     1     -13.117   8.601  72.340  1.00  0.00    -0.396 C  
HETATM   25  C   UNL     1     -14.390   8.452  71.949  1.00  0.00    -0.561 C  
ENDBRANCH  23  24
ENDBRANCH  12  16
BRANCH  14  26
HETATM   26  C   UNL     1     -10.692  10.784  66.691  1.00  0.00    -0.268 A  
HETATM   27  C   UNL     1     -10.419  11.396  67.933  1.00  0.00    -0.212 A  
HETATM   28  C   UNL     1     -11.439  11.527  65.775  1.00  0.00    -0.076 A  
HETATM   29  C   UNL     1     -10.824  12.710  68.217  1.00  0.00    -0.261 A  
HETATM   30  C   UNL     1     -11.863  12.837  66.062  1.00  0.00    -0.495 A  
HETATM   31  C   UNL     1     -11.526  13.451  67.268  1.00  0.00    -0.340 A  
BRANCH  31  32
HETATM   32  O   UNL     1     -11.900  14.720  67.646  1.00  0.00    -0.358 OA 
BRANCH  32  33
HETATM   33  C   UNL     1     -11.023  15.781  67.552  1.00  0.00    -0.293 A  
HETATM   34  C   UNL     1     -10.264  15.869  66.382  1.00  0.00    -0.311 A  
HETATM   35  C   UNL     1      -9.354  16.915  66.208  1.00  0.00    -0.292 A  
HETATM   36  C   UNL     1      -9.203  17.879  67.204  1.00  0.00    -0.258 A  
HETATM   37  C   UNL     1      -9.993  17.821  68.351  1.00  0.00    -0.362 A  
HETATM   38  C   UNL     1     -10.924  16.790  68.511  1.00  0.00    -0.312 A  
ENDBRANCH  32  33
ENDBRANCH  31  32
ENDBRANCH  14  26
ENDBRANCH   3   6
TORSDOF 6
ENDMDL
MODEL       55
REMARK 921   NORMALIZED FREE ENERGY PREDICTED BY IDOCK:   -6.46 KCAL/MOL
REMARK 922        TOTAL FREE ENERGY PREDICTED BY IDOCK:   -9.02 KCAL/MOL
REMARK 923 INTER-LIGAND FREE ENERGY PREDICTED BY IDOCK:   -8.04 KCAL/MOL
REMARK 924 INTRA-LIGAND FREE ENERGY PREDICTED BY IDOCK:   -0.98 KCAL/MOL
REMARK 927      BINDING AFFINITY PREDICTED BY RF-SCORE:    0.00 PKD
ROOT
HETATM    1  N   UNL     1      -5.437  15.105  70.881  1.00  0.00    -0.130 N  
HETATM    2  H1  UNL     1      -5.376  16.095  71.118  1.00  0.00     0.000 HD 
HETATM    3  C   UNL     1      -6.475  14.674  70.103  1.00  0.00    -0.166 C  
HETATM    4  H2  UNL     1      -4.735  14.447  71.219  1.00  0.00     0.000 HD 
HETATM    5  O   UNL     1      -6.548  13.485  69.819  1.00  0.00    -0.089 OA 
ENDROOT
BRANCH   3   6
HETATM    6  C   UNL     1      -7.405  15.706  69.667  1.00  0.00    -0.144 A  
HETATM    7  C   UNL     1      -7.060  17.031  69.416  1.00  0.00    -0.113 A  
HETATM    8  N   UNL     1      -5.925  17.761  69.611  1.00  0.00    -0.246 NA 
HETATM    9  C   UNL     1      -6.064  19.219  69.627  1.00  0.00    -0.269 C  
HETATM   10  H   UNL     1      -5.019  17.311  69.741  1.00  0.00     0.000 HD 
HETATM   11  C   UNL     1      -6.830  19.650  68.384  1.00  0.00    -0.329 C  
HETATM   12  C   UNL     1      -8.209  18.941  68.257  1.00  0.00    -0.329 C  
HETATM   13  N   UNL     1      -8.157  17.594  68.826  1.00  0.00    -0.267 NA 
HETATM   14  C   UNL     1      -8.822  15.645  69.380  1.00  0.00    -0.257 A  
HETATM   15  N   UNL     1      -9.266  16.862  68.995  1.00  0.00    -0.223 NA 
BRANCH  12  16
HETATM   16  C   UNL     1      -8.814  19.084  66.802  1.00  0.00    -0.321 C  
HETATM   17  C   UNL     1      -8.214  18.162  65.725  1.00  0.00     0.232 C  
HETATM   18  C   UNL     1      -8.651  16.724  65.945  1.00  0.00    -0.029 C  
HETATM   19  O   UNL     1      -9.804  14.411  65.177  1.00  0.00    -0.288 OA 
HETATM   20  N   UNL     1     -10.096  16.610  65.804  1.00  0.00    -0.309 N  
HETATM   21  C   UNL     1     -10.348  18.969  66.657  1.00  0.00    -0.501 C  
HETATM   22  C   UNL     1     -10.879  17.524  66.639  1.00  0.00     0.033 C  
HETATM   23  C   UNL     1     -10.557  15.350  65.436  1.00  0.00    -0.410 C  
BRANCH  23  24
HETATM   24  C   UNL     1     -12.028  15.166  65.324  1.00  0.00     0.009 C  
HETATM   25  C   UNL     1     -12.581  14.017  65.733  1.00  0.00    -0.512 C  
ENDBRANCH  23  24
ENDBRANCH  12  16
BRANCH  14  26
HETATM   26  C   UNL     1      -9.787  14.519  69.378  1.00  0.00     0.061 A  
HETATM   27  C   UNL     1      -9.546  13.379  68.582  1.00  0.00    -0.064 A  
HETATM   28  C   UNL     1     -10.977  14.534  70.108  1.00  0.00    -0.057 A  
HETATM   29  C   UNL     1     -10.425  12.285  68.567  1.00  0.00    -0.248 A  
HETATM   30  C   UNL     1     -11.871  13.450  70.082  1.00  0.00    -0.342 A  
HETATM   31  C   UNL     1     -11.583  12.302  69.343  1.00  0.00    -0.314 A  
BRANCH  31  32
HETATM   32  O   UNL     1     -12.395  11.195  69.245  1.00  0.00    -0.381 OA 
BRANCH  32  33
HETATM   33  C   UNL     1     -12.405  10.228  70.228  1.00  0.00    -0.192 A  
HETATM   34  C   UNL     1     -11.262   9.431  70.340  1.00  0.00    -0.309 A  
HETATM   35  C   UNL     1     -11.193   8.430  71.313  1.00  0.00    -0.309 A  
HETATM   36  C   UNL     1     -12.266   8.226  72.180  1.00  0.00    -0.418 A  
HETATM   37  C   UNL     1     -13.388   9.050  72.102  1.00  0.00    -0.510 A  
HETATM   38  C   UNL     1     -13.444  10.070  71.147  1.00  0.00    -0.299 A  
ENDBRANCH  32  33
ENDBRANCH  31  32
ENDBRANCH  14  26
ENDBRANCH   3   6
TORSDOF 6
ENDMDL
MODEL       56
REMARK 921   NORMALIZED FREE ENERGY PREDICTED BY IDOCK:   -6.45 KCAL/MOL
REMARK 922        TOTAL FREE ENERGY PREDICTED BY IDOCK:   -9.01 KCAL/MOL
REMARK 923 INTER-LIGAND FREE ENERGY PREDICTED BY IDOCK:   -7.96 KCAL/MOL
REMARK 924 INTRA-LIGAND FREE ENERGY PREDICTED BY IDOCK:   -1.05 KCAL/MOL
REMARK 927      BINDING AFFINITY PREDICTED BY RF-SCORE:    0.00 PKD
ROOT
HETATM    1  N   UNL     1      -5.696  11.063  65.400  1.00  0.00    -0.341 N  
HETATM    2  H1  UNL     1      -6.015  10.350  64.745  1.00  0.00     0.000 HD 
HETATM    3  C   UNL     1      -6.532  11.457  66.408  1.00  0.00    -0.029 C  
HETATM    4  H2  UNL     1      -4.768  11.475  65.306  1.00  0.00     0.000 HD 
HETATM    5  O   UNL     1      -6.148  12.313  67.195  1.00  0.00    -0.150 OA 
ENDROOT
BRANCH   3   6
HETATM    6  C   UNL     1      -7.824  10.788  66.451  1.00  0.00    -0.148 A  
HETATM    7  C   UNL     1      -8.014   9.417  66.299  1.00  0.00    -0.111 A  
HETATM    8  N   UNL     1      -7.191   8.386  65.952  1.00  0.00    -0.072 NA 
HETATM    9  C   UNL     1      -7.829   7.155  65.479  1.00  0.00    -0.115 C  
HETATM   10  H   UNL     1      -6.177   8.470  66.018  1.00  0.00     0.000 HD 
HETATM   11  C   UNL     1      -8.895   6.740  66.482  1.00  0.00    -0.150 C  
HETATM   12  C   UNL     1      -9.937   7.864  66.745  1.00  0.00    -0.263 C  
HETATM   13  N   UNL     1      -9.321   9.185  66.624  1.00  0.00    -0.165 NA 
HETATM   14  C   UNL     1      -9.157  11.312  66.663  1.00  0.00    -0.179 A  
HETATM   15  N   UNL     1     -10.057  10.305  66.628  1.00  0.00    -0.215 NA 
BRANCH  12  16
HETATM   16  C   UNL     1     -10.790   7.585  68.048  1.00  0.00    -0.097 C  
HETATM   17  C   UNL     1     -10.519   6.249  68.763  1.00  0.00    -0.279 C  
HETATM   18  C   UNL     1      -9.167   6.273  69.453  1.00  0.00    -0.138 C  
HETATM   19  O   UNL     1      -7.553   6.051  71.601  1.00  0.00    -0.096 OA 
HETATM   20  N   UNL     1      -9.152   7.290  70.495  1.00  0.00    -0.157 N  
HETATM   21  C   UNL     1     -10.777   8.669  69.150  1.00  0.00    -0.136 C  
HETATM   22  C   UNL     1      -9.538   8.635  70.062  1.00  0.00    -0.170 C  
HETATM   23  C   UNL     1      -8.246   7.066  71.528  1.00  0.00    -0.108 C  
BRANCH  23  24
HETATM   24  C   UNL     1      -8.157   8.098  72.594  1.00  0.00    -0.215 C  
HETATM   25  C   UNL     1      -8.861   7.940  73.723  1.00  0.00    -0.332 C  
ENDBRANCH  23  24
ENDBRANCH  12  16
BRANCH  14  26
HETATM   26  C   UNL     1      -9.651  12.678  66.960  1.00  0.00    -0.219 A  
HETATM   27  C   UNL     1      -9.785  13.110  68.296  1.00  0.00    -0.223 A  
HETATM   28  C   UNL     1     -10.040  13.579  65.967  1.00  0.00    -0.316 A  
HETATM   29  C   UNL     1     -10.232  14.401  68.617  1.00  0.00    -0.245 A  
HETATM   30  C   UNL     1     -10.506  14.867  66.283  1.00  0.00    -0.306 A  
HETATM   31  C   UNL     1     -10.568  15.301  67.607  1.00  0.00    -0.270 A  
BRANCH  31  32
HETATM   32  O   UNL     1     -11.017  16.535  68.020  1.00  0.00    -0.352 OA 
BRANCH  32  33
HETATM   33  C   UNL     1     -10.257  17.670  67.832  1.00  0.00    -0.357 A  
HETATM   34  C   UNL     1      -8.935  17.625  68.283  1.00  0.00    -0.276 A  
HETATM   35  C   UNL     1      -8.098  18.734  68.129  1.00  0.00    -0.327 A  
HETATM   36  C   UNL     1      -8.582  19.891  67.519  1.00  0.00    -0.393 A  
HETATM   37  C   UNL     1      -9.885  19.923  67.025  1.00  0.00    -0.540 A  
HETATM   38  C   UNL     1     -10.712  18.803  67.154  1.00  0.00    -0.469 A  
ENDBRANCH  32  33
ENDBRANCH  31  32
ENDBRANCH  14  26
ENDBRANCH   3   6
TORSDOF 6
ENDMDL
MODEL       57
REMARK 921   NORMALIZED FREE ENERGY PREDICTED BY IDOCK:   -6.43 KCAL/MOL
REMARK 922        TOTAL FREE ENERGY PREDICTED BY IDOCK:   -8.99 KCAL/MOL
REMARK 923 INTER-LIGAND FREE ENERGY PREDICTED BY IDOCK:   -7.72 KCAL/MOL
REMARK 924 INTRA-LIGAND FREE ENERGY PREDICTED BY IDOCK:   -1.27 KCAL/MOL
REMARK 927      BINDING AFFINITY PREDICTED BY RF-SCORE:    0.00 PKD
ROOT
HETATM    1  N   UNL     1     -10.778  10.374  70.464  1.00  0.00    -0.423 N  
HETATM    2  H1  UNL     1      -9.769  10.502  70.392  1.00  0.00     0.000 HD 
HETATM    3  C   UNL     1     -11.602  11.180  69.728  1.00  0.00    -0.334 C  
HETATM    4  H2  UNL     1     -11.167   9.656  71.076  1.00  0.00     0.000 HD 
HETATM    5  O   UNL     1     -12.814  11.026  69.815  1.00  0.00    -0.133 OA 
ENDROOT
BRANCH   3   6
HETATM    6  C   UNL     1     -10.933  12.156  68.880  1.00  0.00    -0.269 A  
HETATM    7  C   UNL     1     -11.044  13.537  69.018  1.00  0.00    -0.250 A  
HETATM    8  N   UNL     1     -11.828  14.346  69.786  1.00  0.00    -0.301 NA 
HETATM    9  C   UNL     1     -11.972  15.739  69.356  1.00  0.00    -0.305 C  
HETATM   10  H   UNL     1     -12.294  13.996  70.623  1.00  0.00     0.000 HD 
HETATM   11  C   UNL     1     -10.587  16.322  69.117  1.00  0.00    -0.292 C  
HETATM   12  C   UNL     1      -9.756  15.489  68.101  1.00  0.00    -0.208 C  
HETATM   13  N   UNL     1     -10.101  14.070  68.184  1.00  0.00    -0.238 NA 
HETATM   14  C   UNL     1     -10.029  11.980  67.763  1.00  0.00    -0.195 A  
HETATM   15  N   UNL     1      -9.650  13.185  67.284  1.00  0.00    -0.226 NA 
BRANCH  12  16
HETATM   16  C   UNL     1      -8.218  15.857  68.153  1.00  0.00    -0.149 C  
HETATM   17  C   UNL     1      -7.536  16.116  66.797  1.00  0.00    -0.268 C  
HETATM   18  C   UNL     1      -8.001  17.435  66.206  1.00  0.00    -0.279 C  
HETATM   19  O   UNL     1      -7.594  19.907  65.210  1.00  0.00    -0.344 OA 
HETATM   20  N   UNL     1      -7.604  18.540  67.066  1.00  0.00    -0.219 N  
HETATM   21  C   UNL     1      -7.798  17.026  69.072  1.00  0.00    -0.163 C  
HETATM   22  C   UNL     1      -8.020  18.424  68.466  1.00  0.00    -0.314 C  
HETATM   23  C   UNL     1      -7.463  19.768  66.426  1.00  0.00    -0.284 C  
BRANCH  23  24
HETATM   24  C   UNL     1      -7.105  20.940  67.267  1.00  0.00    -0.430 C  
HETATM   25  C   UNL     1      -5.826  21.331  67.341  1.00  0.00    -0.421 C  
ENDBRANCH  23  24
ENDBRANCH  12  16
BRANCH  14  26
HETATM   26  C   UNL     1      -9.440  10.768  67.144  1.00  0.00    -0.180 A  
HETATM   27  C   UNL     1      -9.953  10.271  65.928  1.00  0.00    -0.321 A  
HETATM   28  C   UNL     1      -8.400  10.043  67.729  1.00  0.00    -0.114 A  
HETATM   29  C   UNL     1      -9.411   9.138  65.301  1.00  0.00    -0.224 A  
HETATM   30  C   UNL     1      -7.865   8.897  67.116  1.00  0.00    -0.096 A  
HETATM   31  C   UNL     1      -8.340   8.459  65.879  1.00  0.00    -0.134 A  
BRANCH  31  32
HETATM   32  O   UNL     1      -7.892   7.347  65.203  1.00  0.00    -0.108 OA 
BRANCH  32  33
HETATM   33  C   UNL     1      -7.710   6.143  65.851  1.00  0.00    -0.093 A  
HETATM   34  C   UNL     1      -8.862   5.424  66.181  1.00  0.00    -0.139 A  
HETATM   35  C   UNL     1      -8.763   4.194  66.837  1.00  0.00    -0.114 A  
HETATM   36  C   UNL     1      -7.509   3.677  67.161  1.00  0.00    -0.071 A  
HETATM   37  C   UNL     1      -6.357   4.369  66.791  1.00  0.00    -0.037 A  
HETATM   38  C   UNL     1      -6.456   5.585  66.110  1.00  0.00    -0.044 A  
ENDBRANCH  32  33
ENDBRANCH  31  32
ENDBRANCH  14  26
ENDBRANCH   3   6
TORSDOF 6
ENDMDL
MODEL       58
REMARK 921   NORMALIZED FREE ENERGY PREDICTED BY IDOCK:   -6.41 KCAL/MOL
REMARK 922        TOTAL FREE ENERGY PREDICTED BY IDOCK:   -8.96 KCAL/MOL
REMARK 923 INTER-LIGAND FREE ENERGY PREDICTED BY IDOCK:   -8.09 KCAL/MOL
REMARK 924 INTRA-LIGAND FREE ENERGY PREDICTED BY IDOCK:   -0.87 KCAL/MOL
REMARK 927      BINDING AFFINITY PREDICTED BY RF-SCORE:    0.00 PKD
ROOT
HETATM    1  N   UNL     1      -7.483   9.508  64.518  1.00  0.00    -0.109 N  
HETATM    2  H1  UNL     1      -8.227   9.122  63.937  1.00  0.00     0.000 HD 
HETATM    3  C   UNL     1      -7.544   9.333  65.873  1.00  0.00    -0.098 C  
HETATM    4  H2  UNL     1      -6.707  10.016  64.096  1.00  0.00     0.000 HD 
HETATM    5  O   UNL     1      -6.650   9.797  66.570  1.00  0.00    -0.069 OA 
ENDROOT
BRANCH   3   6
HETATM    6  C   UNL     1      -8.689   8.577  66.359  1.00  0.00    -0.153 A  
HETATM    7  C   UNL     1      -8.719   7.195  66.521  1.00  0.00    -0.134 A  
HETATM    8  N   UNL     1      -7.861   6.190  66.183  1.00  0.00    -0.102 NA 
HETATM    9  C   UNL     1      -8.414   4.835  66.122  1.00  0.00    -0.114 C  
HETATM   10  H   UNL     1      -6.879   6.375  65.980  1.00  0.00     0.000 HD 
HETATM   11  C   UNL     1      -9.162   4.554  67.417  1.00  0.00    -0.154 C  
HETATM   12  C   UNL     1     -10.264   5.612  67.711  1.00  0.00    -0.193 C  
HETATM   13  N   UNL     1      -9.876   6.925  67.195  1.00  0.00    -0.154 NA 
HETATM   14  C   UNL     1     -10.000   9.016  66.790  1.00  0.00    -0.263 A  
HETATM   15  N   UNL     1     -10.739   7.950  67.168  1.00  0.00    -0.302 NA 
BRANCH  12  16
HETATM   16  C   UNL     1     -10.758   5.548  69.213  1.00  0.00    -0.288 C  
HETATM   17  C   UNL     1      -9.940   4.650  70.158  1.00  0.00    -0.304 C  
HETATM   18  C   UNL     1      -8.588   5.274  70.456  1.00  0.00    -0.120 C  
HETATM   19  O   UNL     1      -6.685   6.226  72.113  1.00  0.00    -0.061 OA 
HETATM   20  N   UNL     1      -8.762   6.537  71.161  1.00  0.00    -0.137 N  
HETATM   21  C   UNL     1     -10.947   6.889  69.956  1.00  0.00    -0.320 C  
HETATM   22  C   UNL     1      -9.646   7.502  70.505  1.00  0.00    -0.168 C  
HETATM   23  C   UNL     1      -7.686   6.924  71.955  1.00  0.00    -0.094 C  
BRANCH  23  24
HETATM   24  C   UNL     1      -7.792   8.229  72.659  1.00  0.00    -0.184 C  
HETATM   25  C   UNL     1      -8.035   8.248  73.977  1.00  0.00    -0.270 C  
ENDBRANCH  23  24
ENDBRANCH  12  16
BRANCH  14  26
HETATM   26  C   UNL     1     -10.598  10.365  66.935  1.00  0.00    -0.293 A  
HETATM   27  C   UNL     1     -10.439  11.325  65.913  1.00  0.00    -0.314 A  
HETATM   28  C   UNL     1     -11.298  10.769  68.073  1.00  0.00    -0.378 A  
HETATM   29  C   UNL     1     -11.006  12.606  66.005  1.00  0.00    -0.313 A  
HETATM   30  C   UNL     1     -11.852  12.057  68.178  1.00  0.00    -0.352 A  
HETATM   31  C   UNL     1     -11.743  12.971  67.130  1.00  0.00    -0.382 A  
BRANCH  31  32
HETATM   32  O   UNL     1     -12.239  14.255  67.139  1.00  0.00    -0.410 OA 
BRANCH  32  33
HETATM   33  C   UNL     1     -11.506  15.300  67.660  1.00  0.00    -0.280 A  
HETATM   34  C   UNL     1     -11.463  15.407  69.053  1.00  0.00    -0.349 A  
HETATM   35  C   UNL     1     -10.740  16.438  69.659  1.00  0.00    -0.337 A  
HETATM   36  C   UNL     1     -10.053  17.362  68.873  1.00  0.00    -0.330 A  
HETATM   37  C   UNL     1     -10.054  17.230  67.486  1.00  0.00    -0.315 A  
HETATM   38  C   UNL     1     -10.755  16.182  66.881  1.00  0.00    -0.247 A  
ENDBRANCH  32  33
ENDBRANCH  31  32
ENDBRANCH  14  26
ENDBRANCH   3   6
TORSDOF 6
ENDMDL
MODEL       59
REMARK 921   NORMALIZED FREE ENERGY PREDICTED BY IDOCK:   -6.39 KCAL/MOL
REMARK 922        TOTAL FREE ENERGY PREDICTED BY IDOCK:   -8.93 KCAL/MOL
REMARK 923 INTER-LIGAND FREE ENERGY PREDICTED BY IDOCK:   -8.08 KCAL/MOL
REMARK 924 INTRA-LIGAND FREE ENERGY PREDICTED BY IDOCK:   -0.85 KCAL/MOL
REMARK 927      BINDING AFFINITY PREDICTED BY RF-SCORE:    0.00 PKD
ROOT
HETATM    1  N   UNL     1      -8.832   8.372  62.763  1.00  0.00    -0.399 N  
HETATM    2  H1  UNL     1      -9.733   7.922  62.927  1.00  0.00     0.000 HD 
HETATM    3  C   UNL     1      -7.984   8.556  63.820  1.00  0.00    -0.161 C  
HETATM    4  H2  UNL     1      -8.569   8.679  61.827  1.00  0.00     0.000 HD 
HETATM    5  O   UNL     1      -6.902   9.096  63.623  1.00  0.00    -0.089 OA 
ENDROOT
BRANCH   3   6
HETATM    6  C   UNL     1      -8.461   8.063  65.104  1.00  0.00    -0.117 A  
HETATM    7  C   UNL     1      -8.071   6.860  65.687  1.00  0.00    -0.129 A  
HETATM    8  N   UNL     1      -7.330   5.801  65.253  1.00  0.00    -0.073 NA 
HETATM    9  C   UNL     1      -7.488   4.537  65.977  1.00  0.00    -0.085 C  
HETATM   10  H   UNL     1      -6.695   5.885  64.460  1.00  0.00     0.000 HD 
HETATM   11  C   UNL     1      -7.316   4.801  67.465  1.00  0.00    -0.074 C  
HETATM   12  C   UNL     1      -8.289   5.892  67.995  1.00  0.00    -0.111 C  
HETATM   13  N   UNL     1      -8.569   6.888  66.960  1.00  0.00    -0.120 NA 
HETATM   14  C   UNL     1      -9.382   8.642  66.058  1.00  0.00    -0.218 A  
HETATM   15  N   UNL     1      -9.518   7.819  67.122  1.00  0.00    -0.147 NA 
BRANCH  12  16
HETATM   16  C   UNL     1      -7.850   6.437  69.414  1.00  0.00    -0.105 C  
HETATM   17  C   UNL     1      -8.825   7.413  70.097  1.00  0.00    -0.147 C  
HETATM   18  C   UNL     1     -10.067   6.684  70.577  1.00  0.00    -0.187 C  
HETATM   19  O   UNL     1     -11.837   5.922  72.463  1.00  0.00    -0.295 OA 
HETATM   20  N   UNL     1      -9.714   5.703  71.593  1.00  0.00    -0.157 N  
HETATM   21  C   UNL     1      -7.469   5.393  70.488  1.00  0.00    -0.072 C  
HETATM   22  C   UNL     1      -8.670   4.751  71.206  1.00  0.00    -0.123 C  
HETATM   23  C   UNL     1     -10.734   5.377  72.481  1.00  0.00    -0.237 C  
BRANCH  23  24
HETATM   24  C   UNL     1     -10.440   4.344  73.509  1.00  0.00    -0.268 C  
HETATM   25  C   UNL     1     -11.108   3.183  73.486  1.00  0.00    -0.316 C  
ENDBRANCH  23  24
ENDBRANCH  12  16
BRANCH  14  26
HETATM   26  C   UNL     1     -10.100   9.939  66.084  1.00  0.00    -0.315 A  
HETATM   27  C   UNL     1     -10.273  10.678  64.895  1.00  0.00    -0.395 A  
HETATM   28  C   UNL     1     -10.600  10.509  67.257  1.00  0.00    -0.317 A  
HETATM   29  C   UNL     1     -10.964  11.900  64.875  1.00  0.00    -0.367 A  
HETATM   30  C   UNL     1     -11.276  11.742  67.245  1.00  0.00    -0.364 A  
HETATM   31  C   UNL     1     -11.496  12.427  66.050  1.00  0.00    -0.382 A  
BRANCH  31  32
HETATM   32  O   UNL     1     -12.136  13.640  65.935  1.00  0.00    -0.386 OA 
BRANCH  32  33
HETATM   33  C   UNL     1     -11.522  14.811  66.328  1.00  0.00    -0.316 A  
HETATM   34  C   UNL     1     -10.966  15.600  65.317  1.00  0.00    -0.375 A  
HETATM   35  C   UNL     1     -10.327  16.803  65.632  1.00  0.00    -0.284 A  
HETATM   36  C   UNL     1     -10.247  17.222  66.959  1.00  0.00    -0.320 A  
HETATM   37  C   UNL     1     -10.841  16.461  67.964  1.00  0.00    -0.342 A  
HETATM   38  C   UNL     1     -11.505  15.272  67.645  1.00  0.00    -0.287 A  
ENDBRANCH  32  33
ENDBRANCH  31  32
ENDBRANCH  14  26
ENDBRANCH   3   6
TORSDOF 6
ENDMDL
MODEL       60
REMARK 921   NORMALIZED FREE ENERGY PREDICTED BY IDOCK:   -6.38 KCAL/MOL
REMARK 922        TOTAL FREE ENERGY PREDICTED BY IDOCK:   -8.92 KCAL/MOL
REMARK 923 INTER-LIGAND FREE ENERGY PREDICTED BY IDOCK:   -7.94 KCAL/MOL
REMARK 924 INTRA-LIGAND FREE ENERGY PREDICTED BY IDOCK:   -0.98 KCAL/MOL
REMARK 927      BINDING AFFINITY PREDICTED BY RF-SCORE:    0.00 PKD
ROOT
HETATM    1  N   UNL     1     -12.804   8.454  72.680  1.00  0.00    -0.617 N  
HETATM    2  H1  UNL     1     -12.050   8.668  73.332  1.00  0.00     0.000 HD 
HETATM    3  C   UNL     1     -12.570   7.569  71.665  1.00  0.00    -0.348 C  
HETATM    4  H2  UNL     1     -13.719   8.894  72.784  1.00  0.00     0.000 HD 
HETATM    5  O   UNL     1     -13.477   7.313  70.882  1.00  0.00    -0.168 OA 
ENDROOT
BRANCH   3   6
HETATM    6  C   UNL     1     -11.233   6.993  71.628  1.00  0.00    -0.276 A  
HETATM    7  C   UNL     1     -10.810   5.918  72.404  1.00  0.00    -0.244 A  
HETATM    8  N   UNL     1     -11.370   5.224  73.435  1.00  0.00    -0.486 NA 
HETATM    9  C   UNL     1     -10.465   4.443  74.283  1.00  0.00    -0.260 C  
HETATM   10  H   UNL     1     -12.375   5.248  73.610  1.00  0.00     0.000 HD 
HETATM   11  C   UNL     1      -9.596   3.568  73.392  1.00  0.00    -0.140 C  
HETATM   12  C   UNL     1      -8.819   4.388  72.323  1.00  0.00    -0.113 C  
HETATM   13  N   UNL     1      -9.587   5.563  71.908  1.00  0.00    -0.155 NA 
HETATM   14  C   UNL     1     -10.076   7.337  70.830  1.00  0.00    -0.188 A  
HETATM   15  N   UNL     1      -9.047   6.515  71.135  1.00  0.00    -0.152 NA 
BRANCH  12  16
HETATM   16  C   UNL     1      -8.243   3.465  71.174  1.00  0.00    -0.079 C  
HETATM   17  C   UNL     1      -9.278   2.844  70.220  1.00  0.00    -0.209 C  
HETATM   18  C   UNL     1      -9.865   3.902  69.302  1.00  0.00     0.034 C  
HETATM   19  O   UNL     1     -10.446   4.940  66.882  1.00  0.00    -0.221 OA 
HETATM   20  N   UNL     1      -8.825   4.461  68.449  1.00  0.00    -0.101 N  
HETATM   21  C   UNL     1      -7.135   4.058  70.275  1.00  0.00    -0.041 C  
HETATM   22  C   UNL     1      -7.650   4.978  69.154  1.00  0.00    -0.072 C  
HETATM   23  C   UNL     1      -9.271   4.994  67.243  1.00  0.00    -0.121 C  
BRANCH  23  24
HETATM   24  C   UNL     1      -8.256   5.620  66.356  1.00  0.00    -0.107 C  
HETATM   25  C   UNL     1      -7.932   5.022  65.201  1.00  0.00    -0.103 C  
ENDBRANCH  23  24
ENDBRANCH  12  16
BRANCH  14  26
HETATM   26  C   UNL     1      -9.871   8.339  69.756  1.00  0.00    -0.187 A  
HETATM   27  C   UNL     1      -9.257   9.575  70.046  1.00  0.00    -0.264 A  
HETATM   28  C   UNL     1     -10.297   8.142  68.441  1.00  0.00    -0.236 A  
HETATM   29  C   UNL     1      -9.029  10.542  69.054  1.00  0.00    -0.183 A  
HETATM   30  C   UNL     1     -10.088   9.114  67.447  1.00  0.00    -0.289 A  
HETATM   31  C   UNL     1      -9.419  10.303  67.737  1.00  0.00    -0.148 A  
BRANCH  31  32
HETATM   32  O   UNL     1      -9.175  11.318  66.840  1.00  0.00    -0.169 OA 
BRANCH  32  33
HETATM   33  C   UNL     1     -10.196  11.884  66.107  1.00  0.00    -0.226 A  
HETATM   34  C   UNL     1     -11.212  12.520  66.827  1.00  0.00    -0.347 A  
HETATM   35  C   UNL     1     -12.282  13.120  66.158  1.00  0.00    -0.451 A  
HETATM   36  C   UNL     1     -12.337  13.089  64.765  1.00  0.00    -0.490 A  
HETATM   37  C   UNL     1     -11.303  12.497  64.042  1.00  0.00    -0.467 A  
HETATM   38  C   UNL     1     -10.218  11.923  64.711  1.00  0.00    -0.314 A  
ENDBRANCH  32  33
ENDBRANCH  31  32
ENDBRANCH  14  26
ENDBRANCH   3   6
TORSDOF 6
ENDMDL
MODEL       61
REMARK 921   NORMALIZED FREE ENERGY PREDICTED BY IDOCK:   -6.37 KCAL/MOL
REMARK 922        TOTAL FREE ENERGY PREDICTED BY IDOCK:   -8.91 KCAL/MOL
REMARK 923 INTER-LIGAND FREE ENERGY PREDICTED BY IDOCK:   -8.19 KCAL/MOL
REMARK 924 INTRA-LIGAND FREE ENERGY PREDICTED BY IDOCK:   -0.72 KCAL/MOL
REMARK 927      BINDING AFFINITY PREDICTED BY RF-SCORE:    0.00 PKD
ROOT
HETATM    1  N   UNL     1      -6.353  10.729  65.309  1.00  0.00    -0.353 N  
HETATM    2  H1  UNL     1      -6.721  11.632  65.010  1.00  0.00     0.000 HD 
HETATM    3  C   UNL     1      -6.607  10.301  66.583  1.00  0.00    -0.078 C  
HETATM    4  H2  UNL     1      -5.805  10.155  64.669  1.00  0.00     0.000 HD 
HETATM    5  O   UNL     1      -6.166   9.216  66.941  1.00  0.00    -0.060 OA 
ENDROOT
BRANCH   3   6
HETATM    6  C   UNL     1      -7.413  11.197  67.399  1.00  0.00    -0.109 A  
HETATM    7  C   UNL     1      -7.250  12.579  67.460  1.00  0.00    -0.147 A  
HETATM    8  N   UNL     1      -6.313  13.438  66.967  1.00  0.00    -0.364 NA 
HETATM    9  C   UNL     1      -6.231  14.762  67.588  1.00  0.00    -0.091 C  
HETATM   10  H   UNL     1      -5.697  13.170  66.200  1.00  0.00     0.000 HD 
HETATM   11  C   UNL     1      -7.624  15.372  67.623  1.00  0.00    -0.188 C  
HETATM   12  C   UNL     1      -8.658  14.462  68.344  1.00  0.00    -0.174 C  
HETATM   13  N   UNL     1      -8.330  13.049  68.154  1.00  0.00    -0.158 NA 
HETATM   14  C   UNL     1      -8.525  10.929  68.287  1.00  0.00    -0.134 A  
HETATM   15  N   UNL     1      -8.968  12.084  68.830  1.00  0.00     0.002 NA 
BRANCH  12  16
HETATM   16  C   UNL     1     -10.147  14.901  68.039  1.00  0.00    -0.221 C  
HETATM   17  C   UNL     1     -10.806  15.829  69.075  1.00  0.00    -0.248 C  
HETATM   18  C   UNL     1     -10.206  17.223  69.005  1.00  0.00    -0.318 C  
HETATM   19  O   UNL     1     -10.353  19.898  68.703  1.00  0.00    -0.446 OA 
HETATM   20  N   UNL     1     -10.477  17.823  67.706  1.00  0.00    -0.384 N  
HETATM   21  C   UNL     1     -10.432  15.531  66.657  1.00  0.00    -0.299 C  
HETATM   22  C   UNL     1     -10.066  17.022  66.550  1.00  0.00    -0.314 C  
HETATM   23  C   UNL     1     -10.489  19.214  67.688  1.00  0.00    -0.441 C  
BRANCH  23  24
HETATM   24  C   UNL     1     -10.714  19.878  66.377  1.00  0.00    -0.440 C  
HETATM   25  C   UNL     1      -9.672  20.399  65.716  1.00  0.00    -0.060 C  
ENDBRANCH  23  24
ENDBRANCH  12  16
BRANCH  14  26
HETATM   26  C   UNL     1      -9.249   9.679  68.621  1.00  0.00    -0.136 A  
HETATM   27  C   UNL     1      -9.413   9.292  69.968  1.00  0.00    -0.236 A  
HETATM   28  C   UNL     1      -9.762   8.813  67.653  1.00  0.00    -0.210 A  
HETATM   29  C   UNL     1     -10.108   8.127  70.327  1.00  0.00    -0.192 A  
HETATM   30  C   UNL     1     -10.443   7.635  68.006  1.00  0.00    -0.247 A  
HETATM   31  C   UNL     1     -10.654   7.303  69.344  1.00  0.00    -0.229 A  
BRANCH  31  32
HETATM   32  O   UNL     1     -11.297   6.171  69.791  1.00  0.00    -0.411 OA 
BRANCH  32  33
HETATM   33  C   UNL     1     -10.944   5.572  70.981  1.00  0.00    -0.123 A  
HETATM   34  C   UNL     1      -9.861   4.689  70.945  1.00  0.00    -0.272 A  
HETATM   35  C   UNL     1      -9.439   4.042  72.109  1.00  0.00    -0.192 A  
HETATM   36  C   UNL     1     -10.096   4.281  73.316  1.00  0.00    -0.199 A  
HETATM   37  C   UNL     1     -11.145   5.197  73.365  1.00  0.00    -0.385 A  
HETATM   38  C   UNL     1     -11.548   5.865  72.205  1.00  0.00    -0.338 A  
ENDBRANCH  32  33
ENDBRANCH  31  32
ENDBRANCH  14  26
ENDBRANCH   3   6
TORSDOF 6
ENDMDL
MODEL       62
REMARK 921   NORMALIZED FREE ENERGY PREDICTED BY IDOCK:   -6.36 KCAL/MOL
REMARK 922        TOTAL FREE ENERGY PREDICTED BY IDOCK:   -8.89 KCAL/MOL
REMARK 923 INTER-LIGAND FREE ENERGY PREDICTED BY IDOCK:   -8.34 KCAL/MOL
REMARK 924 INTRA-LIGAND FREE ENERGY PREDICTED BY IDOCK:   -0.55 KCAL/MOL
REMARK 927      BINDING AFFINITY PREDICTED BY RF-SCORE:    0.00 PKD
ROOT
HETATM    1  N   UNL     1      -7.767   3.770  68.093  1.00  0.00    -0.065 N  
HETATM    2  H1  UNL     1      -8.670   3.303  68.173  1.00  0.00     0.000 HD 
HETATM    3  C   UNL     1      -7.652   5.064  68.522  1.00  0.00    -0.078 C  
HETATM    4  H2  UNL     1      -6.964   3.281  67.699  1.00  0.00     0.000 HD 
HETATM    5  O   UNL     1      -6.568   5.624  68.426  1.00  0.00    -0.048 OA 
ENDROOT
BRANCH   3   6
HETATM    6  C   UNL     1      -8.861   5.651  69.081  1.00  0.00    -0.111 A  
HETATM    7  C   UNL     1      -9.460   5.253  70.273  1.00  0.00    -0.168 A  
HETATM    8  N   UNL     1      -9.244   4.219  71.135  1.00  0.00    -0.130 NA 
HETATM    9  C   UNL     1     -10.335   3.874  72.049  1.00  0.00    -0.031 C  
HETATM   10  H   UNL     1      -8.361   3.709  71.143  1.00  0.00     0.000 HD 
HETATM   11  C   UNL     1     -10.798   5.139  72.757  1.00  0.00    -0.314 C  
HETATM   12  C   UNL     1     -11.212   6.262  71.764  1.00  0.00    -0.284 C  
HETATM   13  N   UNL     1     -10.419   6.190  70.536  1.00  0.00    -0.220 NA 
HETATM   14  C   UNL     1      -9.697   6.732  68.603  1.00  0.00    -0.131 A  
HETATM   15  N   UNL     1     -10.718   6.937  69.464  1.00  0.00    -0.235 NA 
BRANCH  12  16
HETATM   16  C   UNL     1     -11.310   7.672  72.474  1.00  0.00    -0.409 C  
HETATM   17  C   UNL     1     -10.061   8.566  72.382  1.00  0.00    -0.365 C  
HETATM   18  C   UNL     1      -9.888   9.104  70.973  1.00  0.00    -0.296 C  
HETATM   19  O   UNL     1      -9.624  11.086  69.165  1.00  0.00    -0.166 OA 
HETATM   20  N   UNL     1     -11.012   9.958  70.619  1.00  0.00    -0.318 N  
HETATM   21  C   UNL     1     -12.509   8.573  72.101  1.00  0.00    -0.437 C  
HETATM   22  C   UNL     1     -12.335   9.350  70.784  1.00  0.00    -0.120 C  
HETATM   23  C   UNL     1     -10.744  10.917  69.646  1.00  0.00    -0.180 C  
BRANCH  23  24
HETATM   24  C   UNL     1     -11.871  11.784  69.214  1.00  0.00    -0.389 C  
HETATM   25  C   UNL     1     -11.868  12.301  67.977  1.00  0.00    -0.368 C  
ENDBRANCH  23  24
ENDBRANCH  12  16
BRANCH  14  26
HETATM   26  C   UNL     1      -9.583   7.633  67.431  1.00  0.00    -0.187 A  
HETATM   27  C   UNL     1     -10.583   8.595  67.176  1.00  0.00    -0.304 A  
HETATM   28  C   UNL     1      -8.532   7.560  66.515  1.00  0.00    -0.131 A  
HETATM   29  C   UNL     1     -10.501   9.479  66.088  1.00  0.00    -0.077 A  
HETATM   30  C   UNL     1      -8.455   8.430  65.413  1.00  0.00    -0.193 A  
HETATM   31  C   UNL     1      -9.417   9.420  65.214  1.00  0.00    -0.227 A  
BRANCH  31  32
HETATM   32  O   UNL     1      -9.436  10.311  64.165  1.00  0.00    -0.260 OA 
BRANCH  32  33
HETATM   33  C   UNL     1     -10.303  11.384  64.155  1.00  0.00    -0.344 A  
HETATM   34  C   UNL     1      -9.825  12.584  64.690  1.00  0.00    -0.079 A  
HETATM   35  C   UNL     1     -10.641  13.719  64.715  1.00  0.00    -0.444 A  
HETATM   36  C   UNL     1     -11.936  13.657  64.201  1.00  0.00    -0.488 A  
HETATM   37  C   UNL     1     -12.398  12.476  63.624  1.00  0.00    -0.618 A  
HETATM   38  C   UNL     1     -11.572  11.349  63.573  1.00  0.00    -0.127 A  
ENDBRANCH  32  33
ENDBRANCH  31  32
ENDBRANCH  14  26
ENDBRANCH   3   6
TORSDOF 6
ENDMDL
MODEL       63
REMARK 921   NORMALIZED FREE ENERGY PREDICTED BY IDOCK:   -6.33 KCAL/MOL
REMARK 922        TOTAL FREE ENERGY PREDICTED BY IDOCK:   -8.85 KCAL/MOL
REMARK 923 INTER-LIGAND FREE ENERGY PREDICTED BY IDOCK:   -7.83 KCAL/MOL
REMARK 924 INTRA-LIGAND FREE ENERGY PREDICTED BY IDOCK:   -1.03 KCAL/MOL
REMARK 927      BINDING AFFINITY PREDICTED BY RF-SCORE:    0.00 PKD
ROOT
HETATM    1  N   UNL     1      -5.703  10.385  70.892  1.00  0.00    -0.094 N  
HETATM    2  H1  UNL     1      -6.036   9.458  70.630  1.00  0.00     0.000 HD 
HETATM    3  C   UNL     1      -5.994  11.446  70.080  1.00  0.00    -0.135 C  
HETATM    4  H2  UNL     1      -5.163  10.519  71.746  1.00  0.00     0.000 HD 
HETATM    5  O   UNL     1      -5.594  12.560  70.395  1.00  0.00    -0.133 OA 
ENDROOT
BRANCH   3   6
HETATM    6  C   UNL     1      -6.785  11.136  68.898  1.00  0.00    -0.077 A  
HETATM    7  C   UNL     1      -6.732   9.932  68.200  1.00  0.00    -0.060 A  
HETATM    8  N   UNL     1      -5.924   8.837  68.274  1.00  0.00    -0.042 NA 
HETATM    9  C   UNL     1      -5.890   7.953  67.107  1.00  0.00    -0.041 C  
HETATM   10  H   UNL     1      -5.367   8.642  69.107  1.00  0.00     0.000 HD 
HETATM   11  C   UNL     1      -7.318   7.601  66.718  1.00  0.00    -0.089 C  
HETATM   12  C   UNL     1      -8.195   8.860  66.462  1.00  0.00    -0.114 C  
HETATM   13  N   UNL     1      -7.772   9.972  67.314  1.00  0.00    -0.095 NA 
HETATM   14  C   UNL     1      -7.776  11.917  68.189  1.00  0.00    -0.126 A  
HETATM   15  N   UNL     1      -8.256  11.209  67.143  1.00  0.00    -0.132 NA 
BRANCH  12  16
HETATM   16  C   UNL     1      -9.738   8.513  66.450  1.00  0.00    -0.328 C  
HETATM   17  C   UNL     1     -10.100   7.028  66.633  1.00  0.00    -0.219 C  
HETATM   18  C   UNL     1      -9.844   6.585  68.063  1.00  0.00    -0.123 C  
HETATM   19  O   UNL     1     -10.588   5.531  70.430  1.00  0.00    -0.276 OA 
HETATM   20  N   UNL     1     -10.705   7.319  68.979  1.00  0.00    -0.197 N  
HETATM   21  C   UNL     1     -10.651   9.297  67.418  1.00  0.00    -0.324 C  
HETATM   22  C   UNL     1     -10.638   8.778  68.867  1.00  0.00    -0.155 C  
HETATM   23  C   UNL     1     -10.981   6.671  70.180  1.00  0.00    -0.305 C  
BRANCH  23  24
HETATM   24  C   UNL     1     -11.817   7.396  71.171  1.00  0.00    -0.330 C  
HETATM   25  C   UNL     1     -11.296   7.718  72.362  1.00  0.00    -0.400 C  
ENDBRANCH  23  24
ENDBRANCH  12  16
BRANCH  14  26
HETATM   26  C   UNL     1      -8.356  13.257  68.449  1.00  0.00    -0.131 A  
HETATM   27  C   UNL     1      -9.749  13.407  68.613  1.00  0.00    -0.084 A  
HETATM   28  C   UNL     1      -7.588  14.422  68.505  1.00  0.00    -0.125 A  
HETATM   29  C   UNL     1     -10.335  14.654  68.879  1.00  0.00    -0.245 A  
HETATM   30  C   UNL     1      -8.172  15.676  68.753  1.00  0.00    -0.183 A  
HETATM   31  C   UNL     1      -9.543  15.797  68.980  1.00  0.00    -0.243 A  
BRANCH  31  32
HETATM   32  O   UNL     1     -10.209  16.977  69.220  1.00  0.00    -0.291 OA 
BRANCH  32  33
HETATM   33  C   UNL     1     -10.109  18.042  68.351  1.00  0.00    -0.387 A  
HETATM   34  C   UNL     1     -10.581  17.842  67.051  1.00  0.00    -0.266 A  
HETATM   35  C   UNL     1     -10.517  18.873  66.110  1.00  0.00    -0.521 A  
HETATM   36  C   UNL     1      -9.984  20.110  66.468  1.00  0.00    -0.586 A  
HETATM   37  C   UNL     1      -9.556  20.329  67.777  1.00  0.00    -0.486 A  
HETATM   38  C   UNL     1      -9.647  19.306  68.725  1.00  0.00    -0.485 A  
ENDBRANCH  32  33
ENDBRANCH  31  32
ENDBRANCH  14  26
ENDBRANCH   3   6
TORSDOF 6
ENDMDL
MODEL       64
REMARK 921   NORMALIZED FREE ENERGY PREDICTED BY IDOCK:   -6.28 KCAL/MOL
REMARK 922        TOTAL FREE ENERGY PREDICTED BY IDOCK:   -8.79 KCAL/MOL
REMARK 923 INTER-LIGAND FREE ENERGY PREDICTED BY IDOCK:   -8.35 KCAL/MOL
REMARK 924 INTRA-LIGAND FREE ENERGY PREDICTED BY IDOCK:   -0.44 KCAL/MOL
REMARK 927      BINDING AFFINITY PREDICTED BY RF-SCORE:    0.00 PKD
ROOT
HETATM    1  N   UNL     1      -8.318   9.160  64.423  1.00  0.00    -0.166 N  
HETATM    2  H1  UNL     1      -8.005   8.575  65.197  1.00  0.00     0.000 HD 
HETATM    3  C   UNL     1      -9.441   9.925  64.584  1.00  0.00    -0.278 C  
HETATM    4  H2  UNL     1      -7.803   9.176  63.543  1.00  0.00     0.000 HD 
HETATM    5  O   UNL     1      -9.817  10.628  63.655  1.00  0.00    -0.303 OA 
ENDROOT
BRANCH   3   6
HETATM    6  C   UNL     1     -10.082   9.833  65.888  1.00  0.00    -0.314 A  
HETATM    7  C   UNL     1     -10.274   8.650  66.597  1.00  0.00    -0.273 A  
HETATM    8  N   UNL     1     -10.093   7.333  66.296  1.00  0.00    -0.455 NA 
HETATM    9  C   UNL     1     -10.801   6.356  67.128  1.00  0.00    -0.393 C  
HETATM   10  H   UNL     1      -9.493   7.041  65.525  1.00  0.00     0.000 HD 
HETATM   11  C   UNL     1     -10.520   6.666  68.591  1.00  0.00    -0.241 C  
HETATM   12  C   UNL     1     -10.892   8.126  68.975  1.00  0.00     0.010 C  
HETATM   13  N   UNL     1     -10.699   9.029  67.840  1.00  0.00    -0.186 NA 
HETATM   14  C   UNL     1     -10.637  10.859  66.745  1.00  0.00    -0.259 A  
HETATM   15  N   UNL     1     -11.125  10.299  67.874  1.00  0.00    -0.297 NA 
BRANCH  12  16
HETATM   16  C   UNL     1     -10.247   8.557  70.354  1.00  0.00    -0.215 C  
HETATM   17  C   UNL     1      -9.253   7.561  70.978  1.00  0.00    -0.153 C  
HETATM   18  C   UNL     1      -7.955   7.533  70.191  1.00  0.00    -0.111 C  
HETATM   19  O   UNL     1      -5.281   7.769  69.943  1.00  0.00    -0.023 OA 
HETATM   20  N   UNL     1      -7.303   8.834  70.250  1.00  0.00    -0.053 N  
HETATM   21  C   UNL     1      -9.561   9.940  70.415  1.00  0.00    -0.117 C  
HETATM   22  C   UNL     1      -8.133   9.969  69.841  1.00  0.00    -0.166 C  
HETATM   23  C   UNL     1      -5.922   8.812  70.072  1.00  0.00    -0.030 C  
BRANCH  23  24
HETATM   24  C   UNL     1      -5.213  10.118  70.076  1.00  0.00    -0.038 C  
HETATM   25  C   UNL     1      -5.279  10.900  71.162  1.00  0.00    -0.093 C  
ENDBRANCH  23  24
ENDBRANCH  12  16
BRANCH  14  26
HETATM   26  C   UNL     1     -10.693  12.335  66.619  1.00  0.00    -0.276 A  
HETATM   27  C   UNL     1     -11.649  13.074  67.348  1.00  0.00    -0.407 A  
HETATM   28  C   UNL     1      -9.856  13.059  65.768  1.00  0.00    -0.217 A  
HETATM   29  C   UNL     1     -11.722  14.474  67.271  1.00  0.00    -0.429 A  
HETATM   30  C   UNL     1      -9.937  14.459  65.672  1.00  0.00    -0.365 A  
HETATM   31  C   UNL     1     -10.843  15.180  66.451  1.00  0.00    -0.326 A  
BRANCH  31  32
HETATM   32  O   UNL     1     -11.006  16.546  66.423  1.00  0.00    -0.109 OA 
BRANCH  32  33
HETATM   33  C   UNL     1     -10.145  17.381  67.103  1.00  0.00    -0.307 A  
HETATM   34  C   UNL     1     -10.720  18.455  67.789  1.00  0.00    -0.371 A  
HETATM   35  C   UNL     1      -9.916  19.347  68.504  1.00  0.00    -0.520 A  
HETATM   36  C   UNL     1      -8.534  19.164  68.539  1.00  0.00    -0.399 A  
HETATM   37  C   UNL     1      -7.963  18.068  67.896  1.00  0.00    -0.241 A  
HETATM   38  C   UNL     1      -8.770  17.160  67.205  1.00  0.00    -0.227 A  
ENDBRANCH  32  33
ENDBRANCH  31  32
ENDBRANCH  14  26
ENDBRANCH   3   6
TORSDOF 6
ENDMDL
MODEL       65
REMARK 921   NORMALIZED FREE ENERGY PREDICTED BY IDOCK:   -6.25 KCAL/MOL
REMARK 922        TOTAL FREE ENERGY PREDICTED BY IDOCK:   -8.74 KCAL/MOL
REMARK 923 INTER-LIGAND FREE ENERGY PREDICTED BY IDOCK:   -7.91 KCAL/MOL
REMARK 924 INTRA-LIGAND FREE ENERGY PREDICTED BY IDOCK:   -0.83 KCAL/MOL
REMARK 927      BINDING AFFINITY PREDICTED BY RF-SCORE:    0.00 PKD
ROOT
HETATM    1  N   UNL     1     -12.303   6.537  72.453  1.00  0.00    -0.534 N  
HETATM    2  H1  UNL     1     -11.595   5.819  72.301  1.00  0.00     0.000 HD 
HETATM    3  C   UNL     1     -11.953   7.852  72.308  1.00  0.00    -0.337 C  
HETATM    4  H2  UNL     1     -13.256   6.280  72.708  1.00  0.00     0.000 HD 
HETATM    5  O   UNL     1     -12.803   8.714  72.490  1.00  0.00    -0.379 OA 
ENDROOT
BRANCH   3   6
HETATM    6  C   UNL     1     -10.570   8.096  71.924  1.00  0.00    -0.324 A  
HETATM    7  C   UNL     1      -9.468   7.433  72.459  1.00  0.00    -0.152 A  
HETATM    8  N   UNL     1      -9.308   6.558  73.492  1.00  0.00    -0.133 NA 
HETATM    9  C   UNL     1      -7.954   6.405  74.032  1.00  0.00    -0.100 C  
HETATM   10  H   UNL     1     -10.096   6.033  73.873  1.00  0.00     0.000 HD 
HETATM   11  C   UNL     1      -6.998   6.133  72.880  1.00  0.00    -0.076 C  
HETATM   12  C   UNL     1      -7.058   7.231  71.781  1.00  0.00    -0.067 C  
HETATM   13  N   UNL     1      -8.405   7.794  71.680  1.00  0.00    -0.106 NA 
HETATM   14  C   UNL     1     -10.003   9.005  70.951  1.00  0.00    -0.260 A  
HETATM   15  N   UNL     1      -8.657   8.878  70.933  1.00  0.00    -0.182 NA 
BRANCH  12  16
HETATM   16  C   UNL     1      -6.376   6.757  70.434  1.00  0.00    -0.042 C  
HETATM   17  C   UNL     1      -6.239   5.236  70.243  1.00  0.00    -0.023 C  
HETATM   18  C   UNL     1      -7.594   4.605  69.972  1.00  0.00    -0.054 C  
HETATM   19  O   UNL     1      -9.322   3.143  68.507  1.00  0.00    -0.168 OA 
HETATM   20  N   UNL     1      -8.145   5.113  68.724  1.00  0.00    -0.085 N  
HETATM   21  C   UNL     1      -6.959   7.303  69.112  1.00  0.00    -0.074 C  
HETATM   22  C   UNL     1      -8.223   6.573  68.624  1.00  0.00    -0.118 C  
HETATM   23  C   UNL     1      -9.052   4.269  68.090  1.00  0.00    -0.131 C  
BRANCH  23  24
HETATM   24  C   UNL     1      -9.681   4.760  66.836  1.00  0.00    -0.204 C  
HETATM   25  C   UNL     1      -9.091   4.506  65.660  1.00  0.00    -0.140 C  
ENDBRANCH  23  24
ENDBRANCH  12  16
BRANCH  14  26
HETATM   26  C   UNL     1     -10.626   9.944  69.988  1.00  0.00    -0.335 A  
HETATM   27  C   UNL     1     -10.194   9.973  68.645  1.00  0.00    -0.198 A  
HETATM   28  C   UNL     1     -11.620  10.856  70.348  1.00  0.00    -0.418 A  
HETATM   29  C   UNL     1     -10.772  10.834  67.698  1.00  0.00    -0.305 A  
HETATM   30  C   UNL     1     -12.189  11.733  69.408  1.00  0.00    -0.219 A  
HETATM   31  C   UNL     1     -11.797  11.702  68.070  1.00  0.00    -0.225 A  
BRANCH  31  32
HETATM   32  O   UNL     1     -12.284  12.523  67.079  1.00  0.00    -0.490 OA 
BRANCH  32  33
HETATM   33  C   UNL     1     -11.679  13.728  66.788  1.00  0.00    -0.391 A  
HETATM   34  C   UNL     1     -11.136  14.436  67.865  1.00  0.00    -0.288 A  
HETATM   35  C   UNL     1     -10.504  15.664  67.654  1.00  0.00    -0.283 A  
HETATM   36  C   UNL     1     -10.410  16.187  66.365  1.00  0.00    -0.321 A  
HETATM   37  C   UNL     1     -10.909  15.462  65.284  1.00  0.00    -0.423 A  
HETATM   38  C   UNL     1     -11.515  14.220  65.492  1.00  0.00    -0.329 A  
ENDBRANCH  32  33
ENDBRANCH  31  32
ENDBRANCH  14  26
ENDBRANCH   3   6
TORSDOF 6
ENDMDL
MODEL       66
REMARK 921   NORMALIZED FREE ENERGY PREDICTED BY IDOCK:   -6.13 KCAL/MOL
REMARK 922        TOTAL FREE ENERGY PREDICTED BY IDOCK:   -8.58 KCAL/MOL
REMARK 923 INTER-LIGAND FREE ENERGY PREDICTED BY IDOCK:   -7.95 KCAL/MOL
REMARK 924 INTRA-LIGAND FREE ENERGY PREDICTED BY IDOCK:   -0.63 KCAL/MOL
REMARK 927      BINDING AFFINITY PREDICTED BY RF-SCORE:    0.00 PKD
ROOT
HETATM    1  N   UNL     1     -11.612   6.412  66.988  1.00  0.00    -0.590 N  
HETATM    2  H1  UNL     1     -12.389   6.763  67.548  1.00  0.00     0.000 HD 
HETATM    3  C   UNL     1     -10.412   6.173  67.599  1.00  0.00    -0.234 C  
HETATM    4  H2  UNL     1     -11.728   6.242  65.989  1.00  0.00     0.000 HD 
HETATM    5  O   UNL     1      -9.480   5.751  66.926  1.00  0.00    -0.125 OA 
ENDROOT
BRANCH   3   6
HETATM    6  C   UNL     1     -10.371   6.436  69.030  1.00  0.00    -0.238 A  
HETATM    7  C   UNL     1     -10.037   5.496  70.001  1.00  0.00    -0.241 A  
HETATM    8  N   UNL     1      -9.814   4.151  69.972  1.00  0.00    -0.216 NA 
HETATM    9  C   UNL     1      -9.910   3.431  71.244  1.00  0.00    -0.124 C  
HETATM   10  H   UNL     1      -9.591   3.668  69.102  1.00  0.00     0.000 HD 
HETATM   11  C   UNL     1      -9.048   4.146  72.275  1.00  0.00    -0.148 C  
HETATM   12  C   UNL     1      -9.424   5.646  72.433  1.00  0.00    -0.143 C  
HETATM   13  N   UNL     1      -9.906   6.198  71.166  1.00  0.00    -0.179 NA 
HETATM   14  C   UNL     1     -10.627   7.648  69.778  1.00  0.00    -0.244 A  
HETATM   15  N   UNL     1     -10.459   7.417  71.099  1.00  0.00    -0.209 NA 
BRANCH  12  16
HETATM   16  C   UNL     1      -8.299   6.461  73.190  1.00  0.00    -0.115 C  
HETATM   17  C   UNL     1      -6.849   6.169  72.765  1.00  0.00    -0.074 C  
HETATM   18  C   UNL     1      -6.568   6.743  71.387  1.00  0.00    -0.053 C  
HETATM   19  O   UNL     1      -5.202   8.290  69.653  1.00  0.00    -0.029 OA 
HETATM   20  N   UNL     1      -6.690   8.193  71.411  1.00  0.00    -0.051 N  
HETATM   21  C   UNL     1      -8.435   8.000  73.219  1.00  0.00    -0.284 C  
HETATM   22  C   UNL     1      -7.957   8.705  71.937  1.00  0.00    -0.076 C  
HETATM   23  C   UNL     1      -5.956   8.865  70.437  1.00  0.00    -0.035 C  
BRANCH  23  24
HETATM   24  C   UNL     1      -6.082  10.345  70.387  1.00  0.00    -0.118 C  
HETATM   25  C   UNL     1      -6.697  10.919  69.344  1.00  0.00    -0.107 C  
ENDBRANCH  23  24
ENDBRANCH  12  16
BRANCH  14  26
HETATM   26  C   UNL     1     -10.959   9.028  69.349  1.00  0.00    -0.082 A  
HETATM   27  C   UNL     1     -11.692   9.880  70.203  1.00  0.00    -0.239 A  
HETATM   28  C   UNL     1     -10.612   9.541  68.098  1.00  0.00    -0.265 A  
HETATM   29  C   UNL     1     -12.010  11.199  69.841  1.00  0.00    -0.439 A  
HETATM   30  C   UNL     1     -10.943  10.855  67.724  1.00  0.00    -0.339 A  
HETATM   31  C   UNL     1     -11.610  11.705  68.606  1.00  0.00    -0.312 A  
BRANCH  31  32
HETATM   32  O   UNL     1     -11.987  13.000  68.332  1.00  0.00    -0.336 OA 
BRANCH  32  33
HETATM   33  C   UNL     1     -11.620  13.616  67.154  1.00  0.00    -0.361 A  
HETATM   34  C   UNL     1     -10.377  14.255  67.138  1.00  0.00    -0.262 A  
HETATM   35  C   UNL     1      -9.931  14.901  65.982  1.00  0.00    -0.337 A  
HETATM   36  C   UNL     1     -10.725  14.906  64.836  1.00  0.00    -0.426 A  
HETATM   37  C   UNL     1     -11.943  14.228  64.833  1.00  0.00    -0.430 A  
HETATM   38  C   UNL     1     -12.376  13.558  65.981  1.00  0.00    -0.486 A  
ENDBRANCH  32  33
ENDBRANCH  31  32
ENDBRANCH  14  26
ENDBRANCH   3   6
TORSDOF 6
ENDMDL
MODEL       67
REMARK 921   NORMALIZED FREE ENERGY PREDICTED BY IDOCK:   -6.04 KCAL/MOL
REMARK 922        TOTAL FREE ENERGY PREDICTED BY IDOCK:   -8.47 KCAL/MOL
REMARK 923 INTER-LIGAND FREE ENERGY PREDICTED BY IDOCK:   -8.35 KCAL/MOL
REMARK 924 INTRA-LIGAND FREE ENERGY PREDICTED BY IDOCK:   -0.12 KCAL/MOL
REMARK 927      BINDING AFFINITY PREDICTED BY RF-SCORE:    0.00 PKD
ROOT
HETATM    1  N   UNL     1     -12.601   8.541  72.856  1.00  0.00    -0.489 N  
HETATM    2  H1  UNL     1     -11.735   8.044  73.062  1.00  0.00     0.000 HD 
HETATM    3  C   UNL     1     -12.815   8.996  71.584  1.00  0.00    -0.359 C  
HETATM    4  H2  UNL     1     -13.296   8.695  73.585  1.00  0.00     0.000 HD 
HETATM    5  O   UNL     1     -13.856   9.592  71.336  1.00  0.00    -0.310 OA 
ENDROOT
BRANCH   3   6
HETATM    6  C   UNL     1     -11.760   8.702  70.625  1.00  0.00    -0.178 A  
HETATM    7  C   UNL     1     -11.126   7.469  70.494  1.00  0.00    -0.259 A  
HETATM    8  N   UNL     1     -11.157   6.314  71.218  1.00  0.00    -0.278 NA 
HETATM    9  C   UNL     1     -10.043   5.382  71.032  1.00  0.00    -0.216 C  
HETATM   10  H   UNL     1     -11.922   6.109  71.860  1.00  0.00     0.000 HD 
HETATM   11  C   UNL     1      -9.857   5.134  69.542  1.00  0.00    -0.278 C  
HETATM   12  C   UNL     1      -9.646   6.449  68.740  1.00  0.00    -0.125 C  
HETATM   13  N   UNL     1     -10.377   7.558  69.354  1.00  0.00    -0.208 NA 
HETATM   14  C   UNL     1     -11.141   9.532  69.614  1.00  0.00    -0.171 A  
HETATM   15  N   UNL     1     -10.203   8.823  68.948  1.00  0.00    -0.203 NA 
BRANCH  12  16
HETATM   16  C   UNL     1      -9.846   6.232  67.185  1.00  0.00    -0.173 C  
HETATM   17  C   UNL     1     -10.708   7.280  66.459  1.00  0.00     0.190 C  
HETATM   18  C   UNL     1      -9.965   8.600  66.346  1.00  0.00    -0.260 C  
HETATM   19  O   UNL     1      -8.919  10.666  64.966  1.00  0.00    -0.188 OA 
HETATM   20  N   UNL     1      -8.770   8.437  65.531  1.00  0.00    -0.176 N  
HETATM   21  C   UNL     1      -8.576   6.052  66.324  1.00  0.00    -0.137 C  
HETATM   22  C   UNL     1      -7.864   7.367  65.957  1.00  0.00    -0.102 C  
HETATM   23  C   UNL     1      -8.319   9.594  64.902  1.00  0.00    -0.148 C  
BRANCH  23  24
HETATM   24  C   UNL     1      -7.075   9.492  64.096  1.00  0.00    -0.112 C  
HETATM   25  C   UNL     1      -7.158   9.206  62.789  1.00  0.00    -0.094 C  
ENDBRANCH  23  24
ENDBRANCH  12  16
BRANCH  14  26
HETATM   26  C   UNL     1     -11.400  10.925  69.177  1.00  0.00    -0.350 A  
HETATM   27  C   UNL     1     -11.644  11.935  70.132  1.00  0.00    -0.252 A  
HETATM   28  C   UNL     1     -11.456  11.305  67.834  1.00  0.00    -0.360 A  
HETATM   29  C   UNL     1     -11.874  13.269  69.760  1.00  0.00    -0.394 A  
HETATM   30  C   UNL     1     -11.706  12.635  67.455  1.00  0.00    -0.429 A  
HETATM   31  C   UNL     1     -11.878  13.633  68.415  1.00  0.00    -0.372 A  
BRANCH  31  32
HETATM   32  O   UNL     1     -12.136  14.958  68.147  1.00  0.00    -0.243 OA 
BRANCH  32  33
HETATM   33  C   UNL     1     -11.124  15.824  67.787  1.00  0.00    -0.313 A  
HETATM   34  C   UNL     1     -10.488  16.515  68.823  1.00  0.00    -0.309 A  
HETATM   35  C   UNL     1      -9.452  17.409  68.542  1.00  0.00    -0.297 A  
HETATM   36  C   UNL     1      -9.046  17.612  67.224  1.00  0.00    -0.237 A  
HETATM   37  C   UNL     1      -9.645  16.889  66.194  1.00  0.00    -0.280 A  
HETATM   38  C   UNL     1     -10.662  15.973  66.478  1.00  0.00    -0.238 A  
ENDBRANCH  32  33
ENDBRANCH  31  32
ENDBRANCH  14  26
ENDBRANCH   3   6
TORSDOF 6
ENDMDL
MODEL       68
REMARK 921   NORMALIZED FREE ENERGY PREDICTED BY IDOCK:   -6.03 KCAL/MOL
REMARK 922        TOTAL FREE ENERGY PREDICTED BY IDOCK:   -8.45 KCAL/MOL
REMARK 923 INTER-LIGAND FREE ENERGY PREDICTED BY IDOCK:   -7.32 KCAL/MOL
REMARK 924 INTRA-LIGAND FREE ENERGY PREDICTED BY IDOCK:   -1.12 KCAL/MOL
REMARK 927      BINDING AFFINITY PREDICTED BY RF-SCORE:    0.00 PKD
ROOT
HETATM    1  N   UNL     1     -13.384  12.104  63.755  1.00  0.00    -0.486 N  
HETATM    2  H1  UNL     1     -13.664  12.722  64.516  1.00  0.00     0.000 HD 
HETATM    3  C   UNL     1     -12.052  11.892  63.530  1.00  0.00    -0.470 C  
HETATM    4  H2  UNL     1     -14.087  11.650  63.172  1.00  0.00     0.000 HD 
HETATM    5  O   UNL     1     -11.717  11.149  62.616  1.00  0.00     0.770 OA 
ENDROOT
BRANCH   3   6
HETATM    6  C   UNL     1     -11.144  12.579  64.437  1.00  0.00    -0.383 A  
HETATM    7  C   UNL     1     -11.164  13.947  64.695  1.00  0.00    -0.378 A  
HETATM    8  N   UNL     1     -11.842  14.997  64.150  1.00  0.00    -0.794 NA 
HETATM    9  C   UNL     1     -11.295  16.337  64.382  1.00  0.00    -0.129 C  
HETATM   10  H   UNL     1     -12.693  14.857  63.606  1.00  0.00     0.000 HD 
HETATM   11  C   UNL     1     -11.045  16.511  65.873  1.00  0.00     0.171 C  
HETATM   12  C   UNL     1     -10.123  15.403  66.458  1.00  0.00    -0.271 C  
HETATM   13  N   UNL     1     -10.314  14.138  65.748  1.00  0.00    -0.312 NA 
HETATM   14  C   UNL     1     -10.070  12.074  65.265  1.00  0.00    -0.260 A  
HETATM   15  N   UNL     1      -9.503  13.091  65.952  1.00  0.00    -0.108 NA 
BRANCH  12  16
HETATM   16  C   UNL     1     -10.186  15.356  68.038  1.00  0.00    -0.235 C  
HETATM   17  C   UNL     1     -11.570  15.086  68.654  1.00  0.00    -0.347 C  
HETATM   18  C   UNL     1     -11.985  13.643  68.430  1.00  0.00    -0.356 C  
HETATM   19  O   UNL     1     -12.776  11.205  69.267  1.00  0.00    -0.252 OA 
HETATM   20  N   UNL     1     -11.066  12.744  69.113  1.00  0.00    -0.223 N  
HETATM   21  C   UNL     1      -9.205  14.406  68.760  1.00  0.00    -0.144 C  
HETATM   22  C   UNL     1      -9.650  12.933  68.788  1.00  0.00     0.100 C  
HETATM   23  C   UNL     1     -11.597  11.504  69.457  1.00  0.00    -0.333 C  
BRANCH  23  24
HETATM   24  C   UNL     1     -10.687  10.530  70.114  1.00  0.00    -0.232 C  
HETATM   25  C   UNL     1     -11.202   9.567  70.890  1.00  0.00    -0.411 C  
ENDBRANCH  23  24
ENDBRANCH  12  16
BRANCH  14  26
HETATM   26  C   UNL     1      -9.570  10.701  65.515  1.00  0.00    -0.271 A  
HETATM   27  C   UNL     1     -10.051   9.959  66.614  1.00  0.00    -0.297 A  
HETATM   28  C   UNL     1      -8.592  10.092  64.726  1.00  0.00    -0.188 A  
HETATM   29  C   UNL     1      -9.616   8.650  66.873  1.00  0.00    -0.254 A  
HETATM   30  C   UNL     1      -8.140   8.788  64.991  1.00  0.00    -0.144 A  
HETATM   31  C   UNL     1      -8.676   8.043  66.042  1.00  0.00    -0.157 A  
BRANCH  31  32
HETATM   32  O   UNL     1      -8.294   6.768  66.389  1.00  0.00    -0.112 OA 
BRANCH  32  33
HETATM   33  C   UNL     1      -8.761   5.670  65.698  1.00  0.00    -0.151 A  
HETATM   34  C   UNL     1     -10.068   5.259  65.977  1.00  0.00    -0.163 A  
HETATM   35  C   UNL     1     -10.616   4.155  65.317  1.00  0.00    -0.112 A  
HETATM   36  C   UNL     1      -9.860   3.463  64.372  1.00  0.00    -0.174 A  
HETATM   37  C   UNL     1      -8.574   3.899  64.057  1.00  0.00    -0.098 A  
HETATM   38  C   UNL     1      -8.037   5.020  64.697  1.00  0.00    -0.118 A  
ENDBRANCH  32  33
ENDBRANCH  31  32
ENDBRANCH  14  26
ENDBRANCH   3   6
TORSDOF 6
ENDMDL
MODEL       69
REMARK 921   NORMALIZED FREE ENERGY PREDICTED BY IDOCK:   -6.01 KCAL/MOL
REMARK 922        TOTAL FREE ENERGY PREDICTED BY IDOCK:   -8.42 KCAL/MOL
REMARK 923 INTER-LIGAND FREE ENERGY PREDICTED BY IDOCK:   -7.28 KCAL/MOL
REMARK 924 INTRA-LIGAND FREE ENERGY PREDICTED BY IDOCK:   -1.14 KCAL/MOL
REMARK 927      BINDING AFFINITY PREDICTED BY RF-SCORE:    0.00 PKD
ROOT
HETATM    1  N   UNL     1      -5.163  12.363  68.639  1.00  0.00    -0.054 N  
HETATM    2  H1  UNL     1      -5.268  13.129  69.304  1.00  0.00     0.000 HD 
HETATM    3  C   UNL     1      -6.259  11.938  67.940  1.00  0.00    -0.061 C  
HETATM    4  H2  UNL     1      -4.255  11.921  68.497  1.00  0.00     0.000 HD 
HETATM    5  O   UNL     1      -6.132  11.019  67.141  1.00  0.00    -0.060 OA 
ENDROOT
BRANCH   3   6
HETATM    6  C   UNL     1      -7.496  12.656  68.213  1.00  0.00    -0.123 A  
HETATM    7  C   UNL     1      -7.608  14.041  68.303  1.00  0.00    -0.135 A  
HETATM    8  N   UNL     1      -6.701  15.059  68.319  1.00  0.00    -0.104 NA 
HETATM    9  C   UNL     1      -7.152  16.345  68.855  1.00  0.00    -0.195 C  
HETATM   10  H   UNL     1      -5.750  14.929  67.973  1.00  0.00     0.000 HD 
HETATM   11  C   UNL     1      -8.454  16.731  68.167  1.00  0.00    -0.213 C  
HETATM   12  C   UNL     1      -9.549  15.635  68.303  1.00  0.00    -0.200 C  
HETATM   13  N   UNL     1      -8.949  14.302  68.347  1.00  0.00    -0.186 NA 
HETATM   14  C   UNL     1      -8.843  12.173  68.432  1.00  0.00    -0.143 A  
HETATM   15  N   UNL     1      -9.676  13.216  68.643  1.00  0.00    -0.122 NA 
BRANCH  12  16
HETATM   16  C   UNL     1     -10.734  15.855  67.278  1.00  0.00    -0.306 C  
HETATM   17  C   UNL     1     -10.334  16.004  65.799  1.00  0.00    -0.398 C  
HETATM   18  C   UNL     1      -9.871  14.673  65.232  1.00  0.00    -0.193 C  
HETATM   19  O   UNL     1      -9.976  12.639  63.466  1.00  0.00    -0.359 OA 
HETATM   20  N   UNL     1     -10.964  13.711  65.252  1.00  0.00    -0.300 N  
HETATM   21  C   UNL     1     -11.895  14.836  67.306  1.00  0.00    -0.316 C  
HETATM   22  C   UNL     1     -11.608  13.524  66.554  1.00  0.00    -0.359 C  
HETATM   23  C   UNL     1     -10.873  12.693  64.307  1.00  0.00    -0.379 C  
BRANCH  23  24
HETATM   24  C   UNL     1     -11.938  11.656  64.316  1.00  0.00    -0.182 C  
HETATM   25  C   UNL     1     -13.033  11.832  63.564  1.00  0.00    -0.215 C  
ENDBRANCH  23  24
ENDBRANCH  12  16
BRANCH  14  26
HETATM   26  C   UNL     1      -9.427  10.810  68.399  1.00  0.00    -0.174 A  
HETATM   27  C   UNL     1      -9.897  10.269  67.184  1.00  0.00    -0.228 A  
HETATM   28  C   UNL     1      -9.581  10.020  69.539  1.00  0.00    -0.249 A  
HETATM   29  C   UNL     1     -10.439   8.977  67.107  1.00  0.00    -0.333 A  
HETATM   30  C   UNL     1     -10.140   8.732  69.472  1.00  0.00    -0.202 A  
HETATM   31  C   UNL     1     -10.537   8.186  68.251  1.00  0.00    -0.098 A  
BRANCH  31  32
HETATM   32  O   UNL     1     -11.103   6.943  68.081  1.00  0.00    -0.175 OA 
BRANCH  32  33
HETATM   33  C   UNL     1     -10.329   5.841  67.783  1.00  0.00    -0.213 A  
HETATM   34  C   UNL     1     -10.426   5.338  66.482  1.00  0.00    -0.354 A  
HETATM   35  C   UNL     1      -9.673   4.224  66.099  1.00  0.00    -0.220 A  
HETATM   36  C   UNL     1      -8.818   3.614  67.015  1.00  0.00    -0.138 A  
HETATM   37  C   UNL     1      -8.683   4.142  68.298  1.00  0.00    -0.119 A  
HETATM   38  C   UNL     1      -9.415   5.273  68.672  1.00  0.00    -0.169 A  
ENDBRANCH  32  33
ENDBRANCH  31  32
ENDBRANCH  14  26
ENDBRANCH   3   6
TORSDOF 6
ENDMDL
MODEL       70
REMARK 921   NORMALIZED FREE ENERGY PREDICTED BY IDOCK:   -5.99 KCAL/MOL
REMARK 922        TOTAL FREE ENERGY PREDICTED BY IDOCK:   -8.39 KCAL/MOL
REMARK 923 INTER-LIGAND FREE ENERGY PREDICTED BY IDOCK:   -7.78 KCAL/MOL
REMARK 924 INTRA-LIGAND FREE ENERGY PREDICTED BY IDOCK:   -0.61 KCAL/MOL
REMARK 927      BINDING AFFINITY PREDICTED BY RF-SCORE:    0.00 PKD
ROOT
HETATM    1  N   UNL     1     -12.475  14.463  66.247  1.00  0.00    -0.433 N  
HETATM    2  H1  UNL     1     -12.928  13.556  66.141  1.00  0.00     0.000 HD 
HETATM    3  C   UNL     1     -11.648  14.668  67.317  1.00  0.00    -0.387 C  
HETATM    4  H2  UNL     1     -12.635  15.206  65.566  1.00  0.00     0.000 HD 
HETATM    5  O   UNL     1     -11.104  15.758  67.444  1.00  0.00    -0.311 OA 
ENDROOT
BRANCH   3   6
HETATM    6  C   UNL     1     -11.484  13.532  68.212  1.00  0.00    -0.345 A  
HETATM    7  C   UNL     1     -12.063  13.423  69.473  1.00  0.00    -0.278 A  
HETATM    8  N   UNL     1     -12.760  14.286  70.265  1.00  0.00    -0.430 NA 
HETATM    9  C   UNL     1     -12.838  13.966  71.693  1.00  0.00    -0.349 C  
HETATM   10  H   UNL     1     -13.208  15.118  69.881  1.00  0.00     0.000 HD 
HETATM   11  C   UNL     1     -13.302  12.525  71.846  1.00  0.00    -0.467 C  
HETATM   12  C   UNL     1     -12.396  11.520  71.079  1.00  0.00    -0.329 C  
HETATM   13  N   UNL     1     -11.843  12.134  69.872  1.00  0.00    -0.333 NA 
HETATM   14  C   UNL     1     -10.750  12.295  68.047  1.00  0.00    -0.218 A  
HETATM   15  N   UNL     1     -10.892  11.526  69.149  1.00  0.00    -0.214 NA 
BRANCH  12  16
HETATM   16  C   UNL     1     -13.088  10.108  70.913  1.00  0.00    -0.412 C  
HETATM   17  C   UNL     1     -12.371   9.105  69.992  1.00  0.00     0.712 C  
HETATM   18  C   UNL     1     -11.100   8.590  70.645  1.00  0.00    -0.252 C  
HETATM   19  O   UNL     1      -9.484   6.638  71.566  1.00  0.00    -0.158 OA 
HETATM   20  N   UNL     1     -11.422   7.852  71.859  1.00  0.00    -0.266 N  
HETATM   21  C   UNL     1     -13.434   9.330  72.203  1.00  0.00    -0.539 C  
HETATM   22  C   UNL     1     -12.248   8.575  72.829  1.00  0.00    -0.070 C  
HETATM   23  C   UNL     1     -10.482   6.898  72.238  1.00  0.00    -0.207 C  
BRANCH  23  24
HETATM   24  C   UNL     1     -10.739   6.149  73.496  1.00  0.00    -0.263 C  
HETATM   25  C   UNL     1      -9.942   6.348  74.555  1.00  0.00    -0.370 C  
ENDBRANCH  23  24
ENDBRANCH  12  16
BRANCH  14  26
HETATM   26  C   UNL     1      -9.973  11.745  66.910  1.00  0.00    -0.220 A  
HETATM   27  C   UNL     1     -10.604  11.497  65.673  1.00  0.00    -0.326 A  
HETATM   28  C   UNL     1      -8.620  11.412  67.003  1.00  0.00    -0.157 A  
HETATM   29  C   UNL     1      -9.899  10.995  64.568  1.00  0.00    -0.343 A  
HETATM   30  C   UNL     1      -7.913  10.891  65.905  1.00  0.00    -0.105 A  
HETATM   31  C   UNL     1      -8.537  10.715  64.669  1.00  0.00    -0.120 A  
BRANCH  31  32
HETATM   32  O   UNL     1      -7.938  10.205  63.541  1.00  0.00    -0.155 OA 
BRANCH  32  33
HETATM   33  C   UNL     1      -7.624   8.866  63.442  1.00  0.00    -0.110 A  
HETATM   34  C   UNL     1      -6.628   8.387  64.298  1.00  0.00    -0.067 A  
HETATM   35  C   UNL     1      -6.254   7.041  64.262  1.00  0.00    -0.036 A  
HETATM   36  C   UNL     1      -6.879   6.169  63.372  1.00  0.00    -0.044 A  
HETATM   37  C   UNL     1      -7.905   6.632  62.550  1.00  0.00    -0.104 A  
HETATM   38  C   UNL     1      -8.299   7.972  62.607  1.00  0.00    -0.077 A  
ENDBRANCH  32  33
ENDBRANCH  31  32
ENDBRANCH  14  26
ENDBRANCH   3   6
TORSDOF 6
ENDMDL
MODEL       71
REMARK 921   NORMALIZED FREE ENERGY PREDICTED BY IDOCK:   -5.98 KCAL/MOL
REMARK 922        TOTAL FREE ENERGY PREDICTED BY IDOCK:   -8.38 KCAL/MOL
REMARK 923 INTER-LIGAND FREE ENERGY PREDICTED BY IDOCK:   -7.88 KCAL/MOL
REMARK 924 INTRA-LIGAND FREE ENERGY PREDICTED BY IDOCK:   -0.50 KCAL/MOL
REMARK 927      BINDING AFFINITY PREDICTED BY RF-SCORE:    0.00 PKD
ROOT
HETATM    1  N   UNL     1      -6.342  10.082  67.853  1.00  0.00    -0.058 N  
HETATM    2  H1  UNL     1      -6.149   9.546  68.699  1.00  0.00     0.000 HD 
HETATM    3  C   UNL     1      -7.610  10.076  67.341  1.00  0.00    -0.091 C  
HETATM    4  H2  UNL     1      -5.601  10.613  67.396  1.00  0.00     0.000 HD 
HETATM    5  O   UNL     1      -7.840  10.720  66.325  1.00  0.00    -0.147 OA 
ENDROOT
BRANCH   3   6
HETATM    6  C   UNL     1      -8.587   9.296  68.087  1.00  0.00    -0.125 A  
HETATM    7  C   UNL     1      -8.469   7.939  68.372  1.00  0.00    -0.128 A  
HETATM    8  N   UNL     1      -7.599   6.967  67.976  1.00  0.00    -0.105 NA 
HETATM    9  C   UNL     1      -8.035   5.577  68.134  1.00  0.00    -0.096 C  
HETATM   10  H   UNL     1      -6.685   7.197  67.586  1.00  0.00     0.000 HD 
HETATM   11  C   UNL     1      -8.525   5.378  69.561  1.00  0.00    -0.100 C  
HETATM   12  C   UNL     1      -9.646   6.382  69.953  1.00  0.00    -0.153 C  
HETATM   13  N   UNL     1      -9.467   7.659  69.263  1.00  0.00    -0.158 NA 
HETATM   14  C   UNL     1      -9.837   9.685  68.704  1.00  0.00    -0.161 A  
HETATM   15  N   UNL     1     -10.407   8.614  69.300  1.00  0.00    -0.219 NA 
BRANCH  12  16
HETATM   16  C   UNL     1      -9.869   6.436  71.518  1.00  0.00    -0.186 C  
HETATM   17  C   UNL     1     -10.784   5.349  72.111  1.00  0.00    -0.286 C  
HETATM   18  C   UNL     1     -10.094   3.997  72.090  1.00  0.00    -0.163 C  
HETATM   19  O   UNL     1      -9.154   1.753  73.251  1.00  0.00    -0.065 OA 
HETATM   20  N   UNL     1      -8.910   4.023  72.937  1.00  0.00    -0.099 N  
HETATM   21  C   UNL     1      -8.611   6.471  72.414  1.00  0.00    -0.119 C  
HETATM   22  C   UNL     1      -7.957   5.097  72.646  1.00  0.00    -0.102 C  
HETATM   23  C   UNL     1      -8.516   2.788  73.442  1.00  0.00    -0.075 C  
BRANCH  23  24
HETATM   24  C   UNL     1      -7.285   2.751  74.275  1.00  0.00    -0.042 C  
HETATM   25  C   UNL     1      -6.661   1.583  74.477  1.00  0.00    -0.020 C  
ENDBRANCH  23  24
ENDBRANCH  12  16
BRANCH  14  26
HETATM   26  C   UNL     1     -10.515  10.997  68.835  1.00  0.00    -0.229 A  
HETATM   27  C   UNL     1     -11.425  11.223  69.888  1.00  0.00    -0.373 A  
HETATM   28  C   UNL     1     -10.331  12.043  67.928  1.00  0.00    -0.209 A  
HETATM   29  C   UNL     1     -12.073  12.458  70.057  1.00  0.00    -0.335 A  
HETATM   30  C   UNL     1     -10.991  13.274  68.082  1.00  0.00    -0.278 A  
HETATM   31  C   UNL     1     -11.836  13.504  69.167  1.00  0.00    -0.340 A  
BRANCH  31  32
HETATM   32  O   UNL     1     -12.534  14.667  69.400  1.00  0.00    -0.209 OA 
BRANCH  32  33
HETATM   33  C   UNL     1     -12.703  15.154  70.679  1.00  0.00    -0.398 A  
HETATM   34  C   UNL     1     -13.971  15.006  71.247  1.00  0.00    -0.525 A  
HETATM   35  C   UNL     1     -14.224  15.472  72.541  1.00  0.00    -0.502 A  
HETATM   36  C   UNL     1     -13.206  16.083  73.271  1.00  0.00    -0.651 A  
HETATM   37  C   UNL     1     -11.928  16.190  72.726  1.00  0.00    -0.638 A  
HETATM   38  C   UNL     1     -11.668  15.698  71.444  1.00  0.00    -0.491 A  
ENDBRANCH  32  33
ENDBRANCH  31  32
ENDBRANCH  14  26
ENDBRANCH   3   6
TORSDOF 6
ENDMDL
MODEL       72
REMARK 921   NORMALIZED FREE ENERGY PREDICTED BY IDOCK:   -5.97 KCAL/MOL
REMARK 922        TOTAL FREE ENERGY PREDICTED BY IDOCK:   -8.37 KCAL/MOL
REMARK 923 INTER-LIGAND FREE ENERGY PREDICTED BY IDOCK:   -7.45 KCAL/MOL
REMARK 924 INTRA-LIGAND FREE ENERGY PREDICTED BY IDOCK:   -0.92 KCAL/MOL
REMARK 927      BINDING AFFINITY PREDICTED BY RF-SCORE:    0.00 PKD
ROOT
HETATM    1  N   UNL     1      -6.532  10.924  65.246  1.00  0.00    -0.369 N  
HETATM    2  H1  UNL     1      -6.611  11.937  65.154  1.00  0.00     0.000 HD 
HETATM    3  C   UNL     1      -6.852  10.341  66.441  1.00  0.00    -0.106 C  
HETATM    4  H2  UNL     1      -6.219  10.356  64.460  1.00  0.00     0.000 HD 
HETATM    5  O   UNL     1      -6.757   9.125  66.551  1.00  0.00    -0.073 OA 
ENDROOT
BRANCH   3   6
HETATM    6  C   UNL     1      -7.302  11.252  67.484  1.00  0.00    -0.105 A  
HETATM    7  C   UNL     1      -6.877  12.570  67.626  1.00  0.00    -0.136 A  
HETATM    8  N   UNL     1      -5.912  13.317  67.019  1.00  0.00    -0.361 NA 
HETATM    9  C   UNL     1      -5.466  14.525  67.718  1.00  0.00    -0.013 C  
HETATM   10  H   UNL     1      -5.518  13.047  66.118  1.00  0.00     0.000 HD 
HETATM   11  C   UNL     1      -6.688  15.347  68.102  1.00  0.00    -0.138 C  
HETATM   12  C   UNL     1      -7.711  14.537  68.948  1.00  0.00    -0.132 C  
HETATM   13  N   UNL     1      -7.694  13.123  68.572  1.00  0.00    -0.132 NA 
HETATM   14  C   UNL     1      -8.249  11.063  68.563  1.00  0.00    -0.146 A  
HETATM   15  N   UNL     1      -8.356  12.201  69.284  1.00  0.00     0.527 NA 
BRANCH  12  16
HETATM   16  C   UNL     1      -9.123  15.248  69.006  1.00  0.00    -0.225 C  
HETATM   17  C   UNL     1      -9.426  16.247  67.875  1.00  0.00    -0.218 C  
HETATM   18  C   UNL     1      -9.663  15.518  66.565  1.00  0.00    -0.270 C  
HETATM   19  O   UNL     1     -11.125  14.883  64.390  1.00  0.00    -0.263 OA 
HETATM   20  N   UNL     1     -10.840  14.667  66.668  1.00  0.00    -0.306 N  
HETATM   21  C   UNL     1     -10.369  14.342  69.122  1.00  0.00    -0.164 C  
HETATM   22  C   UNL     1     -10.835  13.727  67.790  1.00  0.00    -0.250 C  
HETATM   23  C   UNL     1     -11.479  14.392  65.462  1.00  0.00    -0.340 C  
BRANCH  23  24
HETATM   24  C   UNL     1     -12.659  13.489  65.505  1.00  0.00    -0.531 C  
HETATM   25  C   UNL     1     -12.750  12.483  64.625  1.00  0.00    -0.434 C  
ENDBRANCH  23  24
ENDBRANCH  12  16
BRANCH  14  26
HETATM   26  C   UNL     1      -9.113   9.918  68.937  1.00  0.00    -0.156 A  
HETATM   27  C   UNL     1      -9.346   9.619  70.296  1.00  0.00    -0.292 A  
HETATM   28  C   UNL     1      -9.699   9.066  67.998  1.00  0.00    -0.179 A  
HETATM   29  C   UNL     1     -10.172   8.555  70.691  1.00  0.00    -0.230 A  
HETATM   30  C   UNL     1     -10.512   7.988  68.388  1.00  0.00    -0.205 A  
HETATM   31  C   UNL     1     -10.786   7.748  69.735  1.00  0.00    -0.236 A  
BRANCH  31  32
HETATM   32  O   UNL     1     -11.558   6.716  70.217  1.00  0.00    -0.370 OA 
BRANCH  32  33
HETATM   33  C   UNL     1     -11.016   5.732  71.016  1.00  0.00    -0.230 A  
HETATM   34  C   UNL     1     -10.041   4.915  70.436  1.00  0.00    -0.316 A  
HETATM   35  C   UNL     1      -9.441   3.895  71.180  1.00  0.00    -0.233 A  
HETATM   36  C   UNL     1      -9.812   3.692  72.509  1.00  0.00    -0.218 A  
HETATM   37  C   UNL     1     -10.749   4.535  73.104  1.00  0.00    -0.308 A  
HETATM   38  C   UNL     1     -11.328   5.573  72.368  1.00  0.00    -0.294 A  
ENDBRANCH  32  33
ENDBRANCH  31  32
ENDBRANCH  14  26
ENDBRANCH   3   6
TORSDOF 6
ENDMDL
MODEL       73
REMARK 921   NORMALIZED FREE ENERGY PREDICTED BY IDOCK:   -5.95 KCAL/MOL
REMARK 922        TOTAL FREE ENERGY PREDICTED BY IDOCK:   -8.33 KCAL/MOL
REMARK 923 INTER-LIGAND FREE ENERGY PREDICTED BY IDOCK:   -7.53 KCAL/MOL
REMARK 924 INTRA-LIGAND FREE ENERGY PREDICTED BY IDOCK:   -0.81 KCAL/MOL
REMARK 927      BINDING AFFINITY PREDICTED BY RF-SCORE:    0.00 PKD
ROOT
HETATM    1  N   UNL     1     -12.032   6.297  71.917  1.00  0.00    -0.320 N  
HETATM    2  H1  UNL     1     -11.531   5.626  71.336  1.00  0.00     0.000 HD 
HETATM    3  C   UNL     1     -11.446   7.503  72.189  1.00  0.00    -0.291 C  
HETATM    4  H2  UNL     1     -12.954   6.074  72.289  1.00  0.00     0.000 HD 
HETATM    5  O   UNL     1     -12.048   8.309  72.886  1.00  0.00    -0.290 OA 
ENDROOT
BRANCH   3   6
HETATM    6  C   UNL     1     -10.136   7.715  71.590  1.00  0.00    -0.212 A  
HETATM    7  C   UNL     1      -9.035   6.882  71.772  1.00  0.00    -0.138 A  
HETATM    8  N   UNL     1      -8.788   5.814  72.582  1.00  0.00    -0.126 NA 
HETATM    9  C   UNL     1      -7.384   5.461  72.809  1.00  0.00    -0.095 C  
HETATM   10  H   UNL     1      -9.546   5.285  73.011  1.00  0.00     0.000 HD 
HETATM   11  C   UNL     1      -6.685   5.349  71.461  1.00  0.00    -0.056 C  
HETATM   12  C   UNL     1      -6.822   6.641  70.608  1.00  0.00    -0.062 C  
HETATM   13  N   UNL     1      -8.096   7.310  70.876  1.00  0.00    -0.105 NA 
HETATM   14  C   UNL     1      -9.657   8.752  70.701  1.00  0.00    -0.199 A  
HETATM   15  N   UNL     1      -8.359   8.533  70.397  1.00  0.00    -0.117 NA 
BRANCH  12  16
HETATM   16  C   UNL     1      -6.449   6.389  69.091  1.00  0.00    -0.043 C  
HETATM   17  C   UNL     1      -7.502   5.649  68.247  1.00  0.00    -0.077 C  
HETATM   18  C   UNL     1      -8.698   6.545  67.976  1.00  0.00    -0.116 C  
HETATM   19  O   UNL     1     -10.443   7.811  66.356  1.00  0.00    -0.116 OA 
HETATM   20  N   UNL     1      -8.294   7.697  67.183  1.00  0.00    -0.120 N  
HETATM   21  C   UNL     1      -6.014   7.613  68.254  1.00  0.00    -0.036 C  
HETATM   22  C   UNL     1      -7.179   8.473  67.731  1.00  0.00    -0.084 C  
HETATM   23  C   UNL     1      -9.305   8.274  66.419  1.00  0.00    -0.213 C  
BRANCH  23  24
HETATM   24  C   UNL     1      -8.957   9.483  65.627  1.00  0.00    -0.224 C  
HETATM   25  C   UNL     1      -9.902  10.083  64.892  1.00  0.00    -0.352 C  
ENDBRANCH  23  24
ENDBRANCH  12  16
BRANCH  14  26
HETATM   26  C   UNL     1     -10.338   9.904  70.061  1.00  0.00    -0.320 A  
HETATM   27  C   UNL     1      -9.719  10.591  68.996  1.00  0.00    -0.221 A  
HETATM   28  C   UNL     1     -11.577  10.388  70.485  1.00  0.00    -0.433 A  
HETATM   29  C   UNL     1     -10.339  11.673  68.351  1.00  0.00    -0.215 A  
HETATM   30  C   UNL     1     -12.193  11.484  69.856  1.00  0.00    -0.328 A  
HETATM   31  C   UNL     1     -11.597  12.109  68.760  1.00  0.00    -0.327 A  
BRANCH  31  32
HETATM   32  O   UNL     1     -12.114  13.191  68.084  1.00  0.00    -0.319 OA 
BRANCH  32  33
HETATM   33  C   UNL     1     -11.584  14.453  68.247  1.00  0.00    -0.328 A  
HETATM   34  C   UNL     1     -11.013  15.047  67.117  1.00  0.00    -0.329 A  
HETATM   35  C   UNL     1     -10.456  16.326  67.198  1.00  0.00    -0.297 A  
HETATM   36  C   UNL     1     -10.472  17.017  68.409  1.00  0.00    -0.370 A  
HETATM   37  C   UNL     1     -11.083  16.448  69.525  1.00  0.00    -0.293 A  
HETATM   38  C   UNL     1     -11.666  15.181  69.436  1.00  0.00    -0.355 A  
ENDBRANCH  32  33
ENDBRANCH  31  32
ENDBRANCH  14  26
ENDBRANCH   3   6
TORSDOF 6
ENDMDL
MODEL       74
REMARK 921   NORMALIZED FREE ENERGY PREDICTED BY IDOCK:   -5.94 KCAL/MOL
REMARK 922        TOTAL FREE ENERGY PREDICTED BY IDOCK:   -8.33 KCAL/MOL
REMARK 923 INTER-LIGAND FREE ENERGY PREDICTED BY IDOCK:   -7.44 KCAL/MOL
REMARK 924 INTRA-LIGAND FREE ENERGY PREDICTED BY IDOCK:   -0.89 KCAL/MOL
REMARK 927      BINDING AFFINITY PREDICTED BY RF-SCORE:    0.00 PKD
ROOT
HETATM    1  N   UNL     1      -9.381   5.722  65.341  1.00  0.00    -0.363 N  
HETATM    2  H1  UNL     1      -8.758   6.444  64.980  1.00  0.00     0.000 HD 
HETATM    3  C   UNL     1     -10.225   6.031  66.372  1.00  0.00    -0.076 C  
HETATM    4  H2  UNL     1      -9.376   4.785  64.939  1.00  0.00     0.000 HD 
HETATM    5  O   UNL     1     -10.973   5.163  66.805  1.00  0.00    -0.093 OA 
ENDROOT
BRANCH   3   6
HETATM    6  C   UNL     1     -10.155   7.403  66.852  1.00  0.00    -0.327 A  
HETATM    7  C   UNL     1      -9.882   8.511  66.054  1.00  0.00    -0.065 A  
HETATM    8  N   UNL     1      -9.489   8.662  64.758  1.00  0.00    -0.017 NA 
HETATM    9  C   UNL     1      -8.887   9.946  64.389  1.00  0.00    -0.217 C  
HETATM   10  H   UNL     1      -9.607   7.914  64.075  1.00  0.00     0.000 HD 
HETATM   11  C   UNL     1      -9.805  11.067  64.857  1.00  0.00    -0.327 C  
HETATM   12  C   UNL     1     -10.112  10.991  66.380  1.00  0.00    -0.229 C  
HETATM   13  N   UNL     1     -10.128   9.602  66.839  1.00  0.00    -0.212 NA 
HETATM   14  C   UNL     1     -10.349   7.955  68.176  1.00  0.00    -0.200 A  
HETATM   15  N   UNL     1     -10.191   9.296  68.143  1.00  0.00    -0.195 NA 
BRANCH  12  16
HETATM   16  C   UNL     1     -11.348  11.894  66.778  1.00  0.00    -0.393 C  
HETATM   17  C   UNL     1     -11.394  12.374  68.240  1.00  0.00    -0.332 C  
HETATM   18  C   UNL     1     -10.332  13.430  68.492  1.00  0.00    -0.236 C  
HETATM   19  O   UNL     1      -9.499  15.874  69.266  1.00  0.00    -0.235 OA 
HETATM   20  N   UNL     1     -10.592  14.609  67.679  1.00  0.00    -0.254 N  
HETATM   21  C   UNL     1     -11.626  13.141  65.910  1.00  0.00    -0.391 C  
HETATM   22  C   UNL     1     -10.745  14.358  66.244  1.00  0.00    -0.307 C  
HETATM   23  C   UNL     1     -10.075  15.800  68.181  1.00  0.00    -0.220 C  
BRANCH  23  24
HETATM   24  C   UNL     1     -10.272  17.027  67.366  1.00  0.00    -0.314 C  
HETATM   25  C   UNL     1     -10.138  18.229  67.943  1.00  0.00    -0.376 C  
ENDBRANCH  23  24
ENDBRANCH  12  16
BRANCH  14  26
HETATM   26  C   UNL     1     -10.734   7.331  69.465  1.00  0.00    -0.244 A  
HETATM   27  C   UNL     1     -10.147   6.114  69.868  1.00  0.00    -0.227 A  
HETATM   28  C   UNL     1     -11.701   7.873  70.315  1.00  0.00     0.063 A  
HETATM   29  C   UNL     1     -10.471   5.502  71.089  1.00  0.00    -0.304 A  
HETATM   30  C   UNL     1     -12.043   7.255  71.530  1.00  0.00    -0.365 A  
HETATM   31  C   UNL     1     -11.403   6.086  71.944  1.00  0.00    -0.279 A  
BRANCH  31  32
HETATM   32  O   UNL     1     -11.673   5.402  73.107  1.00  0.00    -0.233 OA 
BRANCH  32  33
HETATM   33  C   UNL     1     -11.230   4.109  73.293  1.00  0.00    -0.209 A  
HETATM   34  C   UNL     1      -9.923   3.953  73.765  1.00  0.00    -0.165 A  
HETATM   35  C   UNL     1      -9.399   2.675  73.982  1.00  0.00    -0.097 A  
HETATM   36  C   UNL     1     -10.183   1.550  73.731  1.00  0.00    -0.138 A  
HETATM   37  C   UNL     1     -11.502   1.703  73.307  1.00  0.00    -0.268 A  
HETATM   38  C   UNL     1     -12.034   2.982  73.118  1.00  0.00     0.400 A  
ENDBRANCH  32  33
ENDBRANCH  31  32
ENDBRANCH  14  26
ENDBRANCH   3   6
TORSDOF 6
ENDMDL
MODEL       75
REMARK 921   NORMALIZED FREE ENERGY PREDICTED BY IDOCK:   -5.93 KCAL/MOL
REMARK 922        TOTAL FREE ENERGY PREDICTED BY IDOCK:   -8.32 KCAL/MOL
REMARK 923 INTER-LIGAND FREE ENERGY PREDICTED BY IDOCK:   -8.03 KCAL/MOL
REMARK 924 INTRA-LIGAND FREE ENERGY PREDICTED BY IDOCK:   -0.29 KCAL/MOL
REMARK 927      BINDING AFFINITY PREDICTED BY RF-SCORE:    0.00 PKD
ROOT
HETATM    1  N   UNL     1      -8.206  10.580  63.747  1.00  0.00    -0.306 N  
HETATM    2  H1  UNL     1      -7.716  10.399  64.624  1.00  0.00     0.000 HD 
HETATM    3  C   UNL     1      -9.545  10.854  63.782  1.00  0.00    -0.292 C  
HETATM    4  H2  UNL     1      -7.704  10.557  62.860  1.00  0.00     0.000 HD 
HETATM    5  O   UNL     1     -10.132  11.071  62.729  1.00  0.00    -0.230 OA 
ENDROOT
BRANCH   3   6
HETATM    6  C   UNL     1     -10.149  10.875  65.106  1.00  0.00    -0.352 A  
HETATM    7  C   UNL     1     -10.262   9.770  65.945  1.00  0.00    -0.174 A  
HETATM    8  N   UNL     1     -10.023   8.438  65.784  1.00  0.00    -0.344 NA 
HETATM    9  C   UNL     1     -10.659   7.526  66.737  1.00  0.00    -0.198 C  
HETATM   10  H   UNL     1      -9.427   8.092  65.032  1.00  0.00     0.000 HD 
HETATM   11  C   UNL     1     -10.358   8.008  68.149  1.00  0.00    -0.250 C  
HETATM   12  C   UNL     1     -10.795   9.481  68.383  1.00  0.00    -0.137 C  
HETATM   13  N   UNL     1     -10.675  10.262  67.152  1.00  0.00    -0.257 NA 
HETATM   14  C   UNL     1     -10.734  11.961  65.863  1.00  0.00    -0.284 A  
HETATM   15  N   UNL     1     -11.164  11.507  67.061  1.00  0.00    -0.320 NA 
BRANCH  12  16
HETATM   16  C   UNL     1     -10.139  10.092  69.687  1.00  0.00    -0.265 C  
HETATM   17  C   UNL     1      -8.946   9.316  70.273  1.00  0.00    -0.261 C  
HETATM   18  C   UNL     1      -7.721   9.466  69.387  1.00  0.00    -0.085 C  
HETATM   19  O   UNL     1      -5.153  10.140  68.919  1.00  0.00    -0.036 OA 
HETATM   20  N   UNL     1      -7.302  10.859  69.339  1.00  0.00    -0.128 N  
HETATM   21  C   UNL     1      -9.702  11.573  69.635  1.00  0.00     0.883 C  
HETATM   22  C   UNL     1      -8.344  11.812  68.949  1.00  0.00     0.078 C  
HETATM   23  C   UNL     1      -5.955  11.063  69.054  1.00  0.00    -0.041 C  
BRANCH  23  24
HETATM   24  C   UNL     1      -5.485  12.469  68.946  1.00  0.00    -0.062 C  
HETATM   25  C   UNL     1      -5.409  13.047  67.740  1.00  0.00    -0.111 C  
ENDBRANCH  23  24
ENDBRANCH  12  16
BRANCH  14  26
HETATM   26  C   UNL     1     -10.868  13.410  65.579  1.00  0.00    -0.299 A  
HETATM   27  C   UNL     1      -9.874  14.313  66.012  1.00  0.00    -0.336 A  
HETATM   28  C   UNL     1     -11.971  13.959  64.923  1.00  0.00    -0.412 A  
HETATM   29  C   UNL     1      -9.955  15.689  65.746  1.00  0.00    -0.390 A  
HETATM   30  C   UNL     1     -12.067  15.339  64.671  1.00  0.00    -0.190 A  
HETATM   31  C   UNL     1     -11.042  16.208  65.046  1.00  0.00    -0.294 A  
BRANCH  31  32
HETATM   32  O   UNL     1     -11.045  17.571  64.854  1.00  0.00    -0.860 OA 
BRANCH  32  33
HETATM   33  C   UNL     1     -10.645  18.433  65.853  1.00  0.00    -0.285 A  
HETATM   34  C   UNL     1     -10.734  17.961  67.166  1.00  0.00    -0.241 A  
HETATM   35  C   UNL     1     -10.346  18.773  68.235  1.00  0.00    -0.391 A  
HETATM   36  C   UNL     1      -9.865  20.059  67.994  1.00  0.00    -0.522 A  
HETATM   37  C   UNL     1      -9.731  20.516  66.684  1.00  0.00    -0.407 A  
HETATM   38  C   UNL     1     -10.092  19.692  65.614  1.00  0.00    -0.225 A  
ENDBRANCH  32  33
ENDBRANCH  31  32
ENDBRANCH  14  26
ENDBRANCH   3   6
TORSDOF 6
ENDMDL
MODEL       76
REMARK 921   NORMALIZED FREE ENERGY PREDICTED BY IDOCK:   -5.90 KCAL/MOL
REMARK 922        TOTAL FREE ENERGY PREDICTED BY IDOCK:   -8.28 KCAL/MOL
REMARK 923 INTER-LIGAND FREE ENERGY PREDICTED BY IDOCK:   -7.61 KCAL/MOL
REMARK 924 INTRA-LIGAND FREE ENERGY PREDICTED BY IDOCK:   -0.67 KCAL/MOL
REMARK 927      BINDING AFFINITY PREDICTED BY RF-SCORE:    0.00 PKD
ROOT
HETATM    1  N   UNL     1      -7.351  10.465  66.711  1.00  0.00    -0.105 N  
HETATM    2  H1  UNL     1      -7.148  10.073  67.630  1.00  0.00     0.000 HD 
HETATM    3  C   UNL     1      -8.654  10.680  66.356  1.00  0.00    -0.149 C  
HETATM    4  H2  UNL     1      -6.594  10.694  66.067  1.00  0.00     0.000 HD 
HETATM    5  O   UNL     1      -8.896  11.152  65.252  1.00  0.00    -0.171 OA 
ENDROOT
BRANCH   3   6
HETATM    6  C   UNL     1      -9.646  10.331  67.363  1.00  0.00    -0.183 A  
HETATM    7  C   UNL     1     -10.065   9.034  67.649  1.00  0.00    -0.216 A  
HETATM    8  N   UNL     1      -9.841   7.823  67.065  1.00  0.00    -0.197 NA 
HETATM    9  C   UNL     1     -10.783   6.747  67.379  1.00  0.00    -0.335 C  
HETATM   10  H   UNL     1      -9.052   7.673  66.436  1.00  0.00     0.000 HD 
HETATM   11  C   UNL     1     -10.927   6.650  68.891  1.00  0.00    -0.325 C  
HETATM   12  C   UNL     1     -11.356   7.998  69.538  1.00  0.00     0.279 C  
HETATM   13  N   UNL     1     -10.819   9.131  68.784  1.00  0.00    -0.123 NA 
HETATM   14  C   UNL     1     -10.396  11.161  68.281  1.00  0.00    -0.180 A  
HETATM   15  N   UNL     1     -11.203  10.389  69.043  1.00  0.00    -0.238 NA 
BRANCH  12  16
HETATM   16  C   UNL     1     -11.124   8.002  71.103  1.00  0.00    -0.278 C  
HETATM   17  C   UNL     1     -10.694   6.662  71.728  1.00  0.00    -0.257 C  
HETATM   18  C   UNL     1      -9.262   6.328  71.350  1.00  0.00    -0.149 C  
HETATM   19  O   UNL     1      -6.697   5.723  71.921  1.00  0.00    -0.056 OA 
HETATM   20  N   UNL     1      -8.352   7.327  71.892  1.00  0.00    -0.107 N  
HETATM   21  C   UNL     1     -10.163   9.067  71.676  1.00  0.00    -0.418 C  
HETATM   22  C   UNL     1      -8.670   8.715  71.546  1.00  0.00    -0.202 C  
HETATM   23  C   UNL     1      -7.049   6.888  72.106  1.00  0.00    -0.074 C  
BRANCH  23  24
HETATM   24  C   UNL     1      -6.068   7.882  72.614  1.00  0.00    -0.052 C  
HETATM   25  C   UNL     1      -5.132   8.366  71.786  1.00  0.00    -0.034 C  
ENDBRANCH  23  24
ENDBRANCH  12  16
BRANCH  14  26
HETATM   26  C   UNL     1     -10.374  12.619  68.547  1.00  0.00    -0.232 A  
HETATM   27  C   UNL     1     -11.474  13.243  69.172  1.00  0.00    -0.357 A  
HETATM   28  C   UNL     1      -9.314  13.446  68.171  1.00  0.00    -0.217 A  
HETATM   29  C   UNL     1     -11.484  14.618  69.458  1.00  0.00    -0.334 A  
HETATM   30  C   UNL     1      -9.326  14.826  68.438  1.00  0.00    -0.197 A  
HETATM   31  C   UNL     1     -10.393  15.415  69.117  1.00  0.00    -0.240 A  
BRANCH  31  32
HETATM   32  O   UNL     1     -10.503  16.754  69.416  1.00  0.00    -0.321 OA 
BRANCH  32  33
HETATM   33  C   UNL     1      -9.994  17.718  68.572  1.00  0.00    -0.370 A  
HETATM   34  C   UNL     1     -10.853  18.208  67.585  1.00  0.00    -0.260 A  
HETATM   35  C   UNL     1     -10.414  19.189  66.691  1.00  0.00    -0.529 A  
HETATM   36  C   UNL     1      -9.115  19.685  66.785  1.00  0.00    -0.424 A  
HETATM   37  C   UNL     1      -8.271  19.233  67.798  1.00  0.00    -0.322 A  
HETATM   38  C   UNL     1      -8.720  18.273  68.710  1.00  0.00    -0.238 A  
ENDBRANCH  32  33
ENDBRANCH  31  32
ENDBRANCH  14  26
ENDBRANCH   3   6
TORSDOF 6
ENDMDL
MODEL       77
REMARK 921   NORMALIZED FREE ENERGY PREDICTED BY IDOCK:   -5.90 KCAL/MOL
REMARK 922        TOTAL FREE ENERGY PREDICTED BY IDOCK:   -8.28 KCAL/MOL
REMARK 923 INTER-LIGAND FREE ENERGY PREDICTED BY IDOCK:   -7.49 KCAL/MOL
REMARK 924 INTRA-LIGAND FREE ENERGY PREDICTED BY IDOCK:   -0.79 KCAL/MOL
REMARK 927      BINDING AFFINITY PREDICTED BY RF-SCORE:    0.00 PKD
ROOT
HETATM    1  N   UNL     1      -7.543  14.335  69.570  1.00  0.00    -0.362 N  
HETATM    2  H1  UNL     1      -8.346  14.854  69.925  1.00  0.00     0.000 HD 
HETATM    3  C   UNL     1      -7.733  13.429  68.563  1.00  0.00    -0.124 C  
HETATM    4  H2  UNL     1      -6.613  14.491  69.959  1.00  0.00     0.000 HD 
HETATM    5  O   UNL     1      -6.768  12.807  68.138  1.00  0.00    -0.073 OA 
ENDROOT
BRANCH   3   6
HETATM    6  C   UNL     1      -9.100  13.306  68.077  1.00  0.00    -0.202 A  
HETATM    7  C   UNL     1      -9.672  14.120  67.103  1.00  0.00    -0.248 A  
HETATM    8  N   UNL     1      -9.264  15.253  66.465  1.00  0.00    -0.269 NA 
HETATM    9  C   UNL     1     -10.299  16.066  65.821  1.00  0.00    -0.378 C  
HETATM   10  H   UNL     1      -8.280  15.523  66.437  1.00  0.00     0.000 HD 
HETATM   11  C   UNL     1     -11.144  15.166  64.932  1.00  0.00    -0.425 C  
HETATM   12  C   UNL     1     -11.755  13.964  65.708  1.00  0.00    -0.359 C  
HETATM   13  N   UNL     1     -10.867  13.536  66.789  1.00  0.00    -0.281 NA 
HETATM   14  C   UNL     1     -10.150  12.374  68.427  1.00  0.00    -0.217 A  
HETATM   15  N   UNL     1     -11.260  12.640  67.705  1.00  0.00    -0.266 NA 
BRANCH  12  16
HETATM   16  C   UNL     1     -12.290  12.841  64.730  1.00  0.00    -0.540 C  
HETATM   17  C   UNL     1     -11.753  12.886  63.288  1.00  0.00    -0.408 C  
HETATM   18  C   UNL     1     -10.296  12.462  63.244  1.00  0.00    -0.113 C  
HETATM   19  O   UNL     1      -8.259  10.921  62.381  1.00  0.00    -0.214 OA 
HETATM   20  N   UNL     1     -10.161  11.077  63.673  1.00  0.00    -0.358 N  
HETATM   21  C   UNL     1     -12.152  11.373  65.191  1.00  0.00     0.813 C  
HETATM   22  C   UNL     1     -10.753  10.767  64.977  1.00  0.00    -0.090 C  
HETATM   23  C   UNL     1      -9.044  10.410  63.179  1.00  0.00    -0.261 C  
BRANCH  23  24
HETATM   24  C   UNL     1      -8.834   9.008  63.625  1.00  0.00    -0.016 C  
HETATM   25  C   UNL     1      -7.623   8.449  63.493  1.00  0.00    -0.133 C  
ENDBRANCH  23  24
ENDBRANCH  12  16
BRANCH  14  26
HETATM   26  C   UNL     1     -10.178  11.209  69.344  1.00  0.00    -0.041 A  
HETATM   27  C   UNL     1      -9.082  10.322  69.399  1.00  0.00    -0.203 A  
HETATM   28  C   UNL     1     -11.273  10.904  70.155  1.00  0.00    -0.317 A  
HETATM   29  C   UNL     1      -9.063   9.219  70.267  1.00  0.00    -0.271 A  
HETATM   30  C   UNL     1     -11.267   9.791  71.012  1.00  0.00    -0.451 A  
HETATM   31  C   UNL     1     -10.148   8.963  71.103  1.00  0.00    -0.271 A  
BRANCH  31  32
HETATM   32  O   UNL     1     -10.047   7.846  71.902  1.00  0.00    -0.179 OA 
BRANCH  32  33
HETATM   33  C   UNL     1      -9.861   6.593  71.357  1.00  0.00    -0.179 A  
HETATM   34  C   UNL     1     -10.663   6.257  70.262  1.00  0.00    -0.339 A  
HETATM   35  C   UNL     1     -10.534   5.007  69.651  1.00  0.00    -0.166 A  
HETATM   36  C   UNL     1      -9.600   4.090  70.132  1.00  0.00    -0.270 A  
HETATM   37  C   UNL     1      -8.766   4.440  71.193  1.00  0.00    -0.136 A  
HETATM   38  C   UNL     1      -8.876   5.701  71.785  1.00  0.00    -0.138 A  
ENDBRANCH  32  33
ENDBRANCH  31  32
ENDBRANCH  14  26
ENDBRANCH   3   6
TORSDOF 6
ENDMDL
MODEL       78
REMARK 921   NORMALIZED FREE ENERGY PREDICTED BY IDOCK:   -5.87 KCAL/MOL
REMARK 922        TOTAL FREE ENERGY PREDICTED BY IDOCK:   -8.23 KCAL/MOL
REMARK 923 INTER-LIGAND FREE ENERGY PREDICTED BY IDOCK:   -7.47 KCAL/MOL
REMARK 924 INTRA-LIGAND FREE ENERGY PREDICTED BY IDOCK:   -0.76 KCAL/MOL
REMARK 927      BINDING AFFINITY PREDICTED BY RF-SCORE:    0.00 PKD
ROOT
HETATM    1  N   UNL     1     -10.564   6.102  73.392  1.00  0.00    -0.255 N  
HETATM    2  H1  UNL     1      -9.629   5.741  73.205  1.00  0.00     0.000 HD 
HETATM    3  C   UNL     1     -11.298   6.607  72.354  1.00  0.00    -0.272 C  
HETATM    4  H2  UNL     1     -10.946   6.087  74.338  1.00  0.00     0.000 HD 
HETATM    5  O   UNL     1     -12.421   7.040  72.579  1.00  0.00     0.007 OA 
ENDROOT
BRANCH   3   6
HETATM    6  C   UNL     1     -10.655   6.561  71.049  1.00  0.00    -0.275 A  
HETATM    7  C   UNL     1     -10.055   5.432  70.499  1.00  0.00    -0.236 A  
HETATM    8  N   UNL     1      -9.762   4.192  70.983  1.00  0.00    -0.182 NA 
HETATM    9  C   UNL     1      -8.749   3.416  70.262  1.00  0.00    -0.068 C  
HETATM   10  H   UNL     1     -10.227   3.821  71.812  1.00  0.00     0.000 HD 
HETATM   11  C   UNL     1      -9.110   3.397  68.784  1.00  0.00    -0.204 C  
HETATM   12  C   UNL     1      -9.273   4.825  68.190  1.00  0.00    -0.124 C  
HETATM   13  N   UNL     1      -9.781   5.754  69.199  1.00  0.00    -0.140 NA 
HETATM   14  C   UNL     1     -10.491   7.583  70.037  1.00  0.00    -0.228 A  
HETATM   15  N   UNL     1      -9.829   7.075  68.974  1.00  0.00    -0.152 NA 
BRANCH  12  16
HETATM   16  C   UNL     1     -10.018   4.803  66.795  1.00  0.00    -0.253 C  
HETATM   17  C   UNL     1     -10.035   6.129  66.014  1.00  0.00     0.135 C  
HETATM   18  C   UNL     1      -8.657   6.444  65.460  1.00  0.00    -0.109 C  
HETATM   19  O   UNL     1      -6.932   7.004  63.465  1.00  0.00    -0.055 OA 
HETATM   20  N   UNL     1      -8.256   5.426  64.500  1.00  0.00    -0.129 N  
HETATM   21  C   UNL     1      -9.595   3.716  65.781  1.00  0.00    -0.143 C  
HETATM   22  C   UNL     1      -8.315   4.047  64.991  1.00  0.00    -0.105 C  
HETATM   23  C   UNL     1      -7.333   5.843  63.545  1.00  0.00    -0.064 C  
BRANCH  23  24
HETATM   24  C   UNL     1      -6.854   4.829  62.570  1.00  0.00    -0.030 C  
HETATM   25  C   UNL     1      -5.547   4.542  62.507  1.00  0.00    -0.013 C  
ENDBRANCH  23  24
ENDBRANCH  12  16
BRANCH  14  26
HETATM   26  C   UNL     1     -10.960   8.988  69.959  1.00  0.00    -0.230 A  
HETATM   27  C   UNL     1     -10.382   9.878  69.029  1.00  0.00    -0.224 A  
HETATM   28  C   UNL     1     -11.943   9.510  70.801  1.00  0.00    -0.326 A  
HETATM   29  C   UNL     1     -10.811  11.209  68.912  1.00  0.00    -0.261 A  
HETATM   30  C   UNL     1     -12.363  10.848  70.701  1.00  0.00    -0.470 A  
HETATM   31  C   UNL     1     -11.828  11.696  69.730  1.00  0.00    -0.357 A  
BRANCH  31  32
HETATM   32  O   UNL     1     -12.164  13.019  69.558  1.00  0.00    -0.248 OA 
BRANCH  32  33
HETATM   33  C   UNL     1     -12.357  13.854  70.638  1.00  0.00    -0.381 A  
HETATM   34  C   UNL     1     -11.310  14.725  70.956  1.00  0.00    -0.188 A  
HETATM   35  C   UNL     1     -11.428  15.604  72.036  1.00  0.00    -0.495 A  
HETATM   36  C   UNL     1     -12.595  15.617  72.799  1.00  0.00    -0.536 A  
HETATM   37  C   UNL     1     -13.658  14.784  72.456  1.00  0.00    -0.571 A  
HETATM   38  C   UNL     1     -13.551  13.925  71.358  1.00  0.00    -0.287 A  
ENDBRANCH  32  33
ENDBRANCH  31  32
ENDBRANCH  14  26
ENDBRANCH   3   6
TORSDOF 6
ENDMDL
MODEL       79
REMARK 921   NORMALIZED FREE ENERGY PREDICTED BY IDOCK:   -5.87 KCAL/MOL
REMARK 922        TOTAL FREE ENERGY PREDICTED BY IDOCK:   -8.23 KCAL/MOL
REMARK 923 INTER-LIGAND FREE ENERGY PREDICTED BY IDOCK:   -8.39 KCAL/MOL
REMARK 924 INTRA-LIGAND FREE ENERGY PREDICTED BY IDOCK:    0.16 KCAL/MOL
REMARK 927      BINDING AFFINITY PREDICTED BY RF-SCORE:    0.00 PKD
ROOT
HETATM    1  N   UNL     1     -14.411   9.113  70.937  1.00  0.00    -0.374 N  
HETATM    2  H1  UNL     1     -13.878   9.951  70.707  1.00  0.00     0.000 HD 
HETATM    3  C   UNL     1     -13.751   8.027  71.444  1.00  0.00    -0.241 C  
HETATM    4  H2  UNL     1     -15.420   9.085  70.793  1.00  0.00     0.000 HD 
HETATM    5  O   UNL     1     -14.392   7.021  71.720  1.00  0.00    -0.392 OA 
ENDROOT
BRANCH   3   6
HETATM    6  C   UNL     1     -12.315   8.191  71.622  1.00  0.00    -0.347 A  
HETATM    7  C   UNL     1     -11.469   7.234  72.176  1.00  0.00    -0.273 A  
HETATM    8  N   UNL     1     -11.680   6.040  72.800  1.00  0.00    -0.512 NA 
HETATM    9  C   UNL     1     -10.590   5.518  73.627  1.00  0.00    -0.282 C  
HETATM   10  H   UNL     1     -12.559   5.533  72.695  1.00  0.00     0.000 HD 
HETATM   11  C   UNL     1      -9.307   5.533  72.809  1.00  0.00    -0.146 C  
HETATM   12  C   UNL     1      -8.975   6.942  72.242  1.00  0.00    -0.134 C  
HETATM   13  N   UNL     1     -10.200   7.690  71.955  1.00  0.00    -0.191 NA 
HETATM   14  C   UNL     1     -11.438   9.292  71.285  1.00  0.00    -0.347 A  
HETATM   15  N   UNL     1     -10.168   8.990  71.632  1.00  0.00    -0.343 NA 
BRANCH  12  16
HETATM   16  C   UNL     1      -7.889   6.876  71.093  1.00  0.00    -0.100 C  
HETATM   17  C   UNL     1      -6.731   5.886  71.312  1.00  0.00    -0.061 C  
HETATM   18  C   UNL     1      -7.213   4.454  71.164  1.00  0.00    -0.040 C  
HETATM   19  O   UNL     1      -7.153   1.991  70.069  1.00  0.00    -0.033 OA 
HETATM   20  N   UNL     1      -7.684   4.219  69.806  1.00  0.00    -0.053 N  
HETATM   21  C   UNL     1      -8.392   6.634  69.653  1.00  0.00    -0.132 C  
HETATM   22  C   UNL     1      -8.698   5.161  69.325  1.00  0.00    -0.096 C  
HETATM   23  C   UNL     1      -7.629   2.895  69.381  1.00  0.00    -0.044 C  
BRANCH  23  24
HETATM   24  C   UNL     1      -8.142   2.593  68.019  1.00  0.00    -0.066 C  
HETATM   25  C   UNL     1      -9.403   2.164  67.871  1.00  0.00    -0.223 C  
ENDBRANCH  23  24
ENDBRANCH  12  16
BRANCH  14  26
HETATM   26  C   UNL     1     -11.685  10.586  70.606  1.00  0.00    -0.453 A  
HETATM   27  C   UNL     1     -11.475  10.710  69.216  1.00  0.00    -0.351 A  
HETATM   28  C   UNL     1     -12.089  11.738  71.284  1.00  0.00     0.110 A  
HETATM   29  C   UNL     1     -11.716  11.912  68.533  1.00  0.00    -0.388 A  
HETATM   30  C   UNL     1     -12.314  12.950  70.608  1.00  0.00    -0.385 A  
HETATM   31  C   UNL     1     -12.166  13.036  69.223  1.00  0.00    -0.089 A  
BRANCH  31  32
HETATM   32  O   UNL     1     -12.351  14.174  68.473  1.00  0.00    -0.244 OA 
BRANCH  32  33
HETATM   33  C   UNL     1     -11.624  14.398  67.323  1.00  0.00    -0.379 A  
HETATM   34  C   UNL     1     -11.924  13.592  66.221  1.00  0.00    -0.461 A  
HETATM   35  C   UNL     1     -11.233  13.757  65.017  1.00  0.00    -0.339 A  
HETATM   36  C   UNL     1     -10.242  14.732  64.912  1.00  0.00    -0.310 A  
HETATM   37  C   UNL     1      -9.973  15.568  65.993  1.00  0.00    -0.356 A  
HETATM   38  C   UNL     1     -10.684  15.422  67.188  1.00  0.00    -0.314 A  
ENDBRANCH  32  33
ENDBRANCH  31  32
ENDBRANCH  14  26
ENDBRANCH   3   6
TORSDOF 6
ENDMDL
MODEL       80
REMARK 921   NORMALIZED FREE ENERGY PREDICTED BY IDOCK:   -5.87 KCAL/MOL
REMARK 922        TOTAL FREE ENERGY PREDICTED BY IDOCK:   -8.23 KCAL/MOL
REMARK 923 INTER-LIGAND FREE ENERGY PREDICTED BY IDOCK:   -7.73 KCAL/MOL
REMARK 924 INTRA-LIGAND FREE ENERGY PREDICTED BY IDOCK:   -0.50 KCAL/MOL
REMARK 927      BINDING AFFINITY PREDICTED BY RF-SCORE:    0.00 PKD
ROOT
HETATM    1  N   UNL     1     -11.308   5.440  72.232  1.00  0.00    -0.186 N  
HETATM    2  H1  UNL     1     -11.293   5.260  71.228  1.00  0.00     0.000 HD 
HETATM    3  C   UNL     1     -10.288   6.159  72.791  1.00  0.00    -0.199 C  
HETATM    4  H2  UNL     1     -12.073   5.090  72.809  1.00  0.00     0.000 HD 
HETATM    5  O   UNL     1     -10.307   6.375  73.996  1.00  0.00    -0.293 OA 
ENDROOT
BRANCH   3   6
HETATM    6  C   UNL     1      -9.263   6.619  71.865  1.00  0.00    -0.147 A  
HETATM    7  C   UNL     1      -8.090   5.929  71.570  1.00  0.00    -0.115 A  
HETATM    8  N   UNL     1      -7.501   4.813  72.086  1.00  0.00    -0.081 NA 
HETATM    9  C   UNL     1      -6.072   4.629  71.818  1.00  0.00    -0.021 C  
HETATM   10  H   UNL     1      -8.031   4.136  72.635  1.00  0.00     0.000 HD 
HETATM   11  C   UNL     1      -5.833   4.780  70.323  1.00  0.00    -0.017 C  
HETATM   12  C   UNL     1      -6.353   6.136  69.768  1.00  0.00    -0.034 C  
HETATM   13  N   UNL     1      -7.530   6.587  70.512  1.00  0.00    -0.088 NA 
HETATM   14  C   UNL     1      -9.190   7.813  71.050  1.00  0.00    -0.151 A  
HETATM   15  N   UNL     1      -8.043   7.812  70.336  1.00  0.00    -0.113 NA 
BRANCH  12  16
HETATM   16  C   UNL     1      -6.462   6.125  68.190  1.00  0.00    -0.049 C  
HETATM   17  C   UNL     1      -7.734   5.486  67.602  1.00  0.00    -0.093 C  
HETATM   18  C   UNL     1      -8.941   6.374  67.844  1.00  0.00    -0.114 C  
HETATM   19  O   UNL     1     -11.076   7.811  67.041  1.00  0.00    -0.123 OA 
HETATM   20  N   UNL     1      -8.780   7.644  67.151  1.00  0.00    -0.123 N  
HETATM   21  C   UNL     1      -6.284   7.473  67.456  1.00  0.00    -0.049 C  
HETATM   22  C   UNL     1      -7.539   8.364  67.447  1.00  0.00    -0.098 C  
HETATM   23  C   UNL     1      -9.966   8.296  66.826  1.00  0.00    -0.285 C  
BRANCH  23  24
HETATM   24  C   UNL     1      -9.856   9.620  66.159  1.00  0.00    -0.334 C  
HETATM   25  C   UNL     1     -10.740  10.581  66.456  1.00  0.00    -0.191 C  
ENDBRANCH  23  24
ENDBRANCH  12  16
BRANCH  14  26
HETATM   26  C   UNL     1     -10.141   8.930  70.837  1.00  0.00    -0.304 A  
HETATM   27  C   UNL     1      -9.826   9.969  69.936  1.00  0.00    -0.266 A  
HETATM   28  C   UNL     1     -11.352   9.041  71.524  1.00  0.00    -0.416 A  
HETATM   29  C   UNL     1     -10.708  11.033  69.693  1.00  0.00    -0.193 A  
HETATM   30  C   UNL     1     -12.230  10.115  71.299  1.00  0.00    -0.496 A  
HETATM   31  C   UNL     1     -11.933  11.097  70.354  1.00  0.00    -0.378 A  
BRANCH  31  32
HETATM   32  O   UNL     1     -12.720  12.190  70.069  1.00  0.00     0.090 OA 
BRANCH  32  33
HETATM   33  C   UNL     1     -12.641  13.343  70.821  1.00  0.00    -0.294 A  
HETATM   34  C   UNL     1     -13.296  13.335  72.056  1.00  0.00    -0.582 A  
HETATM   35  C   UNL     1     -13.262  14.464  72.879  1.00  0.00    -0.613 A  
HETATM   36  C   UNL     1     -12.569  15.603  72.471  1.00  0.00    -0.524 A  
HETATM   37  C   UNL     1     -11.875  15.597  71.262  1.00  0.00    -0.473 A  
HETATM   38  C   UNL     1     -11.886  14.457  70.452  1.00  0.00    -0.381 A  
ENDBRANCH  32  33
ENDBRANCH  31  32
ENDBRANCH  14  26
ENDBRANCH   3   6
TORSDOF 6
ENDMDL
MODEL       81
REMARK 921   NORMALIZED FREE ENERGY PREDICTED BY IDOCK:   -5.83 KCAL/MOL
REMARK 922        TOTAL FREE ENERGY PREDICTED BY IDOCK:   -8.17 KCAL/MOL
REMARK 923 INTER-LIGAND FREE ENERGY PREDICTED BY IDOCK:   -7.53 KCAL/MOL
REMARK 924 INTRA-LIGAND FREE ENERGY PREDICTED BY IDOCK:   -0.64 KCAL/MOL
REMARK 927      BINDING AFFINITY PREDICTED BY RF-SCORE:    0.00 PKD
ROOT
HETATM    1  N   UNL     1      -9.674  13.145  66.076  1.00  0.00    -0.404 N  
HETATM    2  H1  UNL     1      -8.757  12.955  66.479  1.00  0.00     0.000 HD 
HETATM    3  C   UNL     1     -10.589  12.130  66.006  1.00  0.00    -0.257 C  
HETATM    4  H2  UNL     1      -9.906  14.076  65.731  1.00  0.00     0.000 HD 
HETATM    5  O   UNL     1     -11.690  12.358  65.522  1.00  0.00    -0.375 OA 
ENDROOT
BRANCH   3   6
HETATM    6  C   UNL     1     -10.151  10.851  66.545  1.00  0.00    -0.269 A  
HETATM    7  C   UNL     1      -9.300   9.963  65.892  1.00  0.00    -0.192 A  
HETATM    8  N   UNL     1      -8.776   9.915  64.634  1.00  0.00    -0.177 NA 
HETATM    9  C   UNL     1      -8.274   8.619  64.170  1.00  0.00    -0.155 C  
HETATM   10  H   UNL     1      -8.737  10.744  64.042  1.00  0.00     0.000 HD 
HETATM   11  C   UNL     1      -7.326   8.059  65.221  1.00  0.00    -0.070 C  
HETATM   12  C   UNL     1      -7.986   7.951  66.624  1.00  0.00    -0.103 C  
HETATM   13  N   UNL     1      -8.973   9.014  66.819  1.00  0.00    -0.132 NA 
HETATM   14  C   UNL     1     -10.438  10.207  67.809  1.00  0.00    -0.232 A  
HETATM   15  N   UNL     1      -9.798   9.018  67.875  1.00  0.00    -0.163 NA 
BRANCH  12  16
HETATM   16  C   UNL     1      -6.912   7.750  67.768  1.00  0.00    -0.081 C  
HETATM   17  C   UNL     1      -7.465   7.558  69.192  1.00  0.00    -0.098 C  
HETATM   18  C   UNL     1      -8.115   6.193  69.335  1.00  0.00    -0.112 C  
HETATM   19  O   UNL     1      -8.410   3.773  70.487  1.00  0.00    -0.060 OA 
HETATM   20  N   UNL     1      -7.125   5.142  69.150  1.00  0.00    -0.055 N  
HETATM   21  C   UNL     1      -5.858   6.639  67.566  1.00  0.00    -0.016 C  
HETATM   22  C   UNL     1      -6.354   5.222  67.907  1.00  0.00    -0.040 C  
HETATM   23  C   UNL     1      -7.421   3.933  69.772  1.00  0.00    -0.052 C  
BRANCH  23  24
HETATM   24  C   UNL     1      -6.465   2.811  69.575  1.00  0.00    -0.029 C  
HETATM   25  C   UNL     1      -5.429   2.675  70.414  1.00  0.00    -0.012 C  
ENDBRANCH  23  24
ENDBRANCH  12  16
BRANCH  14  26
HETATM   26  C   UNL     1     -11.218  10.644  68.992  1.00  0.00    -0.324 A  
HETATM   27  C   UNL     1     -11.896  11.881  68.976  1.00  0.00    -0.368 A  
HETATM   28  C   UNL     1     -11.294   9.901  70.171  1.00  0.00    -0.335 A  
HETATM   29  C   UNL     1     -12.661  12.322  70.068  1.00  0.00     0.100 A  
HETATM   30  C   UNL     1     -12.043  10.346  71.275  1.00  0.00    -0.461 A  
HETATM   31  C   UNL     1     -12.762  11.540  71.218  1.00  0.00    -0.364 A  
BRANCH  31  32
HETATM   32  O   UNL     1     -13.514  12.066  72.244  1.00  0.00    -0.465 OA 
BRANCH  32  33
HETATM   33  C   UNL     1     -13.497  13.416  72.522  1.00  0.00    -0.536 A  
HETATM   34  C   UNL     1     -12.533  13.861  73.431  1.00  0.00     0.686 A  
HETATM   35  C   UNL     1     -12.449  15.215  73.764  1.00  0.00    -0.718 A  
HETATM   36  C   UNL     1     -13.327  16.130  73.186  1.00  0.00    -0.502 A  
HETATM   37  C   UNL     1     -14.259  15.698  72.243  1.00  0.00    -0.538 A  
HETATM   38  C   UNL     1     -14.323  14.347  71.889  1.00  0.00    -0.627 A  
ENDBRANCH  32  33
ENDBRANCH  31  32
ENDBRANCH  14  26
ENDBRANCH   3   6
TORSDOF 6
ENDMDL
MODEL       82
REMARK 921   NORMALIZED FREE ENERGY PREDICTED BY IDOCK:   -5.79 KCAL/MOL
REMARK 922        TOTAL FREE ENERGY PREDICTED BY IDOCK:   -8.13 KCAL/MOL
REMARK 923 INTER-LIGAND FREE ENERGY PREDICTED BY IDOCK:   -7.25 KCAL/MOL
REMARK 924 INTRA-LIGAND FREE ENERGY PREDICTED BY IDOCK:   -0.88 KCAL/MOL
REMARK 927      BINDING AFFINITY PREDICTED BY RF-SCORE:    0.00 PKD
ROOT
HETATM    1  N   UNL     1     -12.787  15.901  70.373  1.00  0.00    -0.672 N  
HETATM    2  H1  UNL     1     -12.825  16.439  69.508  1.00  0.00     0.000 HD 
HETATM    3  C   UNL     1     -11.819  14.945  70.516  1.00  0.00    -0.303 C  
HETATM    4  H2  UNL     1     -13.459  16.074  71.121  1.00  0.00     0.000 HD 
HETATM    5  O   UNL     1     -11.773  14.301  71.556  1.00  0.00    -0.187 OA 
ENDROOT
BRANCH   3   6
HETATM    6  C   UNL     1     -10.907  14.800  69.391  1.00  0.00    -0.269 A  
HETATM    7  C   UNL     1     -10.289  15.857  68.728  1.00  0.00    -0.228 A  
HETATM    8  N   UNL     1     -10.421  17.213  68.790  1.00  0.00    -0.345 NA 
HETATM    9  C   UNL     1      -9.921  17.985  67.650  1.00  0.00    -0.329 C  
HETATM   10  H   UNL     1     -10.850  17.669  69.596  1.00  0.00     0.000 HD 
HETATM   11  C   UNL     1      -8.494  17.548  67.354  1.00  0.00    -0.222 C  
HETATM   12  C   UNL     1      -8.375  16.017  67.109  1.00  0.00    -0.199 C  
HETATM   13  N   UNL     1      -9.364  15.285  67.901  1.00  0.00    -0.188 NA 
HETATM   14  C   UNL     1     -10.417  13.618  68.715  1.00  0.00    -0.202 A  
HETATM   15  N   UNL     1      -9.575  13.974  67.720  1.00  0.00    -0.211 NA 
BRANCH  12  16
HETATM   16  C   UNL     1      -6.876  15.520  67.193  1.00  0.00    -0.076 C  
HETATM   17  C   UNL     1      -5.851  16.541  67.720  1.00  0.00    -0.148 C  
HETATM   18  C   UNL     1      -6.035  16.766  69.211  1.00  0.00    -0.180 C  
HETATM   19  O   UNL     1      -5.175  16.806  71.766  1.00  0.00    -0.226 OA 
HETATM   20  N   UNL     1      -5.776  15.533  69.941  1.00  0.00    -0.129 N  
HETATM   21  C   UNL     1      -6.605  14.208  67.963  1.00  0.00    -0.156 C  
HETATM   22  C   UNL     1      -6.544  14.368  69.493  1.00  0.00    -0.141 C  
HETATM   23  C   UNL     1      -5.371  15.701  71.262  1.00  0.00     0.006 C  
BRANCH  23  24
HETATM   24  C   UNL     1      -5.139  14.472  72.066  1.00  0.00    -0.181 C  
HETATM   25  C   UNL     1      -5.551  14.433  73.341  1.00  0.00    -0.159 C  
ENDBRANCH  23  24
ENDBRANCH  12  16
BRANCH  14  26
HETATM   26  C   UNL     1     -10.626  12.172  68.966  1.00  0.00    -0.117 A  
HETATM   27  C   UNL     1     -11.867  11.708  69.452  1.00  0.00    -0.408 A  
HETATM   28  C   UNL     1      -9.627  11.214  68.781  1.00  0.00    -0.180 A  
HETATM   29  C   UNL     1     -12.110  10.345  69.685  1.00  0.00    -0.167 A  
HETATM   30  C   UNL     1      -9.859   9.851  69.030  1.00  0.00    -0.193 A  
HETATM   31  C   UNL     1     -11.113   9.402  69.446  1.00  0.00    -0.076 A  
BRANCH  31  32
HETATM   32  O   UNL     1     -11.437   8.094  69.725  1.00  0.00     0.035 OA 
BRANCH  32  33
HETATM   33  C   UNL     1     -10.894   7.054  69.001  1.00  0.00    -0.182 A  
HETATM   34  C   UNL     1     -11.152   7.041  67.627  1.00  0.00    -0.190 A  
HETATM   35  C   UNL     1     -10.636   6.022  66.822  1.00  0.00    -0.359 A  
HETATM   36  C   UNL     1      -9.857   5.014  67.388  1.00  0.00    -0.207 A  
HETATM   37  C   UNL     1      -9.558   5.050  68.749  1.00  0.00    -0.209 A  
HETATM   38  C   UNL     1     -10.051   6.085  69.549  1.00  0.00    -0.246 A  
ENDBRANCH  32  33
ENDBRANCH  31  32
ENDBRANCH  14  26
ENDBRANCH   3   6
TORSDOF 6
ENDMDL
MODEL       83
REMARK 921   NORMALIZED FREE ENERGY PREDICTED BY IDOCK:   -5.74 KCAL/MOL
REMARK 922        TOTAL FREE ENERGY PREDICTED BY IDOCK:   -8.05 KCAL/MOL
REMARK 923 INTER-LIGAND FREE ENERGY PREDICTED BY IDOCK:   -7.15 KCAL/MOL
REMARK 924 INTRA-LIGAND FREE ENERGY PREDICTED BY IDOCK:   -0.90 KCAL/MOL
REMARK 927      BINDING AFFINITY PREDICTED BY RF-SCORE:    0.00 PKD
ROOT
HETATM    1  N   UNL     1     -10.943   5.464  66.248  1.00  0.00    -0.742 N  
HETATM    2  H1  UNL     1     -11.701   5.173  66.866  1.00  0.00     0.000 HD 
HETATM    3  C   UNL     1      -9.927   6.222  66.759  1.00  0.00    -0.170 C  
HETATM    4  H2  UNL     1     -10.944   5.193  65.265  1.00  0.00     0.000 HD 
HETATM    5  O   UNL     1      -9.018   6.571  66.017  1.00  0.00    -0.157 OA 
ENDROOT
BRANCH   3   6
HETATM    6  C   UNL     1     -10.025   6.531  68.179  1.00  0.00    -0.145 A  
HETATM    7  C   UNL     1      -9.767   5.630  69.208  1.00  0.00    -0.156 A  
HETATM    8  N   UNL     1      -9.518   4.290  69.244  1.00  0.00    -0.170 NA 
HETATM    9  C   UNL     1      -9.720   3.609  70.525  1.00  0.00    -0.140 C  
HETATM   10  H   UNL     1      -9.206   3.784  68.415  1.00  0.00     0.000 HD 
HETATM   11  C   UNL     1      -8.972   4.373  71.608  1.00  0.00    -0.160 C  
HETATM   12  C   UNL     1      -9.388   5.869  71.679  1.00  0.00    -0.149 C  
HETATM   13  N   UNL     1      -9.758   6.371  70.356  1.00  0.00    -0.165 NA 
HETATM   14  C   UNL     1     -10.372   7.761  68.858  1.00  0.00    -0.213 A  
HETATM   15  N   UNL     1     -10.324   7.576  70.196  1.00  0.00    -0.211 NA 
BRANCH  12  16
HETATM   16  C   UNL     1      -8.354   6.731  72.510  1.00  0.00    -0.113 C  
HETATM   17  C   UNL     1      -6.880   6.624  72.078  1.00  0.00    -0.064 C  
HETATM   18  C   UNL     1      -6.656   7.331  70.754  1.00  0.00    -0.044 C  
HETATM   19  O   UNL     1      -5.451   9.143  69.162  1.00  0.00    -0.036 OA 
HETATM   20  N   UNL     1      -6.925   8.755  70.891  1.00  0.00    -0.063 N  
HETATM   21  C   UNL     1      -8.646   8.241  72.660  1.00  0.00    -0.264 C  
HETATM   22  C   UNL     1      -8.240   9.092  71.444  1.00  0.00    -0.052 C  
HETATM   23  C   UNL     1      -6.262   9.574  69.982  1.00  0.00    -0.051 C  
BRANCH  23  24
HETATM   24  C   UNL     1      -6.539  11.033  70.049  1.00  0.00    -0.134 C  
HETATM   25  C   UNL     1      -6.916  11.683  68.939  1.00  0.00    -0.109 C  
ENDBRANCH  23  24
ENDBRANCH  12  16
BRANCH  14  26
HETATM   26  C   UNL     1     -10.686   9.120  68.355  1.00  0.00    -0.163 A  
HETATM   27  C   UNL     1     -10.325   9.491  67.042  1.00  0.00    -0.319 A  
HETATM   28  C   UNL     1     -11.303  10.098  69.137  1.00  0.00    -0.198 A  
HETATM   29  C   UNL     1     -10.622  10.761  66.522  1.00  0.00    -0.279 A  
HETATM   30  C   UNL     1     -11.586  11.378  68.627  1.00  0.00    -0.384 A  
HETATM   31  C   UNL     1     -11.283  11.706  67.306  1.00  0.00    -0.304 A  
BRANCH  31  32
HETATM   32  O   UNL     1     -11.509  12.929  66.718  1.00  0.00    -0.305 OA 
BRANCH  32  33
HETATM   33  C   UNL     1     -10.746  14.030  67.044  1.00  0.00    -0.284 A  
HETATM   34  C   UNL     1     -11.350  14.997  67.854  1.00  0.00    -0.344 A  
HETATM   35  C   UNL     1     -10.643  16.142  68.232  1.00  0.00    -0.288 A  
HETATM   36  C   UNL     1      -9.328  16.321  67.804  1.00  0.00    -0.216 A  
HETATM   37  C   UNL     1      -8.708  15.337  67.036  1.00  0.00    -0.260 A  
HETATM   38  C   UNL     1      -9.406  14.179  66.683  1.00  0.00    -0.299 A  
ENDBRANCH  32  33
ENDBRANCH  31  32
ENDBRANCH  14  26
ENDBRANCH   3   6
TORSDOF 6
ENDMDL
MODEL       84
REMARK 921   NORMALIZED FREE ENERGY PREDICTED BY IDOCK:   -5.71 KCAL/MOL
REMARK 922        TOTAL FREE ENERGY PREDICTED BY IDOCK:   -8.01 KCAL/MOL
REMARK 923 INTER-LIGAND FREE ENERGY PREDICTED BY IDOCK:   -7.01 KCAL/MOL
REMARK 924 INTRA-LIGAND FREE ENERGY PREDICTED BY IDOCK:   -1.00 KCAL/MOL
REMARK 927      BINDING AFFINITY PREDICTED BY RF-SCORE:    0.00 PKD
ROOT
HETATM    1  N   UNL     1     -11.558  12.389  63.401  1.00  0.00    -0.654 N  
HETATM    2  H1  UNL     1     -10.836  12.949  62.947  1.00  0.00     0.000 HD 
HETATM    3  C   UNL     1     -11.598  12.343  64.767  1.00  0.00    -0.341 C  
HETATM    4  H2  UNL     1     -12.239  11.873  62.845  1.00  0.00     0.000 HD 
HETATM    5  O   UNL     1     -12.465  11.672  65.311  1.00  0.00     0.049 OA 
ENDROOT
BRANCH   3   6
HETATM    6  C   UNL     1     -10.586  13.134  65.453  1.00  0.00    -0.311 A  
HETATM    7  C   UNL     1     -10.529  14.525  65.450  1.00  0.00    -0.380 A  
HETATM    8  N   UNL     1     -11.210  15.494  64.774  1.00  0.00    -0.556 NA 
HETATM    9  C   UNL     1     -10.591  16.820  64.706  1.00  0.00     0.307 C  
HETATM   10  H   UNL     1     -12.111  15.303  64.336  1.00  0.00     0.000 HD 
HETATM   11  C   UNL     1     -10.203  17.251  66.112  1.00  0.00    -0.338 C  
HETATM   12  C   UNL     1      -9.278  16.220  66.819  1.00  0.00    -0.230 C  
HETATM   13  N   UNL     1      -9.581  14.858  66.377  1.00  0.00    -0.276 NA 
HETATM   14  C   UNL     1      -9.464  12.731  66.273  1.00  0.00    -0.196 A  
HETATM   15  N   UNL     1      -8.798  13.823  66.708  1.00  0.00    -0.186 NA 
BRANCH  12  16
HETATM   16  C   UNL     1      -9.201  16.468  68.380  1.00  0.00    -0.222 C  
HETATM   17  C   UNL     1     -10.359  17.273  68.996  1.00  0.00    -0.330 C  
HETATM   18  C   UNL     1     -11.633  16.447  69.023  1.00  0.00    -0.143 C  
HETATM   19  O   UNL     1     -13.733  15.295  70.262  1.00  0.00     0.090 OA 
HETATM   20  N   UNL     1     -11.459  15.283  69.881  1.00  0.00    -0.280 N  
HETATM   21  C   UNL     1      -9.010  15.232  69.287  1.00  0.00    -0.241 C  
HETATM   22  C   UNL     1     -10.302  14.442  69.567  1.00  0.00     0.049 C  
HETATM   23  C   UNL     1     -12.632  14.770  70.428  1.00  0.00    -0.346 C  
BRANCH  23  24
HETATM   24  C   UNL     1     -12.516  13.553  71.273  1.00  0.00    -0.388 C  
HETATM   25  C   UNL     1     -13.556  13.174  72.028  1.00  0.00    -0.554 C  
ENDBRANCH  23  24
ENDBRANCH  12  16
BRANCH  14  26
HETATM   26  C   UNL     1      -8.998  11.401  66.735  1.00  0.00    -0.177 A  
HETATM   27  C   UNL     1      -9.843  10.587  67.518  1.00  0.00    -0.196 A  
HETATM   28  C   UNL     1      -7.721  10.906  66.466  1.00  0.00    -0.149 A  
HETATM   29  C   UNL     1      -9.446   9.314  67.959  1.00  0.00    -0.152 A  
HETATM   30  C   UNL     1      -7.312   9.640  66.921  1.00  0.00    -0.091 A  
HETATM   31  C   UNL     1      -8.184   8.820  67.637  1.00  0.00    -0.110 A  
BRANCH  31  32
HETATM   32  O   UNL     1      -7.876   7.573  68.133  1.00  0.00    -0.117 OA 
BRANCH  32  33
HETATM   33  C   UNL     1      -7.739   7.358  69.488  1.00  0.00    -0.108 A  
HETATM   34  C   UNL     1      -6.939   8.263  70.192  1.00  0.00    -0.040 A  
HETATM   35  C   UNL     1      -6.751   8.115  71.569  1.00  0.00    -0.058 A  
HETATM   36  C   UNL     1      -7.367   7.064  72.246  1.00  0.00    -0.085 A  
HETATM   37  C   UNL     1      -8.203   6.188  71.556  1.00  0.00    -0.118 A  
HETATM   38  C   UNL     1      -8.414   6.353  70.184  1.00  0.00    -0.135 A  
ENDBRANCH  32  33
ENDBRANCH  31  32
ENDBRANCH  14  26
ENDBRANCH   3   6
TORSDOF 6
ENDMDL
MODEL       85
REMARK 921   NORMALIZED FREE ENERGY PREDICTED BY IDOCK:   -5.66 KCAL/MOL
REMARK 922        TOTAL FREE ENERGY PREDICTED BY IDOCK:   -7.95 KCAL/MOL
REMARK 923 INTER-LIGAND FREE ENERGY PREDICTED BY IDOCK:   -8.18 KCAL/MOL
REMARK 924 INTRA-LIGAND FREE ENERGY PREDICTED BY IDOCK:    0.24 KCAL/MOL
REMARK 927      BINDING AFFINITY PREDICTED BY RF-SCORE:    0.00 PKD
ROOT
HETATM    1  N   UNL     1      -6.819  10.818  64.970  1.00  0.00    -0.354 N  
HETATM    2  H1  UNL     1      -7.359  11.658  64.764  1.00  0.00     0.000 HD 
HETATM    3  C   UNL     1      -6.887  10.279  66.225  1.00  0.00    -0.110 C  
HETATM    4  H2  UNL     1      -6.238  10.387  64.251  1.00  0.00     0.000 HD 
HETATM    5  O   UNL     1      -6.238   9.270  66.471  1.00  0.00    -0.063 OA 
ENDROOT
BRANCH   3   6
HETATM    6  C   UNL     1      -7.762  10.971  67.160  1.00  0.00    -0.131 A  
HETATM    7  C   UNL     1      -7.793  12.350  67.347  1.00  0.00    -0.174 A  
HETATM    8  N   UNL     1      -7.019  13.378  66.896  1.00  0.00    -0.303 NA 
HETATM    9  C   UNL     1      -7.088  14.640  67.637  1.00  0.00    -0.182 C  
HETATM   10  H   UNL     1      -6.417  13.273  66.079  1.00  0.00     0.000 HD 
HETATM   11  C   UNL     1      -8.550  15.033  67.795  1.00  0.00    -0.165 C  
HETATM   12  C   UNL     1      -9.398  13.920  68.473  1.00  0.00    -0.164 C  
HETATM   13  N   UNL     1      -8.885  12.593  68.131  1.00  0.00    -0.192 NA 
HETATM   14  C   UNL     1      -8.769  10.464  68.068  1.00  0.00    -0.123 A  
HETATM   15  N   UNL     1      -9.338  11.488  68.740  1.00  0.00    -0.133 NA 
BRANCH  12  16
HETATM   16  C   UNL     1     -10.950  14.161  68.280  1.00  0.00    -0.266 C  
HETATM   17  C   UNL     1     -11.844  12.910  68.352  1.00  0.00    -0.357 C  
HETATM   18  C   UNL     1     -11.934  12.394  69.778  1.00  0.00    -0.289 C  
HETATM   19  O   UNL     1     -13.279  11.670  71.999  1.00  0.00    -0.501 OA 
HETATM   20  N   UNL     1     -12.571  13.386  70.632  1.00  0.00    -0.289 N  
HETATM   21  C   UNL     1     -11.622  15.218  69.184  1.00  0.00    -0.349 C  
HETATM   22  C   UNL     1     -11.966  14.720  70.599  1.00  0.00    -0.309 C  
HETATM   23  C   UNL     1     -13.200  12.876  71.764  1.00  0.00    -0.384 C  
BRANCH  23  24
HETATM   24  C   UNL     1     -13.826  13.851  72.695  1.00  0.00    -0.515 C  
HETATM   25  C   UNL     1     -14.059  15.103  72.279  1.00  0.00    -0.633 C  
ENDBRANCH  23  24
ENDBRANCH  12  16
BRANCH  14  26
HETATM   26  C   UNL     1      -9.287   9.096  68.313  1.00  0.00    -0.141 A  
HETATM   27  C   UNL     1      -9.175   8.514  69.594  1.00  0.00    -0.157 A  
HETATM   28  C   UNL     1      -9.863   8.309  67.314  1.00  0.00    -0.258 A  
HETATM   29  C   UNL     1      -9.670   7.230  69.871  1.00  0.00    -0.174 A  
HETATM   30  C   UNL     1     -10.343   7.016  67.582  1.00  0.00    -0.270 A  
HETATM   31  C   UNL     1     -10.285   6.482  68.869  1.00  0.00    -0.181 A  
BRANCH  31  32
HETATM   32  O   UNL     1     -10.717   5.226  69.230  1.00  0.00    -0.198 OA 
BRANCH  32  33
HETATM   33  C   UNL     1      -9.824   4.241  69.594  1.00  0.00    -0.174 A  
HETATM   34  C   UNL     1      -9.867   3.811  70.924  1.00  0.00    -0.192 A  
HETATM   35  C   UNL     1      -8.995   2.815  71.372  1.00  0.00    -0.153 A  
HETATM   36  C   UNL     1      -8.080   2.242  70.489  1.00  0.00    -0.054 A  
HETATM   37  C   UNL     1      -8.067   2.634  69.152  1.00  0.00    -0.067 A  
HETATM   38  C   UNL     1      -8.959   3.610  68.698  1.00  0.00    -0.180 A  
ENDBRANCH  32  33
ENDBRANCH  31  32
ENDBRANCH  14  26
ENDBRANCH   3   6
TORSDOF 6
ENDMDL
MODEL       86
REMARK 921   NORMALIZED FREE ENERGY PREDICTED BY IDOCK:   -5.65 KCAL/MOL
REMARK 922        TOTAL FREE ENERGY PREDICTED BY IDOCK:   -7.94 KCAL/MOL
REMARK 923 INTER-LIGAND FREE ENERGY PREDICTED BY IDOCK:   -6.60 KCAL/MOL
REMARK 924 INTRA-LIGAND FREE ENERGY PREDICTED BY IDOCK:   -1.34 KCAL/MOL
REMARK 927      BINDING AFFINITY PREDICTED BY RF-SCORE:    0.00 PKD
ROOT
HETATM    1  N   UNL     1      -9.055   6.486  65.302  1.00  0.00    -0.350 N  
HETATM    2  H1  UNL     1      -8.230   7.081  65.383  1.00  0.00     0.000 HD 
HETATM    3  C   UNL     1      -9.792   6.220  66.423  1.00  0.00    -0.075 C  
HETATM    4  H2  UNL     1      -9.326   6.097  64.399  1.00  0.00     0.000 HD 
HETATM    5  O   UNL     1     -10.782   5.506  66.325  1.00  0.00    -0.245 OA 
ENDROOT
BRANCH   3   6
HETATM    6  C   UNL     1      -9.317   6.844  67.650  1.00  0.00    -0.124 A  
HETATM    7  C   UNL     1      -8.530   6.213  68.609  1.00  0.00    -0.114 A  
HETATM    8  N   UNL     1      -8.114   4.927  68.787  1.00  0.00    -0.084 NA 
HETATM    9  C   UNL     1      -7.660   4.552  70.128  1.00  0.00    -0.053 C  
HETATM   10  H   UNL     1      -8.120   4.255  68.019  1.00  0.00     0.000 HD 
HETATM   11  C   UNL     1      -6.631   5.571  70.597  1.00  0.00    -0.040 C  
HETATM   12  C   UNL     1      -7.171   7.028  70.558  1.00  0.00    -0.068 C  
HETATM   13  N   UNL     1      -8.132   7.199  69.468  1.00  0.00    -0.128 NA 
HETATM   14  C   UNL     1      -9.502   8.185  68.163  1.00  0.00    -0.141 A  
HETATM   15  N   UNL     1      -8.865   8.314  69.348  1.00  0.00    -0.145 NA 
BRANCH  12  16
HETATM   16  C   UNL     1      -6.006   8.093  70.661  1.00  0.00    -0.032 C  
HETATM   17  C   UNL     1      -5.139   8.274  69.402  1.00  0.00    -0.030 C  
HETATM   18  C   UNL     1      -5.918   8.988  68.312  1.00  0.00    -0.042 C  
HETATM   19  O   UNL     1      -6.303  10.976  66.532  1.00  0.00    -0.108 OA 
HETATM   20  N   UNL     1      -6.273  10.332  68.745  1.00  0.00    -0.047 N  
HETATM   21  C   UNL     1      -6.384   9.517  71.128  1.00  0.00    -0.054 C  
HETATM   22  C   UNL     1      -6.981  10.410  70.025  1.00  0.00    -0.157 C  
HETATM   23  C   UNL     1      -6.476  11.251  67.719  1.00  0.00    -0.060 C  
BRANCH  23  24
HETATM   24  C   UNL     1      -6.886  12.626  68.106  1.00  0.00    -0.090 C  
HETATM   25  C   UNL     1      -7.957  13.182  67.523  1.00  0.00    -0.179 C  
ENDBRANCH  23  24
ENDBRANCH  12  16
BRANCH  14  26
HETATM   26  C   UNL     1     -10.177   9.379  67.601  1.00  0.00    -0.281 A  
HETATM   27  C   UNL     1     -11.079  10.122  68.392  1.00  0.00    -0.273 A  
HETATM   28  C   UNL     1      -9.999   9.806  66.284  1.00  0.00    -0.331 A  
HETATM   29  C   UNL     1     -11.723  11.269  67.904  1.00  0.00    -0.289 A  
HETATM   30  C   UNL     1     -10.656  10.943  65.783  1.00  0.00    -0.230 A  
HETATM   31  C   UNL     1     -11.492  11.705  66.600  1.00  0.00    -0.206 A  
BRANCH  31  32
HETATM   32  O   UNL     1     -12.187  12.825  66.203  1.00  0.00    -0.521 OA 
BRANCH  32  33
HETATM   33  C   UNL     1     -11.612  14.077  66.257  1.00  0.00    -0.369 A  
HETATM   34  C   UNL     1     -11.562  14.695  67.510  1.00  0.00    -0.396 A  
HETATM   35  C   UNL     1     -10.994  15.964  67.649  1.00  0.00    -0.298 A  
HETATM   36  C   UNL     1     -10.470  16.617  66.535  1.00  0.00    -0.262 A  
HETATM   37  C   UNL     1     -10.474  15.985  65.293  1.00  0.00    -0.384 A  
HETATM   38  C   UNL     1     -11.017  14.704  65.160  1.00  0.00    -0.395 A  
ENDBRANCH  32  33
ENDBRANCH  31  32
ENDBRANCH  14  26
ENDBRANCH   3   6
TORSDOF 6
ENDMDL
MODEL       87
REMARK 921   NORMALIZED FREE ENERGY PREDICTED BY IDOCK:   -5.65 KCAL/MOL
REMARK 922        TOTAL FREE ENERGY PREDICTED BY IDOCK:   -7.93 KCAL/MOL
REMARK 923 INTER-LIGAND FREE ENERGY PREDICTED BY IDOCK:   -8.95 KCAL/MOL
REMARK 924 INTRA-LIGAND FREE ENERGY PREDICTED BY IDOCK:    1.02 KCAL/MOL
REMARK 927      BINDING AFFINITY PREDICTED BY RF-SCORE:    0.00 PKD
ROOT
HETATM    1  N   UNL     1      -8.965  10.889  65.414  1.00  0.00    -0.196 N  
HETATM    2  H1  UNL     1      -8.188  10.231  65.456  1.00  0.00     0.000 HD 
HETATM    3  C   UNL     1     -10.046  10.689  66.228  1.00  0.00    -0.235 C  
HETATM    4  H2  UNL     1      -8.937  11.684  64.776  1.00  0.00     0.000 HD 
HETATM    5  O   UNL     1     -10.979  11.480  66.177  1.00  0.00    -0.287 OA 
ENDROOT
BRANCH   3   6
HETATM    6  C   UNL     1      -9.966   9.531  67.107  1.00  0.00    -0.261 A  
HETATM    7  C   UNL     1      -9.293   8.350  66.805  1.00  0.00    -0.184 A  
HETATM    8  N   UNL     1      -8.689   7.872  65.680  1.00  0.00    -0.262 NA 
HETATM    9  C   UNL     1      -8.465   6.427  65.607  1.00  0.00    -0.146 C  
HETATM   10  H   UNL     1      -8.407   8.494  64.922  1.00  0.00     0.000 HD 
HETATM   11  C   UNL     1      -7.767   5.976  66.882  1.00  0.00    -0.100 C  
HETATM   12  C   UNL     1      -8.552   6.372  68.165  1.00  0.00    -0.117 C  
HETATM   13  N   UNL     1      -9.277   7.627  67.965  1.00  0.00    -0.138 NA 
HETATM   14  C   UNL     1     -10.503   9.309  68.432  1.00  0.00    -0.206 A  
HETATM   15  N   UNL     1     -10.165   8.074  68.863  1.00  0.00    -0.206 NA 
BRANCH  12  16
HETATM   16  C   UNL     1      -7.655   6.260  69.464  1.00  0.00    -0.094 C  
HETATM   17  C   UNL     1      -7.829   7.379  70.506  1.00  0.00    -0.097 C  
HETATM   18  C   UNL     1      -9.165   7.248  71.216  1.00  0.00    -0.150 C  
HETATM   19  O   UNL     1     -10.715   6.993  73.407  1.00  0.00    -0.321 OA 
HETATM   20  N   UNL     1      -9.218   6.000  71.963  1.00  0.00    -0.147 N  
HETATM   21  C   UNL     1      -7.709   4.931  70.250  1.00  0.00    -0.062 C  
HETATM   22  C   UNL     1      -8.923   4.794  71.186  1.00  0.00    -0.131 C  
HETATM   23  C   UNL     1     -10.086   5.997  73.051  1.00  0.00    -0.182 C  
BRANCH  23  24
HETATM   24  C   UNL     1     -10.214   4.731  73.820  1.00  0.00    -0.235 C  
HETATM   25  C   UNL     1     -11.222   3.893  73.545  1.00  0.00    -0.312 C  
ENDBRANCH  23  24
ENDBRANCH  12  16
BRANCH  14  26
HETATM   26  C   UNL     1     -11.257  10.187  69.358  1.00  0.00    -0.265 A  
HETATM   27  C   UNL     1     -11.794  11.409  68.899  1.00  0.00    -0.413 A  
HETATM   28  C   UNL     1     -11.444   9.889  70.709  1.00  0.00    -0.433 A  
HETATM   29  C   UNL     1     -12.530  12.259  69.739  1.00  0.00     0.063 A  
HETATM   30  C   UNL     1     -12.164  10.745  71.560  1.00  0.00    -0.302 A  
HETATM   31  C   UNL     1     -12.746  11.916  71.073  1.00  0.00    -0.258 A  
BRANCH  31  32
HETATM   32  O   UNL     1     -13.459  12.822  71.824  1.00  0.00    -0.390 OA 
BRANCH  32  33
HETATM   33  C   UNL     1     -12.952  14.074  72.102  1.00  0.00    -0.369 A  
HETATM   34  C   UNL     1     -13.005  14.493  73.435  1.00  0.00    -0.381 A  
HETATM   35  C   UNL     1     -12.511  15.748  73.800  1.00  0.00    -0.727 A  
HETATM   36  C   UNL     1     -11.957  16.587  72.833  1.00  0.00    -0.486 A  
HETATM   37  C   UNL     1     -11.859  16.153  71.512  1.00  0.00    -0.528 A  
HETATM   38  C   UNL     1     -12.328  14.886  71.153  1.00  0.00    -0.387 A  
ENDBRANCH  32  33
ENDBRANCH  31  32
ENDBRANCH  14  26
ENDBRANCH   3   6
TORSDOF 6
ENDMDL
MODEL       88
REMARK 921   NORMALIZED FREE ENERGY PREDICTED BY IDOCK:   -5.64 KCAL/MOL
REMARK 922        TOTAL FREE ENERGY PREDICTED BY IDOCK:   -7.91 KCAL/MOL
REMARK 923 INTER-LIGAND FREE ENERGY PREDICTED BY IDOCK:   -6.95 KCAL/MOL
REMARK 924 INTRA-LIGAND FREE ENERGY PREDICTED BY IDOCK:   -0.97 KCAL/MOL
REMARK 927      BINDING AFFINITY PREDICTED BY RF-SCORE:    0.00 PKD
ROOT
HETATM    1  N   UNL     1      -9.645   3.446  66.938  1.00  0.00    -0.382 N  
HETATM    2  H1  UNL     1     -10.546   3.301  67.394  1.00  0.00     0.000 HD 
HETATM    3  C   UNL     1      -8.833   4.453  67.380  1.00  0.00    -0.108 C  
HETATM    4  H2  UNL     1      -9.356   2.849  66.163  1.00  0.00     0.000 HD 
HETATM    5  O   UNL     1      -7.752   4.626  66.832  1.00  0.00    -0.089 OA 
ENDROOT
BRANCH   3   6
HETATM    6  C   UNL     1      -9.346   5.228  68.502  1.00  0.00    -0.152 A  
HETATM    7  C   UNL     1      -9.475   4.751  69.803  1.00  0.00    -0.162 A  
HETATM    8  N   UNL     1      -9.333   3.520  70.373  1.00  0.00    -0.154 NA 
HETATM    9  C   UNL     1      -9.962   3.313  71.679  1.00  0.00    -0.099 C  
HETATM   10  H   UNL     1      -8.811   2.776  69.909  1.00  0.00     0.000 HD 
HETATM   11  C   UNL     1      -9.538   4.441  72.609  1.00  0.00    -0.179 C  
HETATM   12  C   UNL     1      -9.863   5.847  72.030  1.00  0.00    -0.157 C  
HETATM   13  N   UNL     1      -9.775   5.842  70.569  1.00  0.00    -0.171 NA 
HETATM   14  C   UNL     1      -9.808   6.597  68.575  1.00  0.00    -0.139 A  
HETATM   15  N   UNL     1     -10.187   6.887  69.839  1.00  0.00    -0.195 NA 
BRANCH  12  16
HETATM   16  C   UNL     1      -9.085   6.994  72.792  1.00  0.00    -0.155 C  
HETATM   17  C   UNL     1      -7.550   6.961  72.682  1.00  0.00    -0.090 C  
HETATM   18  C   UNL     1      -7.103   7.359  71.286  1.00  0.00    -0.063 C  
HETATM   19  O   UNL     1      -5.719   8.876  69.539  1.00  0.00    -0.033 OA 
HETATM   20  N   UNL     1      -7.491   8.735  71.007  1.00  0.00    -0.086 N  
HETATM   21  C   UNL     1      -9.503   8.452  72.499  1.00  0.00    -0.360 C  
HETATM   22  C   UNL     1      -8.911   9.036  71.203  1.00  0.00    -0.215 C  
HETATM   23  C   UNL     1      -6.710   9.389  70.058  1.00  0.00    -0.063 C  
BRANCH  23  24
HETATM   24  C   UNL     1      -7.092  10.780  69.702  1.00  0.00    -0.136 C  
HETATM   25  C   UNL     1      -7.560  11.040  68.473  1.00  0.00    -0.114 C  
ENDBRANCH  23  24
ENDBRANCH  12  16
BRANCH  14  26
HETATM   26  C   UNL     1      -9.867   7.681  67.564  1.00  0.00    -0.214 A  
HETATM   27  C   UNL     1     -10.763   8.758  67.730  1.00  0.00    -0.193 A  
HETATM   28  C   UNL     1      -9.092   7.681  66.403  1.00  0.00    -0.214 A  
HETATM   29  C   UNL     1     -10.835   9.812  66.806  1.00  0.00    -0.071 A  
HETATM   30  C   UNL     1      -9.174   8.725  65.464  1.00  0.00    -0.202 A  
HETATM   31  C   UNL     1     -10.016   9.817  65.678  1.00  0.00    -0.282 A  
BRANCH  31  32
HETATM   32  O   UNL     1     -10.175  10.879  64.818  1.00  0.00    -0.293 OA 
BRANCH  32  33
HETATM   33  C   UNL     1     -10.638  12.098  65.268  1.00  0.00    -0.281 A  
HETATM   34  C   UNL     1     -11.985  12.388  65.027  1.00  0.00    -0.458 A  
HETATM   35  C   UNL     1     -12.532  13.601  65.452  1.00  0.00    -0.537 A  
HETATM   36  C   UNL     1     -11.735  14.527  66.124  1.00  0.00    -0.355 A  
HETATM   37  C   UNL     1     -10.405  14.222  66.408  1.00  0.00    -0.287 A  
HETATM   38  C   UNL     1      -9.866  12.996  66.007  1.00  0.00    -0.259 A  
ENDBRANCH  32  33
ENDBRANCH  31  32
ENDBRANCH  14  26
ENDBRANCH   3   6
TORSDOF 6
ENDMDL
MODEL       89
REMARK 921   NORMALIZED FREE ENERGY PREDICTED BY IDOCK:   -5.62 KCAL/MOL
REMARK 922        TOTAL FREE ENERGY PREDICTED BY IDOCK:   -7.89 KCAL/MOL
REMARK 923 INTER-LIGAND FREE ENERGY PREDICTED BY IDOCK:   -7.13 KCAL/MOL
REMARK 924 INTRA-LIGAND FREE ENERGY PREDICTED BY IDOCK:   -0.76 KCAL/MOL
REMARK 927      BINDING AFFINITY PREDICTED BY RF-SCORE:    0.00 PKD
ROOT
HETATM    1  N   UNL     1      -7.612   9.238  64.013  1.00  0.00    -0.109 N  
HETATM    2  H1  UNL     1      -7.100   8.669  64.686  1.00  0.00     0.000 HD 
HETATM    3  C   UNL     1      -8.886   9.635  64.317  1.00  0.00    -0.228 C  
HETATM    4  H2  UNL     1      -7.182   9.508  63.129  1.00  0.00     0.000 HD 
HETATM    5  O   UNL     1      -9.501  10.319  63.509  1.00  0.00    -0.276 OA 
ENDROOT
BRANCH   3   6
HETATM    6  C   UNL     1      -9.386   9.203  65.614  1.00  0.00    -0.300 A  
HETATM    7  C   UNL     1      -9.266   7.912  66.122  1.00  0.00    -0.152 A  
HETATM    8  N   UNL     1      -8.837   6.730  65.596  1.00  0.00    -0.334 NA 
HETATM    9  C   UNL     1      -9.253   5.505  66.282  1.00  0.00    -0.155 C  
HETATM   10  H   UNL     1      -8.252   6.701  64.761  1.00  0.00     0.000 HD 
HETATM   11  C   UNL     1      -8.927   5.639  67.762  1.00  0.00    -0.107 C  
HETATM   12  C   UNL     1      -9.567   6.904  68.403  1.00  0.00    -0.126 C  
HETATM   13  N   UNL     1      -9.660   7.991  67.428  1.00  0.00    -0.146 NA 
HETATM   14  C   UNL     1     -10.075   9.935  66.655  1.00  0.00    -0.233 A  
HETATM   15  N   UNL     1     -10.341   9.114  67.695  1.00  0.00    -0.240 NA 
BRANCH  12  16
HETATM   16  C   UNL     1      -8.919   7.249  69.804  1.00  0.00    -0.142 C  
HETATM   17  C   UNL     1      -9.728   6.832  71.046  1.00  0.00    -0.182 C  
HETATM   18  C   UNL     1      -9.705   5.324  71.221  1.00  0.00    -0.166 C  
HETATM   19  O   UNL     1      -9.214   3.066  72.610  1.00  0.00    -0.086 OA 
HETATM   20  N   UNL     1      -8.344   4.867  71.463  1.00  0.00    -0.111 N  
HETATM   21  C   UNL     1      -7.473   6.767  70.056  1.00  0.00    -0.094 C  
HETATM   22  C   UNL     1      -7.357   5.289  70.467  1.00  0.00    -0.070 C  
HETATM   23  C   UNL     1      -8.238   3.668  72.163  1.00  0.00    -0.072 C  
BRANCH  23  24
HETATM   24  C   UNL     1      -6.872   3.131  72.395  1.00  0.00    -0.026 C  
HETATM   25  C   UNL     1      -6.148   3.596  73.423  1.00  0.00    -0.011 C  
ENDBRANCH  23  24
ENDBRANCH  12  16
BRANCH  14  26
HETATM   26  C   UNL     1     -10.451  11.364  66.782  1.00  0.00    -0.284 A  
HETATM   27  C   UNL     1     -11.608  11.732  67.500  1.00  0.00    -0.361 A  
HETATM   28  C   UNL     1      -9.728  12.398  66.184  1.00  0.00    -0.254 A  
HETATM   29  C   UNL     1     -11.988  13.074  67.659  1.00  0.00    -0.353 A  
HETATM   30  C   UNL     1     -10.114  13.742  66.324  1.00  0.00    -0.304 A  
HETATM   31  C   UNL     1     -11.223  14.093  67.094  1.00  0.00    -0.317 A  
BRANCH  31  32
HETATM   32  O   UNL     1     -11.687  15.375  67.284  1.00  0.00    -0.179 OA 
BRANCH  32  33
HETATM   33  C   UNL     1     -10.817  16.438  67.408  1.00  0.00    -0.219 A  
HETATM   34  C   UNL     1     -10.475  16.824  68.707  1.00  0.00    -0.338 A  
HETATM   35  C   UNL     1      -9.597  17.891  68.918  1.00  0.00    -0.222 A  
HETATM   36  C   UNL     1      -9.055  18.572  67.829  1.00  0.00    -0.292 A  
HETATM   37  C   UNL     1      -9.356  18.159  66.532  1.00  0.00    -0.301 A  
HETATM   38  C   UNL     1     -10.212  17.074  66.322  1.00  0.00    -0.336 A  
ENDBRANCH  32  33
ENDBRANCH  31  32
ENDBRANCH  14  26
ENDBRANCH   3   6
TORSDOF 6
ENDMDL
MODEL       90
REMARK 921   NORMALIZED FREE ENERGY PREDICTED BY IDOCK:   -5.58 KCAL/MOL
REMARK 922        TOTAL FREE ENERGY PREDICTED BY IDOCK:   -7.85 KCAL/MOL
REMARK 923 INTER-LIGAND FREE ENERGY PREDICTED BY IDOCK:   -6.58 KCAL/MOL
REMARK 924 INTRA-LIGAND FREE ENERGY PREDICTED BY IDOCK:   -1.26 KCAL/MOL
REMARK 927      BINDING AFFINITY PREDICTED BY RF-SCORE:    0.00 PKD
ROOT
HETATM    1  N   UNL     1      -6.027   3.584  68.675  1.00  0.00    -0.023 N  
HETATM    2  H1  UNL     1      -6.724   2.846  68.581  1.00  0.00     0.000 HD 
HETATM    3  C   UNL     1      -6.398   4.777  69.231  1.00  0.00    -0.031 C  
HETATM    4  H2  UNL     1      -5.069   3.435  68.358  1.00  0.00     0.000 HD 
HETATM    5  O   UNL     1      -5.560   5.663  69.343  1.00  0.00    -0.007 OA 
ENDROOT
BRANCH   3   6
HETATM    6  C   UNL     1      -7.786   4.867  69.661  1.00  0.00    -0.063 A  
HETATM    7  C   UNL     1      -8.362   4.079  70.654  1.00  0.00    -0.069 A  
HETATM    8  N   UNL     1      -7.934   2.996  71.363  1.00  0.00    -0.055 NA 
HETATM    9  C   UNL     1      -8.959   2.173  72.008  1.00  0.00    -0.074 C  
HETATM   10  H   UNL     1      -6.942   2.770  71.440  1.00  0.00     0.000 HD 
HETATM   11  C   UNL     1      -9.874   3.080  72.819  1.00  0.00    -0.197 C  
HETATM   12  C   UNL     1     -10.502   4.216  71.963  1.00  0.00     0.002 C  
HETATM   13  N   UNL     1      -9.591   4.628  70.895  1.00  0.00    -0.165 NA 
HETATM   14  C   UNL     1      -8.858   5.736  69.226  1.00  0.00    -0.116 A  
HETATM   15  N   UNL     1      -9.984   5.460  69.921  1.00  0.00    -0.202 NA 
BRANCH  12  16
HETATM   16  C   UNL     1     -11.118   5.362  72.863  1.00  0.00    -0.360 C  
HETATM   17  C   UNL     1     -10.119   6.385  73.436  1.00  0.00    -0.222 C  
HETATM   18  C   UNL     1      -9.598   7.298  72.340  1.00  0.00    -0.150 C  
HETATM   19  O   UNL     1      -9.154   9.710  71.221  1.00  0.00    -0.142 OA 
HETATM   20  N   UNL     1     -10.688   8.081  71.777  1.00  0.00    -0.230 N  
HETATM   21  C   UNL     1     -12.279   6.188  72.265  1.00  0.00    -0.175 C  
HETATM   22  C   UNL     1     -11.836   7.305  71.302  1.00  0.00    -0.307 C  
HETATM   23  C   UNL     1     -10.311   9.291  71.200  1.00  0.00    -0.322 C  
BRANCH  23  24
HETATM   24  C   UNL     1     -11.380  10.108  70.568  1.00  0.00    -0.416 C  
HETATM   25  C   UNL     1     -11.136  10.722  69.402  1.00  0.00    -0.324 C  
ENDBRANCH  23  24
ENDBRANCH  12  16
BRANCH  14  26
HETATM   26  C   UNL     1      -8.898   6.853  68.251  1.00  0.00    -0.122 A  
HETATM   27  C   UNL     1     -10.113   7.208  67.628  1.00  0.00    -0.229 A  
HETATM   28  C   UNL     1      -7.763   7.573  67.871  1.00  0.00    -0.116 A  
HETATM   29  C   UNL     1     -10.195   8.271  66.715  1.00  0.00    -0.375 A  
HETATM   30  C   UNL     1      -7.837   8.625  66.942  1.00  0.00    -0.091 A  
HETATM   31  C   UNL     1      -9.059   9.007  66.387  1.00  0.00    -0.170 A  
BRANCH  31  32
HETATM   32  O   UNL     1      -9.233  10.014  65.465  1.00  0.00    -0.170 OA 
BRANCH  32  33
HETATM   33  C   UNL     1      -9.830  11.207  65.815  1.00  0.00    -0.235 A  
HETATM   34  C   UNL     1     -11.167  11.376  65.443  1.00  0.00    -0.140 A  
HETATM   35  C   UNL     1     -11.844  12.556  65.763  1.00  0.00    -0.494 A  
HETATM   36  C   UNL     1     -11.186  13.569  66.459  1.00  0.00    -0.322 A  
HETATM   37  C   UNL     1      -9.868  13.384  66.873  1.00  0.00    -0.256 A  
HETATM   38  C   UNL     1      -9.201  12.192  66.578  1.00  0.00    -0.216 A  
ENDBRANCH  32  33
ENDBRANCH  31  32
ENDBRANCH  14  26
ENDBRANCH   3   6
TORSDOF 6
ENDMDL
MODEL       91
REMARK 921   NORMALIZED FREE ENERGY PREDICTED BY IDOCK:   -5.54 KCAL/MOL
REMARK 922        TOTAL FREE ENERGY PREDICTED BY IDOCK:   -7.79 KCAL/MOL
REMARK 923 INTER-LIGAND FREE ENERGY PREDICTED BY IDOCK:   -7.16 KCAL/MOL
REMARK 924 INTRA-LIGAND FREE ENERGY PREDICTED BY IDOCK:   -0.63 KCAL/MOL
REMARK 927      BINDING AFFINITY PREDICTED BY RF-SCORE:    0.00 PKD
ROOT
HETATM    1  N   UNL     1     -12.023   6.883  72.729  1.00  0.00    -0.488 N  
HETATM    2  H1  UNL     1     -11.178   6.608  73.230  1.00  0.00     0.000 HD 
HETATM    3  C   UNL     1     -11.955   7.085  71.378  1.00  0.00    -0.340 C  
HETATM    4  H2  UNL     1     -12.904   7.005  73.228  1.00  0.00     0.000 HD 
HETATM    5  O   UNL     1     -12.970   7.415  70.778  1.00  0.00    -0.113 OA 
ENDROOT
BRANCH   3   6
HETATM    6  C   UNL     1     -10.649   6.864  70.774  1.00  0.00    -0.245 A  
HETATM    7  C   UNL     1      -9.949   5.661  70.812  1.00  0.00    -0.195 A  
HETATM    8  N   UNL     1     -10.143   4.481  71.466  1.00  0.00    -0.188 NA 
HETATM    9  C   UNL     1      -8.983   3.596  71.602  1.00  0.00    -0.106 C  
HETATM   10  H   UNL     1     -11.055   4.225  71.844  1.00  0.00     0.000 HD 
HETATM   11  C   UNL     1      -8.348   3.409  70.232  1.00  0.00    -0.085 C  
HETATM   12  C   UNL     1      -7.967   4.759  69.561  1.00  0.00    -0.066 C  
HETATM   13  N   UNL     1      -8.898   5.817  69.952  1.00  0.00    -0.126 NA 
HETATM   14  C   UNL     1      -9.794   7.752  70.016  1.00  0.00    -0.181 A  
HETATM   15  N   UNL     1      -8.668   7.101  69.647  1.00  0.00    -0.141 NA 
BRANCH  12  16
HETATM   16  C   UNL     1      -7.682   4.589  68.014  1.00  0.00    -0.081 C  
HETATM   17  C   UNL     1      -8.878   4.826  67.074  1.00  0.00    -0.107 C  
HETATM   18  C   UNL     1      -9.231   6.302  67.016  1.00  0.00    -0.124 C  
HETATM   19  O   UNL     1      -9.651   8.630  65.723  1.00  0.00    -0.190 OA 
HETATM   20  N   UNL     1      -8.126   7.061  66.449  1.00  0.00    -0.109 N  
HETATM   21  C   UNL     1      -6.504   5.392  67.416  1.00  0.00    -0.051 C  
HETATM   22  C   UNL     1      -6.831   6.863  67.103  1.00  0.00    -0.072 C  
HETATM   23  C   UNL     1      -8.483   8.261  65.841  1.00  0.00    -0.140 C  
BRANCH  23  24
HETATM   24  C   UNL     1      -7.386   9.099  65.287  1.00  0.00    -0.092 C  
HETATM   25  C   UNL     1      -7.423  10.427  65.457  1.00  0.00    -0.142 C  
ENDBRANCH  23  24
ENDBRANCH  12  16
BRANCH  14  26
HETATM   26  C   UNL     1      -9.973   9.149  69.553  1.00  0.00    -0.193 A  
HETATM   27  C   UNL     1     -11.261   9.725  69.517  1.00  0.00    -0.181 A  
HETATM   28  C   UNL     1      -8.918   9.944  69.102  1.00  0.00    -0.170 A  
HETATM   29  C   UNL     1     -11.470  11.050  69.104  1.00  0.00    -0.370 A  
HETATM   30  C   UNL     1      -9.124  11.265  68.669  1.00  0.00    -0.153 A  
HETATM   31  C   UNL     1     -10.395  11.840  68.703  1.00  0.00    -0.214 A  
BRANCH  31  32
HETATM   32  O   UNL     1     -10.701  13.118  68.294  1.00  0.00    -0.230 OA 
BRANCH  32  33
HETATM   33  C   UNL     1     -11.089  13.378  66.996  1.00  0.00    -0.292 A  
HETATM   34  C   UNL     1     -12.369  13.911  66.817  1.00  0.00    -0.370 A  
HETATM   35  C   UNL     1     -12.838  14.203  65.533  1.00  0.00    -0.404 A  
HETATM   36  C   UNL     1     -12.025  13.968  64.425  1.00  0.00    -0.480 A  
HETATM   37  C   UNL     1     -10.731  13.482  64.604  1.00  0.00    -0.429 A  
HETATM   38  C   UNL     1     -10.253  13.216  65.890  1.00  0.00    -0.294 A  
ENDBRANCH  32  33
ENDBRANCH  31  32
ENDBRANCH  14  26
ENDBRANCH   3   6
TORSDOF 6
ENDMDL
MODEL       92
REMARK 921   NORMALIZED FREE ENERGY PREDICTED BY IDOCK:   -5.51 KCAL/MOL
REMARK 922        TOTAL FREE ENERGY PREDICTED BY IDOCK:   -7.75 KCAL/MOL
REMARK 923 INTER-LIGAND FREE ENERGY PREDICTED BY IDOCK:   -7.71 KCAL/MOL
REMARK 924 INTRA-LIGAND FREE ENERGY PREDICTED BY IDOCK:   -0.03 KCAL/MOL
REMARK 927      BINDING AFFINITY PREDICTED BY RF-SCORE:    0.00 PKD
ROOT
HETATM    1  N   UNL     1     -13.782   9.821  71.163  1.00  0.00    -0.377 N  
HETATM    2  H1  UNL     1     -13.882   8.821  70.988  1.00  0.00     0.000 HD 
HETATM    3  C   UNL     1     -12.534  10.379  71.113  1.00  0.00    -0.404 C  
HETATM    4  H2  UNL     1     -14.598  10.395  71.373  1.00  0.00     0.000 HD 
HETATM    5  O   UNL     1     -12.414  11.579  71.324  1.00  0.00    -0.353 OA 
ENDROOT
BRANCH   3   6
HETATM    6  C   UNL     1     -11.449   9.464  70.788  1.00  0.00    -0.364 A  
HETATM    7  C   UNL     1     -11.328   8.168  71.282  1.00  0.00    -0.265 A  
HETATM    8  N   UNL     1     -12.002   7.455  72.228  1.00  0.00    -0.422 NA 
HETATM    9  C   UNL     1     -11.328   6.278  72.782  1.00  0.00    -0.201 C  
HETATM   10  H   UNL     1     -12.934   7.730  72.537  1.00  0.00     0.000 HD 
HETATM   11  C   UNL     1     -10.839   5.409  71.632  1.00  0.00    -0.232 C  
HETATM   12  C   UNL     1      -9.923   6.186  70.645  1.00  0.00    -0.188 C  
HETATM   13  N   UNL     1     -10.314   7.593  70.568  1.00  0.00    -0.209 NA 
HETATM   14  C   UNL     1     -10.300   9.626  69.922  1.00  0.00    -0.249 A  
HETATM   15  N   UNL     1      -9.560   8.496  69.924  1.00  0.00    -0.170 NA 
BRANCH  12  16
HETATM   16  C   UNL     1      -9.744   5.414  69.275  1.00  0.00    -0.224 C  
HETATM   17  C   UNL     1     -10.692   5.829  68.134  1.00  0.00    -0.288 C  
HETATM   18  C   UNL     1     -10.320   7.201  67.600  1.00  0.00    -0.215 C  
HETATM   19  O   UNL     1      -9.609   8.915  65.644  1.00  0.00    -0.220 OA 
HETATM   20  N   UNL     1      -8.987   7.170  67.016  1.00  0.00    -0.126 N  
HETATM   21  C   UNL     1      -8.327   5.377  68.660  1.00  0.00    -0.093 C  
HETATM   22  C   UNL     1      -7.933   6.651  67.891  1.00  0.00    -0.113 C  
HETATM   23  C   UNL     1      -8.745   8.133  66.041  1.00  0.00    -0.156 C  
BRANCH  23  24
HETATM   24  C   UNL     1      -7.384   8.175  65.445  1.00  0.00    -0.069 C  
HETATM   25  C   UNL     1      -7.028   7.244  64.549  1.00  0.00    -0.052 C  
ENDBRANCH  23  24
ENDBRANCH  12  16
BRANCH  14  26
HETATM   26  C   UNL     1      -9.870  10.738  69.040  1.00  0.00    -0.208 A  
HETATM   27  C   UNL     1     -10.819  11.434  68.262  1.00  0.00    -0.253 A  
HETATM   28  C   UNL     1      -8.537  11.127  68.900  1.00  0.00    -0.092 A  
HETATM   29  C   UNL     1     -10.455  12.504  67.429  1.00  0.00    -0.231 A  
HETATM   30  C   UNL     1      -8.164  12.186  68.054  1.00  0.00    -0.158 A  
HETATM   31  C   UNL     1      -9.124  12.906  67.343  1.00  0.00    -0.197 A  
BRANCH  31  32
HETATM   32  O   UNL     1      -8.860  13.949  66.484  1.00  0.00    -0.141 OA 
BRANCH  32  33
HETATM   33  C   UNL     1      -9.867  14.543  65.753  1.00  0.00    -0.314 A  
HETATM   34  C   UNL     1     -10.086  15.906  65.974  1.00  0.00    -0.359 A  
HETATM   35  C   UNL     1     -11.087  16.583  65.271  1.00  0.00    -0.080 A  
HETATM   36  C   UNL     1     -11.869  15.899  64.342  1.00  0.00    -0.101 A  
HETATM   37  C   UNL     1     -11.622  14.552  64.084  1.00  0.00    -0.148 A  
HETATM   38  C   UNL     1     -10.602  13.882  64.766  1.00  0.00    -0.444 A  
ENDBRANCH  32  33
ENDBRANCH  31  32
ENDBRANCH  14  26
ENDBRANCH   3   6
TORSDOF 6
ENDMDL
MODEL       93
REMARK 921   NORMALIZED FREE ENERGY PREDICTED BY IDOCK:   -5.50 KCAL/MOL
REMARK 922        TOTAL FREE ENERGY PREDICTED BY IDOCK:   -7.73 KCAL/MOL
REMARK 923 INTER-LIGAND FREE ENERGY PREDICTED BY IDOCK:   -7.09 KCAL/MOL
REMARK 924 INTRA-LIGAND FREE ENERGY PREDICTED BY IDOCK:   -0.64 KCAL/MOL
REMARK 927      BINDING AFFINITY PREDICTED BY RF-SCORE:    0.00 PKD
ROOT
HETATM    1  N   UNL     1     -12.994  15.971  69.932  1.00  0.00    -0.517 N  
HETATM    2  H1  UNL     1     -12.935  16.776  69.309  1.00  0.00     0.000 HD 
HETATM    3  C   UNL     1     -12.013  15.020  69.881  1.00  0.00    -0.334 C  
HETATM    4  H2  UNL     1     -13.773  15.878  70.584  1.00  0.00     0.000 HD 
HETATM    5  O   UNL     1     -12.085  14.054  70.631  1.00  0.00    -0.326 OA 
ENDROOT
BRANCH   3   6
HETATM    6  C   UNL     1     -10.944  15.270  68.924  1.00  0.00    -0.261 A  
HETATM    7  C   UNL     1     -10.519  16.532  68.520  1.00  0.00    -0.302 A  
HETATM    8  N   UNL     1     -10.989  17.795  68.729  1.00  0.00    -0.144 NA 
HETATM    9  C   UNL     1     -10.540  18.836  67.802  1.00  0.00    -0.390 C  
HETATM   10  H   UNL     1     -11.626  18.005  69.498  1.00  0.00     0.000 HD 
HETATM   11  C   UNL     1      -9.022  18.784  67.708  1.00  0.00    -0.308 C  
HETATM   12  C   UNL     1      -8.497  17.380  67.295  1.00  0.00    -0.208 C  
HETATM   13  N   UNL     1      -9.375  16.325  67.802  1.00  0.00    -0.215 NA 
HETATM   14  C   UNL     1     -10.087  14.355  68.200  1.00  0.00    -0.226 A  
HETATM   15  N   UNL     1      -9.228  15.049  67.422  1.00  0.00    -0.191 NA 
BRANCH  12  16
HETATM   16  C   UNL     1      -6.948  17.223  67.578  1.00  0.00    -0.178 C  
HETATM   17  C   UNL     1      -6.524  17.241  69.058  1.00  0.00    -0.221 C  
HETATM   18  C   UNL     1      -6.949  15.960  69.754  1.00  0.00    -0.072 C  
HETATM   19  O   UNL     1      -6.478  13.721  71.180  1.00  0.00     0.043 OA 
HETATM   20  N   UNL     1      -6.271  14.816  69.162  1.00  0.00    -0.101 N  
HETATM   21  C   UNL     1      -6.229  16.011  66.943  1.00  0.00     0.189 C  
HETATM   22  C   UNL     1      -6.412  14.689  67.710  1.00  0.00    -0.164 C  
HETATM   23  C   UNL     1      -6.126  13.715  70.001  1.00  0.00    -0.137 C  
BRANCH  23  24
HETATM   24  C   UNL     1      -5.482  12.503  69.430  1.00  0.00    -0.075 C  
HETATM   25  C   UNL     1      -5.847  11.292  69.875  1.00  0.00    -0.104 C  
ENDBRANCH  23  24
ENDBRANCH  12  16
BRANCH  14  26
HETATM   26  C   UNL     1      -9.967  12.877  68.226  1.00  0.00    -0.234 A  
HETATM   27  C   UNL     1     -11.066  12.082  68.612  1.00  0.00    -0.298 A  
HETATM   28  C   UNL     1      -8.782  12.205  67.917  1.00  0.00    -0.176 A  
HETATM   29  C   UNL     1     -10.997  10.679  68.630  1.00  0.00    -0.291 A  
HETATM   30  C   UNL     1      -8.702  10.802  67.952  1.00  0.00    -0.129 A  
HETATM   31  C   UNL     1      -9.819  10.028  68.271  1.00  0.00    -0.146 A  
BRANCH  31  32
HETATM   32  O   UNL     1      -9.840   8.654  68.342  1.00  0.00    -0.162 OA 
BRANCH  32  33
HETATM   33  C   UNL     1     -10.005   8.004  69.547  1.00  0.00    -0.186 A  
HETATM   34  C   UNL     1     -10.968   6.991  69.590  1.00  0.00    -0.268 A  
HETATM   35  C   UNL     1     -11.195   6.283  70.773  1.00  0.00    -0.387 A  
HETATM   36  C   UNL     1     -10.456   6.584  71.917  1.00  0.00    -0.233 A  
HETATM   37  C   UNL     1      -9.462   7.560  71.865  1.00  0.00    -0.173 A  
HETATM   38  C   UNL     1      -9.216   8.248  70.673  1.00  0.00    -0.167 A  
ENDBRANCH  32  33
ENDBRANCH  31  32
ENDBRANCH  14  26
ENDBRANCH   3   6
TORSDOF 6
ENDMDL
MODEL       94
REMARK 921   NORMALIZED FREE ENERGY PREDICTED BY IDOCK:   -5.49 KCAL/MOL
REMARK 922        TOTAL FREE ENERGY PREDICTED BY IDOCK:   -7.71 KCAL/MOL
REMARK 923 INTER-LIGAND FREE ENERGY PREDICTED BY IDOCK:   -8.59 KCAL/MOL
REMARK 924 INTRA-LIGAND FREE ENERGY PREDICTED BY IDOCK:    0.88 KCAL/MOL
REMARK 927      BINDING AFFINITY PREDICTED BY RF-SCORE:    0.00 PKD
ROOT
HETATM    1  N   UNL     1      -9.611  13.118  65.971  1.00  0.00    -0.436 N  
HETATM    2  H1  UNL     1      -8.731  12.827  66.394  1.00  0.00     0.000 HD 
HETATM    3  C   UNL     1     -10.586  12.182  65.759  1.00  0.00    -0.260 C  
HETATM    4  H2  UNL     1      -9.763  14.092  65.710  1.00  0.00     0.000 HD 
HETATM    5  O   UNL     1     -11.643  12.533  65.251  1.00  0.00    -0.333 OA 
ENDROOT
BRANCH   3   6
HETATM    6  C   UNL     1     -10.261  10.829  66.187  1.00  0.00    -0.308 A  
HETATM    7  C   UNL     1      -9.536   9.910  65.433  1.00  0.00    -0.257 A  
HETATM    8  N   UNL     1      -9.073   9.902  64.151  1.00  0.00    -0.239 NA 
HETATM    9  C   UNL     1      -8.728   8.600  63.575  1.00  0.00     0.119 C  
HETATM   10  H   UNL     1      -8.972  10.765  63.616  1.00  0.00     0.000 HD 
HETATM   11  C   UNL     1      -7.801   7.871  64.536  1.00  0.00    -0.134 C  
HETATM   12  C   UNL     1      -8.410   7.728  65.960  1.00  0.00    -0.133 C  
HETATM   13  N   UNL     1      -9.271   8.867  66.276  1.00  0.00    -0.190 NA 
HETATM   14  C   UNL     1     -10.561  10.126  67.416  1.00  0.00    -0.272 A  
HETATM   15  N   UNL     1     -10.047   8.878  67.369  1.00  0.00    -0.208 NA 
BRANCH  12  16
HETATM   16  C   UNL     1      -7.315   7.336  67.034  1.00  0.00    -0.093 C  
HETATM   17  C   UNL     1      -6.852   8.465  67.972  1.00  0.00    -0.070 C  
HETATM   18  C   UNL     1      -7.942   8.816  68.969  1.00  0.00    -0.111 C  
HETATM   19  O   UNL     1      -8.911   9.150  71.463  1.00  0.00    -0.330 OA 
HETATM   20  N   UNL     1      -8.222   7.676  69.830  1.00  0.00    -0.129 N  
HETATM   21  C   UNL     1      -7.613   6.122  67.941  1.00  0.00    -0.101 C  
HETATM   22  C   UNL     1      -8.541   6.429  69.131  1.00  0.00    -0.125 C  
HETATM   23  C   UNL     1      -8.752   7.992  71.077  1.00  0.00    -0.135 C  
BRANCH  23  24
HETATM   24  C   UNL     1      -9.102   6.862  71.978  1.00  0.00    -0.141 C  
HETATM   25  C   UNL     1     -10.253   6.898  72.663  1.00  0.00    -0.210 C  
ENDBRANCH  23  24
ENDBRANCH  12  16
BRANCH  14  26
HETATM   26  C   UNL     1     -11.242  10.552  68.663  1.00  0.00    -0.328 A  
HETATM   27  C   UNL     1     -11.807  11.841  68.758  1.00  0.00    -0.380 A  
HETATM   28  C   UNL     1     -11.328   9.744  69.798  1.00  0.00    -0.201 A  
HETATM   29  C   UNL     1     -12.475  12.275  69.914  1.00  0.00     0.017 A  
HETATM   30  C   UNL     1     -11.979  10.180  70.964  1.00  0.00    -0.474 A  
HETATM   31  C   UNL     1     -12.591  11.433  71.018  1.00  0.00    -0.386 A  
BRANCH  31  32
HETATM   32  O   UNL     1     -13.243  11.954  72.112  1.00  0.00    -0.494 OA 
BRANCH  32  33
HETATM   33  C   UNL     1     -13.324  13.315  72.313  1.00  0.00    -0.533 A  
HETATM   34  C   UNL     1     -14.222  14.019  71.505  1.00  0.00    -0.209 A  
HETATM   35  C   UNL     1     -14.365  15.402  71.647  1.00  0.00    -0.615 A  
HETATM   36  C   UNL     1     -13.613  16.085  72.602  1.00  0.00    -0.389 A  
HETATM   37  C   UNL     1     -12.752  15.380  73.442  1.00  0.00    -0.656 A  
HETATM   38  C   UNL     1     -12.631  13.993  73.318  1.00  0.00     0.153 A  
ENDBRANCH  32  33
ENDBRANCH  31  32
ENDBRANCH  14  26
ENDBRANCH   3   6
TORSDOF 6
ENDMDL
MODEL       95
REMARK 921   NORMALIZED FREE ENERGY PREDICTED BY IDOCK:   -5.47 KCAL/MOL
REMARK 922        TOTAL FREE ENERGY PREDICTED BY IDOCK:   -7.70 KCAL/MOL
REMARK 923 INTER-LIGAND FREE ENERGY PREDICTED BY IDOCK:   -6.63 KCAL/MOL
REMARK 924 INTRA-LIGAND FREE ENERGY PREDICTED BY IDOCK:   -1.07 KCAL/MOL
REMARK 927      BINDING AFFINITY PREDICTED BY RF-SCORE:    0.00 PKD
ROOT
HETATM    1  N   UNL     1      -5.555  14.572  68.580  1.00  0.00    -0.091 N  
HETATM    2  H1  UNL     1      -6.136  15.135  69.200  1.00  0.00     0.000 HD 
HETATM    3  C   UNL     1      -6.143  13.584  67.840  1.00  0.00    -0.151 C  
HETATM    4  H2  UNL     1      -4.552  14.743  68.512  1.00  0.00     0.000 HD 
HETATM    5  O   UNL     1      -5.444  12.908  67.095  1.00  0.00    -0.345 OA 
ENDROOT
BRANCH   3   6
HETATM    6  C   UNL     1      -7.582  13.444  68.007  1.00  0.00    -0.143 A  
HETATM    7  C   UNL     1      -8.514  14.441  67.733  1.00  0.00    -0.173 A  
HETATM    8  N   UNL     1      -8.411  15.761  67.407  1.00  0.00    -0.158 NA 
HETATM    9  C   UNL     1      -9.598  16.594  67.614  1.00  0.00    -0.239 C  
HETATM   10  H   UNL     1      -7.545  16.151  67.035  1.00  0.00     0.000 HD 
HETATM   11  C   UNL     1     -10.790  15.918  66.951  1.00  0.00    -0.240 C  
HETATM   12  C   UNL     1     -11.011  14.464  67.458  1.00  0.00    -0.293 C  
HETATM   13  N   UNL     1      -9.737  13.836  67.809  1.00  0.00    -0.224 NA 
HETATM   14  C   UNL     1      -8.380  12.320  68.450  1.00  0.00    -0.144 A  
HETATM   15  N   UNL     1      -9.689  12.654  68.439  1.00  0.00    -0.214 NA 
BRANCH  12  16
HETATM   16  C   UNL     1     -11.976  13.648  66.506  1.00  0.00    -0.465 C  
HETATM   17  C   UNL     1     -11.919  14.008  65.011  1.00  0.00    -0.409 C  
HETATM   18  C   UNL     1     -10.623  13.519  64.390  1.00  0.00    -0.377 C  
HETATM   19  O   UNL     1      -9.195  12.111  62.588  1.00  0.00     0.121 OA 
HETATM   20  N   UNL     1     -10.553  12.066  64.449  1.00  0.00    -0.295 N  
HETATM   21  C   UNL     1     -11.905  12.106  66.577  1.00  0.00    -0.322 C  
HETATM   22  C   UNL     1     -10.742  11.485  65.781  1.00  0.00    -0.271 C  
HETATM   23  C   UNL     1      -9.752  11.471  63.479  1.00  0.00    -0.336 C  
BRANCH  23  24
HETATM   24  C   UNL     1      -9.609   9.992  63.524  1.00  0.00    -0.135 C  
HETATM   25  C   UNL     1      -8.394   9.454  63.692  1.00  0.00    -0.184 C  
ENDBRANCH  23  24
ENDBRANCH  12  16
BRANCH  14  26
HETATM   26  C   UNL     1      -8.018  10.932  68.826  1.00  0.00    -0.139 A  
HETATM   27  C   UNL     1      -8.339   9.859  67.969  1.00  0.00    -0.113 A  
HETATM   28  C   UNL     1      -7.393  10.608  70.032  1.00  0.00     0.013 A  
HETATM   29  C   UNL     1      -7.997   8.533  68.281  1.00  0.00    -0.114 A  
HETATM   30  C   UNL     1      -7.065   9.281  70.357  1.00  0.00    -0.091 A  
HETATM   31  C   UNL     1      -7.330   8.239  69.468  1.00  0.00    -0.074 A  
BRANCH  31  32
HETATM   32  O   UNL     1      -7.058   6.909  69.697  1.00  0.00    -0.064 OA 
BRANCH  32  33
HETATM   33  C   UNL     1      -8.015   6.063  70.215  1.00  0.00    -0.107 A  
HETATM   34  C   UNL     1      -7.986   4.736  69.778  1.00  0.00    -0.066 A  
HETATM   35  C   UNL     1      -8.921   3.815  70.257  1.00  0.00    -0.170 A  
HETATM   36  C   UNL     1      -9.888   4.218  71.178  1.00  0.00    -0.250 A  
HETATM   37  C   UNL     1      -9.891   5.529  71.651  1.00  0.00    -0.221 A  
HETATM   38  C   UNL     1      -8.936   6.443  71.193  1.00  0.00    -0.146 A  
ENDBRANCH  32  33
ENDBRANCH  31  32
ENDBRANCH  14  26
ENDBRANCH   3   6
TORSDOF 6
ENDMDL
MODEL       96
REMARK 921   NORMALIZED FREE ENERGY PREDICTED BY IDOCK:   -5.44 KCAL/MOL
REMARK 922        TOTAL FREE ENERGY PREDICTED BY IDOCK:   -7.66 KCAL/MOL
REMARK 923 INTER-LIGAND FREE ENERGY PREDICTED BY IDOCK:   -8.01 KCAL/MOL
REMARK 924 INTRA-LIGAND FREE ENERGY PREDICTED BY IDOCK:    0.36 KCAL/MOL
REMARK 927      BINDING AFFINITY PREDICTED BY RF-SCORE:    0.00 PKD
ROOT
HETATM    1  N   UNL     1      -6.089   6.209  66.349  1.00  0.00    -0.031 N  
HETATM    2  H1  UNL     1      -6.005   6.786  67.186  1.00  0.00     0.000 HD 
HETATM    3  C   UNL     1      -7.258   5.534  66.126  1.00  0.00    -0.077 C  
HETATM    4  H2  UNL     1      -5.315   6.136  65.690  1.00  0.00     0.000 HD 
HETATM    5  O   UNL     1      -7.358   4.841  65.122  1.00  0.00    -0.069 OA 
ENDROOT
BRANCH   3   6
HETATM    6  C   UNL     1      -8.297   5.728  67.127  1.00  0.00    -0.104 A  
HETATM    7  C   UNL     1      -8.729   4.753  68.022  1.00  0.00    -0.103 A  
HETATM    8  N   UNL     1      -8.478   3.420  68.155  1.00  0.00    -0.083 NA 
HETATM    9  C   UNL     1      -9.435   2.635  68.940  1.00  0.00    -0.096 C  
HETATM   10  H   UNL     1      -7.659   2.987  67.726  1.00  0.00     0.000 HD 
HETATM   11  C   UNL     1      -9.651   3.327  70.278  1.00  0.00    -0.198 C  
HETATM   12  C   UNL     1     -10.110   4.804  70.120  1.00  0.00    -0.240 C  
HETATM   13  N   UNL     1      -9.538   5.401  68.913  1.00  0.00    -0.132 NA 
HETATM   14  C   UNL     1      -9.091   6.893  67.455  1.00  0.00    -0.118 A  
HETATM   15  N   UNL     1      -9.933   6.603  68.471  1.00  0.00    -0.146 NA 
BRANCH  12  16
HETATM   16  C   UNL     1      -9.953   5.618  71.468  1.00  0.00    -0.230 C  
HETATM   17  C   UNL     1      -9.162   6.935  71.376  1.00  0.00    -0.156 C  
HETATM   18  C   UNL     1      -9.964   7.993  70.637  1.00  0.00    -0.189 C  
HETATM   19  O   UNL     1     -11.143  10.407  70.418  1.00  0.00    -0.301 OA 
HETATM   20  N   UNL     1     -11.178   8.310  71.375  1.00  0.00    -0.246 N  
HETATM   21  C   UNL     1     -11.243   5.948  72.252  1.00  0.00    -0.343 C  
HETATM   22  C   UNL     1     -12.022   7.162  71.714  1.00  0.00    -0.313 C  
HETATM   23  C   UNL     1     -11.698   9.580  71.140  1.00  0.00    -0.363 C  
BRANCH  23  24
HETATM   24  C   UNL     1     -12.964   9.938  71.833  1.00  0.00    -0.545 C  
HETATM   25  C   UNL     1     -13.378  11.212  71.832  1.00  0.00    -0.409 C  
ENDBRANCH  23  24
ENDBRANCH  12  16
BRANCH  14  26
HETATM   26  C   UNL     1      -9.081   8.280  66.933  1.00  0.00    -0.181 A  
HETATM   27  C   UNL     1     -10.060   9.204  67.356  1.00  0.00    -0.289 A  
HETATM   28  C   UNL     1      -8.156   8.732  65.989  1.00  0.00    -0.112 A  
HETATM   29  C   UNL     1     -10.073  10.532  66.899  1.00  0.00    -0.265 A  
HETATM   30  C   UNL     1      -8.177  10.055  65.514  1.00  0.00    -0.146 A  
HETATM   31  C   UNL     1      -9.110  10.975  65.994  1.00  0.00    -0.195 A  
BRANCH  31  32
HETATM   32  O   UNL     1      -9.218  12.284  65.586  1.00  0.00    -0.074 OA 
BRANCH  32  33
HETATM   33  C   UNL     1     -10.351  12.741  64.945  1.00  0.00    -0.309 A  
HETATM   34  C   UNL     1     -10.746  14.053  65.224  1.00  0.00    -0.367 A  
HETATM   35  C   UNL     1     -11.882  14.592  64.614  1.00  0.00    -0.462 A  
HETATM   36  C   UNL     1     -12.623  13.821  63.719  1.00  0.00    -0.057 A  
HETATM   37  C   UNL     1     -12.205  12.530  63.402  1.00  0.00    -0.613 A  
HETATM   38  C   UNL     1     -11.052  12.002  63.992  1.00  0.00    -0.452 A  
ENDBRANCH  32  33
ENDBRANCH  31  32
ENDBRANCH  14  26
ENDBRANCH   3   6
TORSDOF 6
ENDMDL
MODEL       97
REMARK 921   NORMALIZED FREE ENERGY PREDICTED BY IDOCK:   -5.42 KCAL/MOL
REMARK 922        TOTAL FREE ENERGY PREDICTED BY IDOCK:   -7.63 KCAL/MOL
REMARK 923 INTER-LIGAND FREE ENERGY PREDICTED BY IDOCK:   -7.43 KCAL/MOL
REMARK 924 INTRA-LIGAND FREE ENERGY PREDICTED BY IDOCK:   -0.20 KCAL/MOL
REMARK 927      BINDING AFFINITY PREDICTED BY RF-SCORE:    0.00 PKD
ROOT
HETATM    1  N   UNL     1      -5.706  13.941  71.159  1.00  0.00    -0.214 N  
HETATM    2  H1  UNL     1      -6.314  14.410  71.831  1.00  0.00     0.000 HD 
HETATM    3  C   UNL     1      -5.860  14.212  69.827  1.00  0.00    -0.113 C  
HETATM    4  H2  UNL     1      -4.996  13.282  71.475  1.00  0.00     0.000 HD 
HETATM    5  O   UNL     1      -5.130  13.649  69.021  1.00  0.00    -0.070 OA 
ENDROOT
BRANCH   3   6
HETATM    6  C   UNL     1      -6.895  15.181  69.498  1.00  0.00    -0.179 A  
HETATM    7  C   UNL     1      -6.728  16.563  69.530  1.00  0.00    -0.198 A  
HETATM    8  N   UNL     1      -5.728  17.380  69.969  1.00  0.00    -0.240 NA 
HETATM    9  C   UNL     1      -6.078  18.777  70.238  1.00  0.00    -0.054 C  
HETATM   10  H   UNL     1      -4.779  17.033  70.103  1.00  0.00     0.000 HD 
HETATM   11  C   UNL     1      -6.806  19.340  69.026  1.00  0.00    -0.372 C  
HETATM   12  C   UNL     1      -8.054  18.499  68.634  1.00  0.00    -0.310 C  
HETATM   13  N   UNL     1      -7.849  17.085  68.948  1.00  0.00    -0.246 NA 
HETATM   14  C   UNL     1      -8.264  14.996  69.065  1.00  0.00    -0.187 A  
HETATM   15  N   UNL     1      -8.850  16.198  68.868  1.00  0.00    -0.236 NA 
BRANCH  12  16
HETATM   16  C   UNL     1      -8.565  18.845  67.178  1.00  0.00    -0.295 C  
HETATM   17  C   UNL     1      -7.953  18.021  66.031  1.00  0.00    -0.156 C  
HETATM   18  C   UNL     1      -8.477  16.596  66.055  1.00  0.00    -0.163 C  
HETATM   19  O   UNL     1      -9.703  14.460  64.958  1.00  0.00    -0.139 OA 
HETATM   20  N   UNL     1      -9.915  16.585  65.827  1.00  0.00    -0.304 N  
HETATM   21  C   UNL     1     -10.092  18.839  66.940  1.00  0.00    -0.398 C  
HETATM   22  C   UNL     1     -10.696  17.440  66.723  1.00  0.00    -0.100 C  
HETATM   23  C   UNL     1     -10.420  15.405  65.288  1.00  0.00    -0.415 C  
BRANCH  23  24
HETATM   24  C   UNL     1     -11.889  15.323  65.079  1.00  0.00    -0.100 C  
HETATM   25  C   UNL     1     -12.441  14.153  64.733  1.00  0.00    -0.395 C  
ENDBRANCH  23  24
ENDBRANCH  12  16
BRANCH  14  26
HETATM   26  C   UNL     1      -9.053  13.778  68.759  1.00  0.00     0.027 A  
HETATM   27  C   UNL     1      -8.401  12.544  68.553  1.00  0.00    -0.069 A  
HETATM   28  C   UNL     1     -10.442  13.786  68.622  1.00  0.00    -0.245 A  
HETATM   29  C   UNL     1      -9.113  11.365  68.280  1.00  0.00    -0.179 A  
HETATM   30  C   UNL     1     -11.159  12.612  68.330  1.00  0.00    -0.297 A  
HETATM   31  C   UNL     1     -10.504  11.387  68.196  1.00  0.00    -0.187 A  
BRANCH  31  32
HETATM   32  O   UNL     1     -11.113  10.188  67.902  1.00  0.00    -0.286 OA 
BRANCH  32  33
HETATM   33  C   UNL     1     -10.403   9.146  67.345  1.00  0.00    -0.264 A  
HETATM   34  C   UNL     1      -9.831   9.373  66.090  1.00  0.00    -0.356 A  
HETATM   35  C   UNL     1      -9.094   8.368  65.457  1.00  0.00    -0.108 A  
HETATM   36  C   UNL     1      -8.925   7.132  66.081  1.00  0.00    -0.168 A  
HETATM   37  C   UNL     1      -9.454   6.918  67.353  1.00  0.00    -0.151 A  
HETATM   38  C   UNL     1     -10.166   7.934  67.997  1.00  0.00    -0.256 A  
ENDBRANCH  32  33
ENDBRANCH  31  32
ENDBRANCH  14  26
ENDBRANCH   3   6
TORSDOF 6
ENDMDL
MODEL       98
REMARK 921   NORMALIZED FREE ENERGY PREDICTED BY IDOCK:   -5.39 KCAL/MOL
REMARK 922        TOTAL FREE ENERGY PREDICTED BY IDOCK:   -7.58 KCAL/MOL
REMARK 923 INTER-LIGAND FREE ENERGY PREDICTED BY IDOCK:   -7.22 KCAL/MOL
REMARK 924 INTRA-LIGAND FREE ENERGY PREDICTED BY IDOCK:   -0.36 KCAL/MOL
REMARK 927      BINDING AFFINITY PREDICTED BY RF-SCORE:    0.00 PKD
ROOT
HETATM    1  N   UNL     1     -10.193  11.192  63.847  1.00  0.00    -0.330 N  
HETATM    2  H1  UNL     1     -11.068  11.558  64.222  1.00  0.00     0.000 HD 
HETATM    3  C   UNL     1      -9.377  10.461  64.665  1.00  0.00    -0.254 C  
HETATM    4  H2  UNL     1      -9.932  11.367  62.877  1.00  0.00     0.000 HD 
HETATM    5  O   UNL     1      -8.327  10.021  64.215  1.00  0.00    -0.151 OA 
ENDROOT
BRANCH   3   6
HETATM    6  C   UNL     1      -9.863  10.262  66.023  1.00  0.00    -0.292 A  
HETATM    7  C   UNL     1     -10.100   9.021  66.609  1.00  0.00    -0.285 A  
HETATM    8  N   UNL     1     -10.106   7.743  66.134  1.00  0.00    -0.420 NA 
HETATM    9  C   UNL     1     -10.813   6.739  66.933  1.00  0.00    -0.331 C  
HETATM   10  H   UNL     1      -9.639   7.497  65.261  1.00  0.00     0.000 HD 
HETATM   11  C   UNL     1     -10.325   6.827  68.371  1.00  0.00    -0.214 C  
HETATM   12  C   UNL     1     -10.483   8.254  68.970  1.00  0.00    -0.197 C  
HETATM   13  N   UNL     1     -10.327   9.274  67.933  1.00  0.00    -0.215 NA 
HETATM   14  C   UNL     1     -10.193  11.216  67.061  1.00  0.00    -0.215 A  
HETATM   15  N   UNL     1     -10.600  10.564  68.172  1.00  0.00    -0.189 NA 
BRANCH  12  16
HETATM   16  C   UNL     1      -9.632   8.437  70.291  1.00  0.00    -0.170 C  
HETATM   17  C   UNL     1     -10.287   7.941  71.593  1.00  0.00    -0.250 C  
HETATM   18  C   UNL     1     -10.323   6.423  71.631  1.00  0.00    -0.205 C  
HETATM   19  O   UNL     1      -9.774   4.026  72.734  1.00  0.00    -0.131 OA 
HETATM   20  N   UNL     1      -8.970   5.887  71.638  1.00  0.00    -0.139 N  
HETATM   21  C   UNL     1      -8.194   7.873  70.294  1.00  0.00    -0.124 C  
HETATM   22  C   UNL     1      -8.105   6.359  70.554  1.00  0.00    -0.117 C  
HETATM   23  C   UNL     1      -8.836   4.625  72.209  1.00  0.00    -0.122 C  
BRANCH  23  24
HETATM   24  C   UNL     1      -7.482   4.011  72.200  1.00  0.00    -0.066 C  
HETATM   25  C   UNL     1      -6.824   3.852  73.356  1.00  0.00    -0.049 C  
ENDBRANCH  23  24
ENDBRANCH  12  16
BRANCH  14  26
HETATM   26  C   UNL     1     -10.097  12.695  67.117  1.00  0.00    -0.224 A  
HETATM   27  C   UNL     1      -9.127  13.373  66.350  1.00  0.00    -0.063 A  
HETATM   28  C   UNL     1     -10.909  13.480  67.938  1.00  0.00    -0.262 A  
HETATM   29  C   UNL     1      -9.017  14.772  66.361  1.00  0.00    -0.223 A  
HETATM   30  C   UNL     1     -10.791  14.880  67.967  1.00  0.00    -0.263 A  
HETATM   31  C   UNL     1      -9.871  15.539  67.151  1.00  0.00    -0.235 A  
BRANCH  31  32
HETATM   32  O   UNL     1      -9.673  16.900  67.114  1.00  0.00    -0.242 OA 
BRANCH  32  33
HETATM   33  C   UNL     1      -8.422  17.445  67.314  1.00  0.00    -0.208 A  
HETATM   34  C   UNL     1      -7.637  16.870  68.318  1.00  0.00    -0.202 A  
HETATM   35  C   UNL     1      -6.356  17.362  68.581  1.00  0.00    -0.179 A  
HETATM   36  C   UNL     1      -5.854  18.430  67.837  1.00  0.00    -0.168 A  
HETATM   37  C   UNL     1      -6.615  18.974  66.804  1.00  0.00    -0.200 A  
HETATM   38  C   UNL     1      -7.885  18.462  66.522  1.00  0.00    -0.279 A  
ENDBRANCH  32  33
ENDBRANCH  31  32
ENDBRANCH  14  26
ENDBRANCH   3   6
TORSDOF 6
ENDMDL
MODEL       99
REMARK 921   NORMALIZED FREE ENERGY PREDICTED BY IDOCK:   -5.37 KCAL/MOL
REMARK 922        TOTAL FREE ENERGY PREDICTED BY IDOCK:   -7.55 KCAL/MOL
REMARK 923 INTER-LIGAND FREE ENERGY PREDICTED BY IDOCK:   -6.94 KCAL/MOL
REMARK 924 INTRA-LIGAND FREE ENERGY PREDICTED BY IDOCK:   -0.61 KCAL/MOL
REMARK 927      BINDING AFFINITY PREDICTED BY RF-SCORE:    0.00 PKD
ROOT
HETATM    1  N   UNL     1      -5.839  10.935  64.583  1.00  0.00    -0.366 N  
HETATM    2  H1  UNL     1      -6.475  11.686  64.316  1.00  0.00     0.000 HD 
HETATM    3  C   UNL     1      -5.918  10.420  65.848  1.00  0.00    -0.105 C  
HETATM    4  H2  UNL     1      -5.156  10.573  63.918  1.00  0.00     0.000 HD 
HETATM    5  O   UNL     1      -5.155   9.518  66.169  1.00  0.00    -0.034 OA 
ENDROOT
BRANCH   3   6
HETATM    6  C   UNL     1      -6.942  11.005  66.702  1.00  0.00    -0.140 A  
HETATM    7  C   UNL     1      -6.942  12.321  67.156  1.00  0.00    -0.102 A  
HETATM    8  N   UNL     1      -6.034  13.336  67.097  1.00  0.00    -0.425 NA 
HETATM    9  C   UNL     1      -6.201  14.436  68.050  1.00  0.00    -0.155 C  
HETATM   10  H   UNL     1      -5.272  13.329  66.420  1.00  0.00     0.000 HD 
HETATM   11  C   UNL     1      -7.639  14.931  67.977  1.00  0.00    -0.128 C  
HETATM   12  C   UNL     1      -8.674  13.797  68.219  1.00  0.00    -0.179 C  
HETATM   13  N   UNL     1      -8.168  12.515  67.728  1.00  0.00    -0.153 NA 
HETATM   14  C   UNL     1      -8.152  10.435  67.256  1.00  0.00    -0.114 A  
HETATM   15  N   UNL     1      -8.803  11.364  67.989  1.00  0.00    -0.149 NA 
BRANCH  12  16
HETATM   16  C   UNL     1     -10.129  14.218  67.761  1.00  0.00    -0.231 C  
HETATM   17  C   UNL     1     -10.890  15.166  68.705  1.00  0.00    -0.245 C  
HETATM   18  C   UNL     1     -10.293  16.562  68.659  1.00  0.00    -0.287 C  
HETATM   19  O   UNL     1     -10.423  19.227  68.277  1.00  0.00    -0.390 OA 
HETATM   20  N   UNL     1     -10.440  17.128  67.325  1.00  0.00    -0.328 N  
HETATM   21  C   UNL     1     -10.283  14.812  66.343  1.00  0.00    -0.299 C  
HETATM   22  C   UNL     1      -9.915  16.303  66.235  1.00  0.00    -0.317 C  
HETATM   23  C   UNL     1     -10.457  18.519  67.272  1.00  0.00    -0.419 C  
BRANCH  23  24
HETATM   24  C   UNL     1     -10.558  19.149  65.929  1.00  0.00    -0.495 C  
HETATM   25  C   UNL     1      -9.812  20.227  65.650  1.00  0.00    -0.095 C  
ENDBRANCH  23  24
ENDBRANCH  12  16
BRANCH  14  26
HETATM   26  C   UNL     1      -8.783   9.102  67.102  1.00  0.00    -0.130 A  
HETATM   27  C   UNL     1     -10.188   8.975  67.123  1.00  0.00    -0.334 A  
HETATM   28  C   UNL     1      -8.048   7.922  66.972  1.00  0.00    -0.116 A  
HETATM   29  C   UNL     1     -10.823   7.733  66.963  1.00  0.00    -0.176 A  
HETATM   30  C   UNL     1      -8.679   6.674  66.830  1.00  0.00    -0.121 A  
HETATM   31  C   UNL     1     -10.070   6.575  66.785  1.00  0.00    -0.176 A  
BRANCH  31  32
HETATM   32  O   UNL     1     -10.780   5.403  66.659  1.00  0.00    -0.295 OA 
BRANCH  32  33
HETATM   33  C   UNL     1     -10.150   4.216  66.352  1.00  0.00    -0.078 A  
HETATM   34  C   UNL     1      -9.858   3.363  67.420  1.00  0.00     0.173 A  
HETATM   35  C   UNL     1      -9.221   2.139  67.192  1.00  0.00    -0.097 A  
HETATM   36  C   UNL     1      -8.879   1.764  65.894  1.00  0.00    -0.122 A  
HETATM   37  C   UNL     1      -9.211   2.590  64.822  1.00  0.00    -0.137 A  
HETATM   38  C   UNL     1      -9.873   3.800  65.048  1.00  0.00    -0.175 A  
ENDBRANCH  32  33
ENDBRANCH  31  32
ENDBRANCH  14  26
ENDBRANCH   3   6
TORSDOF 6
ENDMDL
MODEL      100
REMARK 921   NORMALIZED FREE ENERGY PREDICTED BY IDOCK:   -5.29 KCAL/MOL
REMARK 922        TOTAL FREE ENERGY PREDICTED BY IDOCK:   -7.45 KCAL/MOL
REMARK 923 INTER-LIGAND FREE ENERGY PREDICTED BY IDOCK:   -6.33 KCAL/MOL
REMARK 924 INTRA-LIGAND FREE ENERGY PREDICTED BY IDOCK:   -1.12 KCAL/MOL
REMARK 927      BINDING AFFINITY PREDICTED BY RF-SCORE:    0.00 PKD
ROOT
HETATM    1  N   UNL     1      -5.633  15.002  69.058  1.00  0.00    -0.096 N  
HETATM    2  H1  UNL     1      -6.242  15.460  69.735  1.00  0.00     0.000 HD 
HETATM    3  C   UNL     1      -6.194  14.231  68.077  1.00  0.00    -0.152 C  
HETATM    4  H2  UNL     1      -4.621  15.117  69.110  1.00  0.00     0.000 HD 
HETATM    5  O   UNL     1      -5.462  13.682  67.264  1.00  0.00    -0.333 OA 
ENDROOT
BRANCH   3   6
HETATM    6  C   UNL     1      -7.648  14.155  68.093  1.00  0.00    -0.136 A  
HETATM    7  C   UNL     1      -8.502  15.254  68.061  1.00  0.00    -0.147 A  
HETATM    8  N   UNL     1      -8.305  16.600  68.149  1.00  0.00    -0.187 NA 
HETATM    9  C   UNL     1      -9.464  17.421  68.508  1.00  0.00    -0.297 C  
HETATM   10  H   UNL     1      -7.391  17.017  67.972  1.00  0.00     0.000 HD 
HETATM   11  C   UNL     1     -10.623  17.057  67.592  1.00  0.00    -0.333 C  
HETATM   12  C   UNL     1     -10.959  15.539  67.628  1.00  0.00    -0.315 C  
HETATM   13  N   UNL     1      -9.755  14.744  67.868  1.00  0.00    -0.209 NA 
HETATM   14  C   UNL     1      -8.536  13.012  68.125  1.00  0.00    -0.188 A  
HETATM   15  N   UNL     1      -9.821  13.430  68.121  1.00  0.00    -0.229 NA 
BRANCH  12  16
HETATM   16  C   UNL     1     -11.874  15.107  66.412  1.00  0.00     0.077 C  
HETATM   17  C   UNL     1     -11.258  15.268  65.010  1.00  0.00    -0.409 C  
HETATM   18  C   UNL     1     -10.176  14.229  64.778  1.00  0.00    -0.250 C  
HETATM   19  O   UNL     1      -9.041  12.191  63.426  1.00  0.00     0.075 OA 
HETATM   20  N   UNL     1     -10.747  12.890  64.808  1.00  0.00    -0.315 N  
HETATM   21  C   UNL     1     -12.485  13.689  66.450  1.00  0.00    -0.377 C  
HETATM   22  C   UNL     1     -11.524  12.570  66.008  1.00  0.00    -0.377 C  
HETATM   23  C   UNL     1     -10.039  11.927  64.095  1.00  0.00    -0.310 C  
BRANCH  23  24
HETATM   24  C   UNL     1     -10.554  10.534  64.133  1.00  0.00     0.157 C  
HETATM   25  C   UNL     1      -9.913   9.615  64.868  1.00  0.00     0.086 C  
ENDBRANCH  23  24
ENDBRANCH  12  16
BRANCH  14  26
HETATM   26  C   UNL     1      -8.278  11.552  68.098  1.00  0.00    -0.149 A  
HETATM   27  C   UNL     1      -8.841  10.714  69.083  1.00  0.00    -0.133 A  
HETATM   28  C   UNL     1      -7.456  10.942  67.149  1.00  0.00    -0.109 A  
HETATM   29  C   UNL     1      -8.636   9.325  69.080  1.00  0.00    -0.134 A  
HETATM   30  C   UNL     1      -7.231   9.554  67.153  1.00  0.00    -0.087 A  
HETATM   31  C   UNL     1      -7.850   8.731  68.094  1.00  0.00    -0.102 A  
BRANCH  31  32
HETATM   32  O   UNL     1      -7.688   7.368  68.188  1.00  0.00    -0.115 OA 
BRANCH  32  33
HETATM   33  C   UNL     1      -8.506   6.502  67.493  1.00  0.00    -0.120 A  
HETATM   34  C   UNL     1      -9.883   6.723  67.588  1.00  0.00    -0.155 A  
HETATM   35  C   UNL     1     -10.779   5.891  66.911  1.00  0.00    -0.395 A  
HETATM   36  C   UNL     1     -10.300   4.838  66.134  1.00  0.00    -0.337 A  
HETATM   37  C   UNL     1      -8.927   4.644  65.999  1.00  0.00    -0.123 A  
HETATM   38  C   UNL     1      -8.030   5.494  66.652  1.00  0.00    -0.101 A  
ENDBRANCH  32  33
ENDBRANCH  31  32
ENDBRANCH  14  26
ENDBRANCH   3   6
TORSDOF 6
ENDMDL
MODEL      101
REMARK 921   NORMALIZED FREE ENERGY PREDICTED BY IDOCK:   -5.28 KCAL/MOL
REMARK 922        TOTAL FREE ENERGY PREDICTED BY IDOCK:   -7.44 KCAL/MOL
REMARK 923 INTER-LIGAND FREE ENERGY PREDICTED BY IDOCK:   -6.31 KCAL/MOL
REMARK 924 INTRA-LIGAND FREE ENERGY PREDICTED BY IDOCK:   -1.13 KCAL/MOL
REMARK 927      BINDING AFFINITY PREDICTED BY RF-SCORE:    0.00 PKD
ROOT
HETATM    1  N   UNL     1      -9.967   5.479  65.599  1.00  0.00    -0.377 N  
HETATM    2  H1  UNL     1      -9.224   5.772  64.965  1.00  0.00     0.000 HD 
HETATM    3  C   UNL     1     -10.051   6.062  66.834  1.00  0.00    -0.185 C  
HETATM    4  H2  UNL     1     -10.636   4.764  65.317  1.00  0.00     0.000 HD 
HETATM    5  O   UNL     1     -10.943   5.710  67.595  1.00  0.00    -0.185 OA 
ENDROOT
BRANCH   3   6
HETATM    6  C   UNL     1      -9.051   7.081  67.118  1.00  0.00    -0.137 A  
HETATM    7  C   UNL     1      -8.515   7.953  66.173  1.00  0.00    -0.133 A  
HETATM    8  N   UNL     1      -8.609   8.042  64.816  1.00  0.00    -0.379 NA 
HETATM    9  C   UNL     1      -7.574   8.815  64.126  1.00  0.00    -0.122 C  
HETATM   10  H   UNL     1      -9.367   7.590  64.304  1.00  0.00     0.000 HD 
HETATM   11  C   UNL     1      -7.453  10.176  64.796  1.00  0.00    -0.136 C  
HETATM   12  C   UNL     1      -7.170  10.069  66.321  1.00  0.00    -0.106 C  
HETATM   13  N   UNL     1      -7.797   8.873  66.884  1.00  0.00    -0.101 NA 
HETATM   14  C   UNL     1      -8.403   7.454  68.357  1.00  0.00    -0.125 A  
HETATM   15  N   UNL     1      -7.542   8.472  68.137  1.00  0.00    -0.096 NA 
BRANCH  12  16
HETATM   16  C   UNL     1      -7.434  11.438  67.069  1.00  0.00    -0.147 C  
HETATM   17  C   UNL     1      -8.578  12.305  66.512  1.00  0.00    -0.039 C  
HETATM   18  C   UNL     1      -9.926  11.682  66.829  1.00  0.00    -0.204 C  
HETATM   19  O   UNL     1     -12.404  11.709  67.891  1.00  0.00    -0.404 OA 
HETATM   20  N   UNL     1     -10.132  11.632  68.269  1.00  0.00    -0.196 N  
HETATM   21  C   UNL     1      -7.645  11.383  68.598  1.00  0.00    -0.130 C  
HETATM   22  C   UNL     1      -9.066  10.976  69.030  1.00  0.00    -0.063 C  
HETATM   23  C   UNL     1     -11.462  11.617  68.677  1.00  0.00    -0.290 C  
BRANCH  23  24
HETATM   24  C   UNL     1     -11.728  11.519  70.137  1.00  0.00    -0.395 C  
HETATM   25  C   UNL     1     -12.170  10.362  70.649  1.00  0.00    -0.441 C  
ENDBRANCH  23  24
ENDBRANCH  12  16
BRANCH  14  26
HETATM   26  C   UNL     1      -8.572   6.973  69.750  1.00  0.00    -0.141 A  
HETATM   27  C   UNL     1      -8.027   5.733  70.143  1.00  0.00    -0.100 A  
HETATM   28  C   UNL     1      -9.292   7.677  70.717  1.00  0.00    -0.162 A  
HETATM   29  C   UNL     1      -8.149   5.251  71.456  1.00  0.00    -0.116 A  
HETATM   30  C   UNL     1      -9.433   7.191  72.028  1.00  0.00    -0.151 A  
HETATM   31  C   UNL     1      -8.830   5.995  72.418  1.00  0.00    -0.133 A  
BRANCH  31  32
HETATM   32  O   UNL     1      -8.917   5.431  73.670  1.00  0.00    -0.125 OA 
BRANCH  32  33
HETATM   33  C   UNL     1      -9.460   4.177  73.852  1.00  0.00    -0.097 A  
HETATM   34  C   UNL     1     -10.816   4.027  73.547  1.00  0.00    -0.336 A  
HETATM   35  C   UNL     1     -11.442   2.787  73.703  1.00  0.00    -0.202 A  
HETATM   36  C   UNL     1     -10.711   1.692  74.161  1.00  0.00    -0.194 A  
HETATM   37  C   UNL     1      -9.348   1.826  74.421  1.00  0.00    -0.083 A  
HETATM   38  C   UNL     1      -8.717   3.059  74.237  1.00  0.00    -0.080 A  
ENDBRANCH  32  33
ENDBRANCH  31  32
ENDBRANCH  14  26
ENDBRANCH   3   6
TORSDOF 6
ENDMDL
MODEL      102
REMARK 921   NORMALIZED FREE ENERGY PREDICTED BY IDOCK:   -5.18 KCAL/MOL
REMARK 922        TOTAL FREE ENERGY PREDICTED BY IDOCK:   -7.30 KCAL/MOL
REMARK 923 INTER-LIGAND FREE ENERGY PREDICTED BY IDOCK:   -7.59 KCAL/MOL
REMARK 924 INTRA-LIGAND FREE ENERGY PREDICTED BY IDOCK:    0.30 KCAL/MOL
REMARK 927      BINDING AFFINITY PREDICTED BY RF-SCORE:    0.00 PKD
ROOT
HETATM    1  N   UNL     1      -6.145   7.660  64.399  1.00  0.00    -0.044 N  
HETATM    2  H1  UNL     1      -5.687   7.443  65.284  1.00  0.00     0.000 HD 
HETATM    3  C   UNL     1      -7.483   7.409  64.268  1.00  0.00    -0.098 C  
HETATM    4  H2  UNL     1      -5.614   8.057  63.625  1.00  0.00     0.000 HD 
HETATM    5  O   UNL     1      -8.032   7.669  63.205  1.00  0.00    -0.138 OA 
ENDROOT
BRANCH   3   6
HETATM    6  C   UNL     1      -8.138   6.857  65.445  1.00  0.00    -0.133 A  
HETATM    7  C   UNL     1      -7.904   5.585  65.962  1.00  0.00    -0.104 A  
HETATM    8  N   UNL     1      -7.196   4.507  65.521  1.00  0.00    -0.067 NA 
HETATM    9  C   UNL     1      -7.525   3.207  66.111  1.00  0.00    -0.076 C  
HETATM   10  H   UNL     1      -6.470   4.601  64.811  1.00  0.00     0.000 HD 
HETATM   11  C   UNL     1      -7.506   3.340  67.627  1.00  0.00    -0.058 C  
HETATM   12  C   UNL     1      -8.453   4.461  68.140  1.00  0.00    -0.094 C  
HETATM   13  N   UNL     1      -8.541   5.554  67.170  1.00  0.00    -0.110 NA 
HETATM   14  C   UNL     1      -9.118   7.432  66.341  1.00  0.00    -0.160 A  
HETATM   15  N   UNL     1      -9.433   6.543  67.309  1.00  0.00    -0.122 NA 
BRANCH  12  16
HETATM   16  C   UNL     1      -8.141   4.857  69.640  1.00  0.00    -0.073 C  
HETATM   17  C   UNL     1      -7.295   6.126  69.845  1.00  0.00    -0.079 C  
HETATM   18  C   UNL     1      -8.102   7.369  69.512  1.00  0.00    -0.129 C  
HETATM   19  O   UNL     1      -9.173   9.774  70.091  1.00  0.00    -0.234 OA 
HETATM   20  N   UNL     1      -9.232   7.494  70.422  1.00  0.00    -0.157 N  
HETATM   21  C   UNL     1      -9.341   4.982  70.605  1.00  0.00    -0.216 C  
HETATM   22  C   UNL     1     -10.100   6.317  70.506  1.00  0.00    -0.189 C  
HETATM   23  C   UNL     1      -9.706   8.790  70.603  1.00  0.00    -0.197 C  
BRANCH  23  24
HETATM   24  C   UNL     1     -10.888   8.968  71.486  1.00  0.00    -0.416 C  
HETATM   25  C   UNL     1     -11.983   9.573  71.006  1.00  0.00    -0.407 C  
ENDBRANCH  23  24
ENDBRANCH  12  16
BRANCH  14  26
HETATM   26  C   UNL     1      -9.741   8.777  66.401  1.00  0.00    -0.335 A  
HETATM   27  C   UNL     1     -10.536   9.141  67.508  1.00  0.00    -0.317 A  
HETATM   28  C   UNL     1      -9.615   9.720  65.380  1.00  0.00    -0.359 A  
HETATM   29  C   UNL     1     -11.127  10.411  67.611  1.00  0.00    -0.361 A  
HETATM   30  C   UNL     1     -10.220  10.986  65.469  1.00  0.00    -0.327 A  
HETATM   31  C   UNL     1     -10.947  11.354  66.601  1.00  0.00    -0.285 A  
BRANCH  31  32
HETATM   32  O   UNL     1     -11.584  12.562  66.779  1.00  0.00    -0.342 OA 
BRANCH  32  33
HETATM   33  C   UNL     1     -10.957  13.751  66.473  1.00  0.00    -0.299 A  
HETATM   34  C   UNL     1     -11.419  14.435  65.345  1.00  0.00    -0.344 A  
HETATM   35  C   UNL     1     -10.838  15.649  64.968  1.00  0.00    -0.468 A  
HETATM   36  C   UNL     1      -9.795  16.185  65.723  1.00  0.00    -0.354 A  
HETATM   37  C   UNL     1      -9.364  15.530  66.875  1.00  0.00    -0.252 A  
HETATM   38  C   UNL     1      -9.965  14.330  67.267  1.00  0.00    -0.252 A  
ENDBRANCH  32  33
ENDBRANCH  31  32
ENDBRANCH  14  26
ENDBRANCH   3   6
TORSDOF 6
ENDMDL
MODEL      103
REMARK 921   NORMALIZED FREE ENERGY PREDICTED BY IDOCK:   -5.18 KCAL/MOL
REMARK 922        TOTAL FREE ENERGY PREDICTED BY IDOCK:   -7.29 KCAL/MOL
REMARK 923 INTER-LIGAND FREE ENERGY PREDICTED BY IDOCK:   -6.44 KCAL/MOL
REMARK 924 INTRA-LIGAND FREE ENERGY PREDICTED BY IDOCK:   -0.86 KCAL/MOL
REMARK 927      BINDING AFFINITY PREDICTED BY RF-SCORE:    0.00 PKD
ROOT
HETATM    1  N   UNL     1     -12.193   6.437  72.581  1.00  0.00    -0.505 N  
HETATM    2  H1  UNL     1     -11.492   6.140  73.258  1.00  0.00     0.000 HD 
HETATM    3  C   UNL     1     -11.800   6.723  71.303  1.00  0.00    -0.348 C  
HETATM    4  H2  UNL     1     -13.173   6.518  72.852  1.00  0.00     0.000 HD 
HETATM    5  O   UNL     1     -12.643   7.080  70.490  1.00  0.00    -0.195 OA 
ENDROOT
BRANCH   3   6
HETATM    6  C   UNL     1     -10.380   6.555  71.029  1.00  0.00    -0.240 A  
HETATM    7  C   UNL     1      -9.595   5.513  71.517  1.00  0.00    -0.150 A  
HETATM    8  N   UNL     1      -9.813   4.514  72.419  1.00  0.00    -0.159 NA 
HETATM    9  C   UNL     1      -8.632   3.870  72.998  1.00  0.00    -0.095 C  
HETATM   10  H   UNL     1     -10.757   4.228  72.679  1.00  0.00     0.000 HD 
HETATM   11  C   UNL     1      -7.703   3.447  71.869  1.00  0.00    -0.057 C  
HETATM   12  C   UNL     1      -7.315   4.632  70.939  1.00  0.00    -0.055 C  
HETATM   13  N   UNL     1      -8.404   5.606  70.854  1.00  0.00    -0.122 NA 
HETATM   14  C   UNL     1      -9.469   7.345  70.229  1.00  0.00    -0.165 A  
HETATM   15  N   UNL     1      -8.235   6.795  70.261  1.00  0.00    -0.124 NA 
BRANCH  12  16
HETATM   16  C   UNL     1      -6.691   4.131  69.574  1.00  0.00    -0.041 C  
HETATM   17  C   UNL     1      -7.659   3.433  68.602  1.00  0.00    -0.052 C  
HETATM   18  C   UNL     1      -8.618   4.436  67.986  1.00  0.00    -0.102 C  
HETATM   19  O   UNL     1      -9.779   5.697  65.905  1.00  0.00    -0.106 OA 
HETATM   20  N   UNL     1      -7.885   5.408  67.186  1.00  0.00    -0.100 N  
HETATM   21  C   UNL     1      -5.908   5.163  68.731  1.00  0.00    -0.020 C  
HETATM   22  C   UNL     1      -6.793   6.093  67.881  1.00  0.00    -0.066 C  
HETATM   23  C   UNL     1      -8.618   6.008  66.166  1.00  0.00    -0.142 C  
BRANCH  23  24
HETATM   24  C   UNL     1      -7.930   7.042  65.349  1.00  0.00    -0.129 C  
HETATM   25  C   UNL     1      -8.391   8.300  65.357  1.00  0.00    -0.170 C  
ENDBRANCH  23  24
ENDBRANCH  12  16
BRANCH  14  26
HETATM   26  C   UNL     1      -9.675   8.544  69.382  1.00  0.00    -0.177 A  
HETATM   27  C   UNL     1      -8.902   9.705  69.595  1.00  0.00    -0.212 A  
HETATM   28  C   UNL     1     -10.644   8.611  68.379  1.00  0.00    -0.169 A  
HETATM   29  C   UNL     1      -9.054  10.854  68.803  1.00  0.00    -0.174 A  
HETATM   30  C   UNL     1     -10.814   9.765  67.595  1.00  0.00    -0.301 A  
HETATM   31  C   UNL     1      -9.995  10.880  67.775  1.00  0.00    -0.176 A  
BRANCH  31  32
HETATM   32  O   UNL     1     -10.087  12.057  67.068  1.00  0.00    -0.202 OA 
BRANCH  32  33
HETATM   33  C   UNL     1     -10.644  13.186  67.631  1.00  0.00    -0.228 A  
HETATM   34  C   UNL     1     -11.348  13.013  68.826  1.00  0.00    -0.332 A  
HETATM   35  C   UNL     1     -11.941  14.108  69.462  1.00  0.00    -0.389 A  
HETATM   36  C   UNL     1     -11.826  15.381  68.905  1.00  0.00    -0.350 A  
HETATM   37  C   UNL     1     -11.084  15.565  67.740  1.00  0.00    -0.315 A  
HETATM   38  C   UNL     1     -10.468  14.474  67.120  1.00  0.00    -0.267 A  
ENDBRANCH  32  33
ENDBRANCH  31  32
ENDBRANCH  14  26
ENDBRANCH   3   6
TORSDOF 6
ENDMDL
MODEL      104
REMARK 921   NORMALIZED FREE ENERGY PREDICTED BY IDOCK:   -5.15 KCAL/MOL
REMARK 922        TOTAL FREE ENERGY PREDICTED BY IDOCK:   -7.26 KCAL/MOL
REMARK 923 INTER-LIGAND FREE ENERGY PREDICTED BY IDOCK:   -6.50 KCAL/MOL
REMARK 924 INTRA-LIGAND FREE ENERGY PREDICTED BY IDOCK:   -0.76 KCAL/MOL
REMARK 927      BINDING AFFINITY PREDICTED BY RF-SCORE:    0.00 PKD
ROOT
HETATM    1  N   UNL     1     -11.191  15.450  65.488  1.00  0.00    -0.279 N  
HETATM    2  H1  UNL     1     -12.089  15.075  65.790  1.00  0.00     0.000 HD 
HETATM    3  C   UNL     1     -10.058  15.075  66.156  1.00  0.00    -0.294 C  
HETATM    4  H2  UNL     1     -11.138  16.095  64.700  1.00  0.00     0.000 HD 
HETATM    5  O   UNL     1      -8.980  15.526  65.792  1.00  0.00    -0.235 OA 
ENDROOT
BRANCH   3   6
HETATM    6  C   UNL     1     -10.256  14.138  67.252  1.00  0.00    -0.256 A  
HETATM    7  C   UNL     1     -11.025  14.391  68.385  1.00  0.00    -0.248 A  
HETATM    8  N   UNL     1     -11.647  15.504  68.871  1.00  0.00    -0.354 NA 
HETATM    9  C   UNL     1     -11.996  15.505  70.293  1.00  0.00    -0.374 C  
HETATM   10  H   UNL     1     -11.859  16.300  68.269  1.00  0.00     0.000 HD 
HETATM   11  C   UNL     1     -12.754  14.224  70.611  1.00  0.00    -0.409 C  
HETATM   12  C   UNL     1     -11.962  12.947  70.214  1.00  0.00    -0.283 C  
HETATM   13  N   UNL     1     -11.126  13.196  69.039  1.00  0.00    -0.249 NA 
HETATM   14  C   UNL     1      -9.766  12.790  67.447  1.00  0.00    -0.197 A  
HETATM   15  N   UNL     1     -10.219  12.302  68.623  1.00  0.00    -0.201 NA 
BRANCH  12  16
HETATM   16  C   UNL     1     -12.889  11.665  70.177  1.00  0.00     0.163 C  
HETATM   17  C   UNL     1     -12.370  10.477  69.347  1.00  0.00     0.013 C  
HETATM   18  C   UNL     1     -11.195   9.810  70.040  1.00  0.00    -0.251 C  
HETATM   19  O   UNL     1      -9.921   7.698  71.128  1.00  0.00    -0.178 OA 
HETATM   20  N   UNL     1     -11.616   9.248  71.316  1.00  0.00    -0.319 N  
HETATM   21  C   UNL     1     -13.340  11.075  71.532  1.00  0.00    -0.261 C  
HETATM   22  C   UNL     1     -12.289  10.184  72.219  1.00  0.00     0.325 C  
HETATM   23  C   UNL     1     -10.848   8.183  71.776  1.00  0.00    -0.256 C  
BRANCH  23  24
HETATM   24  C   UNL     1     -11.206   7.603  73.097  1.00  0.00    -0.311 C  
HETATM   25  C   UNL     1     -10.251   7.042  73.851  1.00  0.00    -0.388 C  
ENDBRANCH  23  24
ENDBRANCH  12  16
BRANCH  14  26
HETATM   26  C   UNL     1      -8.955  11.895  66.587  1.00  0.00    -0.198 A  
HETATM   27  C   UNL     1      -9.528  11.295  65.446  1.00  0.00    -0.251 A  
HETATM   28  C   UNL     1      -7.626  11.568  66.868  1.00  0.00    -0.151 A  
HETATM   29  C   UNL     1      -8.788  10.457  64.597  1.00  0.00    -0.216 A  
HETATM   30  C   UNL     1      -6.886  10.714  66.032  1.00  0.00    -0.129 A  
HETATM   31  C   UNL     1      -7.449  10.184  64.870  1.00  0.00    -0.137 A  
BRANCH  31  32
HETATM   32  O   UNL     1      -6.812   9.334  63.995  1.00  0.00    -0.089 OA 
BRANCH  32  33
HETATM   33  C   UNL     1      -7.105   7.987  63.968  1.00  0.00    -0.083 A  
HETATM   34  C   UNL     1      -6.720   7.236  65.084  1.00  0.00    -0.047 A  
HETATM   35  C   UNL     1      -6.982   5.865  65.135  1.00  0.00    -0.059 A  
HETATM   36  C   UNL     1      -7.634   5.240  64.073  1.00  0.00    -0.071 A  
HETATM   37  C   UNL     1      -8.061   5.993  62.981  1.00  0.00    -0.091 A  
HETATM   38  C   UNL     1      -7.824   7.371  62.943  1.00  0.00    -0.130 A  
ENDBRANCH  32  33
ENDBRANCH  31  32
ENDBRANCH  14  26
ENDBRANCH   3   6
TORSDOF 6
ENDMDL
MODEL      105
REMARK 921   NORMALIZED FREE ENERGY PREDICTED BY IDOCK:   -5.14 KCAL/MOL
REMARK 922        TOTAL FREE ENERGY PREDICTED BY IDOCK:   -7.24 KCAL/MOL
REMARK 923 INTER-LIGAND FREE ENERGY PREDICTED BY IDOCK:   -6.55 KCAL/MOL
REMARK 924 INTRA-LIGAND FREE ENERGY PREDICTED BY IDOCK:   -0.70 KCAL/MOL
REMARK 927      BINDING AFFINITY PREDICTED BY RF-SCORE:    0.00 PKD
ROOT
HETATM    1  N   UNL     1     -12.820   9.657  72.441  1.00  0.00    -0.345 N  
HETATM    2  H1  UNL     1     -12.144   9.005  72.837  1.00  0.00     0.000 HD 
HETATM    3  C   UNL     1     -12.485  10.354  71.313  1.00  0.00    -0.415 C  
HETATM    4  H2  UNL     1     -13.732   9.787  72.880  1.00  0.00     0.000 HD 
HETATM    5  O   UNL     1     -13.298  11.136  70.838  1.00  0.00    -0.019 OA 
ENDROOT
BRANCH   3   6
HETATM    6  C   UNL     1     -11.165  10.072  70.769  1.00  0.00    -0.428 A  
HETATM    7  C   UNL     1     -10.397   8.954  71.085  1.00  0.00    -0.268 A  
HETATM    8  N   UNL     1     -10.526   7.953  72.002  1.00  0.00    -0.218 NA 
HETATM    9  C   UNL     1      -9.318   7.195  72.335  1.00  0.00    -0.134 C  
HETATM   10  H   UNL     1     -11.424   7.742  72.436  1.00  0.00     0.000 HD 
HETATM   11  C   UNL     1      -8.664   6.726  71.043  1.00  0.00    -0.137 C  
HETATM   12  C   UNL     1      -8.357   7.898  70.069  1.00  0.00    -0.121 C  
HETATM   13  N   UNL     1      -9.351   8.963  70.205  1.00  0.00    -0.172 NA 
HETATM   14  C   UNL     1     -10.357  10.803  69.816  1.00  0.00    -0.027 A  
HETATM   15  N   UNL     1      -9.194  10.150  69.603  1.00  0.00    -0.208 NA 
BRANCH  12  16
HETATM   16  C   UNL     1      -8.053   7.384  68.604  1.00  0.00    -0.125 C  
HETATM   17  C   UNL     1      -6.725   6.628  68.413  1.00  0.00    -0.065 C  
HETATM   18  C   UNL     1      -6.791   5.256  69.058  1.00  0.00    -0.054 C  
HETATM   19  O   UNL     1      -6.620   2.565  69.024  1.00  0.00    -0.029 OA 
HETATM   20  N   UNL     1      -7.808   4.441  68.407  1.00  0.00    -0.078 N  
HETATM   21  C   UNL     1      -9.136   6.526  67.913  1.00  0.00    -0.113 C  
HETATM   22  C   UNL     1      -9.140   5.046  68.335  1.00  0.00    -0.114 C  
HETATM   23  C   UNL     1      -7.612   3.066  68.497  1.00  0.00    -0.048 C  
BRANCH  23  24
HETATM   24  C   UNL     1      -8.646   2.188  67.889  1.00  0.00    -0.106 C  
HETATM   25  C   UNL     1      -8.380   1.557  66.738  1.00  0.00    -0.084 C  
ENDBRANCH  23  24
ENDBRANCH  12  16
BRANCH  14  26
HETATM   26  C   UNL     1     -10.615  12.038  69.037  1.00  0.00    -0.136 A  
HETATM   27  C   UNL     1     -10.915  13.246  69.701  1.00  0.00     0.103 A  
HETATM   28  C   UNL     1     -10.615  12.073  67.641  1.00  0.00    -0.239 A  
HETATM   29  C   UNL     1     -11.146  14.441  69.001  1.00  0.00    -0.282 A  
HETATM   30  C   UNL     1     -10.864  13.262  66.934  1.00  0.00    -0.286 A  
HETATM   31  C   UNL     1     -11.093  14.462  67.609  1.00  0.00    -0.300 A  
BRANCH  31  32
HETATM   32  O   UNL     1     -11.356  15.673  67.010  1.00  0.00    -0.209 OA 
BRANCH  32  33
HETATM   33  C   UNL     1     -10.472  16.726  67.111  1.00  0.00    -0.299 A  
HETATM   34  C   UNL     1      -9.305  16.645  66.345  1.00  0.00    -0.309 A  
HETATM   35  C   UNL     1      -8.359  17.673  66.390  1.00  0.00    -0.288 A  
HETATM   36  C   UNL     1      -8.579  18.787  67.199  1.00  0.00    -0.287 A  
HETATM   37  C   UNL     1      -9.763  18.893  67.928  1.00  0.00    -0.376 A  
HETATM   38  C   UNL     1     -10.722  17.878  67.860  1.00  0.00    -0.328 A  
ENDBRANCH  32  33
ENDBRANCH  31  32
ENDBRANCH  14  26
ENDBRANCH   3   6
TORSDOF 6
ENDMDL
MODEL      106
REMARK 921   NORMALIZED FREE ENERGY PREDICTED BY IDOCK:   -5.07 KCAL/MOL
REMARK 922        TOTAL FREE ENERGY PREDICTED BY IDOCK:   -7.14 KCAL/MOL
REMARK 923 INTER-LIGAND FREE ENERGY PREDICTED BY IDOCK:   -6.43 KCAL/MOL
REMARK 924 INTRA-LIGAND FREE ENERGY PREDICTED BY IDOCK:   -0.71 KCAL/MOL
REMARK 927      BINDING AFFINITY PREDICTED BY RF-SCORE:    0.00 PKD
ROOT
HETATM    1  N   UNL     1      -8.687  13.607  69.053  1.00  0.00    -0.352 N  
HETATM    2  H1  UNL     1      -8.146  12.840  68.655  1.00  0.00     0.000 HD 
HETATM    3  C   UNL     1     -10.012  13.718  68.731  1.00  0.00    -0.112 C  
HETATM    4  H2  UNL     1      -8.249  14.279  69.682  1.00  0.00     0.000 HD 
HETATM    5  O   UNL     1     -10.662  14.639  69.209  1.00  0.00    -0.244 OA 
ENDROOT
BRANCH   3   6
HETATM    6  C   UNL     1     -10.531  12.691  67.839  1.00  0.00    -0.225 A  
HETATM    7  C   UNL     1     -10.648  12.824  66.458  1.00  0.00    -0.254 A  
HETATM    8  N   UNL     1     -10.487  13.868  65.596  1.00  0.00    -0.300 NA 
HETATM    9  C   UNL     1     -11.109  13.744  64.276  1.00  0.00    -0.283 C  
HETATM   10  H   UNL     1      -9.958  14.699  65.860  1.00  0.00     0.000 HD 
HETATM   11  C   UNL     1     -10.697  12.412  63.665  1.00  0.00    -0.497 C  
HETATM   12  C   UNL     1     -11.043  11.203  64.580  1.00  0.00    -0.095 C  
HETATM   13  N   UNL     1     -10.960  11.577  65.992  1.00  0.00    -0.284 NA 
HETATM   14  C   UNL     1     -11.012  11.354  68.113  1.00  0.00    -0.232 A  
HETATM   15  N   UNL     1     -11.390  10.757  66.961  1.00  0.00    -0.327 NA 
BRANCH  12  16
HETATM   16  C   UNL     1     -10.278   9.891  64.139  1.00  0.00     0.778 C  
HETATM   17  C   UNL     1      -9.202  10.066  63.052  1.00  0.00    -0.313 C  
HETATM   18  C   UNL     1      -7.987  10.785  63.611  1.00  0.00     0.177 C  
HETATM   19  O   UNL     1      -5.357  11.002  64.164  1.00  0.00    -0.140 OA 
HETATM   20  N   UNL     1      -7.366   9.986  64.658  1.00  0.00    -0.141 N  
HETATM   21  C   UNL     1      -9.626   9.041  65.252  1.00  0.00     0.010 C  
HETATM   22  C   UNL     1      -8.262   9.565  65.737  1.00  0.00    -0.116 C  
HETATM   23  C   UNL     1      -6.010  10.225  64.860  1.00  0.00    -0.133 C  
BRANCH  23  24
HETATM   24  C   UNL     1      -5.338   9.468  65.949  1.00  0.00    -0.039 C  
HETATM   25  C   UNL     1      -5.383   9.939  67.202  1.00  0.00    -0.042 C  
ENDBRANCH  23  24
ENDBRANCH  12  16
BRANCH  14  26
HETATM   26  C   UNL     1     -11.089  10.563  69.364  1.00  0.00    -0.310 A  
HETATM   27  C   UNL     1     -12.344  10.208  69.903  1.00  0.00     0.005 A  
HETATM   28  C   UNL     1      -9.961  10.167  70.086  1.00  0.00    -0.154 A  
HETATM   29  C   UNL     1     -12.458   9.444  71.076  1.00  0.00    -0.311 A  
HETATM   30  C   UNL     1     -10.070   9.418  71.270  1.00  0.00    -0.309 A  
HETATM   31  C   UNL     1     -11.317   9.018  71.753  1.00  0.00    -0.377 A  
BRANCH  31  32
HETATM   32  O   UNL     1     -11.530   8.295  72.904  1.00  0.00    -0.347 OA 
BRANCH  32  33
HETATM   33  C   UNL     1     -11.080   6.997  73.025  1.00  0.00    -0.259 A  
HETATM   34  C   UNL     1     -10.348   6.689  74.175  1.00  0.00    -0.347 A  
HETATM   35  C   UNL     1      -9.858   5.395  74.374  1.00  0.00    -0.223 A  
HETATM   36  C   UNL     1     -10.102   4.404  73.424  1.00  0.00    -0.200 A  
HETATM   37  C   UNL     1     -10.872   4.696  72.299  1.00  0.00    -0.085 A  
HETATM   38  C   UNL     1     -11.386   5.983  72.115  1.00  0.00    -0.351 A  
ENDBRANCH  32  33
ENDBRANCH  31  32
ENDBRANCH  14  26
ENDBRANCH   3   6
TORSDOF 6
ENDMDL
MODEL      107
REMARK 921   NORMALIZED FREE ENERGY PREDICTED BY IDOCK:   -5.04 KCAL/MOL
REMARK 922        TOTAL FREE ENERGY PREDICTED BY IDOCK:   -7.11 KCAL/MOL
REMARK 923 INTER-LIGAND FREE ENERGY PREDICTED BY IDOCK:   -6.18 KCAL/MOL
REMARK 924 INTRA-LIGAND FREE ENERGY PREDICTED BY IDOCK:   -0.93 KCAL/MOL
REMARK 927      BINDING AFFINITY PREDICTED BY RF-SCORE:    0.00 PKD
ROOT
HETATM    1  N   UNL     1      -6.547   9.846  63.851  1.00  0.00    -0.122 N  
HETATM    2  H1  UNL     1      -7.299   9.619  63.201  1.00  0.00     0.000 HD 
HETATM    3  C   UNL     1      -6.555   9.281  65.096  1.00  0.00    -0.074 C  
HETATM    4  H2  UNL     1      -5.800  10.484  63.576  1.00  0.00     0.000 HD 
HETATM    5  O   UNL     1      -5.651   9.554  65.875  1.00  0.00    -0.043 OA 
ENDROOT
BRANCH   3   6
HETATM    6  C   UNL     1      -7.661   8.374  65.368  1.00  0.00    -0.092 A  
HETATM    7  C   UNL     1      -7.553   6.987  65.436  1.00  0.00    -0.097 A  
HETATM    8  N   UNL     1      -6.549   6.108  65.159  1.00  0.00    -0.042 NA 
HETATM    9  C   UNL     1      -6.929   4.710  64.937  1.00  0.00    -0.061 C  
HETATM   10  H   UNL     1      -5.576   6.409  65.108  1.00  0.00     0.000 HD 
HETATM   11  C   UNL     1      -7.806   4.253  66.093  1.00  0.00    -0.095 C  
HETATM   12  C   UNL     1      -9.050   5.164  66.296  1.00  0.00    -0.136 C  
HETATM   13  N   UNL     1      -8.751   6.546  65.923  1.00  0.00    -0.151 NA 
HETATM   14  C   UNL     1      -9.058   8.638  65.637  1.00  0.00    -0.164 A  
HETATM   15  N   UNL     1      -9.714   7.474  65.840  1.00  0.00     0.206 NA 
BRANCH  12  16
HETATM   16  C   UNL     1      -9.728   4.931  67.707  1.00  0.00    -0.199 C  
HETATM   17  C   UNL     1      -8.774   4.836  68.911  1.00  0.00    -0.107 C  
HETATM   18  C   UNL     1      -8.182   6.196  69.235  1.00  0.00    -0.116 C  
HETATM   19  O   UNL     1      -7.669   8.272  70.877  1.00  0.00    -0.072 OA 
HETATM   20  N   UNL     1      -9.233   7.120  69.635  1.00  0.00    -0.147 N  
HETATM   21  C   UNL     1     -10.848   5.909  68.126  1.00  0.00    -0.323 C  
HETATM   22  C   UNL     1     -10.344   7.250  68.690  1.00  0.00    -0.193 C  
HETATM   23  C   UNL     1      -8.821   8.166  70.456  1.00  0.00    -0.144 C  
BRANCH  23  24
HETATM   24  C   UNL     1      -9.847   9.165  70.856  1.00  0.00    -0.359 C  
HETATM   25  C   UNL     1      -9.706  10.442  70.474  1.00  0.00     0.723 C  
ENDBRANCH  23  24
ENDBRANCH  12  16
BRANCH  14  26
HETATM   26  C   UNL     1      -9.821   9.901  65.782  1.00  0.00    -0.356 A  
HETATM   27  C   UNL     1     -10.030  10.735  64.663  1.00  0.00    -0.386 A  
HETATM   28  C   UNL     1     -10.328  10.349  67.003  1.00  0.00    -0.295 A  
HETATM   29  C   UNL     1     -10.762  11.930  64.755  1.00  0.00    -0.356 A  
HETATM   30  C   UNL     1     -11.046  11.554  67.104  1.00  0.00    -0.355 A  
HETATM   31  C   UNL     1     -11.301  12.333  65.976  1.00  0.00    -0.350 A  
BRANCH  31  32
HETATM   32  O   UNL     1     -11.983  13.528  65.972  1.00  0.00    -0.365 OA 
BRANCH  32  33
HETATM   33  C   UNL     1     -11.405  14.680  66.462  1.00  0.00    -0.353 A  
HETATM   34  C   UNL     1     -10.535  15.362  65.606  1.00  0.00    -0.391 A  
HETATM   35  C   UNL     1      -9.910  16.539  66.027  1.00  0.00    -0.348 A  
HETATM   36  C   UNL     1     -10.158  17.041  67.304  1.00  0.00    -0.295 A  
HETATM   37  C   UNL     1     -11.062  16.390  68.142  1.00  0.00    -0.320 A  
HETATM   38  C   UNL     1     -11.709  15.228  67.710  1.00  0.00    -0.206 A  
ENDBRANCH  32  33
ENDBRANCH  31  32
ENDBRANCH  14  26
ENDBRANCH   3   6
TORSDOF 6
ENDMDL
MODEL      108
REMARK 921   NORMALIZED FREE ENERGY PREDICTED BY IDOCK:   -5.04 KCAL/MOL
REMARK 922        TOTAL FREE ENERGY PREDICTED BY IDOCK:   -7.10 KCAL/MOL
REMARK 923 INTER-LIGAND FREE ENERGY PREDICTED BY IDOCK:   -6.40 KCAL/MOL
REMARK 924 INTRA-LIGAND FREE ENERGY PREDICTED BY IDOCK:   -0.71 KCAL/MOL
REMARK 927      BINDING AFFINITY PREDICTED BY RF-SCORE:    0.00 PKD
ROOT
HETATM    1  N   UNL     1     -10.633   8.628  71.722  1.00  0.00    -0.297 N  
HETATM    2  H1  UNL     1      -9.745   8.431  71.260  1.00  0.00     0.000 HD 
HETATM    3  C   UNL     1     -11.371   9.701  71.307  1.00  0.00    -0.388 C  
HETATM    4  H2  UNL     1     -10.964   8.033  72.481  1.00  0.00     0.000 HD 
HETATM    5  O   UNL     1     -12.437   9.936  71.863  1.00  0.00    -0.384 OA 
ENDROOT
BRANCH   3   6
HETATM    6  C   UNL     1     -10.805  10.466  70.206  1.00  0.00    -0.308 A  
HETATM    7  C   UNL     1     -11.047  11.817  69.970  1.00  0.00     0.233 A  
HETATM    8  N   UNL     1     -11.899  12.730  70.517  1.00  0.00    -0.531 NA 
HETATM    9  C   UNL     1     -12.179  13.935  69.733  1.00  0.00    -0.332 C  
HETATM   10  H   UNL     1     -12.323  12.580  71.433  1.00  0.00     0.000 HD 
HETATM   11  C   UNL     1     -10.858  14.553  69.299  1.00  0.00    -0.270 C  
HETATM   12  C   UNL     1      -9.959  13.554  68.518  1.00  0.00    -0.202 C  
HETATM   13  N   UNL     1     -10.166  12.185  68.992  1.00  0.00    -0.023 NA 
HETATM   14  C   UNL     1      -9.897  10.075  69.149  1.00  0.00    -0.205 A  
HETATM   15  N   UNL     1      -9.639  11.134  68.350  1.00  0.00    -0.185 NA 
BRANCH  12  16
HETATM   16  C   UNL     1      -8.463  14.060  68.418  1.00  0.00    -0.166 C  
HETATM   17  C   UNL     1      -7.972  14.450  67.011  1.00  0.00    -0.045 C  
HETATM   18  C   UNL     1      -8.615  15.749  66.559  1.00  0.00    -0.308 C  
HETATM   19  O   UNL     1      -8.543  18.296  65.678  1.00  0.00    -0.308 OA 
HETATM   20  N   UNL     1      -8.215  16.840  67.436  1.00  0.00    -0.173 N  
HETATM   21  C   UNL     1      -8.039  15.214  69.353  1.00  0.00    -0.200 C  
HETATM   22  C   UNL     1      -8.451  16.614  68.863  1.00  0.00    -0.233 C  
HETATM   23  C   UNL     1      -8.257  18.107  66.860  1.00  0.00    -0.243 C  
BRANCH  23  24
HETATM   24  C   UNL     1      -7.904  19.262  67.726  1.00  0.00    -0.310 C  
HETATM   25  C   UNL     1      -7.787  20.481  67.182  1.00  0.00    -0.363 C  
ENDBRANCH  23  24
ENDBRANCH  12  16
BRANCH  14  26
HETATM   26  C   UNL     1      -9.199   8.799  68.860  1.00  0.00    -0.141 A  
HETATM   27  C   UNL     1      -9.601   8.002  67.768  1.00  0.00    -0.179 A  
HETATM   28  C   UNL     1      -8.161   8.303  69.651  1.00  0.00    -0.116 A  
HETATM   29  C   UNL     1      -8.954   6.797  67.451  1.00  0.00    -0.115 A  
HETATM   30  C   UNL     1      -7.521   7.088  69.350  1.00  0.00    -0.097 A  
HETATM   31  C   UNL     1      -7.887   6.346  68.226  1.00  0.00    -0.105 A  
BRANCH  31  32
HETATM   32  O   UNL     1      -7.331   5.144  67.852  1.00  0.00    -0.073 OA 
BRANCH  32  33
HETATM   33  C   UNL     1      -7.398   4.040  68.675  1.00  0.00    -0.055 A  
HETATM   34  C   UNL     1      -6.311   3.162  68.641  1.00  0.00    -0.029 A  
HETATM   35  C   UNL     1      -6.301   2.020  69.447  1.00  0.00    -0.025 A  
HETATM   36  C   UNL     1      -7.377   1.755  70.293  1.00  0.00    -0.033 A  
HETATM   37  C   UNL     1      -8.441   2.653  70.364  1.00  0.00    -0.090 A  
HETATM   38  C   UNL     1      -8.437   3.810  69.579  1.00  0.00    -0.095 A  
ENDBRANCH  32  33
ENDBRANCH  31  32
ENDBRANCH  14  26
ENDBRANCH   3   6
TORSDOF 6
ENDMDL
MODEL      109
REMARK 921   NORMALIZED FREE ENERGY PREDICTED BY IDOCK:   -5.01 KCAL/MOL
REMARK 922        TOTAL FREE ENERGY PREDICTED BY IDOCK:   -7.07 KCAL/MOL
REMARK 923 INTER-LIGAND FREE ENERGY PREDICTED BY IDOCK:   -7.03 KCAL/MOL
REMARK 924 INTRA-LIGAND FREE ENERGY PREDICTED BY IDOCK:   -0.04 KCAL/MOL
REMARK 927      BINDING AFFINITY PREDICTED BY RF-SCORE:    0.00 PKD
ROOT
HETATM    1  N   UNL     1      -6.458  10.806  64.639  1.00  0.00    -0.363 N  
HETATM    2  H1  UNL     1      -7.272  11.404  64.500  1.00  0.00     0.000 HD 
HETATM    3  C   UNL     1      -6.178  10.352  65.898  1.00  0.00    -0.118 C  
HETATM    4  H2  UNL     1      -5.863  10.550  63.851  1.00  0.00     0.000 HD 
HETATM    5  O   UNL     1      -5.201   9.633  66.064  1.00  0.00    -0.035 OA 
ENDROOT
BRANCH   3   6
HETATM    6  C   UNL     1      -7.108  10.769  66.938  1.00  0.00    -0.114 A  
HETATM    7  C   UNL     1      -7.207  12.063  67.442  1.00  0.00    -0.144 A  
HETATM    8  N   UNL     1      -6.469  13.197  67.274  1.00  0.00    -0.444 NA 
HETATM    9  C   UNL     1      -6.615  14.244  68.288  1.00  0.00    -0.113 C  
HETATM   10  H   UNL     1      -5.843  13.311  66.477  1.00  0.00     0.000 HD 
HETATM   11  C   UNL     1      -8.097  14.533  68.482  1.00  0.00    -0.148 C  
HETATM   12  C   UNL     1      -8.911  13.259  68.848  1.00  0.00     0.288 C  
HETATM   13  N   UNL     1      -8.329  12.071  68.223  1.00  0.00    -0.159 NA 
HETATM   14  C   UNL     1      -8.114  10.024  67.664  1.00  0.00    -0.110 A  
HETATM   15  N   UNL     1      -8.747  10.838  68.538  1.00  0.00    -0.142 NA 
BRANCH  12  16
HETATM   16  C   UNL     1     -10.466  13.479  68.662  1.00  0.00    -0.242 C  
HETATM   17  C   UNL     1     -10.911  14.908  68.303  1.00  0.00    -0.257 C  
HETATM   18  C   UNL     1     -10.525  15.247  66.874  1.00  0.00    -0.289 C  
HETATM   19  O   UNL     1     -11.068  16.031  64.352  1.00  0.00    -0.560 OA 
HETATM   20  N   UNL     1     -11.221  14.370  65.943  1.00  0.00    -0.318 N  
HETATM   21  C   UNL     1     -11.204  12.543  67.679  1.00  0.00    -0.332 C  
HETATM   22  C   UNL     1     -11.062  12.937  66.197  1.00  0.00    -0.286 C  
HETATM   23  C   UNL     1     -11.404  14.889  64.664  1.00  0.00    -0.357 C  
BRANCH  23  24
HETATM   24  C   UNL     1     -12.067  14.016  63.661  1.00  0.00    -0.156 C  
HETATM   25  C   UNL     1     -11.638  12.757  63.499  1.00  0.00    -0.565 C  
ENDBRANCH  23  24
ENDBRANCH  12  16
BRANCH  14  26
HETATM   26  C   UNL     1      -8.575   8.618  67.563  1.00  0.00    -0.135 A  
HETATM   27  C   UNL     1      -9.907   8.333  67.197  1.00  0.00    -0.281 A  
HETATM   28  C   UNL     1      -7.756   7.525  67.853  1.00  0.00    -0.116 A  
HETATM   29  C   UNL     1     -10.377   7.016  67.071  1.00  0.00    -0.360 A  
HETATM   30  C   UNL     1      -8.226   6.205  67.747  1.00  0.00    -0.117 A  
HETATM   31  C   UNL     1      -9.527   5.940  67.318  1.00  0.00    -0.114 A  
BRANCH  31  32
HETATM   32  O   UNL     1     -10.083   4.687  67.192  1.00  0.00    -0.192 OA 
BRANCH  32  33
HETATM   33  C   UNL     1      -9.394   3.658  66.585  1.00  0.00    -0.188 A  
HETATM   34  C   UNL     1      -8.789   2.722  67.429  1.00  0.00    -0.166 A  
HETATM   35  C   UNL     1      -8.074   1.648  66.892  1.00  0.00    -0.073 A  
HETATM   36  C   UNL     1      -7.966   1.505  65.509  1.00  0.00    -0.073 A  
HETATM   37  C   UNL     1      -8.608   2.409  64.665  1.00  0.00    -0.093 A  
HETATM   38  C   UNL     1      -9.347   3.467  65.203  1.00  0.00    -0.156 A  
ENDBRANCH  32  33
ENDBRANCH  31  32
ENDBRANCH  14  26
ENDBRANCH   3   6
TORSDOF 6
ENDMDL
MODEL      110
REMARK 921   NORMALIZED FREE ENERGY PREDICTED BY IDOCK:   -5.00 KCAL/MOL
REMARK 922        TOTAL FREE ENERGY PREDICTED BY IDOCK:   -7.05 KCAL/MOL
REMARK 923 INTER-LIGAND FREE ENERGY PREDICTED BY IDOCK:   -6.32 KCAL/MOL
REMARK 924 INTRA-LIGAND FREE ENERGY PREDICTED BY IDOCK:   -0.73 KCAL/MOL
REMARK 927      BINDING AFFINITY PREDICTED BY RF-SCORE:    0.00 PKD
ROOT
HETATM    1  N   UNL     1      -5.807  10.318  71.116  1.00  0.00    -0.048 N  
HETATM    2  H1  UNL     1      -6.250   9.455  70.801  1.00  0.00     0.000 HD 
HETATM    3  C   UNL     1      -6.115  11.490  70.480  1.00  0.00    -0.021 C  
HETATM    4  H2  UNL     1      -5.145  10.308  71.891  1.00  0.00     0.000 HD 
HETATM    5  O   UNL     1      -5.583  12.526  70.859  1.00  0.00    -0.212 OA 
ENDROOT
BRANCH   3   6
HETATM    6  C   UNL     1      -7.084  11.382  69.399  1.00  0.00    -0.065 A  
HETATM    7  C   UNL     1      -7.700  10.200  68.999  1.00  0.00    -0.100 A  
HETATM    8  N   UNL     1      -7.523   8.889  69.328  1.00  0.00    -0.073 NA 
HETATM    9  C   UNL     1      -8.053   7.890  68.396  1.00  0.00    -0.123 C  
HETATM   10  H   UNL     1      -7.042   8.616  70.185  1.00  0.00     0.000 HD 
HETATM   11  C   UNL     1      -9.506   8.227  68.094  1.00  0.00    -0.148 C  
HETATM   12  C   UNL     1      -9.684   9.672  67.550  1.00  0.00    -0.158 C  
HETATM   13  N   UNL     1      -8.682  10.572  68.124  1.00  0.00    -0.127 NA 
HETATM   14  C   UNL     1      -7.643  12.391  68.525  1.00  0.00    -0.122 A  
HETATM   15  N   UNL     1      -8.521  11.822  67.669  1.00  0.00    -0.142 NA 
BRANCH  12  16
HETATM   16  C   UNL     1     -11.192  10.145  67.612  1.00  0.00    -0.169 C  
HETATM   17  C   UNL     1     -11.778  10.361  69.020  1.00  0.00    -0.167 C  
HETATM   18  C   UNL     1     -11.189  11.605  69.661  1.00  0.00    -0.177 C  
HETATM   19  O   UNL     1     -11.366  14.029  70.828  1.00  0.00    -0.004 OA 
HETATM   20  N   UNL     1     -11.555  12.788  68.895  1.00  0.00    -0.295 N  
HETATM   21  C   UNL     1     -11.579  11.397  66.793  1.00  0.00    -0.038 C  
HETATM   22  C   UNL     1     -11.226  12.734  67.469  1.00  0.00    -0.289 C  
HETATM   23  C   UNL     1     -11.573  13.978  69.616  1.00  0.00    -0.289 C  
BRANCH  23  24
HETATM   24  C   UNL     1     -11.894  15.223  68.870  1.00  0.00    -0.344 C  
HETATM   25  C   UNL     1     -11.078  15.632  67.889  1.00  0.00    -0.324 C  
ENDBRANCH  23  24
ENDBRANCH  12  16
BRANCH  14  26
HETATM   26  C   UNL     1      -7.468  13.862  68.465  1.00  0.00    -0.122 A  
HETATM   27  C   UNL     1      -7.973  14.679  69.499  1.00  0.00     0.063 A  
HETATM   28  C   UNL     1      -6.847  14.513  67.397  1.00  0.00    -0.067 A  
HETATM   29  C   UNL     1      -7.810  16.074  69.489  1.00  0.00    -0.065 A  
HETATM   30  C   UNL     1      -6.698  15.910  67.373  1.00  0.00    -0.229 A  
HETATM   31  C   UNL     1      -7.144  16.697  68.436  1.00  0.00    -0.167 A  
BRANCH  31  32
HETATM   32  O   UNL     1      -7.054  18.069  68.502  1.00  0.00    -0.237 OA 
BRANCH  32  33
HETATM   33  C   UNL     1      -8.004  18.876  67.912  1.00  0.00    -0.271 A  
HETATM   34  C   UNL     1      -8.951  19.457  68.760  1.00  0.00    -0.396 A  
HETATM   35  C   UNL     1      -9.946  20.290  68.240  1.00  0.00    -0.372 A  
HETATM   36  C   UNL     1      -9.994  20.546  66.870  1.00  0.00    -0.465 A  
HETATM   37  C   UNL     1      -9.023  20.006  66.028  1.00  0.00    -0.267 A  
HETATM   38  C   UNL     1      -8.011  19.197  66.553  1.00  0.00    -0.296 A  
ENDBRANCH  32  33
ENDBRANCH  31  32
ENDBRANCH  14  26
ENDBRANCH   3   6
TORSDOF 6
ENDMDL
MODEL      111
REMARK 921   NORMALIZED FREE ENERGY PREDICTED BY IDOCK:   -4.95 KCAL/MOL
REMARK 922        TOTAL FREE ENERGY PREDICTED BY IDOCK:   -6.99 KCAL/MOL
REMARK 923 INTER-LIGAND FREE ENERGY PREDICTED BY IDOCK:   -5.97 KCAL/MOL
REMARK 924 INTRA-LIGAND FREE ENERGY PREDICTED BY IDOCK:   -1.02 KCAL/MOL
REMARK 927      BINDING AFFINITY PREDICTED BY RF-SCORE:    0.00 PKD
ROOT
HETATM    1  N   UNL     1     -10.836   9.756  69.137  1.00  0.00    -0.259 N  
HETATM    2  H1  UNL     1      -9.839   9.568  69.235  1.00  0.00     0.000 HD 
HETATM    3  C   UNL     1     -11.234  10.931  68.561  1.00  0.00    -0.274 C  
HETATM    4  H2  UNL     1     -11.525   9.080  69.464  1.00  0.00     0.000 HD 
HETATM    5  O   UNL     1     -12.432  11.156  68.443  1.00  0.00    -0.390 OA 
ENDROOT
BRANCH   3   6
HETATM    6  C   UNL     1     -10.161  11.810  68.119  1.00  0.00    -0.210 A  
HETATM    7  C   UNL     1     -10.337  13.118  67.676  1.00  0.00    -0.223 A  
HETATM    8  N   UNL     1     -11.435  13.876  67.394  1.00  0.00    -0.329 NA 
HETATM    9  C   UNL     1     -11.233  15.054  66.547  1.00  0.00    -0.312 C  
HETATM   10  H   UNL     1     -12.357  13.632  67.756  1.00  0.00     0.000 HD 
HETATM   11  C   UNL     1     -10.086  15.875  67.120  1.00  0.00    -0.264 C  
HETATM   12  C   UNL     1      -8.779  15.047  67.277  1.00  0.00    -0.203 C  
HETATM   13  N   UNL     1      -9.081  13.647  67.574  1.00  0.00    -0.203 NA 
HETATM   14  C   UNL     1      -8.732  11.595  68.039  1.00  0.00    -0.157 A  
HETATM   15  N   UNL     1      -8.125  12.708  67.572  1.00  0.00    -0.166 NA 
BRANCH  12  16
HETATM   16  C   UNL     1      -7.732  15.771  68.217  1.00  0.00    -0.132 C  
HETATM   17  C   UNL     1      -6.311  15.937  67.647  1.00  0.00    -0.189 C  
HETATM   18  C   UNL     1      -6.294  16.983  66.546  1.00  0.00    -0.184 C  
HETATM   19  O   UNL     1      -5.423  19.264  65.402  1.00  0.00    -0.151 OA 
HETATM   20  N   UNL     1      -6.660  18.285  67.084  1.00  0.00    -0.184 N  
HETATM   21  C   UNL     1      -8.126  17.150  68.791  1.00  0.00    -0.252 C  
HETATM   22  C   UNL     1      -7.928  18.325  67.817  1.00  0.00    -0.245 C  
HETATM   23  C   UNL     1      -6.170  19.378  66.374  1.00  0.00    -0.173 C  
BRANCH  23  24
HETATM   24  C   UNL     1      -6.555  20.731  66.853  1.00  0.00    -0.353 C  
HETATM   25  C   UNL     1      -6.015  21.207  67.983  1.00  0.00    -0.393 C  
ENDBRANCH  23  24
ENDBRANCH  12  16
BRANCH  14  26
HETATM   26  C   UNL     1      -7.878  10.446  68.425  1.00  0.00    -0.104 A  
HETATM   27  C   UNL     1      -7.658   9.388  67.518  1.00  0.00    -0.091 A  
HETATM   28  C   UNL     1      -7.289  10.325  69.685  1.00  0.00    -0.150 A  
HETATM   29  C   UNL     1      -6.841   8.293  67.839  1.00  0.00    -0.066 A  
HETATM   30  C   UNL     1      -6.485   9.221  70.019  1.00  0.00    -0.049 A  
HETATM   31  C   UNL     1      -6.224   8.217  69.086  1.00  0.00    -0.039 A  
BRANCH  31  32
HETATM   32  O   UNL     1      -5.461   7.095  69.317  1.00  0.00    -0.014 OA 
BRANCH  32  33
HETATM   33  C   UNL     1      -6.009   5.832  69.246  1.00  0.00    -0.020 A  
HETATM   34  C   UNL     1      -5.446   4.953  68.316  1.00  0.00    -0.015 A  
HETATM   35  C   UNL     1      -5.943   3.653  68.183  1.00  0.00    -0.027 A  
HETATM   36  C   UNL     1      -7.003   3.228  68.983  1.00  0.00    -0.045 A  
HETATM   37  C   UNL     1      -7.535   4.086  69.944  1.00  0.00    -0.049 A  
HETATM   38  C   UNL     1      -7.018   5.376  70.096  1.00  0.00    -0.057 A  
ENDBRANCH  32  33
ENDBRANCH  31  32
ENDBRANCH  14  26
ENDBRANCH   3   6
TORSDOF 6
ENDMDL
MODEL      112
REMARK 921   NORMALIZED FREE ENERGY PREDICTED BY IDOCK:   -4.91 KCAL/MOL
REMARK 922        TOTAL FREE ENERGY PREDICTED BY IDOCK:   -6.93 KCAL/MOL
REMARK 923 INTER-LIGAND FREE ENERGY PREDICTED BY IDOCK:   -6.61 KCAL/MOL
REMARK 924 INTRA-LIGAND FREE ENERGY PREDICTED BY IDOCK:   -0.32 KCAL/MOL
REMARK 927      BINDING AFFINITY PREDICTED BY RF-SCORE:    0.00 PKD
ROOT
HETATM    1  N   UNL     1     -12.957  15.846  70.061  1.00  0.00    -0.620 N  
HETATM    2  H1  UNL     1     -13.193  16.588  69.403  1.00  0.00     0.000 HD 
HETATM    3  C   UNL     1     -11.855  15.073  69.820  1.00  0.00    -0.321 C  
HETATM    4  H2  UNL     1     -13.533  15.684  70.887  1.00  0.00     0.000 HD 
HETATM    5  O   UNL     1     -11.572  14.182  70.611  1.00  0.00    -0.232 OA 
ENDROOT
BRANCH   3   6
HETATM    6  C   UNL     1     -11.102  15.409  68.620  1.00  0.00    -0.290 A  
HETATM    7  C   UNL     1     -10.861  16.704  68.170  1.00  0.00    -0.348 A  
HETATM    8  N   UNL     1     -11.313  17.932  68.554  1.00  0.00     0.277 NA 
HETATM    9  C   UNL     1     -11.182  19.023  67.585  1.00  0.00     0.165 C  
HETATM   10  H   UNL     1     -11.724  18.084  69.475  1.00  0.00     0.000 HD 
HETATM   11  C   UNL     1      -9.747  19.058  67.080  1.00  0.00    -0.365 C  
HETATM   12  C   UNL     1      -9.291  17.698  66.480  1.00  0.00    -0.272 C  
HETATM   13  N   UNL     1      -9.948  16.582  67.161  1.00  0.00    -0.259 NA 
HETATM   14  C   UNL     1     -10.434  14.564  67.653  1.00  0.00    -0.246 A  
HETATM   15  N   UNL     1      -9.853  15.327  66.701  1.00  0.00    -0.240 NA 
BRANCH  12  16
HETATM   16  C   UNL     1      -7.718  17.618  66.325  1.00  0.00    -0.324 C  
HETATM   17  C   UNL     1      -6.911  18.730  67.020  1.00  0.00    -0.212 C  
HETATM   18  C   UNL     1      -6.937  18.550  68.528  1.00  0.00    -0.269 C  
HETATM   19  O   UNL     1      -5.771  18.237  70.938  1.00  0.00    -0.133 OA 
HETATM   20  N   UNL     1      -6.288  17.300  68.896  1.00  0.00    -0.188 N  
HETATM   21  C   UNL     1      -7.033  16.289  66.711  1.00  0.00    -0.165 C  
HETATM   22  C   UNL     1      -6.803  16.106  68.222  1.00  0.00    -0.124 C  
HETATM   23  C   UNL     1      -5.759  17.265  70.183  1.00  0.00    -0.225 C  
BRANCH  23  24
HETATM   24  C   UNL     1      -5.126  15.995  70.627  1.00  0.00    -0.186 C  
HETATM   25  C   UNL     1      -5.375  15.530  71.859  1.00  0.00     0.176 C  
ENDBRANCH  23  24
ENDBRANCH  12  16
BRANCH  14  26
HETATM   26  C   UNL     1     -10.244  13.095  67.580  1.00  0.00    -0.224 A  
HETATM   27  C   UNL     1     -11.351  12.230  67.703  1.00  0.00    -0.374 A  
HETATM   28  C   UNL     1      -8.992  12.496  67.432  1.00  0.00    -0.188 A  
HETATM   29  C   UNL     1     -11.215  10.835  67.621  1.00  0.00    -0.370 A  
HETATM   30  C   UNL     1      -8.847  11.099  67.369  1.00  0.00    -0.139 A  
HETATM   31  C   UNL     1      -9.961  10.261  67.423  1.00  0.00    -0.189 A  
BRANCH  31  32
HETATM   32  O   UNL     1      -9.924   8.886  67.380  1.00  0.00    -0.178 OA 
BRANCH  32  33
HETATM   33  C   UNL     1      -8.784   8.214  66.991  1.00  0.00    -0.131 A  
HETATM   34  C   UNL     1      -7.985   8.834  66.026  1.00  0.00    -0.107 A  
HETATM   35  C   UNL     1      -6.812   8.220  65.580  1.00  0.00    -0.066 A  
HETATM   36  C   UNL     1      -6.431   6.984  66.103  1.00  0.00    -0.051 A  
HETATM   37  C   UNL     1      -7.200   6.386  67.100  1.00  0.00    -0.075 A  
HETATM   38  C   UNL     1      -8.358   7.015  67.565  1.00  0.00    -0.119 A  
ENDBRANCH  32  33
ENDBRANCH  31  32
ENDBRANCH  14  26
ENDBRANCH   3   6
TORSDOF 6
ENDMDL
MODEL      113
REMARK 921   NORMALIZED FREE ENERGY PREDICTED BY IDOCK:   -4.89 KCAL/MOL
REMARK 922        TOTAL FREE ENERGY PREDICTED BY IDOCK:   -6.91 KCAL/MOL
REMARK 923 INTER-LIGAND FREE ENERGY PREDICTED BY IDOCK:   -6.80 KCAL/MOL
REMARK 924 INTRA-LIGAND FREE ENERGY PREDICTED BY IDOCK:   -0.11 KCAL/MOL
REMARK 927      BINDING AFFINITY PREDICTED BY RF-SCORE:    0.00 PKD
ROOT
HETATM    1  N   UNL     1      -5.550  11.456  66.047  1.00  0.00    -0.272 N  
HETATM    2  H1  UNL     1      -5.841  12.433  66.047  1.00  0.00     0.000 HD 
HETATM    3  C   UNL     1      -6.192  10.576  66.875  1.00  0.00    -0.066 C  
HETATM    4  H2  UNL     1      -4.794  11.140  65.441  1.00  0.00     0.000 HD 
HETATM    5  O   UNL     1      -5.843   9.402  66.875  1.00  0.00    -0.053 OA 
ENDROOT
BRANCH   3   6
HETATM    6  C   UNL     1      -7.266  11.139  67.681  1.00  0.00    -0.094 A  
HETATM    7  C   UNL     1      -7.777  12.425  67.535  1.00  0.00    -0.161 A  
HETATM    8  N   UNL     1      -7.402  13.509  66.798  1.00  0.00    -0.107 NA 
HETATM    9  C   UNL     1      -7.916  14.814  67.221  1.00  0.00    -0.205 C  
HETATM   10  H   UNL     1      -6.790  13.415  65.987  1.00  0.00     0.000 HD 
HETATM   11  C   UNL     1      -9.425  14.713  67.388  1.00  0.00    -0.201 C  
HETATM   12  C   UNL     1      -9.843  13.583  68.371  1.00  0.00    -0.225 C  
HETATM   13  N   UNL     1      -8.896  12.469  68.318  1.00  0.00    -0.187 NA 
HETATM   14  C   UNL     1      -8.047  10.562  68.754  1.00  0.00    -0.131 A  
HETATM   15  N   UNL     1      -8.946  11.465  69.204  1.00  0.00     0.111 NA 
BRANCH  12  16
HETATM   16  C   UNL     1     -11.379  13.226  68.242  1.00  0.00    -0.335 C  
HETATM   17  C   UNL     1     -11.706  11.816  67.719  1.00  0.00    -0.337 C  
HETATM   18  C   UNL     1     -11.381  10.766  68.767  1.00  0.00    -0.288 C  
HETATM   19  O   UNL     1     -12.005   8.703  70.386  1.00  0.00    -0.050 OA 
HETATM   20  N   UNL     1     -12.217  10.956  69.945  1.00  0.00    -0.342 N  
HETATM   21  C   UNL     1     -12.265  13.435  69.491  1.00  0.00    -0.260 C  
HETATM   22  C   UNL     1     -12.181  12.299  70.527  1.00  0.00    -0.300 C  
HETATM   23  C   UNL     1     -12.429   9.812  70.710  1.00  0.00    -0.213 C  
BRANCH  23  24
HETATM   24  C   UNL     1     -13.237   9.961  71.949  1.00  0.00    -0.558 C  
HETATM   25  C   UNL     1     -14.196   9.066  72.220  1.00  0.00    -0.432 C  
ENDBRANCH  23  24
ENDBRANCH  12  16
BRANCH  14  26
HETATM   26  C   UNL     1      -8.060   9.207  69.355  1.00  0.00    -0.102 A  
HETATM   27  C   UNL     1      -7.121   8.862  70.350  1.00  0.00    -0.054 A  
HETATM   28  C   UNL     1      -8.950   8.206  68.958  1.00  0.00    -0.144 A  
HETATM   29  C   UNL     1      -7.114   7.596  70.957  1.00  0.00    -0.054 A  
HETATM   30  C   UNL     1      -8.935   6.931  69.549  1.00  0.00    -0.143 A  
HETATM   31  C   UNL     1      -8.043   6.629  70.578  1.00  0.00    -0.117 A  
BRANCH  31  32
HETATM   32  O   UNL     1      -7.943   5.411  71.212  1.00  0.00    -0.105 OA 
BRANCH  32  33
HETATM   33  C   UNL     1      -8.955   4.943  72.022  1.00  0.00    -0.131 A  
HETATM   34  C   UNL     1      -9.076   3.555  72.142  1.00  0.00    -0.152 A  
HETATM   35  C   UNL     1     -10.075   3.000  72.946  1.00  0.00    -0.220 A  
HETATM   36  C   UNL     1     -10.955   3.833  73.636  1.00  0.00    -0.334 A  
HETATM   37  C   UNL     1     -10.808   5.216  73.557  1.00  0.00    -0.360 A  
HETATM   38  C   UNL     1      -9.790   5.770  72.775  1.00  0.00    -0.176 A  
ENDBRANCH  32  33
ENDBRANCH  31  32
ENDBRANCH  14  26
ENDBRANCH   3   6
TORSDOF 6
ENDMDL
MODEL      114
REMARK 921   NORMALIZED FREE ENERGY PREDICTED BY IDOCK:   -4.79 KCAL/MOL
REMARK 922        TOTAL FREE ENERGY PREDICTED BY IDOCK:   -6.78 KCAL/MOL
REMARK 923 INTER-LIGAND FREE ENERGY PREDICTED BY IDOCK:   -5.97 KCAL/MOL
REMARK 924 INTRA-LIGAND FREE ENERGY PREDICTED BY IDOCK:   -0.81 KCAL/MOL
REMARK 927      BINDING AFFINITY PREDICTED BY RF-SCORE:    0.00 PKD
ROOT
HETATM    1  N   UNL     1     -12.733  15.064  69.654  1.00  0.00    -0.599 N  
HETATM    2  H1  UNL     1     -13.610  14.652  69.336  1.00  0.00     0.000 HD 
HETATM    3  C   UNL     1     -11.566  14.683  69.052  1.00  0.00    -0.298 C  
HETATM    4  H2  UNL     1     -12.727  15.751  70.408  1.00  0.00     0.000 HD 
HETATM    5  O   UNL     1     -10.513  15.179  69.434  1.00  0.00    -0.236 OA 
ENDROOT
BRANCH   3   6
HETATM    6  C   UNL     1     -11.701  13.710  67.978  1.00  0.00    -0.387 A  
HETATM    7  C   UNL     1     -11.835  14.029  66.629  1.00  0.00    -0.419 A  
HETATM    8  N   UNL     1     -12.017  15.198  65.953  1.00  0.00     0.065 NA 
HETATM    9  C   UNL     1     -12.542  15.105  64.589  1.00  0.00     0.093 C  
HETATM   10  H   UNL     1     -11.797  16.099  66.379  1.00  0.00     0.000 HD 
HETATM   11  C   UNL     1     -11.702  14.103  63.810  1.00  0.00     0.021 C  
HETATM   12  C   UNL     1     -11.642  12.710  64.500  1.00  0.00    -0.345 C  
HETATM   13  N   UNL     1     -11.709  12.847  65.955  1.00  0.00    -0.382 NA 
HETATM   14  C   UNL     1     -11.715  12.262  68.007  1.00  0.00    -0.356 A  
HETATM   15  N   UNL     1     -11.856  11.780  66.753  1.00  0.00    -0.568 NA 
BRANCH  12  16
HETATM   16  C   UNL     1     -10.477  11.812  63.916  1.00  0.00    -0.437 C  
HETATM   17  C   UNL     1      -9.044  12.325  64.148  1.00  0.00     0.807 C  
HETATM   18  C   UNL     1      -8.650  12.176  65.607  1.00  0.00     0.618 C  
HETATM   19  O   UNL     1      -7.068  11.279  67.597  1.00  0.00    -0.083 OA 
HETATM   20  N   UNL     1      -8.634  10.770  65.982  1.00  0.00    -0.173 N  
HETATM   21  C   UNL     1     -10.466  10.319  64.311  1.00  0.00     0.370 C  
HETATM   22  C   UNL     1      -9.868  10.033  65.700  1.00  0.00    -0.295 C  
HETATM   23  C   UNL     1      -7.798  10.452  67.049  1.00  0.00    -0.112 C  
BRANCH  23  24
HETATM   24  C   UNL     1      -7.779   9.037  67.504  1.00  0.00    -0.096 C  
HETATM   25  C   UNL     1      -7.484   8.760  68.781  1.00  0.00    -0.084 C  
ENDBRANCH  23  24
ENDBRANCH  12  16
BRANCH  14  26
HETATM   26  C   UNL     1     -11.544  11.289  69.112  1.00  0.00    -0.387 A  
HETATM   27  C   UNL     1     -10.270  10.756  69.397  1.00  0.00    -0.187 A  
HETATM   28  C   UNL     1     -12.607  10.825  69.889  1.00  0.00    -0.199 A  
HETATM   29  C   UNL     1     -10.064   9.847  70.448  1.00  0.00    -0.258 A  
HETATM   30  C   UNL     1     -12.410   9.900  70.929  1.00  0.00    -0.403 A  
HETATM   31  C   UNL     1     -11.132   9.435  71.241  1.00  0.00    -0.376 A  
BRANCH  31  32
HETATM   32  O   UNL     1     -10.837   8.525  72.230  1.00  0.00    -0.330 OA 
BRANCH  32  33
HETATM   33  C   UNL     1      -9.737   7.698  72.135  1.00  0.00    -0.173 A  
HETATM   34  C   UNL     1      -8.578   8.112  72.798  1.00  0.00    -0.269 A  
HETATM   35  C   UNL     1      -7.421   7.330  72.751  1.00  0.00    -0.082 A  
HETATM   36  C   UNL     1      -7.421   6.128  72.045  1.00  0.00    -0.095 A  
HETATM   37  C   UNL     1      -8.589   5.689  71.423  1.00  0.00    -0.132 A  
HETATM   38  C   UNL     1      -9.754   6.458  71.494  1.00  0.00    -0.182 A  
ENDBRANCH  32  33
ENDBRANCH  31  32
ENDBRANCH  14  26
ENDBRANCH   3   6
TORSDOF 6
ENDMDL
MODEL      115
REMARK 921   NORMALIZED FREE ENERGY PREDICTED BY IDOCK:   -4.75 KCAL/MOL
REMARK 922        TOTAL FREE ENERGY PREDICTED BY IDOCK:   -6.72 KCAL/MOL
REMARK 923 INTER-LIGAND FREE ENERGY PREDICTED BY IDOCK:   -5.81 KCAL/MOL
REMARK 924 INTRA-LIGAND FREE ENERGY PREDICTED BY IDOCK:   -0.91 KCAL/MOL
REMARK 927      BINDING AFFINITY PREDICTED BY RF-SCORE:    0.00 PKD
ROOT
HETATM    1  N   UNL     1     -12.610  14.132  68.961  1.00  0.00    -0.396 N  
HETATM    2  H1  UNL     1     -12.720  13.486  68.180  1.00  0.00     0.000 HD 
HETATM    3  C   UNL     1     -11.396  14.212  69.586  1.00  0.00    -0.236 C  
HETATM    4  H2  UNL     1     -13.391  14.710  69.270  1.00  0.00     0.000 HD 
HETATM    5  O   UNL     1     -11.264  14.989  70.524  1.00  0.00    -0.267 OA 
ENDROOT
BRANCH   3   6
HETATM    6  C   UNL     1     -10.352  13.353  69.047  1.00  0.00    -0.004 A  
HETATM    7  C   UNL     1     -10.503  11.995  68.775  1.00  0.00    -0.183 A  
HETATM    8  N   UNL     1     -11.490  11.089  69.027  1.00  0.00    -0.272 NA 
HETATM    9  C   UNL     1     -11.121   9.672  68.981  1.00  0.00    -0.070 C  
HETATM   10  H   UNL     1     -12.442  11.385  69.239  1.00  0.00     0.000 HD 
HETATM   11  C   UNL     1     -10.396   9.399  67.671  1.00  0.00    -0.303 C  
HETATM   12  C   UNL     1      -9.161  10.321  67.468  1.00  0.00    -0.141 C  
HETATM   13  N   UNL     1      -9.380  11.629  68.086  1.00  0.00    -0.182 NA 
HETATM   14  C   UNL     1      -8.989  13.647  68.659  1.00  0.00    -0.025 A  
HETATM   15  N   UNL     1      -8.391  12.525  68.199  1.00  0.00    -0.169 NA 
BRANCH  12  16
HETATM   16  C   UNL     1      -8.657  10.312  65.968  1.00  0.00    -0.153 C  
HETATM   17  C   UNL     1      -7.134  10.215  65.766  1.00  0.00    -0.127 C  
HETATM   18  C   UNL     1      -6.632   8.826  66.117  1.00  0.00    -0.065 C  
HETATM   19  O   UNL     1      -5.362   6.512  65.569  1.00  0.00    -0.017 OA 
HETATM   20  N   UNL     1      -7.214   7.839  65.219  1.00  0.00    -0.066 N  
HETATM   21  C   UNL     1      -9.281   9.267  65.016  1.00  0.00    -0.242 C  
HETATM   22  C   UNL     1      -8.676   7.857  65.134  1.00  0.00     0.049 C  
HETATM   23  C   UNL     1      -6.468   6.676  65.054  1.00  0.00    -0.042 C  
BRANCH  23  24
HETATM   24  C   UNL     1      -7.040   5.615  64.184  1.00  0.00    -0.052 C  
HETATM   25  C   UNL     1      -7.161   4.368  64.659  1.00  0.00    -0.061 C  
ENDBRANCH  23  24
ENDBRANCH  12  16
BRANCH  14  26
HETATM   26  C   UNL     1      -8.217  14.912  68.625  1.00  0.00    -0.157 A  
HETATM   27  C   UNL     1      -8.812  16.094  68.136  1.00  0.00    -0.184 A  
HETATM   28  C   UNL     1      -6.882  15.000  69.026  1.00  0.00    -0.118 A  
HETATM   29  C   UNL     1      -8.121  17.315  68.105  1.00  0.00    -0.229 A  
HETATM   30  C   UNL     1      -6.179  16.217  68.980  1.00  0.00    -0.139 A  
HETATM   31  C   UNL     1      -6.804  17.390  68.556  1.00  0.00    -0.203 A  
BRANCH  31  32
HETATM   32  O   UNL     1      -6.202  18.624  68.466  1.00  0.00    -0.205 OA 
BRANCH  32  33
HETATM   33  C   UNL     1      -6.143  19.304  67.268  1.00  0.00    -0.186 A  
HETATM   34  C   UNL     1      -6.239  18.537  66.103  1.00  0.00    -0.227 A  
HETATM   35  C   UNL     1      -6.190  19.150  64.848  1.00  0.00    -0.295 A  
HETATM   36  C   UNL     1      -6.049  20.534  64.755  1.00  0.00    -0.319 A  
HETATM   37  C   UNL     1      -6.002  21.307  65.914  1.00  0.00    -0.245 A  
HETATM   38  C   UNL     1      -6.080  20.695  67.169  1.00  0.00    -0.277 A  
ENDBRANCH  32  33
ENDBRANCH  31  32
ENDBRANCH  14  26
ENDBRANCH   3   6
TORSDOF 6
ENDMDL
MODEL      116
REMARK 921   NORMALIZED FREE ENERGY PREDICTED BY IDOCK:   -4.71 KCAL/MOL
REMARK 922        TOTAL FREE ENERGY PREDICTED BY IDOCK:   -6.66 KCAL/MOL
REMARK 923 INTER-LIGAND FREE ENERGY PREDICTED BY IDOCK:   -5.51 KCAL/MOL
REMARK 924 INTRA-LIGAND FREE ENERGY PREDICTED BY IDOCK:   -1.15 KCAL/MOL
REMARK 927      BINDING AFFINITY PREDICTED BY RF-SCORE:    0.00 PKD
ROOT
HETATM    1  N   UNL     1     -10.833  13.085  65.869  1.00  0.00    -0.270 N  
HETATM    2  H1  UNL     1     -10.691  13.439  66.814  1.00  0.00     0.000 HD 
HETATM    3  C   UNL     1     -10.346  11.849  65.545  1.00  0.00    -0.264 C  
HETATM    4  H2  UNL     1     -11.331  13.644  65.176  1.00  0.00     0.000 HD 
HETATM    5  O   UNL     1     -10.517  11.425  64.409  1.00  0.00    -0.285 OA 
ENDROOT
BRANCH   3   6
HETATM    6  C   UNL     1      -9.669  11.139  66.619  1.00  0.00    -0.224 A  
HETATM    7  C   UNL     1      -9.661   9.755  66.776  1.00  0.00    -0.194 A  
HETATM    8  N   UNL     1     -10.320   8.735  66.156  1.00  0.00    -0.295 NA 
HETATM    9  C   UNL     1     -10.387   7.456  66.867  1.00  0.00    -0.296 C  
HETATM   10  H   UNL     1     -10.747   8.858  65.238  1.00  0.00     0.000 HD 
HETATM   11  C   UNL     1      -8.983   7.066  67.304  1.00  0.00    -0.119 C  
HETATM   12  C   UNL     1      -8.298   8.166  68.163  1.00  0.00    -0.129 C  
HETATM   13  N   UNL     1      -8.745   9.498  67.757  1.00  0.00    -0.116 NA 
HETATM   14  C   UNL     1      -8.868  11.628  67.721  1.00  0.00    -0.159 A  
HETATM   15  N   UNL     1      -8.433  10.590  68.470  1.00  0.00    -0.124 NA 
BRANCH  12  16
HETATM   16  C   UNL     1      -6.736   7.938  68.279  1.00  0.00    -0.063 C  
HETATM   17  C   UNL     1      -6.111   8.212  69.659  1.00  0.00    -0.029 C  
HETATM   18  C   UNL     1      -6.509   7.134  70.652  1.00  0.00    -0.043 C  
HETATM   19  O   UNL     1      -5.974   5.189  72.440  1.00  0.00    -0.023 OA 
HETATM   20  N   UNL     1      -5.985   5.843  70.229  1.00  0.00    -0.024 N  
HETATM   21  C   UNL     1      -6.183   6.569  67.824  1.00  0.00    -0.031 C  
HETATM   22  C   UNL     1      -6.333   5.444  68.864  1.00  0.00    -0.034 C  
HETATM   23  C   UNL     1      -5.789   4.920  71.253  1.00  0.00    -0.017 C  
BRANCH  23  24
HETATM   24  C   UNL     1      -5.301   3.570  70.870  1.00  0.00    -0.008 C  
HETATM   25  C   UNL     1      -6.028   2.491  71.191  1.00  0.00    -0.014 C  
ENDBRANCH  23  24
ENDBRANCH  12  16
BRANCH  14  26
HETATM   26  C   UNL     1      -8.423  12.991  68.097  1.00  0.00    -0.176 A  
HETATM   27  C   UNL     1      -7.119  13.426  67.777  1.00  0.00    -0.158 A  
HETATM   28  C   UNL     1      -9.227  13.887  68.804  1.00  0.00    -0.013 A  
HETATM   29  C   UNL     1      -6.667  14.715  68.098  1.00  0.00    -0.135 A  
HETATM   30  C   UNL     1      -8.772  15.173  69.145  1.00  0.00    -0.216 A  
HETATM   31  C   UNL     1      -7.504  15.610  68.762  1.00  0.00    -0.151 A  
BRANCH  31  32
HETATM   32  O   UNL     1      -6.965  16.842  69.054  1.00  0.00    -0.196 OA 
BRANCH  32  33
HETATM   33  C   UNL     1      -7.335  17.968  68.351  1.00  0.00    -0.261 A  
HETATM   34  C   UNL     1      -6.519  18.338  67.278  1.00  0.00    -0.191 A  
HETATM   35  C   UNL     1      -6.827  19.467  66.514  1.00  0.00    -0.205 A  
HETATM   36  C   UNL     1      -7.955  20.227  66.818  1.00  0.00    -0.330 A  
HETATM   37  C   UNL     1      -8.798  19.834  67.857  1.00  0.00    -0.381 A  
HETATM   38  C   UNL     1      -8.505  18.689  68.603  1.00  0.00    -0.337 A  
ENDBRANCH  32  33
ENDBRANCH  31  32
ENDBRANCH  14  26
ENDBRANCH   3   6
TORSDOF 6
ENDMDL
MODEL      117
REMARK 921   NORMALIZED FREE ENERGY PREDICTED BY IDOCK:   -4.66 KCAL/MOL
REMARK 922        TOTAL FREE ENERGY PREDICTED BY IDOCK:   -6.59 KCAL/MOL
REMARK 923 INTER-LIGAND FREE ENERGY PREDICTED BY IDOCK:   -5.79 KCAL/MOL
REMARK 924 INTRA-LIGAND FREE ENERGY PREDICTED BY IDOCK:   -0.81 KCAL/MOL
REMARK 927      BINDING AFFINITY PREDICTED BY RF-SCORE:    0.00 PKD
ROOT
HETATM    1  N   UNL     1      -6.356   7.332  64.819  1.00  0.00    -0.037 N  
HETATM    2  H1  UNL     1      -5.990   7.115  65.746  1.00  0.00     0.000 HD 
HETATM    3  C   UNL     1      -7.708   7.302  64.618  1.00  0.00    -0.116 C  
HETATM    4  H2  UNL     1      -5.723   7.569  64.055  1.00  0.00     0.000 HD 
HETATM    5  O   UNL     1      -8.147   7.564  63.505  1.00  0.00    -0.113 OA 
ENDROOT
BRANCH   3   6
HETATM    6  C   UNL     1      -8.510   6.968  65.786  1.00  0.00    -0.154 A  
HETATM    7  C   UNL     1      -8.532   5.720  66.404  1.00  0.00    -0.122 A  
HETATM    8  N   UNL     1      -8.005   4.504  66.086  1.00  0.00    -0.099 NA 
HETATM    9  C   UNL     1      -8.590   3.332  66.742  1.00  0.00    -0.116 C  
HETATM   10  H   UNL     1      -7.238   4.414  65.420  1.00  0.00     0.000 HD 
HETATM   11  C   UNL     1      -8.626   3.580  68.243  1.00  0.00    -0.116 C  
HETATM   12  C   UNL     1      -9.384   4.886  68.615  1.00  0.00    -0.135 C  
HETATM   13  N   UNL     1      -9.227   5.896  67.568  1.00  0.00    -0.109 NA 
HETATM   14  C   UNL     1      -9.418   7.774  66.574  1.00  0.00    -0.201 A  
HETATM   15  N   UNL     1      -9.936   7.033  67.579  1.00  0.00    -0.145 NA 
BRANCH  12  16
HETATM   16  C   UNL     1      -9.085   5.340  70.101  1.00  0.00    -0.168 C  
HETATM   17  C   UNL     1      -7.606   5.334  70.527  1.00  0.00    -0.072 C  
HETATM   18  C   UNL     1      -6.849   6.465  69.855  1.00  0.00    -0.058 C  
HETATM   19  O   UNL     1      -5.310   8.679  69.869  1.00  0.00    -0.029 OA 
HETATM   20  N   UNL     1      -7.379   7.751  70.284  1.00  0.00    -0.066 N  
HETATM   21  C   UNL     1      -9.655   6.702  70.555  1.00  0.00    -0.177 C  
HETATM   22  C   UNL     1      -8.824   7.920  70.112  1.00  0.00    -0.144 C  
HETATM   23  C   UNL     1      -6.486   8.816  70.207  1.00  0.00    -0.039 C  
BRANCH  23  24
HETATM   24  C   UNL     1      -6.991  10.160  70.588  1.00  0.00     0.033 C  
HETATM   25  C   UNL     1      -6.576  11.237  69.908  1.00  0.00    -0.108 C  
ENDBRANCH  23  24
ENDBRANCH  12  16
BRANCH  14  26
HETATM   26  C   UNL     1      -9.794   9.206  66.500  1.00  0.00    -0.333 A  
HETATM   27  C   UNL     1     -10.896   9.689  67.236  1.00  0.00    -0.212 A  
HETATM   28  C   UNL     1      -9.127  10.128  65.690  1.00  0.00    -0.216 A  
HETATM   29  C   UNL     1     -11.273  11.041  67.207  1.00  0.00    -0.330 A  
HETATM   30  C   UNL     1      -9.512  11.479  65.643  1.00  0.00    -0.244 A  
HETATM   31  C   UNL     1     -10.562  11.953  66.430  1.00  0.00    -0.248 A  
BRANCH  31  32
HETATM   32  O   UNL     1     -11.019  13.251  66.447  1.00  0.00    -0.285 OA 
BRANCH  32  33
HETATM   33  C   UNL     1     -10.576  14.152  67.392  1.00  0.00    -0.279 A  
HETATM   34  C   UNL     1     -11.458  15.175  67.751  1.00  0.00    -0.329 A  
HETATM   35  C   UNL     1     -11.085  16.127  68.703  1.00  0.00    -0.356 A  
HETATM   36  C   UNL     1      -9.828  16.057  69.302  1.00  0.00    -0.255 A  
HETATM   37  C   UNL     1      -8.964  15.011  68.981  1.00  0.00    -0.205 A  
HETATM   38  C   UNL     1      -9.349  14.042  68.050  1.00  0.00    -0.205 A  
ENDBRANCH  32  33
ENDBRANCH  31  32
ENDBRANCH  14  26
ENDBRANCH   3   6
TORSDOF 6
ENDMDL
MODEL      118
REMARK 921   NORMALIZED FREE ENERGY PREDICTED BY IDOCK:   -4.63 KCAL/MOL
REMARK 922        TOTAL FREE ENERGY PREDICTED BY IDOCK:   -6.56 KCAL/MOL
REMARK 923 INTER-LIGAND FREE ENERGY PREDICTED BY IDOCK:   -5.64 KCAL/MOL
REMARK 924 INTRA-LIGAND FREE ENERGY PREDICTED BY IDOCK:   -0.92 KCAL/MOL
REMARK 927      BINDING AFFINITY PREDICTED BY RF-SCORE:    0.00 PKD
ROOT
HETATM    1  N   UNL     1     -12.523  16.023  69.544  1.00  0.00    -0.450 N  
HETATM    2  H1  UNL     1     -12.161  16.969  69.425  1.00  0.00     0.000 HD 
HETATM    3  C   UNL     1     -11.909  14.992  68.888  1.00  0.00    -0.307 C  
HETATM    4  H2  UNL     1     -13.329  15.849  70.144  1.00  0.00     0.000 HD 
HETATM    5  O   UNL     1     -12.344  13.856  69.033  1.00  0.00    -0.308 OA 
ENDROOT
BRANCH   3   6
HETATM    6  C   UNL     1     -10.759  15.360  68.075  1.00  0.00    -0.279 A  
HETATM    7  C   UNL     1     -10.476  16.651  67.637  1.00  0.00    -0.320 A  
HETATM    8  N   UNL     1     -11.161  17.829  67.677  1.00  0.00     0.091 NA 
HETATM    9  C   UNL     1     -10.741  18.876  66.744  1.00  0.00    -0.336 C  
HETATM   10  H   UNL     1     -11.932  17.974  68.329  1.00  0.00     0.000 HD 
HETATM   11  C   UNL     1      -9.237  19.069  66.870  1.00  0.00    -0.332 C  
HETATM   12  C   UNL     1      -8.445  17.749  66.648  1.00  0.00    -0.258 C  
HETATM   13  N   UNL     1      -9.218  16.594  67.107  1.00  0.00    -0.219 NA 
HETATM   14  C   UNL     1      -9.671  14.559  67.555  1.00  0.00    -0.211 A  
HETATM   15  N   UNL     1      -8.820  15.340  66.854  1.00  0.00    -0.235 NA 
BRANCH  12  16
HETATM   16  C   UNL     1      -6.952  17.863  67.159  1.00  0.00    -0.202 C  
HETATM   17  C   UNL     1      -6.770  18.178  68.655  1.00  0.00    -0.240 C  
HETATM   18  C   UNL     1      -7.143  16.977  69.506  1.00  0.00     0.009 C  
HETATM   19  O   UNL     1      -6.638  15.084  71.358  1.00  0.00     0.570 OA 
HETATM   20  N   UNL     1      -6.249  15.863  69.224  1.00  0.00    -0.137 N  
HETATM   21  C   UNL     1      -6.004  16.682  66.852  1.00  0.00    -0.152 C  
HETATM   22  C   UNL     1      -6.146  15.486  67.812  1.00  0.00    -0.154 C  
HETATM   23  C   UNL     1      -6.107  14.941  70.257  1.00  0.00    -0.158 C  
BRANCH  23  24
HETATM   24  C   UNL     1      -5.243  13.759  70.004  1.00  0.00    -0.093 C  
HETATM   25  C   UNL     1      -5.283  12.721  70.850  1.00  0.00    -0.160 C  
ENDBRANCH  23  24
ENDBRANCH  12  16
BRANCH  14  26
HETATM   26  C   UNL     1      -9.330  13.124  67.713  1.00  0.00    -0.206 A  
HETATM   27  C   UNL     1      -8.173  12.745  68.425  1.00  0.00    -0.128 A  
HETATM   28  C   UNL     1     -10.087  12.095  67.152  1.00  0.00    -0.220 A  
HETATM   29  C   UNL     1      -7.825  11.398  68.613  1.00  0.00    -0.139 A  
HETATM   30  C   UNL     1      -9.734  10.745  67.321  1.00  0.00    -0.187 A  
HETATM   31  C   UNL     1      -8.623  10.385  68.085  1.00  0.00    -0.125 A  
BRANCH  31  32
HETATM   32  O   UNL     1      -8.190   9.097  68.301  1.00  0.00    -0.114 OA 
BRANCH  32  33
HETATM   33  C   UNL     1      -8.118   8.185  67.269  1.00  0.00    -0.121 A  
HETATM   34  C   UNL     1      -7.300   8.522  66.187  1.00  0.00    -0.081 A  
HETATM   35  C   UNL     1      -7.171   7.651  65.102  1.00  0.00    -0.069 A  
HETATM   36  C   UNL     1      -7.858   6.438  65.098  1.00  0.00    -0.111 A  
HETATM   37  C   UNL     1      -8.638   6.078  66.196  1.00  0.00    -0.142 A  
HETATM   38  C   UNL     1      -8.743   6.937  67.294  1.00  0.00    -0.119 A  
ENDBRANCH  32  33
ENDBRANCH  31  32
ENDBRANCH  14  26
ENDBRANCH   3   6
TORSDOF 6
ENDMDL
MODEL      119
REMARK 921   NORMALIZED FREE ENERGY PREDICTED BY IDOCK:   -4.63 KCAL/MOL
REMARK 922        TOTAL FREE ENERGY PREDICTED BY IDOCK:   -6.56 KCAL/MOL
REMARK 923 INTER-LIGAND FREE ENERGY PREDICTED BY IDOCK:   -6.38 KCAL/MOL
REMARK 924 INTRA-LIGAND FREE ENERGY PREDICTED BY IDOCK:   -0.18 KCAL/MOL
REMARK 927      BINDING AFFINITY PREDICTED BY RF-SCORE:    0.00 PKD
ROOT
HETATM    1  N   UNL     1     -10.722   6.752  66.609  1.00  0.00    -0.533 N  
HETATM    2  H1  UNL     1     -11.693   6.995  66.805  1.00  0.00     0.000 HD 
HETATM    3  C   UNL     1      -9.838   6.667  67.649  1.00  0.00    -0.126 C  
HETATM    4  H2  UNL     1     -10.415   6.575  65.652  1.00  0.00     0.000 HD 
HETATM    5  O   UNL     1      -8.673   6.374  67.413  1.00  0.00    -0.108 OA 
ENDROOT
BRANCH   3   6
HETATM    6  C   UNL     1     -10.395   6.924  68.970  1.00  0.00    -0.203 A  
HETATM    7  C   UNL     1     -10.400   6.011  70.021  1.00  0.00    -0.229 A  
HETATM    8  N   UNL     1     -10.072   4.692  70.123  1.00  0.00    -0.244 NA 
HETATM    9  C   UNL     1     -10.607   3.959  71.273  1.00  0.00     0.673 C  
HETATM   10  H   UNL     1      -9.480   4.236  69.429  1.00  0.00     0.000 HD 
HETATM   11  C   UNL     1     -10.292   4.740  72.540  1.00  0.00    -0.259 C  
HETATM   12  C   UNL     1     -10.824   6.200  72.490  1.00  0.00    -0.240 C  
HETATM   13  N   UNL     1     -10.804   6.716  71.120  1.00  0.00    -0.234 NA 
HETATM   14  C   UNL     1     -11.029   8.104  69.517  1.00  0.00    -0.047 A  
HETATM   15  N   UNL     1     -11.383   7.881  70.802  1.00  0.00    -0.275 NA 
BRANCH  12  16
HETATM   16  C   UNL     1     -10.168   7.107  73.608  1.00  0.00    -0.402 C  
HETATM   17  C   UNL     1      -9.164   6.410  74.544  1.00  0.00    -0.214 C  
HETATM   18  C   UNL     1      -7.874   6.095  73.809  1.00  0.00    -0.097 C  
HETATM   19  O   UNL     1      -5.203   6.224  73.464  1.00  0.00    -0.034 OA 
HETATM   20  N   UNL     1      -7.226   7.327  73.380  1.00  0.00    -0.072 N  
HETATM   21  C   UNL     1      -9.487   8.416  73.151  1.00  0.00    -0.180 C  
HETATM   22  C   UNL     1      -8.064   8.233  72.592  1.00  0.00    -0.152 C  
HETATM   23  C   UNL     1      -5.847   7.241  73.209  1.00  0.00    -0.049 C  
BRANCH  23  24
HETATM   24  C   UNL     1      -5.142   8.458  72.726  1.00  0.00    -0.039 C  
HETATM   25  C   UNL     1      -5.193   8.776  71.426  1.00  0.00    -0.035 C  
ENDBRANCH  23  24
ENDBRANCH  12  16
BRANCH  14  26
HETATM   26  C   UNL     1     -11.276   9.452  68.951  1.00  0.00     0.096 A  
HETATM   27  C   UNL     1     -11.918  10.441  69.726  1.00  0.00    -0.242 A  
HETATM   28  C   UNL     1     -10.935   9.803  67.643  1.00  0.00    -0.226 A  
HETATM   29  C   UNL     1     -12.153  11.734  69.233  1.00  0.00    -0.292 A  
HETATM   30  C   UNL     1     -11.185  11.091  67.138  1.00  0.00    -0.290 A  
HETATM   31  C   UNL     1     -11.760  12.076  67.940  1.00  0.00    -0.323 A  
BRANCH  31  32
HETATM   32  O   UNL     1     -12.053  13.359  67.537  1.00  0.00    -0.347 OA 
BRANCH  32  33
HETATM   33  C   UNL     1     -11.216  14.412  67.842  1.00  0.00    -0.286 A  
HETATM   34  C   UNL     1     -11.678  15.330  68.790  1.00  0.00    -0.374 A  
HETATM   35  C   UNL     1     -10.889  16.424  69.155  1.00  0.00    -0.329 A  
HETATM   36  C   UNL     1      -9.633  16.600  68.577  1.00  0.00    -0.241 A  
HETATM   37  C   UNL     1      -9.149  15.661  67.668  1.00  0.00    -0.193 A  
HETATM   38  C   UNL     1      -9.927  14.552  67.324  1.00  0.00    -0.236 A  
ENDBRANCH  32  33
ENDBRANCH  31  32
ENDBRANCH  14  26
ENDBRANCH   3   6
TORSDOF 6
ENDMDL
MODEL      120
REMARK 921   NORMALIZED FREE ENERGY PREDICTED BY IDOCK:   -4.63 KCAL/MOL
REMARK 922        TOTAL FREE ENERGY PREDICTED BY IDOCK:   -6.56 KCAL/MOL
REMARK 923 INTER-LIGAND FREE ENERGY PREDICTED BY IDOCK:   -5.81 KCAL/MOL
REMARK 924 INTRA-LIGAND FREE ENERGY PREDICTED BY IDOCK:   -0.74 KCAL/MOL
REMARK 927      BINDING AFFINITY PREDICTED BY RF-SCORE:    0.00 PKD
ROOT
HETATM    1  N   UNL     1      -5.326  10.868  63.571  1.00  0.00    -0.350 N  
HETATM    2  H1  UNL     1      -5.694  10.500  62.694  1.00  0.00     0.000 HD 
HETATM    3  C   UNL     1      -5.844  10.407  64.751  1.00  0.00    -0.129 C  
HETATM    4  H2  UNL     1      -4.584  11.568  63.569  1.00  0.00     0.000 HD 
HETATM    5  O   UNL     1      -5.401  10.849  65.804  1.00  0.00    -0.118 OA 
ENDROOT
BRANCH   3   6
HETATM    6  C   UNL     1      -6.886   9.398  64.629  1.00  0.00    -0.096 A  
HETATM    7  C   UNL     1      -6.670   8.075  64.254  1.00  0.00    -0.065 A  
HETATM    8  N   UNL     1      -5.585   7.395  63.786  1.00  0.00    -0.037 NA 
HETATM    9  C   UNL     1      -5.839   6.128  63.095  1.00  0.00    -0.022 C  
HETATM   10  H   UNL     1      -4.638   7.753  63.911  1.00  0.00     0.000 HD 
HETATM   11  C   UNL     1      -6.737   5.266  63.971  1.00  0.00    -0.046 C  
HETATM   12  C   UNL     1      -8.060   5.985  64.360  1.00  0.00    -0.119 C  
HETATM   13  N   UNL     1      -7.853   7.429  64.478  1.00  0.00    -0.126 NA 
HETATM   14  C   UNL     1      -8.312   9.477  64.860  1.00  0.00    -0.146 A  
HETATM   15  N   UNL     1      -8.882   8.274  64.625  1.00  0.00     0.120 NA 
BRANCH  12  16
HETATM   16  C   UNL     1      -8.792   5.264  65.563  1.00  0.00    -0.153 C  
HETATM   17  C   UNL     1      -8.466   3.773  65.760  1.00  0.00    -0.110 C  
HETATM   18  C   UNL     1      -7.056   3.598  66.296  1.00  0.00    -0.063 C  
HETATM   19  O   UNL     1      -5.255   2.708  68.094  1.00  0.00    -0.011 OA 
HETATM   20  N   UNL     1      -6.941   4.205  67.615  1.00  0.00    -0.055 N  
HETATM   21  C   UNL     1      -8.673   5.915  66.960  1.00  0.00    -0.109 C  
HETATM   22  C   UNL     1      -7.356   5.607  67.695  1.00  0.00    -0.077 C  
HETATM   23  C   UNL     1      -5.946   3.670  68.428  1.00  0.00    -0.027 C  
BRANCH  23  24
HETATM   24  C   UNL     1      -5.754   4.286  69.767  1.00  0.00    -0.017 C  
HETATM   25  C   UNL     1      -5.940   3.543  70.866  1.00  0.00    -0.014 C  
ENDBRANCH  23  24
ENDBRANCH  12  16
BRANCH  14  26
HETATM   26  C   UNL     1      -9.181  10.576  65.346  1.00  0.00    -0.229 A  
HETATM   27  C   UNL     1     -10.321  10.958  64.608  1.00  0.00    -0.407 A  
HETATM   28  C   UNL     1      -8.910  11.305  66.506  1.00  0.00    -0.180 A  
HETATM   29  C   UNL     1     -11.178  11.981  65.043  1.00  0.00    -0.374 A  
HETATM   30  C   UNL     1      -9.755  12.342  66.937  1.00  0.00    -0.217 A  
HETATM   31  C   UNL     1     -10.915  12.662  66.230  1.00  0.00    -0.283 A  
BRANCH  31  32
HETATM   32  O   UNL     1     -11.798  13.664  66.563  1.00  0.00    -0.360 OA 
BRANCH  32  33
HETATM   33  C   UNL     1     -11.547  14.515  67.618  1.00  0.00    -0.378 A  
HETATM   34  C   UNL     1     -10.810  15.669  67.336  1.00  0.00    -0.315 A  
HETATM   35  C   UNL     1     -10.515  16.584  68.350  1.00  0.00    -0.307 A  
HETATM   36  C   UNL     1     -10.960  16.349  69.650  1.00  0.00    -0.329 A  
HETATM   37  C   UNL     1     -11.736  15.225  69.926  1.00  0.00    -0.349 A  
HETATM   38  C   UNL     1     -12.055  14.325  68.905  1.00  0.00    -0.314 A  
ENDBRANCH  32  33
ENDBRANCH  31  32
ENDBRANCH  14  26
ENDBRANCH   3   6
TORSDOF 6
ENDMDL
MODEL      121
REMARK 921   NORMALIZED FREE ENERGY PREDICTED BY IDOCK:   -4.60 KCAL/MOL
REMARK 922        TOTAL FREE ENERGY PREDICTED BY IDOCK:   -6.51 KCAL/MOL
REMARK 923 INTER-LIGAND FREE ENERGY PREDICTED BY IDOCK:   -6.76 KCAL/MOL
REMARK 924 INTRA-LIGAND FREE ENERGY PREDICTED BY IDOCK:    0.25 KCAL/MOL
REMARK 927      BINDING AFFINITY PREDICTED BY RF-SCORE:    0.00 PKD
ROOT
HETATM    1  N   UNL     1     -13.524   9.836  71.939  1.00  0.00    -0.406 N  
HETATM    2  H1  UNL     1     -14.293  10.465  71.709  1.00  0.00     0.000 HD 
HETATM    3  C   UNL     1     -12.256  10.169  71.549  1.00  0.00    -0.380 C  
HETATM    4  H2  UNL     1     -13.698   8.971  72.451  1.00  0.00     0.000 HD 
HETATM    5  O   UNL     1     -11.334   9.413  71.826  1.00  0.00    -0.379 OA 
ENDROOT
BRANCH   3   6
HETATM    6  C   UNL     1     -12.129  11.434  70.839  1.00  0.00    -0.383 A  
HETATM    7  C   UNL     1     -12.713  12.633  71.240  1.00  0.00    -0.257 A  
HETATM    8  N   UNL     1     -13.608  12.963  72.214  1.00  0.00    -0.565 NA 
HETATM    9  C   UNL     1     -14.315  14.238  72.066  1.00  0.00    -0.544 C  
HETATM   10  H   UNL     1     -13.778  12.349  73.011  1.00  0.00     0.000 HD 
HETATM   11  C   UNL     1     -13.292  15.336  71.812  1.00  0.00    -0.540 C  
HETATM   12  C   UNL     1     -12.384  15.035  70.587  1.00  0.00    -0.348 C  
HETATM   13  N   UNL     1     -12.171  13.596  70.436  1.00  0.00    -0.353 NA 
HETATM   14  C   UNL     1     -11.409  11.774  69.630  1.00  0.00    -0.215 A  
HETATM   15  N   UNL     1     -11.575  13.085  69.350  1.00  0.00    -0.296 NA 
BRANCH  12  16
HETATM   16  C   UNL     1     -11.098  15.957  70.565  1.00  0.00    -0.381 C  
HETATM   17  C   UNL     1      -9.745  15.231  70.447  1.00  0.00     0.439 C  
HETATM   18  C   UNL     1      -9.562  14.661  69.052  1.00  0.00    -0.145 C  
HETATM   19  O   UNL     1      -8.242  14.375  66.718  1.00  0.00    -0.098 OA 
HETATM   20  N   UNL     1      -9.522  15.735  68.070  1.00  0.00    -0.201 N  
HETATM   21  C   UNL     1     -11.061  17.100  69.527  1.00  0.00     0.376 C  
HETATM   22  C   UNL     1     -10.658  16.659  68.108  1.00  0.00    -0.336 C  
HETATM   23  C   UNL     1      -8.835  15.439  66.896  1.00  0.00    -0.253 C  
BRANCH  23  24
HETATM   24  C   UNL     1      -8.805  16.485  65.841  1.00  0.00    -0.148 C  
HETATM   25  C   UNL     1      -7.687  17.200  65.654  1.00  0.00     0.617 C  
ENDBRANCH  23  24
ENDBRANCH  12  16
BRANCH  14  26
HETATM   26  C   UNL     1     -10.522  10.980  68.746  1.00  0.00    -0.222 A  
HETATM   27  C   UNL     1     -10.590  11.139  67.346  1.00  0.00    -0.272 A  
HETATM   28  C   UNL     1      -9.623  10.026  69.227  1.00  0.00    -0.227 A  
HETATM   29  C   UNL     1      -9.755  10.419  66.476  1.00  0.00    -0.241 A  
HETATM   30  C   UNL     1      -8.797   9.290  68.360  1.00  0.00    -0.129 A  
HETATM   31  C   UNL     1      -8.830   9.508  66.982  1.00  0.00    -0.127 A  
BRANCH  31  32
HETATM   32  O   UNL     1      -8.072   8.834  66.052  1.00  0.00    -0.106 OA 
BRANCH  32  33
HETATM   33  C   UNL     1      -7.972   7.459  66.074  1.00  0.00    -0.115 A  
HETATM   34  C   UNL     1      -9.123   6.749  66.428  1.00  0.00    -0.175 A  
HETATM   35  C   UNL     1      -9.104   5.352  66.473  1.00  0.00    -0.135 A  
HETATM   36  C   UNL     1      -7.935   4.661  66.158  1.00  0.00    -0.103 A  
HETATM   37  C   UNL     1      -6.800   5.364  65.758  1.00  0.00    -0.061 A  
HETATM   38  C   UNL     1      -6.827   6.760  65.686  1.00  0.00    -0.055 A  
ENDBRANCH  32  33
ENDBRANCH  31  32
ENDBRANCH  14  26
ENDBRANCH   3   6
TORSDOF 6
ENDMDL
MODEL      122
REMARK 921   NORMALIZED FREE ENERGY PREDICTED BY IDOCK:   -4.47 KCAL/MOL
REMARK 922        TOTAL FREE ENERGY PREDICTED BY IDOCK:   -6.35 KCAL/MOL
REMARK 923 INTER-LIGAND FREE ENERGY PREDICTED BY IDOCK:   -6.30 KCAL/MOL
REMARK 924 INTRA-LIGAND FREE ENERGY PREDICTED BY IDOCK:   -0.05 KCAL/MOL
REMARK 927      BINDING AFFINITY PREDICTED BY RF-SCORE:    0.00 PKD
ROOT
HETATM    1  N   UNL     1     -11.889  12.213  71.028  1.00  0.00    -0.146 N  
HETATM    2  H1  UNL     1     -12.189  11.254  71.203  1.00  0.00     0.000 HD 
HETATM    3  C   UNL     1     -11.236  12.499  69.861  1.00  0.00     0.164 C  
HETATM    4  H2  UNL     1     -12.073  12.946  71.712  1.00  0.00     0.000 HD 
HETATM    5  O   UNL     1     -10.876  13.650  69.651  1.00  0.00    -0.024 OA 
ENDROOT
BRANCH   3   6
HETATM    6  C   UNL     1     -11.046  11.375  68.955  1.00  0.00    -0.290 A  
HETATM    7  C   UNL     1     -10.965  11.477  67.569  1.00  0.00    -0.255 A  
HETATM    8  N   UNL     1     -11.164  12.498  66.688  1.00  0.00    -0.290 NA 
HETATM    9  C   UNL     1     -11.410  12.135  65.290  1.00  0.00    -0.336 C  
HETATM   10  H   UNL     1     -11.142  13.473  66.989  1.00  0.00     0.000 HD 
HETATM   11  C   UNL     1     -10.321  11.173  64.837  1.00  0.00    -0.375 C  
HETATM   12  C   UNL     1     -10.215   9.918  65.748  1.00  0.00    -0.181 C  
HETATM   13  N   UNL     1     -10.568  10.245  67.129  1.00  0.00    -0.261 NA 
HETATM   14  C   UNL     1     -10.883   9.961  69.220  1.00  0.00    -0.227 A  
HETATM   15  N   UNL     1     -10.727   9.291  68.057  1.00  0.00    -0.211 NA 
BRANCH  12  16
HETATM   16  C   UNL     1      -8.859   9.135  65.520  1.00  0.00    -0.229 C  
HETATM   17  C   UNL     1      -7.859   9.157  66.690  1.00  0.00    -0.100 C  
HETATM   18  C   UNL     1      -8.356   8.294  67.837  1.00  0.00    -0.128 C  
HETATM   19  O   UNL     1      -8.124   6.279  69.613  1.00  0.00    -0.115 OA 
HETATM   20  N   UNL     1      -8.445   6.902  67.417  1.00  0.00    -0.121 N  
HETATM   21  C   UNL     1      -8.957   7.661  65.069  1.00  0.00     0.382 C  
HETATM   22  C   UNL     1      -9.236   6.664  66.208  1.00  0.00    -0.127 C  
HETATM   23  C   UNL     1      -8.344   5.967  68.443  1.00  0.00    -0.113 C  
BRANCH  23  24
HETATM   24  C   UNL     1      -8.476   4.533  68.076  1.00  0.00    -0.101 C  
HETATM   25  C   UNL     1      -7.646   3.634  68.622  1.00  0.00    -0.053 C  
ENDBRANCH  23  24
ENDBRANCH  12  16
BRANCH  14  26
HETATM   26  C   UNL     1     -10.800   9.191  70.484  1.00  0.00    -0.306 A  
HETATM   27  C   UNL     1      -9.545   8.919  71.068  1.00  0.00    -0.321 A  
HETATM   28  C   UNL     1     -11.921   8.669  71.133  1.00  0.00    -0.320 A  
HETATM   29  C   UNL     1      -9.425   8.210  72.274  1.00  0.00    -0.312 A  
HETATM   30  C   UNL     1     -11.806   7.942  72.330  1.00  0.00    -0.402 A  
HETATM   31  C   UNL     1     -10.562   7.741  72.930  1.00  0.00    -0.366 A  
BRANCH  31  32
HETATM   32  O   UNL     1     -10.344   7.037  74.092  1.00  0.00    -0.346 OA 
BRANCH  32  33
HETATM   33  C   UNL     1      -9.592   5.881  74.096  1.00  0.00    -0.170 A  
HETATM   34  C   UNL     1     -10.172   4.749  73.516  1.00  0.00    -0.219 A  
HETATM   35  C   UNL     1      -9.474   3.539  73.478  1.00  0.00    -0.126 A  
HETATM   36  C   UNL     1      -8.191   3.459  74.018  1.00  0.00    -0.074 A  
HETATM   37  C   UNL     1      -7.591   4.596  74.554  1.00  0.00    -0.085 A  
HETATM   38  C   UNL     1      -8.278   5.813  74.565  1.00  0.00    -0.109 A  
ENDBRANCH  32  33
ENDBRANCH  31  32
ENDBRANCH  14  26
ENDBRANCH   3   6
TORSDOF 6
ENDMDL
MODEL      123
REMARK 921   NORMALIZED FREE ENERGY PREDICTED BY IDOCK:   -4.36 KCAL/MOL
REMARK 922        TOTAL FREE ENERGY PREDICTED BY IDOCK:   -6.19 KCAL/MOL
REMARK 923 INTER-LIGAND FREE ENERGY PREDICTED BY IDOCK:   -5.96 KCAL/MOL
REMARK 924 INTRA-LIGAND FREE ENERGY PREDICTED BY IDOCK:   -0.23 KCAL/MOL
REMARK 927      BINDING AFFINITY PREDICTED BY RF-SCORE:    0.00 PKD
ROOT
HETATM    1  N   UNL     1      -6.837  17.709  65.654  1.00  0.00    -0.122 N  
HETATM    2  H1  UNL     1      -7.823  17.964  65.620  1.00  0.00     0.000 HD 
HETATM    3  C   UNL     1      -6.417  16.813  66.599  1.00  0.00    -0.141 C  
HETATM    4  H2  UNL     1      -6.173  18.115  64.994  1.00  0.00     0.000 HD 
HETATM    5  O   UNL     1      -5.233  16.507  66.639  1.00  0.00    -0.351 OA 
ENDROOT
BRANCH   3   6
HETATM    6  C   UNL     1      -7.456  16.289  67.473  1.00  0.00    -0.172 A  
HETATM    7  C   UNL     1      -8.442  17.059  68.086  1.00  0.00    -0.227 A  
HETATM    8  N   UNL     1      -8.657  18.401  68.192  1.00  0.00    -0.277 NA 
HETATM    9  C   UNL     1      -9.547  18.851  69.265  1.00  0.00    -0.072 C  
HETATM   10  H   UNL     1      -8.217  19.063  67.552  1.00  0.00     0.000 HD 
HETATM   11  C   UNL     1     -10.841  18.055  69.192  1.00  0.00     0.655 C  
HETATM   12  C   UNL     1     -10.602  16.519  69.248  1.00  0.00    -0.327 C  
HETATM   13  N   UNL     1      -9.326  16.167  68.625  1.00  0.00    -0.212 NA 
HETATM   14  C   UNL     1      -7.742  14.936  67.901  1.00  0.00    -0.141 A  
HETATM   15  N   UNL     1      -8.821  14.930  68.715  1.00  0.00    -0.179 NA 
BRANCH  12  16
HETATM   16  C   UNL     1     -11.877  15.706  68.783  1.00  0.00    -0.336 C  
HETATM   17  C   UNL     1     -11.605  14.406  68.004  1.00  0.00    -0.357 C  
HETATM   18  C   UNL     1     -11.052  13.334  68.925  1.00  0.00    -0.261 C  
HETATM   19  O   UNL     1     -11.080  10.894  70.073  1.00  0.00    -0.268 OA 
HETATM   20  N   UNL     1     -12.036  12.987  69.941  1.00  0.00    -0.304 N  
HETATM   21  C   UNL     1     -12.922  15.346  69.862  1.00  0.00     0.111 C  
HETATM   22  C   UNL     1     -12.560  14.116  70.714  1.00  0.00    -0.362 C  
HETATM   23  C   UNL     1     -11.912  11.707  70.474  1.00  0.00    -0.319 C  
BRANCH  23  24
HETATM   24  C   UNL     1     -12.863  11.320  71.549  1.00  0.00    -0.519 C  
HETATM   25  C   UNL     1     -13.079  10.022  71.800  1.00  0.00    -0.562 C  
ENDBRANCH  23  24
ENDBRANCH  12  16
BRANCH  14  26
HETATM   26  C   UNL     1      -7.121  13.634  67.557  1.00  0.00    -0.166 A  
HETATM   27  C   UNL     1      -7.898  12.608  66.980  1.00  0.00    -0.043 A  
HETATM   28  C   UNL     1      -5.781  13.339  67.813  1.00  0.00    -0.121 A  
HETATM   29  C   UNL     1      -7.343  11.369  66.623  1.00  0.00    -0.107 A  
HETATM   30  C   UNL     1      -5.224  12.093  67.475  1.00  0.00    -0.100 A  
HETATM   31  C   UNL     1      -5.991  11.114  66.843  1.00  0.00    -0.103 A  
BRANCH  31  32
HETATM   32  O   UNL     1      -5.543   9.863  66.482  1.00  0.00    -0.044 OA 
BRANCH  32  33
HETATM   33  C   UNL     1      -6.279   9.057  65.639  1.00  0.00    -0.056 A  
HETATM   34  C   UNL     1      -7.145   8.140  66.241  1.00  0.00    -0.073 A  
HETATM   35  C   UNL     1      -7.927   7.288  65.457  1.00  0.00    -0.122 A  
HETATM   36  C   UNL     1      -7.849   7.355  64.066  1.00  0.00    -0.120 A  
HETATM   37  C   UNL     1      -7.022   8.301  63.462  1.00  0.00    -0.085 A  
HETATM   38  C   UNL     1      -6.262   9.172  64.248  1.00  0.00    -0.075 A  
ENDBRANCH  32  33
ENDBRANCH  31  32
ENDBRANCH  14  26
ENDBRANCH   3   6
TORSDOF 6
ENDMDL
MODEL      124
REMARK 921   NORMALIZED FREE ENERGY PREDICTED BY IDOCK:   -4.27 KCAL/MOL
REMARK 922        TOTAL FREE ENERGY PREDICTED BY IDOCK:   -6.07 KCAL/MOL
REMARK 923 INTER-LIGAND FREE ENERGY PREDICTED BY IDOCK:   -5.01 KCAL/MOL
REMARK 924 INTRA-LIGAND FREE ENERGY PREDICTED BY IDOCK:   -1.05 KCAL/MOL
REMARK 927      BINDING AFFINITY PREDICTED BY RF-SCORE:    0.00 PKD
ROOT
HETATM    1  N   UNL     1      -5.507  11.643  66.524  1.00  0.00    -0.145 N  
HETATM    2  H1  UNL     1      -6.149  10.852  66.467  1.00  0.00     0.000 HD 
HETATM    3  C   UNL     1      -5.924  12.791  67.138  1.00  0.00     0.120 C  
HETATM    4  H2  UNL     1      -4.569  11.578  66.129  1.00  0.00     0.000 HD 
HETATM    5  O   UNL     1      -5.153  13.740  67.207  1.00  0.00    -0.315 OA 
ENDROOT
BRANCH   3   6
HETATM    6  C   UNL     1      -7.276  12.760  67.678  1.00  0.00    -0.141 A  
HETATM    7  C   UNL     1      -8.247  13.730  67.446  1.00  0.00    -0.184 A  
HETATM    8  N   UNL     1      -8.229  14.954  66.844  1.00  0.00    -0.342 NA 
HETATM    9  C   UNL     1      -9.327  15.869  67.164  1.00  0.00    -0.212 C  
HETATM   10  H   UNL     1      -7.483  15.219  66.201  1.00  0.00     0.000 HD 
HETATM   11  C   UNL     1     -10.646  15.138  66.963  1.00  0.00    -0.300 C  
HETATM   12  C   UNL     1     -10.733  13.825  67.791  1.00  0.00    -0.246 C  
HETATM   13  N   UNL     1      -9.412  13.214  67.940  1.00  0.00    -0.211 NA 
HETATM   14  C   UNL     1      -7.938  11.786  68.520  1.00  0.00    -0.145 A  
HETATM   15  N   UNL     1      -9.208  12.177  68.763  1.00  0.00     0.008 NA 
BRANCH  12  16
HETATM   16  C   UNL     1     -11.906  12.888  67.291  1.00  0.00    -0.416 C  
HETATM   17  C   UNL     1     -11.700  12.218  65.920  1.00  0.00    -0.451 C  
HETATM   18  C   UNL     1     -10.645  11.129  66.008  1.00  0.00    -0.239 C  
HETATM   19  O   UNL     1      -9.766   8.596  65.723  1.00  0.00    -0.167 OA 
HETATM   20  N   UNL     1     -11.088  10.070  66.904  1.00  0.00    -0.011 N  
HETATM   21  C   UNL     1     -12.378  11.769  68.246  1.00  0.00     0.494 C  
HETATM   22  C   UNL     1     -11.491  10.511  68.241  1.00  0.00    -0.199 C  
HETATM   23  C   UNL     1     -10.528   8.819  66.664  1.00  0.00    -0.170 C  
BRANCH  23  24
HETATM   24  C   UNL     1     -10.910   7.713  67.580  1.00  0.00    -0.205 C  
HETATM   25  C   UNL     1     -11.061   6.475  67.090  1.00  0.00    -0.434 C  
ENDBRANCH  23  24
ENDBRANCH  12  16
BRANCH  14  26
HETATM   26  C   UNL     1      -7.494  10.482  69.069  1.00  0.00    -0.112 A  
HETATM   27  C   UNL     1      -7.505   9.329  68.255  1.00  0.00    -0.079 A  
HETATM   28  C   UNL     1      -7.088  10.311  70.393  1.00  0.00    -0.040 A  
HETATM   29  C   UNL     1      -7.074   8.081  68.731  1.00  0.00    -0.071 A  
HETATM   30  C   UNL     1      -6.673   9.059  70.881  1.00  0.00    -0.080 A  
HETATM   31  C   UNL     1      -6.627   7.944  70.043  1.00  0.00    -0.037 A  
BRANCH  31  32
HETATM   32  O   UNL     1      -6.247   6.678  70.426  1.00  0.00    -0.030 OA 
BRANCH  32  33
HETATM   33  C   UNL     1      -7.182   5.690  70.652  1.00  0.00    -0.078 A  
HETATM   34  C   UNL     1      -8.143   5.946  71.635  1.00  0.00    -0.118 A  
HETATM   35  C   UNL     1      -9.127   4.996  71.923  1.00  0.00    -0.157 A  
HETATM   36  C   UNL     1      -9.155   3.789  71.226  1.00  0.00    -0.181 A  
HETATM   37  C   UNL     1      -8.228   3.551  70.213  1.00  0.00    -0.075 A  
HETATM   38  C   UNL     1      -7.262   4.513  69.906  1.00  0.00    -0.050 A  
ENDBRANCH  32  33
ENDBRANCH  31  32
ENDBRANCH  14  26
ENDBRANCH   3   6
TORSDOF 6
ENDMDL
MODEL      125
REMARK 921   NORMALIZED FREE ENERGY PREDICTED BY IDOCK:   -4.24 KCAL/MOL
REMARK 922        TOTAL FREE ENERGY PREDICTED BY IDOCK:   -6.03 KCAL/MOL
REMARK 923 INTER-LIGAND FREE ENERGY PREDICTED BY IDOCK:   -5.42 KCAL/MOL
REMARK 924 INTRA-LIGAND FREE ENERGY PREDICTED BY IDOCK:   -0.61 KCAL/MOL
REMARK 927      BINDING AFFINITY PREDICTED BY RF-SCORE:    0.00 PKD
ROOT
HETATM    1  N   UNL     1      -6.693  10.637  65.108  1.00  0.00    -0.340 N  
HETATM    2  H1  UNL     1      -7.642  10.265  65.085  1.00  0.00     0.000 HD 
HETATM    3  C   UNL     1      -6.299  11.378  66.188  1.00  0.00     0.090 C  
HETATM    4  H2  UNL     1      -6.049  10.460  64.338  1.00  0.00     0.000 HD 
HETATM    5  O   UNL     1      -5.159  11.825  66.215  1.00  0.00    -0.327 OA 
ENDROOT
BRANCH   3   6
HETATM    6  C   UNL     1      -7.299  11.549  67.232  1.00  0.00    -0.131 A  
HETATM    7  C   UNL     1      -8.179  12.624  67.320  1.00  0.00    -0.184 A  
HETATM    8  N   UNL     1      -8.294  13.803  66.645  1.00  0.00    -0.397 NA 
HETATM    9  C   UNL     1      -9.064  14.869  67.291  1.00  0.00    -0.201 C  
HETATM   10  H   UNL     1      -7.862  13.938  65.731  1.00  0.00     0.000 HD 
HETATM   11  C   UNL     1     -10.411  14.306  67.720  1.00  0.00    -0.245 C  
HETATM   12  C   UNL     1     -10.273  13.058  68.638  1.00  0.00    -0.164 C  
HETATM   13  N   UNL     1      -9.076  12.289  68.295  1.00  0.00    -0.198 NA 
HETATM   14  C   UNL     1      -7.640  10.713  68.363  1.00  0.00    -0.100 A  
HETATM   15  N   UNL     1      -8.649  11.277  69.063  1.00  0.00    -0.045 NA 
BRANCH  12  16
HETATM   16  C   UNL     1     -11.632  12.257  68.755  1.00  0.00    -0.380 C  
HETATM   17  C   UNL     1     -11.780  11.034  67.831  1.00  0.00    -0.216 C  
HETATM   18  C   UNL     1     -10.881   9.901  68.292  1.00  0.00    -0.230 C  
HETATM   19  O   UNL     1     -10.414   7.374  69.107  1.00  0.00    -0.207 OA 
HETATM   20  N   UNL     1     -11.282   9.447  69.617  1.00  0.00    -0.139 N  
HETATM   21  C   UNL     1     -12.058  11.783  70.162  1.00  0.00    -0.398 C  
HETATM   22  C   UNL     1     -11.362  10.494  70.638  1.00  0.00    -0.275 C  
HETATM   23  C   UNL     1     -10.947   8.130  69.918  1.00  0.00    -0.168 C  
BRANCH  23  24
HETATM   24  C   UNL     1     -11.291   7.632  71.275  1.00  0.00    -0.286 C  
HETATM   25  C   UNL     1     -10.576   6.634  71.811  1.00  0.00    -0.242 C  
ENDBRANCH  23  24
ENDBRANCH  12  16
BRANCH  14  26
HETATM   26  C   UNL     1      -7.137   9.392  68.810  1.00  0.00    -0.069 A  
HETATM   27  C   UNL     1      -6.761   9.193  70.155  1.00  0.00    -0.050 A  
HETATM   28  C   UNL     1      -6.972   8.308  67.945  1.00  0.00    -0.078 A  
HETATM   29  C   UNL     1      -6.298   7.952  70.620  1.00  0.00    -0.037 A  
HETATM   30  C   UNL     1      -6.491   7.069  68.401  1.00  0.00    -0.040 A  
HETATM   31  C   UNL     1      -6.187   6.870  69.749  1.00  0.00    -0.034 A  
BRANCH  31  32
HETATM   32  O   UNL     1      -5.703   5.702  70.291  1.00  0.00    -0.021 OA 
BRANCH  32  33
HETATM   33  C   UNL     1      -6.440   4.538  70.253  1.00  0.00    -0.034 A  
HETATM   34  C   UNL     1      -7.629   4.520  70.987  1.00  0.00    -0.064 A  
HETATM   35  C   UNL     1      -8.435   3.378  70.998  1.00  0.00    -0.098 A  
HETATM   36  C   UNL     1      -8.055   2.251  70.271  1.00  0.00    -0.056 A  
HETATM   37  C   UNL     1      -6.894   2.281  69.500  1.00  0.00    -0.033 A  
HETATM   38  C   UNL     1      -6.104   3.434  69.466  1.00  0.00    -0.024 A  
ENDBRANCH  32  33
ENDBRANCH  31  32
ENDBRANCH  14  26
ENDBRANCH   3   6
TORSDOF 6
ENDMDL
MODEL      126
REMARK 921   NORMALIZED FREE ENERGY PREDICTED BY IDOCK:   -4.21 KCAL/MOL
REMARK 922        TOTAL FREE ENERGY PREDICTED BY IDOCK:   -5.99 KCAL/MOL
REMARK 923 INTER-LIGAND FREE ENERGY PREDICTED BY IDOCK:   -6.11 KCAL/MOL
REMARK 924 INTRA-LIGAND FREE ENERGY PREDICTED BY IDOCK:    0.12 KCAL/MOL
REMARK 927      BINDING AFFINITY PREDICTED BY RF-SCORE:    0.00 PKD
ROOT
HETATM    1  N   UNL     1     -11.767  12.245  62.728  1.00  0.00    -0.246 N  
HETATM    2  H1  UNL     1     -10.797  12.231  62.412  1.00  0.00     0.000 HD 
HETATM    3  C   UNL     1     -12.059  12.804  63.941  1.00  0.00    -0.486 C  
HETATM    4  H2  UNL     1     -12.506  11.848  62.148  1.00  0.00     0.000 HD 
HETATM    5  O   UNL     1     -13.224  12.820  64.319  1.00  0.00    -0.567 OA 
ENDROOT
BRANCH   3   6
HETATM    6  C   UNL     1     -10.925  13.352  64.671  1.00  0.00    -0.388 A  
HETATM    7  C   UNL     1     -10.764  14.697  64.995  1.00  0.00    -0.430 A  
HETATM    8  N   UNL     1     -11.438  15.833  64.658  1.00  0.00    -0.507 NA 
HETATM    9  C   UNL     1     -10.733  17.104  64.836  1.00  0.00     0.270 C  
HETATM   10  H   UNL     1     -12.392  15.799  64.297  1.00  0.00     0.000 HD 
HETATM   11  C   UNL     1     -10.169  17.155  66.249  1.00  0.00    -0.340 C  
HETATM   12  C   UNL     1      -9.255  15.940  66.571  1.00  0.00    -0.279 C  
HETATM   13  N   UNL     1      -9.703  14.745  65.855  1.00  0.00    -0.325 NA 
HETATM   14  C   UNL     1      -9.757  12.707  65.230  1.00  0.00    -0.026 A  
HETATM   15  N   UNL     1      -8.969  13.625  65.832  1.00  0.00     0.376 NA 
BRANCH  12  16
HETATM   16  C   UNL     1      -8.997  15.790  68.125  1.00  0.00    -0.180 C  
HETATM   17  C   UNL     1      -9.712  14.618  68.822  1.00  0.00    -0.217 C  
HETATM   18  C   UNL     1      -9.085  13.294  68.423  1.00  0.00    -0.137 C  
HETATM   19  O   UNL     1      -7.882  10.940  68.954  1.00  0.00    -0.125 OA 
HETATM   20  N   UNL     1      -7.701  13.237  68.873  1.00  0.00    -0.005 N  
HETATM   21  C   UNL     1      -7.528  15.737  68.600  1.00  0.00    -0.151 C  
HETATM   22  C   UNL     1      -6.860  14.358  68.448  1.00  0.00    -0.106 C  
HETATM   23  C   UNL     1      -7.197  11.956  69.075  1.00  0.00    -0.068 C  
BRANCH  23  24
HETATM   24  C   UNL     1      -5.774  11.840  69.489  1.00  0.00    -0.078 C  
HETATM   25  C   UNL     1      -5.456  11.085  70.550  1.00  0.00    -0.114 C  
ENDBRANCH  23  24
ENDBRANCH  12  16
BRANCH  14  26
HETATM   26  C   UNL     1      -9.346  11.284  65.300  1.00  0.00    -0.225 A  
HETATM   27  C   UNL     1     -10.222  10.318  65.841  1.00  0.00    -0.293 A  
HETATM   28  C   UNL     1      -8.092  10.831  64.886  1.00  0.00     0.066 A  
HETATM   29  C   UNL     1      -9.878   8.959  65.907  1.00  0.00    -0.200 A  
HETATM   30  C   UNL     1      -7.735   9.474  64.968  1.00  0.00    -0.114 A  
HETATM   31  C   UNL     1      -8.639   8.523  65.443  1.00  0.00    -0.176 A  
BRANCH  31  32
HETATM   32  O   UNL     1      -8.383   7.177  65.571  1.00  0.00    -0.131 OA 
BRANCH  32  33
HETATM   33  C   UNL     1      -8.900   6.449  66.621  1.00  0.00    -0.130 A  
HETATM   34  C   UNL     1      -9.476   5.214  66.309  1.00  0.00    -0.164 A  
HETATM   35  C   UNL     1     -10.021   4.414  67.317  1.00  0.00    -0.164 A  
HETATM   36  C   UNL     1      -9.988   4.846  68.642  1.00  0.00    -0.195 A  
HETATM   37  C   UNL     1      -9.372   6.054  68.963  1.00  0.00    -0.134 A  
HETATM   38  C   UNL     1      -8.801   6.840  67.958  1.00  0.00    -0.119 A  
ENDBRANCH  32  33
ENDBRANCH  31  32
ENDBRANCH  14  26
ENDBRANCH   3   6
TORSDOF 6
ENDMDL
MODEL      127
REMARK 921   NORMALIZED FREE ENERGY PREDICTED BY IDOCK:   -4.13 KCAL/MOL
REMARK 922        TOTAL FREE ENERGY PREDICTED BY IDOCK:   -5.88 KCAL/MOL
REMARK 923 INTER-LIGAND FREE ENERGY PREDICTED BY IDOCK:   -5.66 KCAL/MOL
REMARK 924 INTRA-LIGAND FREE ENERGY PREDICTED BY IDOCK:   -0.23 KCAL/MOL
REMARK 927      BINDING AFFINITY PREDICTED BY RF-SCORE:    0.00 PKD
ROOT
HETATM    1  N   UNL     1      -6.553  17.512  65.684  1.00  0.00    -0.042 N  
HETATM    2  H1  UNL     1      -7.485  17.925  65.716  1.00  0.00     0.000 HD 
HETATM    3  C   UNL     1      -6.252  16.493  66.545  1.00  0.00     0.275 C  
HETATM    4  H2  UNL     1      -5.858  17.853  65.021  1.00  0.00     0.000 HD 
HETATM    5  O   UNL     1      -5.133  15.997  66.506  1.00  0.00     0.057 OA 
ENDROOT
BRANCH   3   6
HETATM    6  C   UNL     1      -7.329  16.080  67.433  1.00  0.00    -0.216 A  
HETATM    7  C   UNL     1      -8.259  16.942  68.008  1.00  0.00    -0.203 A  
HETATM    8  N   UNL     1      -8.377  18.299  68.059  1.00  0.00    -0.255 NA 
HETATM    9  C   UNL     1      -9.236  18.855  69.107  1.00  0.00    -0.077 C  
HETATM   10  H   UNL     1      -7.888  18.901  67.396  1.00  0.00     0.000 HD 
HETATM   11  C   UNL     1     -10.585  18.151  69.057  1.00  0.00     0.181 C  
HETATM   12  C   UNL     1     -10.457  16.606  69.176  1.00  0.00    -0.333 C  
HETATM   13  N   UNL     1      -9.208  16.138  68.576  1.00  0.00    -0.203 NA 
HETATM   14  C   UNL     1      -7.713  14.769  67.911  1.00  0.00    -0.137 A  
HETATM   15  N   UNL     1      -8.793  14.872  68.718  1.00  0.00    -0.179 NA 
BRANCH  12  16
HETATM   16  C   UNL     1     -11.786  15.868  68.735  1.00  0.00    -0.355 C  
HETATM   17  C   UNL     1     -11.608  14.635  67.831  1.00  0.00    -0.373 C  
HETATM   18  C   UNL     1     -11.027  13.472  68.616  1.00  0.00    -0.263 C  
HETATM   19  O   UNL     1     -11.051  10.944  69.552  1.00  0.00    -0.234 OA 
HETATM   20  N   UNL     1     -11.949  13.064  69.666  1.00  0.00    -0.318 N  
HETATM   21  C   UNL     1     -12.765  15.442  69.851  1.00  0.00    -0.112 C  
HETATM   22  C   UNL     1     -12.383  14.134  70.568  1.00  0.00    -0.364 C  
HETATM   23  C   UNL     1     -11.829  11.740  70.078  1.00  0.00    -0.342 C  
BRANCH  23  24
HETATM   24  C   UNL     1     -12.715  11.284  71.181  1.00  0.00    -0.492 C  
HETATM   25  C   UNL     1     -12.576  10.044  71.668  1.00  0.00    -0.524 C  
ENDBRANCH  23  24
ENDBRANCH  12  16
BRANCH  14  26
HETATM   26  C   UNL     1      -7.186  13.413  67.624  1.00  0.00    -0.167 A  
HETATM   27  C   UNL     1      -5.820  13.125  67.828  1.00  0.00    -0.138 A  
HETATM   28  C   UNL     1      -7.976  12.382  67.111  1.00  0.00    -0.153 A  
HETATM   29  C   UNL     1      -5.287  11.849  67.585  1.00  0.00    -0.073 A  
HETATM   30  C   UNL     1      -7.443  11.108  66.849  1.00  0.00    -0.138 A  
HETATM   31  C   UNL     1      -6.105  10.821  67.120  1.00  0.00    -0.063 A  
BRANCH  31  32
HETATM   32  O   UNL     1      -5.488   9.613  66.890  1.00  0.00    -0.045 OA 
BRANCH  32  33
HETATM   33  C   UNL     1      -6.061   8.428  67.303  1.00  0.00    -0.055 A  
HETATM   34  C   UNL     1      -6.320   7.475  66.314  1.00  0.00    -0.042 A  
HETATM   35  C   UNL     1      -6.898   6.248  66.651  1.00  0.00    -0.062 A  
HETATM   36  C   UNL     1      -7.214   5.969  67.980  1.00  0.00    -0.080 A  
HETATM   37  C   UNL     1      -6.914   6.898  68.975  1.00  0.00    -0.082 A  
HETATM   38  C   UNL     1      -6.310   8.113  68.640  1.00  0.00    -0.053 A  
ENDBRANCH  32  33
ENDBRANCH  31  32
ENDBRANCH  14  26
ENDBRANCH   3   6
TORSDOF 6
ENDMDL
MODEL      128
REMARK 921   NORMALIZED FREE ENERGY PREDICTED BY IDOCK:   -4.05 KCAL/MOL
REMARK 922        TOTAL FREE ENERGY PREDICTED BY IDOCK:   -5.78 KCAL/MOL
REMARK 923 INTER-LIGAND FREE ENERGY PREDICTED BY IDOCK:   -5.34 KCAL/MOL
REMARK 924 INTRA-LIGAND FREE ENERGY PREDICTED BY IDOCK:   -0.43 KCAL/MOL
REMARK 927      BINDING AFFINITY PREDICTED BY RF-SCORE:    0.00 PKD
ROOT
HETATM    1  N   UNL     1     -12.861  10.065  71.058  1.00  0.00    -0.407 N  
HETATM    2  H1  UNL     1     -12.962   9.173  70.573  1.00  0.00     0.000 HD 
HETATM    3  C   UNL     1     -12.111  11.051  70.478  1.00  0.00    -0.377 C  
HETATM    4  H2  UNL     1     -13.311  10.218  71.960  1.00  0.00     0.000 HD 
HETATM    5  O   UNL     1     -11.990  12.121  71.061  1.00  0.00    -0.115 OA 
ENDROOT
BRANCH   3   6
HETATM    6  C   UNL     1     -11.532  10.723  69.184  1.00  0.00    -0.368 A  
HETATM    7  C   UNL     1     -11.409  11.613  68.120  1.00  0.00    -0.292 A  
HETATM    8  N   UNL     1     -11.863  12.879  67.895  1.00  0.00    -0.353 NA 
HETATM    9  C   UNL     1     -11.905  13.335  66.504  1.00  0.00    -0.398 C  
HETATM   10  H   UNL     1     -12.160  13.482  68.663  1.00  0.00     0.000 HD 
HETATM   11  C   UNL     1     -10.549  13.077  65.864  1.00  0.00    -0.288 C  
HETATM   12  C   UNL     1     -10.112  11.588  65.969  1.00  0.00    -0.232 C  
HETATM   13  N   UNL     1     -10.627  10.979  67.196  1.00  0.00    -0.236 NA 
HETATM   14  C   UNL     1     -10.956   9.491  68.688  1.00  0.00    -0.072 A  
HETATM   15  N   UNL     1     -10.535   9.660  67.415  1.00  0.00    -0.245 NA 
BRANCH  12  16
HETATM   16  C   UNL     1      -8.570  11.402  65.668  1.00  0.00     0.044 C  
HETATM   17  C   UNL     1      -7.605  12.235  66.531  1.00  0.00     0.356 C  
HETATM   18  C   UNL     1      -7.561  11.702  67.952  1.00  0.00    -0.115 C  
HETATM   19  O   UNL     1      -6.293  10.713  70.117  1.00  0.00    -0.109 OA 
HETATM   20  N   UNL     1      -7.032  10.346  67.964  1.00  0.00    -0.077 N  
HETATM   21  C   UNL     1      -8.013   9.961  65.675  1.00  0.00    -0.130 C  
HETATM   22  C   UNL     1      -7.715   9.401  67.077  1.00  0.00    -0.091 C  
HETATM   23  C   UNL     1      -6.434   9.954  69.159  1.00  0.00    -0.048 C  
BRANCH  23  24
HETATM   24  C   UNL     1      -5.920   8.562  69.240  1.00  0.00    -0.041 C  
HETATM   25  C   UNL     1      -5.581   8.054  70.433  1.00  0.00    -0.022 C  
ENDBRANCH  23  24
ENDBRANCH  12  16
BRANCH  14  26
HETATM   26  C   UNL     1     -10.711   8.179  69.334  1.00  0.00    -0.164 A  
HETATM   27  C   UNL     1     -11.756   7.515  70.010  1.00  0.00     0.116 A  
HETATM   28  C   UNL     1      -9.460   7.558  69.347  1.00  0.00    -0.155 A  
HETATM   29  C   UNL     1     -11.569   6.263  70.618  1.00  0.00    -0.350 A  
HETATM   30  C   UNL     1      -9.263   6.314  69.970  1.00  0.00    -0.157 A  
HETATM   31  C   UNL     1     -10.323   5.640  70.576  1.00  0.00    -0.258 A  
BRANCH  31  32
HETATM   32  O   UNL     1     -10.230   4.426  71.219  1.00  0.00    -0.161 OA 
BRANCH  32  33
HETATM   33  C   UNL     1      -9.432   4.268  72.332  1.00  0.00    -0.129 A  
HETATM   34  C   UNL     1      -8.831   3.017  72.503  1.00  0.00    -0.105 A  
HETATM   35  C   UNL     1      -8.006   2.776  73.605  1.00  0.00    -0.060 A  
HETATM   36  C   UNL     1      -7.776   3.787  74.537  1.00  0.00    -0.070 A  
HETATM   37  C   UNL     1      -8.335   5.049  74.345  1.00  0.00    -0.104 A  
HETATM   38  C   UNL     1      -9.137   5.298  73.227  1.00  0.00    -0.128 A  
ENDBRANCH  32  33
ENDBRANCH  31  32
ENDBRANCH  14  26
ENDBRANCH   3   6
TORSDOF 6
ENDMDL
MODEL      129
REMARK 921   NORMALIZED FREE ENERGY PREDICTED BY IDOCK:   -4.05 KCAL/MOL
REMARK 922        TOTAL FREE ENERGY PREDICTED BY IDOCK:   -5.77 KCAL/MOL
REMARK 923 INTER-LIGAND FREE ENERGY PREDICTED BY IDOCK:   -5.24 KCAL/MOL
REMARK 924 INTRA-LIGAND FREE ENERGY PREDICTED BY IDOCK:   -0.53 KCAL/MOL
REMARK 927      BINDING AFFINITY PREDICTED BY RF-SCORE:    0.00 PKD
ROOT
HETATM    1  N   UNL     1      -8.157  16.767  65.958  1.00  0.00    -0.242 N  
HETATM    2  H1  UNL     1      -9.176  16.749  65.994  1.00  0.00     0.000 HD 
HETATM    3  C   UNL     1      -7.451  15.989  66.833  1.00  0.00    -0.218 C  
HETATM    4  H2  UNL     1      -7.673  17.356  65.281  1.00  0.00     0.000 HD 
HETATM    5  O   UNL     1      -6.227  16.010  66.789  1.00  0.00    -0.279 OA 
ENDROOT
BRANCH   3   6
HETATM    6  C   UNL     1      -8.250  15.179  67.741  1.00  0.00    -0.159 A  
HETATM    7  C   UNL     1      -9.280  15.665  68.542  1.00  0.00    -0.197 A  
HETATM    8  N   UNL     1      -9.735  16.917  68.831  1.00  0.00    -0.260 NA 
HETATM    9  C   UNL     1     -10.552  17.067  70.038  1.00  0.00     0.185 C  
HETATM   10  H   UNL     1      -9.515  17.715  68.234  1.00  0.00     0.000 HD 
HETATM   11  C   UNL     1     -11.667  16.032  70.004  1.00  0.00    -0.284 C  
HETATM   12  C   UNL     1     -11.130  14.581  69.849  1.00  0.00    -0.163 C  
HETATM   13  N   UNL     1      -9.900  14.562  69.058  1.00  0.00    -0.182 NA 
HETATM   14  C   UNL     1      -8.212  13.761  68.028  1.00  0.00    -0.164 A  
HETATM   15  N   UNL     1      -9.157  13.453  68.944  1.00  0.00     0.145 NA 
BRANCH  12  16
HETATM   16  C   UNL     1     -12.272  13.572  69.424  1.00  0.00    -0.278 C  
HETATM   17  C   UNL     1     -11.829  12.362  68.581  1.00  0.00    -0.348 C  
HETATM   18  C   UNL     1     -11.045  11.376  69.429  1.00  0.00    -0.241 C  
HETATM   19  O   UNL     1     -10.582   8.937  70.481  1.00  0.00    -0.201 OA 
HETATM   20  N   UNL     1     -11.891  10.835  70.484  1.00  0.00    -0.331 N  
HETATM   21  C   UNL     1     -13.172  13.005  70.545  1.00  0.00     0.466 C  
HETATM   22  C   UNL     1     -12.552  11.833  71.327  1.00  0.00    -0.296 C  
HETATM   23  C   UNL     1     -11.516   9.582  70.959  1.00  0.00    -0.349 C  
BRANCH  23  24
HETATM   24  C   UNL     1     -12.318   9.005  72.069  1.00  0.00    -0.455 C  
HETATM   25  C   UNL     1     -13.386   8.247  71.785  1.00  0.00    -0.375 C  
ENDBRANCH  23  24
ENDBRANCH  12  16
BRANCH  14  26
HETATM   26  C   UNL     1      -7.400  12.655  67.467  1.00  0.00    -0.151 A  
HETATM   27  C   UNL     1      -8.024  11.468  67.028  1.00  0.00    -0.161 A  
HETATM   28  C   UNL     1      -6.007  12.702  67.377  1.00  0.00    -0.132 A  
HETATM   29  C   UNL     1      -7.292  10.406  66.473  1.00  0.00    -0.119 A  
HETATM   30  C   UNL     1      -5.268  11.634  66.840  1.00  0.00    -0.119 A  
HETATM   31  C   UNL     1      -5.907  10.495  66.349  1.00  0.00    -0.081 A  
BRANCH  31  32
HETATM   32  O   UNL     1      -5.274   9.396  65.815  1.00  0.00    -0.038 OA 
BRANCH  32  33
HETATM   33  C   UNL     1      -5.671   8.116  66.140  1.00  0.00    -0.040 A  
HETATM   34  C   UNL     1      -5.341   7.660  67.420  1.00  0.00    -0.027 A  
HETATM   35  C   UNL     1      -5.709   6.375  67.827  1.00  0.00    -0.009 A  
HETATM   36  C   UNL     1      -6.412   5.543  66.957  1.00  0.00    -0.044 A  
HETATM   37  C   UNL     1      -6.784   6.012  65.698  1.00  0.00    -0.048 A  
HETATM   38  C   UNL     1      -6.441   7.308  65.301  1.00  0.00    -0.044 A  
ENDBRANCH  32  33
ENDBRANCH  31  32
ENDBRANCH  14  26
ENDBRANCH   3   6
TORSDOF 6
ENDMDL
MODEL      130
REMARK 921   NORMALIZED FREE ENERGY PREDICTED BY IDOCK:   -4.04 KCAL/MOL
REMARK 922        TOTAL FREE ENERGY PREDICTED BY IDOCK:   -5.76 KCAL/MOL
REMARK 923 INTER-LIGAND FREE ENERGY PREDICTED BY IDOCK:   -5.53 KCAL/MOL
REMARK 924 INTRA-LIGAND FREE ENERGY PREDICTED BY IDOCK:   -0.23 KCAL/MOL
REMARK 927      BINDING AFFINITY PREDICTED BY RF-SCORE:    0.00 PKD
ROOT
HETATM    1  N   UNL     1      -9.536  13.753  68.860  1.00  0.00    -0.408 N  
HETATM    2  H1  UNL     1      -9.693  12.842  69.292  1.00  0.00     0.000 HD 
HETATM    3  C   UNL     1      -9.410  13.828  67.501  1.00  0.00    -0.222 C  
HETATM    4  H2  UNL     1      -9.474  14.594  69.434  1.00  0.00     0.000 HD 
HETATM    5  O   UNL     1      -9.222  14.922  66.983  1.00  0.00    -0.211 OA 
ENDROOT
BRANCH   3   6
HETATM    6  C   UNL     1      -9.534  12.565  66.787  1.00  0.00    -0.231 A  
HETATM    7  C   UNL     1     -10.043  12.427  65.499  1.00  0.00    -0.267 A  
HETATM    8  N   UNL     1     -10.660  13.282  64.635  1.00  0.00    -0.383 NA 
HETATM    9  C   UNL     1     -11.438  12.684  63.546  1.00  0.00    -0.491 C  
HETATM   10  H   UNL     1     -10.585  14.293  64.742  1.00  0.00     0.000 HD 
HETATM   11  C   UNL     1     -10.570  11.657  62.834  1.00  0.00    -0.039 C  
HETATM   12  C   UNL     1     -10.007  10.577  63.800  1.00  0.00    -0.258 C  
HETATM   13  N   UNL     1      -9.778  11.137  65.132  1.00  0.00    -0.238 NA 
HETATM   14  C   UNL     1      -9.176  11.218  67.177  1.00  0.00    -0.163 A  
HETATM   15  N   UNL     1      -9.469  10.357  66.177  1.00  0.00    -0.174 NA 
BRANCH  12  16
HETATM   16  C   UNL     1      -8.815   9.764  63.149  1.00  0.00    -0.257 C  
HETATM   17  C   UNL     1      -7.416  10.391  63.280  1.00  0.00    -0.062 C  
HETATM   18  C   UNL     1      -6.917  10.295  64.711  1.00  0.00    -0.093 C  
HETATM   19  O   UNL     1      -5.142   9.552  66.601  1.00  0.00    -0.039 OA 
HETATM   20  N   UNL     1      -6.764   8.899  65.098  1.00  0.00    -0.071 N  
HETATM   21  C   UNL     1      -8.660   8.282  63.556  1.00  0.00     0.168 C  
HETATM   22  C   UNL     1      -7.952   8.064  64.905  1.00  0.00    -0.138 C  
HETATM   23  C   UNL     1      -5.838   8.663  66.110  1.00  0.00    -0.047 C  
BRANCH  23  24
HETATM   24  C   UNL     1      -5.678   7.261  66.576  1.00  0.00    -0.031 C  
HETATM   25  C   UNL     1      -6.398   6.827  67.619  1.00  0.00    -0.044 C  
ENDBRANCH  23  24
ENDBRANCH  12  16
BRANCH  14  26
HETATM   26  C   UNL     1      -8.522  10.676  68.392  1.00  0.00    -0.132 A  
HETATM   27  C   UNL     1      -8.994   9.484  68.981  1.00  0.00    -0.144 A  
HETATM   28  C   UNL     1      -7.458  11.314  69.033  1.00  0.00    -0.116 A  
HETATM   29  C   UNL     1      -8.390   8.929  70.120  1.00  0.00    -0.142 A  
HETATM   30  C   UNL     1      -6.861  10.773  70.185  1.00  0.00    -0.074 A  
HETATM   31  C   UNL     1      -7.297   9.557  70.714  1.00  0.00    -0.084 A  
BRANCH  31  32
HETATM   32  O   UNL     1      -6.787   8.952  71.840  1.00  0.00    -0.202 OA 
BRANCH  32  33
HETATM   33  C   UNL     1      -7.496   7.975  72.508  1.00  0.00    -0.111 A  
HETATM   34  C   UNL     1      -7.180   6.648  72.204  1.00  0.00    -0.081 A  
HETATM   35  C   UNL     1      -7.851   5.600  72.839  1.00  0.00    -0.098 A  
HETATM   36  C   UNL     1      -8.839   5.877  73.784  1.00  0.00    -0.124 A  
HETATM   37  C   UNL     1      -9.123   7.198  74.124  1.00  0.00    -0.262 A  
HETATM   38  C   UNL     1      -8.431   8.246  73.509  1.00  0.00    -0.264 A  
ENDBRANCH  32  33
ENDBRANCH  31  32
ENDBRANCH  14  26
ENDBRANCH   3   6
TORSDOF 6
ENDMDL
MODEL      131
REMARK 921   NORMALIZED FREE ENERGY PREDICTED BY IDOCK:   -4.00 KCAL/MOL
REMARK 922        TOTAL FREE ENERGY PREDICTED BY IDOCK:   -5.70 KCAL/MOL
REMARK 923 INTER-LIGAND FREE ENERGY PREDICTED BY IDOCK:   -5.36 KCAL/MOL
REMARK 924 INTRA-LIGAND FREE ENERGY PREDICTED BY IDOCK:   -0.34 KCAL/MOL
REMARK 927      BINDING AFFINITY PREDICTED BY RF-SCORE:    0.00 PKD
ROOT
HETATM    1  N   UNL     1      -5.336  14.028  68.897  1.00  0.00    -0.077 N  
HETATM    2  H1  UNL     1      -5.568  13.446  69.701  1.00  0.00     0.000 HD 
HETATM    3  C   UNL     1      -6.311  14.306  67.979  1.00  0.00    -0.153 C  
HETATM    4  H2  UNL     1      -4.393  14.396  68.779  1.00  0.00     0.000 HD 
HETATM    5  O   UNL     1      -6.033  15.006  67.013  1.00  0.00    -0.136 OA 
ENDROOT
BRANCH   3   6
HETATM    6  C   UNL     1      -7.622  13.739  68.263  1.00  0.00    -0.129 A  
HETATM    7  C   UNL     1      -8.827  14.427  68.145  1.00  0.00    -0.180 A  
HETATM    8  N   UNL     1      -9.147  15.730  67.907  1.00  0.00    -0.185 NA 
HETATM    9  C   UNL     1     -10.496  16.164  68.278  1.00  0.00    -0.276 C  
HETATM   10  H   UNL     1      -8.476  16.375  67.490  1.00  0.00     0.000 HD 
HETATM   11  C   UNL     1     -11.503  15.195  67.676  1.00  0.00    -0.319 C  
HETATM   12  C   UNL     1     -11.237  13.721  68.094  1.00  0.00    -0.271 C  
HETATM   13  N   UNL     1      -9.806  13.484  68.285  1.00  0.00    -0.230 NA 
HETATM   14  C   UNL     1      -8.007  12.412  68.692  1.00  0.00    -0.041 A  
HETATM   15  N   UNL     1      -9.351  12.343  68.821  1.00  0.00     0.028 NA 
BRANCH  12  16
HETATM   16  C   UNL     1     -12.018  12.696  67.176  1.00  0.00    -0.326 C  
HETATM   17  C   UNL     1     -12.175  13.094  65.697  1.00  0.00    -0.521 C  
HETATM   18  C   UNL     1     -10.846  12.988  64.969  1.00  0.00    -0.308 C  
HETATM   19  O   UNL     1      -9.236  12.061  63.016  1.00  0.00    -0.207 OA 
HETATM   20  N   UNL     1     -10.386  11.606  64.961  1.00  0.00    -0.267 N  
HETATM   21  C   UNL     1     -11.532  11.230  67.174  1.00  0.00    -0.217 C  
HETATM   22  C   UNL     1     -10.310  10.965  66.276  1.00  0.00    -0.250 C  
HETATM   23  C   UNL     1      -9.532  11.273  63.914  1.00  0.00    -0.192 C  
BRANCH  23  24
HETATM   24  C   UNL     1      -8.995   9.887  63.886  1.00  0.00    -0.280 C  
HETATM   25  C   UNL     1      -7.748   9.673  63.444  1.00  0.00    -0.128 C  
ENDBRANCH  23  24
ENDBRANCH  12  16
BRANCH  14  26
HETATM   26  C   UNL     1      -7.220  11.179  68.934  1.00  0.00    -0.106 A  
HETATM   27  C   UNL     1      -7.644  10.245  69.902  1.00  0.00    -0.153 A  
HETATM   28  C   UNL     1      -6.027  10.894  68.267  1.00  0.00    -0.046 A  
HETATM   29  C   UNL     1      -6.937   9.057  70.147  1.00  0.00    -0.047 A  
HETATM   30  C   UNL     1      -5.305   9.715  68.521  1.00  0.00    -0.033 A  
HETATM   31  C   UNL     1      -5.775   8.770  69.434  1.00  0.00    -0.034 A  
BRANCH  31  32
HETATM   32  O   UNL     1      -5.139   7.594  69.759  1.00  0.00    -0.022 OA 
BRANCH  32  33
HETATM   33  C   UNL     1      -5.753   6.645  70.550  1.00  0.00    -0.023 A  
HETATM   34  C   UNL     1      -6.453   5.631  69.889  1.00  0.00    -0.038 A  
HETATM   35  C   UNL     1      -7.101   4.631  70.618  1.00  0.00    -0.041 A  
HETATM   36  C   UNL     1      -7.047   4.639  72.011  1.00  0.00    -0.061 A  
HETATM   37  C   UNL     1      -6.311   5.621  72.672  1.00  0.00    -0.053 A  
HETATM   38  C   UNL     1      -5.639   6.605  71.941  1.00  0.00    -0.036 A  
ENDBRANCH  32  33
ENDBRANCH  31  32
ENDBRANCH  14  26
ENDBRANCH   3   6
TORSDOF 6
ENDMDL
MODEL      132
REMARK 921   NORMALIZED FREE ENERGY PREDICTED BY IDOCK:   -3.99 KCAL/MOL
REMARK 922        TOTAL FREE ENERGY PREDICTED BY IDOCK:   -5.69 KCAL/MOL
REMARK 923 INTER-LIGAND FREE ENERGY PREDICTED BY IDOCK:   -5.30 KCAL/MOL
REMARK 924 INTRA-LIGAND FREE ENERGY PREDICTED BY IDOCK:   -0.39 KCAL/MOL
REMARK 927      BINDING AFFINITY PREDICTED BY RF-SCORE:    0.00 PKD
ROOT
HETATM    1  N   UNL     1      -5.127  14.175  69.702  1.00  0.00    -0.091 N  
HETATM    2  H1  UNL     1      -5.518  14.576  70.554  1.00  0.00     0.000 HD 
HETATM    3  C   UNL     1      -5.894  14.153  68.570  1.00  0.00    -0.094 C  
HETATM    4  H2  UNL     1      -4.180  13.797  69.694  1.00  0.00     0.000 HD 
HETATM    5  O   UNL     1      -5.424  13.672  67.546  1.00  0.00    -0.330 OA 
ENDROOT
BRANCH   3   6
HETATM    6  C   UNL     1      -7.222  14.736  68.698  1.00  0.00    -0.119 A  
HETATM    7  C   UNL     1      -7.490  16.102  68.732  1.00  0.00    -0.189 A  
HETATM    8  N   UNL     1      -6.704  17.213  68.805  1.00  0.00    -0.189 NA 
HETATM    9  C   UNL     1      -7.342  18.453  69.253  1.00  0.00    -0.045 C  
HETATM   10  H   UNL     1      -5.714  17.182  68.558  1.00  0.00     0.000 HD 
HETATM   11  C   UNL     1      -8.601  18.679  68.429  1.00  0.00    -0.366 C  
HETATM   12  C   UNL     1      -9.580  17.473  68.491  1.00  0.00    -0.305 C  
HETATM   13  N   UNL     1      -8.849  16.215  68.636  1.00  0.00    -0.207 NA 
HETATM   14  C   UNL     1      -8.524  14.113  68.798  1.00  0.00    -0.069 A  
HETATM   15  N   UNL     1      -9.481  15.062  68.893  1.00  0.00    -0.205 NA 
BRANCH  12  16
HETATM   16  C   UNL     1     -10.673  17.540  67.348  1.00  0.00    -0.250 C  
HETATM   17  C   UNL     1     -10.165  17.329  65.911  1.00  0.00    -0.273 C  
HETATM   18  C   UNL     1      -9.781  15.877  65.685  1.00  0.00    -0.271 C  
HETATM   19  O   UNL     1      -9.941  13.514  64.399  1.00  0.00    -0.264 OA 
HETATM   20  N   UNL     1     -10.950  15.020  65.822  1.00  0.00    -0.342 N  
HETATM   21  C   UNL     1     -11.916  16.635  67.500  1.00  0.00     1.214 C  
HETATM   22  C   UNL     1     -11.692  15.172  67.075  1.00  0.00    -0.110 C  
HETATM   23  C   UNL     1     -10.883  13.814  65.131  1.00  0.00    -0.345 C  
BRANCH  23  24
HETATM   24  C   UNL     1     -12.031  12.880  65.275  1.00  0.00    -0.459 C  
HETATM   25  C   UNL     1     -13.271  13.318  65.020  1.00  0.00     0.192 C  
ENDBRANCH  23  24
ENDBRANCH  12  16
BRANCH  14  26
HETATM   26  C   UNL     1      -8.953  12.694  68.751  1.00  0.00     0.170 A  
HETATM   27  C   UNL     1      -8.095  11.677  69.220  1.00  0.00     0.311 A  
HETATM   28  C   UNL     1     -10.178  12.286  68.218  1.00  0.00    -0.221 A  
HETATM   29  C   UNL     1      -8.471  10.325  69.210  1.00  0.00    -0.172 A  
HETATM   30  C   UNL     1     -10.552  10.931  68.188  1.00  0.00    -0.233 A  
HETATM   31  C   UNL     1      -9.719   9.945  68.718  1.00  0.00    -0.160 A  
BRANCH  31  32
HETATM   32  O   UNL     1      -9.989   8.596  68.727  1.00  0.00    -0.172 OA 
BRANCH  32  33
HETATM   33  C   UNL     1     -10.583   7.994  69.816  1.00  0.00    -0.238 A  
HETATM   34  C   UNL     1     -10.151   6.703  70.136  1.00  0.00    -0.200 A  
HETATM   35  C   UNL     1     -10.702   6.025  71.227  1.00  0.00    -0.320 A  
HETATM   36  C   UNL     1     -11.683   6.638  72.004  1.00  0.00    -0.354 A  
HETATM   37  C   UNL     1     -12.081   7.943  71.718  1.00  0.00    -0.340 A  
HETATM   38  C   UNL     1     -11.509   8.631  70.644  1.00  0.00    -0.256 A  
ENDBRANCH  32  33
ENDBRANCH  31  32
ENDBRANCH  14  26
ENDBRANCH   3   6
TORSDOF 6
ENDMDL
MODEL      133
REMARK 921   NORMALIZED FREE ENERGY PREDICTED BY IDOCK:   -3.95 KCAL/MOL
REMARK 922        TOTAL FREE ENERGY PREDICTED BY IDOCK:   -5.64 KCAL/MOL
REMARK 923 INTER-LIGAND FREE ENERGY PREDICTED BY IDOCK:   -4.97 KCAL/MOL
REMARK 924 INTRA-LIGAND FREE ENERGY PREDICTED BY IDOCK:   -0.68 KCAL/MOL
REMARK 927      BINDING AFFINITY PREDICTED BY RF-SCORE:    0.00 PKD
ROOT
HETATM    1  N   UNL     1     -11.238  20.355  65.887  1.00  0.00     0.670 N  
HETATM    2  H1  UNL     1     -10.584  20.643  65.159  1.00  0.00     0.000 HD 
HETATM    3  C   UNL     1     -10.857  19.382  66.770  1.00  0.00    -0.388 C  
HETATM    4  H2  UNL     1     -12.159  20.785  65.956  1.00  0.00     0.000 HD 
HETATM    5  O   UNL     1     -11.642  19.036  67.644  1.00  0.00     0.391 OA 
ENDROOT
BRANCH   3   6
HETATM    6  C   UNL     1      -9.514  18.854  66.583  1.00  0.00    -0.357 A  
HETATM    7  C   UNL     1      -8.341  19.543  66.880  1.00  0.00    -0.288 A  
HETATM    8  N   UNL     1      -8.073  20.827  67.250  1.00  0.00    -0.487 NA 
HETATM    9  C   UNL     1      -6.701  21.304  67.059  1.00  0.00    -0.263 C  
HETATM   10  H   UNL     1      -8.796  21.430  67.643  1.00  0.00     0.000 HD 
HETATM   11  C   UNL     1      -5.744  20.301  67.687  1.00  0.00    -0.217 C  
HETATM   12  C   UNL     1      -5.936  18.862  67.130  1.00  0.00    -0.159 C  
HETATM   13  N   UNL     1      -7.334  18.625  66.771  1.00  0.00    -0.212 NA 
HETATM   14  C   UNL     1      -9.060  17.569  66.095  1.00  0.00    -0.127 A  
HETATM   15  N   UNL     1      -7.709  17.525  66.103  1.00  0.00    -0.436 NA 
BRANCH  12  16
HETATM   16  C   UNL     1      -5.235  17.777  68.044  1.00  0.00    -0.145 C  
HETATM   17  C   UNL     1      -5.778  17.646  69.478  1.00  0.00    -0.226 C  
HETATM   18  C   UNL     1      -7.151  16.996  69.475  1.00  0.00     0.009 C  
HETATM   19  O   UNL     1      -8.923  15.103  70.212  1.00  0.00     0.290 OA 
HETATM   20  N   UNL     1      -7.064  15.638  68.959  1.00  0.00    -0.139 N  
HETATM   21  C   UNL     1      -5.138  16.338  67.490  1.00  0.00    -0.142 C  
HETATM   22  C   UNL     1      -6.425  15.508  67.647  1.00  0.00    -0.168 C  
HETATM   23  C   UNL     1      -8.064  14.773  69.395  1.00  0.00    -0.039 C  
BRANCH  23  24
HETATM   24  C   UNL     1      -8.048  13.387  68.860  1.00  0.00     0.147 C  
HETATM   25  C   UNL     1      -9.193  12.694  68.794  1.00  0.00     0.150 C  
ENDBRANCH  23  24
ENDBRANCH  12  16
BRANCH  14  26
HETATM   26  C   UNL     1      -9.793  16.350  65.677  1.00  0.00    -0.222 A  
HETATM   27  C   UNL     1      -9.325  15.074  66.058  1.00  0.00    -0.304 A  
HETATM   28  C   UNL     1     -10.934  16.385  64.872  1.00  0.00    -0.277 A  
HETATM   29  C   UNL     1     -10.001  13.898  65.699  1.00  0.00    -0.298 A  
HETATM   30  C   UNL     1     -11.604  15.209  64.494  1.00  0.00    -0.330 A  
HETATM   31  C   UNL     1     -11.166  13.961  64.936  1.00  0.00    -0.356 A  
BRANCH  31  32
HETATM   32  O   UNL     1     -11.745  12.755  64.614  1.00  0.00    -0.324 OA 
BRANCH  32  33
HETATM   33  C   UNL     1     -11.162  11.561  64.983  1.00  0.00    -0.157 A  
HETATM   34  C   UNL     1     -10.262  10.992  64.076  1.00  0.00    -0.420 A  
HETATM   35  C   UNL     1      -9.627   9.784  64.376  1.00  0.00    -0.160 A  
HETATM   36  C   UNL     1      -9.886   9.144  65.587  1.00  0.00    -0.164 A  
HETATM   37  C   UNL     1     -10.745   9.732  66.514  1.00  0.00    -0.059 A  
HETATM   38  C   UNL     1     -11.358  10.954  66.225  1.00  0.00     0.240 A  
ENDBRANCH  32  33
ENDBRANCH  31  32
ENDBRANCH  14  26
ENDBRANCH   3   6
TORSDOF 6
ENDMDL
MODEL      134
REMARK 921   NORMALIZED FREE ENERGY PREDICTED BY IDOCK:   -3.93 KCAL/MOL
REMARK 922        TOTAL FREE ENERGY PREDICTED BY IDOCK:   -5.61 KCAL/MOL
REMARK 923 INTER-LIGAND FREE ENERGY PREDICTED BY IDOCK:   -5.71 KCAL/MOL
REMARK 924 INTRA-LIGAND FREE ENERGY PREDICTED BY IDOCK:    0.10 KCAL/MOL
REMARK 927      BINDING AFFINITY PREDICTED BY RF-SCORE:    0.00 PKD
ROOT
HETATM    1  N   UNL     1     -11.367  11.807  63.981  1.00  0.00    -0.380 N  
HETATM    2  H1  UNL     1     -11.536  10.844  64.272  1.00  0.00     0.000 HD 
HETATM    3  C   UNL     1     -10.773  12.670  64.860  1.00  0.00    -0.299 C  
HETATM    4  H2  UNL     1     -11.636  12.121  63.049  1.00  0.00     0.000 HD 
HETATM    5  O   UNL     1     -10.570  13.825  64.510  1.00  0.00    -0.423 OA 
ENDROOT
BRANCH   3   6
HETATM    6  C   UNL     1     -10.418  12.104  66.154  1.00  0.00    -0.281 A  
HETATM    7  C   UNL     1     -10.996  12.470  67.367  1.00  0.00    -0.259 A  
HETATM    8  N   UNL     1     -11.861  13.457  67.736  1.00  0.00    -0.358 NA 
HETATM    9  C   UNL     1     -11.910  13.802  69.159  1.00  0.00    -0.354 C  
HETATM   10  H   UNL     1     -12.449  13.933  67.052  1.00  0.00     0.000 HD 
HETATM   11  C   UNL     1     -12.099  12.525  69.965  1.00  0.00    -0.337 C  
HETATM   12  C   UNL     1     -11.002  11.463  69.668  1.00  0.00    -0.110 C  
HETATM   13  N   UNL     1     -10.546  11.559  68.281  1.00  0.00    -0.191 NA 
HETATM   14  C   UNL     1      -9.461  11.077  66.509  1.00  0.00    -0.187 A  
HETATM   15  N   UNL     1      -9.482  10.872  67.844  1.00  0.00    -0.157 NA 
BRANCH  12  16
HETATM   16  C   UNL     1     -11.412  10.028  70.191  1.00  0.00    -0.344 C  
HETATM   17  C   UNL     1     -11.184   8.859  69.215  1.00  0.00     0.191 C  
HETATM   18  C   UNL     1      -9.702   8.564  69.069  1.00  0.00    -0.170 C  
HETATM   19  O   UNL     1      -7.543   6.952  69.180  1.00  0.00    -0.093 OA 
HETATM   20  N   UNL     1      -9.148   8.129  70.344  1.00  0.00    -0.149 N  
HETATM   21  C   UNL     1     -10.828   9.572  71.547  1.00  0.00    -0.321 C  
HETATM   22  C   UNL     1      -9.388   9.034  71.471  1.00  0.00    -0.224 C  
HETATM   23  C   UNL     1      -8.012   7.329  70.254  1.00  0.00    -0.115 C  
BRANCH  23  24
HETATM   24  C   UNL     1      -7.379   6.897  71.527  1.00  0.00    -0.081 C  
HETATM   25  C   UNL     1      -6.237   7.476  71.924  1.00  0.00    -0.039 C  
ENDBRANCH  23  24
ENDBRANCH  12  16
BRANCH  14  26
HETATM   26  C   UNL     1      -8.569  10.225  65.687  1.00  0.00    -0.170 A  
HETATM   27  C   UNL     1      -9.091   9.115  64.990  1.00  0.00    -0.215 A  
HETATM   28  C   UNL     1      -7.192  10.437  65.588  1.00  0.00    -0.146 A  
HETATM   29  C   UNL     1      -8.283   8.296  64.186  1.00  0.00    -0.107 A  
HETATM   30  C   UNL     1      -6.375   9.609  64.800  1.00  0.00    -0.089 A  
HETATM   31  C   UNL     1      -6.919   8.556  64.063  1.00  0.00    -0.079 A  
BRANCH  31  32
HETATM   32  O   UNL     1      -6.205   7.685  63.273  1.00  0.00    -0.054 OA 
BRANCH  32  33
HETATM   33  C   UNL     1      -6.271   6.322  63.472  1.00  0.00    -0.026 A  
HETATM   34  C   UNL     1      -6.410   5.884  64.793  1.00  0.00    -0.037 A  
HETATM   35  C   UNL     1      -6.487   4.519  65.078  1.00  0.00    -0.036 A  
HETATM   36  C   UNL     1      -6.429   3.586  64.043  1.00  0.00    -0.034 A  
HETATM   37  C   UNL     1      -6.338   4.021  62.722  1.00  0.00    -0.022 A  
HETATM   38  C   UNL     1      -6.291   5.388  62.435  1.00  0.00    -0.018 A  
ENDBRANCH  32  33
ENDBRANCH  31  32
ENDBRANCH  14  26
ENDBRANCH   3   6
TORSDOF 6
ENDMDL
MODEL      135
REMARK 921   NORMALIZED FREE ENERGY PREDICTED BY IDOCK:   -3.85 KCAL/MOL
REMARK 922        TOTAL FREE ENERGY PREDICTED BY IDOCK:   -5.50 KCAL/MOL
REMARK 923 INTER-LIGAND FREE ENERGY PREDICTED BY IDOCK:   -4.62 KCAL/MOL
REMARK 924 INTRA-LIGAND FREE ENERGY PREDICTED BY IDOCK:   -0.88 KCAL/MOL
REMARK 927      BINDING AFFINITY PREDICTED BY RF-SCORE:    0.00 PKD
ROOT
HETATM    1  N   UNL     1      -5.216   9.580  65.482  1.00  0.00    -0.042 N  
HETATM    2  H1  UNL     1      -5.022  10.420  66.026  1.00  0.00     0.000 HD 
HETATM    3  C   UNL     1      -6.265   8.782  65.848  1.00  0.00    -0.056 C  
HETATM    4  H2  UNL     1      -4.638   9.339  64.677  1.00  0.00     0.000 HD 
HETATM    5  O   UNL     1      -6.498   7.774  65.194  1.00  0.00    -0.041 OA 
ENDROOT
BRANCH   3   6
HETATM    6  C   UNL     1      -7.027   9.237  67.002  1.00  0.00    -0.085 A  
HETATM    7  C   UNL     1      -7.577  10.508  67.141  1.00  0.00    -0.097 A  
HETATM    8  N   UNL     1      -7.478  11.660  66.418  1.00  0.00    -0.367 NA 
HETATM    9  C   UNL     1      -7.846  12.906  67.094  1.00  0.00    -0.077 C  
HETATM   10  H   UNL     1      -7.161  11.654  65.448  1.00  0.00     0.000 HD 
HETATM   11  C   UNL     1      -9.218  12.730  67.729  1.00  0.00    -0.199 C  
HETATM   12  C   UNL     1      -9.278  11.511  68.694  1.00  0.00    -0.132 C  
HETATM   13  N   UNL     1      -8.383  10.445  68.243  1.00  0.00    -0.116 NA 
HETATM   14  C   UNL     1      -7.409   8.547  68.216  1.00  0.00    -0.094 A  
HETATM   15  N   UNL     1      -8.128   9.375  69.007  1.00  0.00    -0.103 NA 
BRANCH  12  16
HETATM   16  C   UNL     1     -10.767  11.102  69.036  1.00  0.00    -0.265 C  
HETATM   17  C   UNL     1     -11.397  10.024  68.135  1.00  0.00    -0.100 C  
HETATM   18  C   UNL     1     -10.784   8.663  68.417  1.00  0.00    -0.046 C  
HETATM   19  O   UNL     1     -10.908   6.059  69.103  1.00  0.00    -0.292 OA 
HETATM   20  N   UNL     1     -11.072   8.255  69.784  1.00  0.00    -0.125 N  
HETATM   21  C   UNL     1     -11.071  10.675  70.489  1.00  0.00    -0.176 C  
HETATM   22  C   UNL     1     -10.690   9.220  70.818  1.00  0.00    -0.284 C  
HETATM   23  C   UNL     1     -11.070   6.880  70.005  1.00  0.00    -0.299 C  
BRANCH  23  24
HETATM   24  C   UNL     1     -11.311   6.411  71.394  1.00  0.00    -0.354 C  
HETATM   25  C   UNL     1     -10.391   5.650  72.001  1.00  0.00    -0.261 C  
ENDBRANCH  23  24
ENDBRANCH  12  16
BRANCH  14  26
HETATM   26  C   UNL     1      -7.208   7.150  68.671  1.00  0.00    -0.094 A  
HETATM   27  C   UNL     1      -7.204   6.846  70.048  1.00  0.00    -0.080 A  
HETATM   28  C   UNL     1      -6.976   6.090  67.793  1.00  0.00    -0.069 A  
HETATM   29  C   UNL     1      -7.035   5.534  70.518  1.00  0.00    -0.057 A  
HETATM   30  C   UNL     1      -6.787   4.777  68.258  1.00  0.00    -0.055 A  
HETATM   31  C   UNL     1      -6.854   4.483  69.620  1.00  0.00    -0.045 A  
BRANCH  31  32
HETATM   32  O   UNL     1      -6.674   3.236  70.175  1.00  0.00    -0.032 OA 
BRANCH  32  33
HETATM   33  C   UNL     1      -7.623   2.681  71.006  1.00  0.00    -0.036 A  
HETATM   34  C   UNL     1      -7.285   2.561  72.358  1.00  0.00    -0.038 A  
HETATM   35  C   UNL     1      -8.193   2.010  73.266  1.00  0.00    -0.050 A  
HETATM   36  C   UNL     1      -9.445   1.581  72.826  1.00  0.00    -0.111 A  
HETATM   37  C   UNL     1      -9.803   1.743  71.488  1.00  0.00    -0.210 A  
HETATM   38  C   UNL     1      -8.905   2.321  70.586  1.00  0.00    -0.133 A  
ENDBRANCH  32  33
ENDBRANCH  31  32
ENDBRANCH  14  26
ENDBRANCH   3   6
TORSDOF 6
ENDMDL
MODEL      136
REMARK 921   NORMALIZED FREE ENERGY PREDICTED BY IDOCK:   -3.77 KCAL/MOL
REMARK 922        TOTAL FREE ENERGY PREDICTED BY IDOCK:   -5.40 KCAL/MOL
REMARK 923 INTER-LIGAND FREE ENERGY PREDICTED BY IDOCK:   -5.89 KCAL/MOL
REMARK 924 INTRA-LIGAND FREE ENERGY PREDICTED BY IDOCK:    0.50 KCAL/MOL
REMARK 927      BINDING AFFINITY PREDICTED BY RF-SCORE:    0.00 PKD
ROOT
HETATM    1  N   UNL     1      -5.611   9.291  72.757  1.00  0.00    -0.059 N  
HETATM    2  H1  UNL     1      -6.025   8.359  72.784  1.00  0.00     0.000 HD 
HETATM    3  C   UNL     1      -5.811  10.073  71.653  1.00  0.00     0.146 C  
HETATM    4  H2  UNL     1      -5.058   9.634  73.542  1.00  0.00     0.000 HD 
HETATM    5  O   UNL     1      -5.314  11.191  71.622  1.00  0.00    -0.317 OA 
ENDROOT
BRANCH   3   6
HETATM    6  C   UNL     1      -6.632   9.483  70.605  1.00  0.00    -0.103 A  
HETATM    7  C   UNL     1      -7.081   8.165  70.595  1.00  0.00    -0.045 A  
HETATM    8  N   UNL     1      -6.819   7.076  71.372  1.00  0.00    -0.059 NA 
HETATM    9  C   UNL     1      -7.138   5.762  70.808  1.00  0.00    -0.070 C  
HETATM   10  H   UNL     1      -6.419   7.172  72.305  1.00  0.00     0.000 HD 
HETATM   11  C   UNL     1      -8.571   5.786  70.296  1.00  0.00    -0.133 C  
HETATM   12  C   UNL     1      -8.821   6.928  69.271  1.00  0.00    -0.138 C  
HETATM   13  N   UNL     1      -7.984   8.090  69.571  1.00  0.00    -0.112 NA 
HETATM   14  C   UNL     1      -7.178  10.057  69.394  1.00  0.00    -0.087 A  
HETATM   15  N   UNL     1      -7.890   9.124  68.724  1.00  0.00    -0.094 NA 
BRANCH  12  16
HETATM   16  C   UNL     1     -10.364   7.194  69.048  1.00  0.00    -0.204 C  
HETATM   17  C   UNL     1     -11.020   8.217  69.993  1.00  0.00    -0.199 C  
HETATM   18  C   UNL     1     -10.561   9.625  69.661  1.00  0.00    -0.233 C  
HETATM   19  O   UNL     1     -10.981  12.201  68.983  1.00  0.00    -0.230 OA 
HETATM   20  N   UNL     1     -10.992   9.993  68.320  1.00  0.00    -0.246 N  
HETATM   21  C   UNL     1     -10.820   7.577  67.622  1.00  0.00    -0.197 C  
HETATM   22  C   UNL     1     -10.604   9.058  67.261  1.00  0.00    -0.231 C  
HETATM   23  C   UNL     1     -11.136  11.359  68.098  1.00  0.00    -0.248 C  
BRANCH  23  24
HETATM   24  C   UNL     1     -11.529  11.791  66.731  1.00  0.00    -0.352 C  
HETATM   25  C   UNL     1     -10.588  12.225  65.882  1.00  0.00    -0.290 C  
ENDBRANCH  23  24
ENDBRANCH  12  16
BRANCH  14  26
HETATM   26  C   UNL     1      -7.137  11.432  68.840  1.00  0.00    -0.109 A  
HETATM   27  C   UNL     1      -6.573  12.483  69.593  1.00  0.00     0.002 A  
HETATM   28  C   UNL     1      -7.675  11.768  67.596  1.00  0.00    -0.137 A  
HETATM   29  C   UNL     1      -6.499  13.794  69.096  1.00  0.00    -0.109 A  
HETATM   30  C   UNL     1      -7.620  13.083  67.102  1.00  0.00    -0.023 A  
HETATM   31  C   UNL     1      -6.998  14.097  67.831  1.00  0.00    -0.165 A  
BRANCH  31  32
HETATM   32  O   UNL     1      -6.902  15.413  67.440  1.00  0.00    -0.181 OA 
BRANCH  32  33
HETATM   33  C   UNL     1      -7.968  16.277  67.573  1.00  0.00    -0.151 A  
HETATM   34  C   UNL     1      -9.078  16.038  66.757  1.00  0.00    -0.271 A  
HETATM   35  C   UNL     1     -10.201  16.867  66.833  1.00  0.00    -0.296 A  
HETATM   36  C   UNL     1     -10.218  17.936  67.728  1.00  0.00    -0.372 A  
HETATM   37  C   UNL     1      -9.132  18.148  68.576  1.00  0.00    -0.318 A  
HETATM   38  C   UNL     1      -8.022  17.301  68.520  1.00  0.00    -0.261 A  
ENDBRANCH  32  33
ENDBRANCH  31  32
ENDBRANCH  14  26
ENDBRANCH   3   6
TORSDOF 6
ENDMDL
MODEL      137
REMARK 921   NORMALIZED FREE ENERGY PREDICTED BY IDOCK:   -3.74 KCAL/MOL
REMARK 922        TOTAL FREE ENERGY PREDICTED BY IDOCK:   -5.36 KCAL/MOL
REMARK 923 INTER-LIGAND FREE ENERGY PREDICTED BY IDOCK:   -4.60 KCAL/MOL
REMARK 924 INTRA-LIGAND FREE ENERGY PREDICTED BY IDOCK:   -0.76 KCAL/MOL
REMARK 927      BINDING AFFINITY PREDICTED BY RF-SCORE:    0.00 PKD
ROOT
HETATM    1  N   UNL     1      -5.125  10.526  65.335  1.00  0.00    -0.089 N  
HETATM    2  H1  UNL     1      -4.759  11.188  66.018  1.00  0.00     0.000 HD 
HETATM    3  C   UNL     1      -6.363   9.981  65.539  1.00  0.00    -0.094 C  
HETATM    4  H2  UNL     1      -4.578  10.274  64.513  1.00  0.00     0.000 HD 
HETATM    5  O   UNL     1      -6.803   9.186  64.719  1.00  0.00    -0.083 OA 
ENDROOT
BRANCH   3   6
HETATM    6  C   UNL     1      -7.057  10.429  66.739  1.00  0.00    -0.105 A  
HETATM    7  C   UNL     1      -7.165  11.756  67.145  1.00  0.00    -0.147 A  
HETATM    8  N   UNL     1      -6.608  12.922  66.709  1.00  0.00    -0.314 NA 
HETATM    9  C   UNL     1      -6.615  14.053  67.639  1.00  0.00    -0.159 C  
HETATM   10  H   UNL     1      -6.203  13.002  65.776  1.00  0.00     0.000 HD 
HETATM   11  C   UNL     1      -8.030  14.242  68.167  1.00  0.00    -0.140 C  
HETATM   12  C   UNL     1      -8.600  12.953  68.824  1.00  0.00     0.171 C  
HETATM   13  N   UNL     1      -8.065  11.756  68.173  1.00  0.00    -0.142 NA 
HETATM   14  C   UNL     1      -7.781   9.685  67.748  1.00  0.00    -0.094 A  
HETATM   15  N   UNL     1      -8.268  10.533  68.681  1.00  0.00    -0.122 NA 
BRANCH  12  16
HETATM   16  C   UNL     1     -10.170  13.028  69.008  1.00  0.00     0.097 C  
HETATM   17  C   UNL     1     -10.823  14.389  68.707  1.00  0.00    -0.261 C  
HETATM   18  C   UNL     1     -10.820  14.667  67.214  1.00  0.00    -0.305 C  
HETATM   19  O   UNL     1     -12.015  15.239  64.866  1.00  0.00    -0.237 OA 
HETATM   20  N   UNL     1     -11.627  13.677  66.516  1.00  0.00    -0.349 N  
HETATM   21  C   UNL     1     -11.023  11.972  68.272  1.00  0.00    -0.275 C  
HETATM   22  C   UNL     1     -11.274  12.281  66.785  1.00  0.00    -0.318 C  
HETATM   23  C   UNL     1     -12.155  14.095  65.298  1.00  0.00    -0.405 C  
BRANCH  23  24
HETATM   24  C   UNL     1     -12.948  13.106  64.522  1.00  0.00    -0.046 C  
HETATM   25  C   UNL     1     -12.800  13.042  63.191  1.00  0.00     0.365 C  
ENDBRANCH  23  24
ENDBRANCH  12  16
BRANCH  14  26
HETATM   26  C   UNL     1      -8.107   8.245  67.877  1.00  0.00    -0.127 A  
HETATM   27  C   UNL     1      -7.638   7.508  68.985  1.00  0.00    -0.108 A  
HETATM   28  C   UNL     1      -8.842   7.542  66.920  1.00  0.00    -0.145 A  
HETATM   29  C   UNL     1      -7.941   6.147  69.153  1.00  0.00    -0.108 A  
HETATM   30  C   UNL     1      -9.132   6.175  67.074  1.00  0.00    -0.119 A  
HETATM   31  C   UNL     1      -8.718   5.477  68.209  1.00  0.00    -0.098 A  
BRANCH  31  32
HETATM   32  O   UNL     1      -8.942   4.141  68.448  1.00  0.00    -0.103 OA 
BRANCH  32  33
HETATM   33  C   UNL     1      -9.001   3.645  69.733  1.00  0.00    -0.106 A  
HETATM   34  C   UNL     1      -9.997   4.165  70.564  1.00  0.00    -0.177 A  
HETATM   35  C   UNL     1     -10.125   3.713  71.880  1.00  0.00    -0.182 A  
HETATM   36  C   UNL     1      -9.257   2.737  72.368  1.00  0.00    -0.139 A  
HETATM   37  C   UNL     1      -8.293   2.182  71.528  1.00  0.00    -0.069 A  
HETATM   38  C   UNL     1      -8.185   2.614  70.203  1.00  0.00    -0.065 A  
ENDBRANCH  32  33
ENDBRANCH  31  32
ENDBRANCH  14  26
ENDBRANCH   3   6
TORSDOF 6
ENDMDL
MODEL      138
REMARK 921   NORMALIZED FREE ENERGY PREDICTED BY IDOCK:   -3.70 KCAL/MOL
REMARK 922        TOTAL FREE ENERGY PREDICTED BY IDOCK:   -5.30 KCAL/MOL
REMARK 923 INTER-LIGAND FREE ENERGY PREDICTED BY IDOCK:   -5.19 KCAL/MOL
REMARK 924 INTRA-LIGAND FREE ENERGY PREDICTED BY IDOCK:   -0.11 KCAL/MOL
REMARK 927      BINDING AFFINITY PREDICTED BY RF-SCORE:    0.00 PKD
ROOT
HETATM    1  N   UNL     1      -8.776   8.484  64.884  1.00  0.00    -0.377 N  
HETATM    2  H1  UNL     1      -7.813   8.717  64.643  1.00  0.00     0.000 HD 
HETATM    3  C   UNL     1      -9.196   8.659  66.174  1.00  0.00    -0.213 C  
HETATM    4  H2  UNL     1      -9.416   8.127  64.175  1.00  0.00     0.000 HD 
HETATM    5  O   UNL     1     -10.352   8.380  66.463  1.00  0.00    -0.285 OA 
ENDROOT
BRANCH   3   6
HETATM    6  C   UNL     1      -8.199   9.191  67.093  1.00  0.00    -0.113 A  
HETATM    7  C   UNL     1      -7.159  10.043  66.731  1.00  0.00    -0.091 A  
HETATM    8  N   UNL     1      -6.684  10.491  65.534  1.00  0.00    -0.224 NA 
HETATM    9  C   UNL     1      -5.320  11.027  65.517  1.00  0.00    -0.068 C  
HETATM   10  H   UNL     1      -7.252  10.454  64.688  1.00  0.00     0.000 HD 
HETATM   11  C   UNL     1      -5.189  12.062  66.625  1.00  0.00     0.099 C  
HETATM   12  C   UNL     1      -5.567  11.494  68.022  1.00  0.00    -0.043 C  
HETATM   13  N   UNL     1      -6.606  10.471  67.905  1.00  0.00    -0.060 NA 
HETATM   14  C   UNL     1      -8.036   9.012  68.520  1.00  0.00    -0.103 A  
HETATM   15  N   UNL     1      -6.963   9.712  68.950  1.00  0.00    -0.058 NA 
BRANCH  12  16
HETATM   16  C   UNL     1      -5.808  12.644  69.081  1.00  0.00    -0.080 C  
HETATM   17  C   UNL     1      -5.277  14.038  68.701  1.00  0.00    -0.090 C  
HETATM   18  C   UNL     1      -6.121  14.652  67.598  1.00  0.00    -0.057 C  
HETATM   19  O   UNL     1      -7.678  16.585  66.546  1.00  0.00    -0.255 OA 
HETATM   20  N   UNL     1      -7.484  14.861  68.064  1.00  0.00    -0.114 N  
HETATM   21  C   UNL     1      -7.255  12.859  69.579  1.00  0.00     0.376 C  
HETATM   22  C   UNL     1      -8.142  13.677  68.623  1.00  0.00    -0.071 C  
HETATM   23  C   UNL     1      -8.186  15.869  67.409  1.00  0.00    -0.168 C  
BRANCH  23  24
HETATM   24  C   UNL     1      -9.598  16.092  67.815  1.00  0.00    -0.219 C  
HETATM   25  C   UNL     1      -9.865  16.870  68.872  1.00  0.00    -0.267 C  
ENDBRANCH  23  24
ENDBRANCH  12  16
BRANCH  14  26
HETATM   26  C   UNL     1      -8.843   8.284  69.528  1.00  0.00    -0.149 A  
HETATM   27  C   UNL     1      -8.379   8.165  70.856  1.00  0.00    -0.124 A  
HETATM   28  C   UNL     1     -10.054   7.658  69.227  1.00  0.00    -0.190 A  
HETATM   29  C   UNL     1      -9.123   7.500  71.844  1.00  0.00    -0.153 A  
HETATM   30  C   UNL     1     -10.793   6.976  70.209  1.00  0.00    -0.283 A  
HETATM   31  C   UNL     1     -10.353   6.925  71.531  1.00  0.00    -0.203 A  
BRANCH  31  32
HETATM   32  O   UNL     1     -10.997   6.276  72.560  1.00  0.00    -0.228 OA 
BRANCH  32  33
HETATM   33  C   UNL     1     -10.637   4.998  72.934  1.00  0.00    -0.228 A  
HETATM   34  C   UNL     1     -10.160   4.157  71.925  1.00  0.00    -0.224 A  
HETATM   35  C   UNL     1      -9.773   2.847  72.223  1.00  0.00    -0.225 A  
HETATM   36  C   UNL     1      -9.857   2.377  73.533  1.00  0.00    -0.148 A  
HETATM   37  C   UNL     1     -10.287   3.228  74.550  1.00  0.00    -0.233 A  
HETATM   38  C   UNL     1     -10.647   4.547  74.255  1.00  0.00    -0.316 A  
ENDBRANCH  32  33
ENDBRANCH  31  32
ENDBRANCH  14  26
ENDBRANCH   3   6
TORSDOF 6
ENDMDL
MODEL      139
REMARK 921   NORMALIZED FREE ENERGY PREDICTED BY IDOCK:   -3.66 KCAL/MOL
REMARK 922        TOTAL FREE ENERGY PREDICTED BY IDOCK:   -5.24 KCAL/MOL
REMARK 923 INTER-LIGAND FREE ENERGY PREDICTED BY IDOCK:   -5.31 KCAL/MOL
REMARK 924 INTRA-LIGAND FREE ENERGY PREDICTED BY IDOCK:    0.07 KCAL/MOL
REMARK 927      BINDING AFFINITY PREDICTED BY RF-SCORE:    0.00 PKD
ROOT
HETATM    1  N   UNL     1     -12.762  15.159  63.409  1.00  0.00    -0.254 N  
HETATM    2  H1  UNL     1     -12.294  16.064  63.373  1.00  0.00     0.000 HD 
HETATM    3  C   UNL     1     -12.182  14.141  64.114  1.00  0.00    -0.390 C  
HETATM    4  H2  UNL     1     -13.649  15.015  62.927  1.00  0.00     0.000 HD 
HETATM    5  O   UNL     1     -12.745  13.054  64.157  1.00  0.00    -0.651 OA 
ENDROOT
BRANCH   3   6
HETATM    6  C   UNL     1     -10.926  14.469  64.774  1.00  0.00    -0.404 A  
HETATM    7  C   UNL     1     -10.637  15.696  65.366  1.00  0.00    -0.415 A  
HETATM    8  N   UNL     1     -11.276  16.900  65.396  1.00  0.00     0.067 NA 
HETATM    9  C   UNL     1     -10.472  18.072  65.750  1.00  0.00    -0.198 C  
HETATM   10  H   UNL     1     -12.270  16.980  65.180  1.00  0.00     0.000 HD 
HETATM   11  C   UNL     1      -9.719  17.777  67.039  1.00  0.00    -0.290 C  
HETATM   12  C   UNL     1      -8.850  16.491  66.942  1.00  0.00    -0.208 C  
HETATM   13  N   UNL     1      -9.468  15.510  66.049  1.00  0.00    -0.335 NA 
HETATM   14  C   UNL     1      -9.737  13.675  64.995  1.00  0.00     0.102 A  
HETATM   15  N   UNL     1      -8.817  14.403  65.666  1.00  0.00     0.819 NA 
BRANCH  12  16
HETATM   16  C   UNL     1      -8.394  15.977  68.367  1.00  0.00    -0.178 C  
HETATM   17  C   UNL     1      -8.827  16.837  69.568  1.00  0.00     0.369 C  
HETATM   18  C   UNL     1     -10.320  16.702  69.814  1.00  0.00    -0.115 C  
HETATM   19  O   UNL     1     -12.469  16.128  71.338  1.00  0.00    -0.390 OA 
HETATM   20  N   UNL     1     -10.648  15.329  70.171  1.00  0.00    -0.282 N  
HETATM   21  C   UNL     1      -8.738  14.518  68.740  1.00  0.00    -0.147 C  
HETATM   22  C   UNL     1     -10.184  14.310  69.227  1.00  0.00    -0.015 C  
HETATM   23  C   UNL     1     -11.804  15.175  70.931  1.00  0.00    -0.325 C  
BRANCH  23  24
HETATM   24  C   UNL     1     -12.211  13.789  71.282  1.00  0.00    -0.314 C  
HETATM   25  C   UNL     1     -13.514  13.487  71.365  1.00  0.00    -0.233 C  
ENDBRANCH  23  24
ENDBRANCH  12  16
BRANCH  14  26
HETATM   26  C   UNL     1      -9.413  12.262  64.682  1.00  0.00     0.217 A  
HETATM   27  C   UNL     1      -8.796  11.444  65.652  1.00  0.00    -0.080 A  
HETATM   28  C   UNL     1      -9.654  11.684  63.434  1.00  0.00    -0.308 A  
HETATM   29  C   UNL     1      -8.491  10.097  65.401  1.00  0.00    -0.162 A  
HETATM   30  C   UNL     1      -9.333  10.341  63.171  1.00  0.00    -0.343 A  
HETATM   31  C   UNL     1      -8.786   9.528  64.163  1.00  0.00    -0.215 A  
BRANCH  31  32
HETATM   32  O   UNL     1      -8.429   8.208  64.003  1.00  0.00    -0.058 OA 
BRANCH  32  33
HETATM   33  C   UNL     1      -8.499   7.317  65.053  1.00  0.00     0.025 A  
HETATM   34  C   UNL     1      -8.354   5.962  64.740  1.00  0.00    -0.103 A  
HETATM   35  C   UNL     1      -8.411   4.995  65.747  1.00  0.00    -0.124 A  
HETATM   36  C   UNL     1      -8.608   5.382  67.072  1.00  0.00    -0.109 A  
HETATM   37  C   UNL     1      -8.705   6.734  67.394  1.00  0.00    -0.119 A  
HETATM   38  C   UNL     1      -8.619   7.703  66.389  1.00  0.00    -0.149 A  
ENDBRANCH  32  33
ENDBRANCH  31  32
ENDBRANCH  14  26
ENDBRANCH   3   6
TORSDOF 6
ENDMDL
MODEL      140
REMARK 921   NORMALIZED FREE ENERGY PREDICTED BY IDOCK:   -3.65 KCAL/MOL
REMARK 922        TOTAL FREE ENERGY PREDICTED BY IDOCK:   -5.24 KCAL/MOL
REMARK 923 INTER-LIGAND FREE ENERGY PREDICTED BY IDOCK:   -5.62 KCAL/MOL
REMARK 924 INTRA-LIGAND FREE ENERGY PREDICTED BY IDOCK:    0.38 KCAL/MOL
REMARK 927      BINDING AFFINITY PREDICTED BY RF-SCORE:    0.00 PKD
ROOT
HETATM    1  N   UNL     1     -12.350  13.895  66.309  1.00  0.00    -0.460 N  
HETATM    2  H1  UNL     1     -11.872  14.427  67.037  1.00  0.00     0.000 HD 
HETATM    3  C   UNL     1     -11.980  12.597  66.088  1.00  0.00    -0.395 C  
HETATM    4  H2  UNL     1     -13.091  14.324  65.756  1.00  0.00     0.000 HD 
HETATM    5  O   UNL     1     -12.554  11.959  65.215  1.00  0.00    -0.216 OA 
ENDROOT
BRANCH   3   6
HETATM    6  C   UNL     1     -10.922  12.089  66.950  1.00  0.00    -0.328 A  
HETATM    7  C   UNL     1     -10.670  10.740  67.187  1.00  0.00    -0.272 A  
HETATM    8  N   UNL     1     -11.327   9.590  66.865  1.00  0.00     0.209 NA 
HETATM    9  C   UNL     1     -10.998   8.394  67.644  1.00  0.00     0.166 C  
HETATM   10  H   UNL     1     -12.017   9.563  66.114  1.00  0.00     0.000 HD 
HETATM   11  C   UNL     1      -9.486   8.221  67.658  1.00  0.00    -0.176 C  
HETATM   12  C   UNL     1      -8.745   9.479  68.194  1.00  0.00    -0.120 C  
HETATM   13  N   UNL     1      -9.480  10.698  67.857  1.00  0.00    -0.157 NA 
HETATM   14  C   UNL     1      -9.913  12.783  67.721  1.00  0.00    -0.219 A  
HETATM   15  N   UNL     1      -9.134  11.888  68.368  1.00  0.00    -0.186 NA 
BRANCH  12  16
HETATM   16  C   UNL     1      -7.203   9.450  67.843  1.00  0.00    -0.082 C  
HETATM   17  C   UNL     1      -6.262   8.973  68.964  1.00  0.00    -0.043 C  
HETATM   18  C   UNL     1      -6.408   7.478  69.188  1.00  0.00    -0.035 C  
HETATM   19  O   UNL     1      -5.457   4.960  69.341  1.00  0.00    -0.007 OA 
HETATM   20  N   UNL     1      -6.003   6.749  67.994  1.00  0.00    -0.030 N  
HETATM   21  C   UNL     1      -6.777   8.681  66.572  1.00  0.00    -0.071 C  
HETATM   22  C   UNL     1      -6.672   7.156  66.756  1.00  0.00    -0.060 C  
HETATM   23  C   UNL     1      -5.565   5.446  68.216  1.00  0.00    -0.012 C  
BRANCH  23  24
HETATM   24  C   UNL     1      -5.185   4.642  67.025  1.00  0.00    -0.008 C  
HETATM   25  C   UNL     1      -5.851   3.511  66.755  1.00  0.00    -0.023 C  
ENDBRANCH  23  24
ENDBRANCH  12  16
BRANCH  14  26
HETATM   26  C   UNL     1      -9.579  14.221  67.854  1.00  0.00    -0.221 A  
HETATM   27  C   UNL     1      -8.760  14.665  68.913  1.00  0.00    -0.138 A  
HETATM   28  C   UNL     1     -10.072  15.200  66.989  1.00  0.00    -0.244 A  
HETATM   29  C   UNL     1      -8.406  16.015  69.062  1.00  0.00    -0.243 A  
HETATM   30  C   UNL     1      -9.736  16.556  67.145  1.00  0.00    -0.246 A  
HETATM   31  C   UNL     1      -8.870  16.968  68.158  1.00  0.00    -0.227 A  
BRANCH  31  32
HETATM   32  O   UNL     1      -8.489  18.268  68.399  1.00  0.00    -0.291 OA 
BRANCH  32  33
HETATM   33  C   UNL     1      -7.602  18.918  67.567  1.00  0.00    -0.228 A  
HETATM   34  C   UNL     1      -6.425  19.396  68.150  1.00  0.00    -0.260 A  
HETATM   35  C   UNL     1      -5.474  20.064  67.374  1.00  0.00    -0.182 A  
HETATM   36  C   UNL     1      -5.696  20.253  66.011  1.00  0.00    -0.201 A  
HETATM   37  C   UNL     1      -6.846  19.736  65.417  1.00  0.00    -0.321 A  
HETATM   38  C   UNL     1      -7.784  19.043  66.188  1.00  0.00    -0.291 A  
ENDBRANCH  32  33
ENDBRANCH  31  32
ENDBRANCH  14  26
ENDBRANCH   3   6
TORSDOF 6
ENDMDL
MODEL      141
REMARK 921   NORMALIZED FREE ENERGY PREDICTED BY IDOCK:   -3.47 KCAL/MOL
REMARK 922        TOTAL FREE ENERGY PREDICTED BY IDOCK:   -5.00 KCAL/MOL
REMARK 923 INTER-LIGAND FREE ENERGY PREDICTED BY IDOCK:   -5.15 KCAL/MOL
REMARK 924 INTRA-LIGAND FREE ENERGY PREDICTED BY IDOCK:    0.15 KCAL/MOL
REMARK 927      BINDING AFFINITY PREDICTED BY RF-SCORE:    0.00 PKD
ROOT
HETATM    1  N   UNL     1     -12.264  13.818  66.335  1.00  0.00    -0.440 N  
HETATM    2  H1  UNL     1     -11.780  14.354  67.055  1.00  0.00     0.000 HD 
HETATM    3  C   UNL     1     -11.957  12.494  66.178  1.00  0.00    -0.366 C  
HETATM    4  H2  UNL     1     -12.965  14.262  65.742  1.00  0.00     0.000 HD 
HETATM    5  O   UNL     1     -12.539  11.851  65.313  1.00  0.00    -0.216 OA 
ENDROOT
BRANCH   3   6
HETATM    6  C   UNL     1     -10.954  11.968  67.093  1.00  0.00    -0.320 A  
HETATM    7  C   UNL     1     -10.766  10.618  67.374  1.00  0.00    -0.276 A  
HETATM    8  N   UNL     1     -11.457   9.486  67.056  1.00  0.00     0.317 NA 
HETATM    9  C   UNL     1     -11.206   8.299  67.878  1.00  0.00     0.656 C  
HETATM   10  H   UNL     1     -12.119   9.466  66.281  1.00  0.00     0.000 HD 
HETATM   11  C   UNL     1      -9.704   8.067  67.955  1.00  0.00    -0.189 C  
HETATM   12  C   UNL     1      -8.933   9.309  68.486  1.00  0.00    -0.129 C  
HETATM   13  N   UNL     1      -9.604  10.547  68.090  1.00  0.00    -0.151 NA 
HETATM   14  C   UNL     1      -9.947  12.642  67.884  1.00  0.00    -0.228 A  
HETATM   15  N   UNL     1      -9.230  11.736  68.583  1.00  0.00    -0.134 NA 
BRANCH  12  16
HETATM   16  C   UNL     1      -7.381   9.209  68.196  1.00  0.00    -0.079 C  
HETATM   17  C   UNL     1      -6.922   7.991  67.374  1.00  0.00    -0.075 C  
HETATM   18  C   UNL     1      -7.351   8.129  65.924  1.00  0.00    -0.076 C  
HETATM   19  O   UNL     1      -6.883   8.234  63.271  1.00  0.00    -0.084 OA 
HETATM   20  N   UNL     1      -6.706   9.284  65.316  1.00  0.00    -0.072 N  
HETATM   21  C   UNL     1      -6.698  10.438  67.556  1.00  0.00    -0.071 C  
HETATM   22  C   UNL     1      -6.884  10.549  66.032  1.00  0.00    -0.134 C  
HETATM   23  C   UNL     1      -6.559   9.219  63.933  1.00  0.00    -0.092 C  
BRANCH  23  24
HETATM   24  C   UNL     1      -5.949  10.394  63.256  1.00  0.00    -0.136 C  
HETATM   25  C   UNL     1      -6.659  11.070  62.344  1.00  0.00     0.022 C  
ENDBRANCH  23  24
ENDBRANCH  12  16
BRANCH  14  26
HETATM   26  C   UNL     1      -9.560  14.070  67.992  1.00  0.00    -0.217 A  
HETATM   27  C   UNL     1      -8.749  14.506  69.061  1.00  0.00    -0.040 A  
HETATM   28  C   UNL     1      -9.995  15.047  67.094  1.00  0.00    -0.237 A  
HETATM   29  C   UNL     1      -8.345  15.844  69.188  1.00  0.00    -0.253 A  
HETATM   30  C   UNL     1      -9.609  16.392  67.227  1.00  0.00    -0.235 A  
HETATM   31  C   UNL     1      -8.751  16.794  68.251  1.00  0.00    -0.227 A  
BRANCH  31  32
HETATM   32  O   UNL     1      -8.325  18.083  68.472  1.00  0.00    -0.300 OA 
BRANCH  32  33
HETATM   33  C   UNL     1      -7.402  18.682  67.641  1.00  0.00    -0.224 A  
HETATM   34  C   UNL     1      -7.695  19.977  67.203  1.00  0.00    -0.328 A  
HETATM   35  C   UNL     1      -6.809  20.654  66.360  1.00  0.00    -0.289 A  
HETATM   36  C   UNL     1      -5.625  20.039  65.956  1.00  0.00    -0.179 A  
HETATM   37  C   UNL     1      -5.307  18.767  66.429  1.00  0.00    -0.163 A  
HETATM   38  C   UNL     1      -6.180  18.102  67.295  1.00  0.00    -0.182 A  
ENDBRANCH  32  33
ENDBRANCH  31  32
ENDBRANCH  14  26
ENDBRANCH   3   6
TORSDOF 6
ENDMDL
MODEL      142
REMARK 921   NORMALIZED FREE ENERGY PREDICTED BY IDOCK:   -3.46 KCAL/MOL
REMARK 922        TOTAL FREE ENERGY PREDICTED BY IDOCK:   -4.98 KCAL/MOL
REMARK 923 INTER-LIGAND FREE ENERGY PREDICTED BY IDOCK:   -5.32 KCAL/MOL
REMARK 924 INTRA-LIGAND FREE ENERGY PREDICTED BY IDOCK:    0.34 KCAL/MOL
REMARK 927      BINDING AFFINITY PREDICTED BY RF-SCORE:    0.00 PKD
ROOT
HETATM    1  N   UNL     1      -8.115   3.821  63.613  1.00  0.00    -0.088 N  
HETATM    2  H1  UNL     1      -7.428   3.397  64.236  1.00  0.00     0.000 HD 
HETATM    3  C   UNL     1      -9.123   4.572  64.153  1.00  0.00    -0.132 C  
HETATM    4  H2  UNL     1      -8.051   3.689  62.604  1.00  0.00     0.000 HD 
HETATM    5  O   UNL     1      -9.947   5.082  63.404  1.00  0.00     0.502 OA 
ENDROOT
BRANCH   3   6
HETATM    6  C   UNL     1      -9.102   4.705  65.602  1.00  0.00    -0.142 A  
HETATM    7  C   UNL     1      -9.012   3.641  66.496  1.00  0.00    -0.147 A  
HETATM    8  N   UNL     1      -9.063   2.286  66.353  1.00  0.00    -0.270 NA 
HETATM    9  C   UNL     1      -9.364   1.500  67.552  1.00  0.00    -0.065 C  
HETATM   10  H   UNL     1      -8.898   1.839  65.451  1.00  0.00     0.000 HD 
HETATM   11  C   UNL     1      -8.429   1.937  68.671  1.00  0.00    -0.085 C  
HETATM   12  C   UNL     1      -8.504   3.465  68.950  1.00  0.00    -0.074 C  
HETATM   13  N   UNL     1      -8.801   4.205  67.723  1.00  0.00    -0.107 NA 
HETATM   14  C   UNL     1      -9.146   5.879  66.447  1.00  0.00    -0.149 A  
HETATM   15  N   UNL     1      -9.093   5.512  67.747  1.00  0.00    -0.108 NA 
BRANCH  12  16
HETATM   16  C   UNL     1      -7.278   3.968  69.813  1.00  0.00    -0.042 C  
HETATM   17  C   UNL     1      -6.543   5.214  69.284  1.00  0.00    -0.047 C  
HETATM   18  C   UNL     1      -7.394   6.457  69.467  1.00  0.00    -0.088 C  
HETATM   19  O   UNL     1      -7.858   8.946  70.395  1.00  0.00    -0.078 OA 
HETATM   20  N   UNL     1      -7.625   6.705  70.883  1.00  0.00    -0.087 N  
HETATM   21  C   UNL     1      -7.525   4.224  71.316  1.00  0.00    -0.059 C  
HETATM   22  C   UNL     1      -8.186   5.578  71.631  1.00  0.00    -0.119 C  
HETATM   23  C   UNL     1      -7.887   8.031  71.217  1.00  0.00    -0.091 C  
BRANCH  23  24
HETATM   24  C   UNL     1      -8.177   8.331  72.644  1.00  0.00    -0.223 C  
HETATM   25  C   UNL     1      -9.440   8.268  73.086  1.00  0.00    -0.263 C  
ENDBRANCH  23  24
ENDBRANCH  12  16
BRANCH  14  26
HETATM   26  C   UNL     1      -9.172   7.328  66.133  1.00  0.00    -0.136 A  
HETATM   27  C   UNL     1      -8.065   7.938  65.506  1.00  0.00    -0.130 A  
HETATM   28  C   UNL     1     -10.243   8.160  66.464  1.00  0.00    -0.248 A  
HETATM   29  C   UNL     1      -8.058   9.302  65.176  1.00  0.00    -0.124 A  
HETATM   30  C   UNL     1     -10.234   9.531  66.152  1.00  0.00    -0.272 A  
HETATM   31  C   UNL     1      -9.159  10.104  65.472  1.00  0.00    -0.178 A  
BRANCH  31  32
HETATM   32  O   UNL     1      -9.051  11.432  65.131  1.00  0.00    -0.163 OA 
BRANCH  32  33
HETATM   33  C   UNL     1     -10.038  12.337  65.461  1.00  0.00    -0.256 A  
HETATM   34  C   UNL     1      -9.639  13.475  66.168  1.00  0.00    -0.219 A  
HETATM   35  C   UNL     1     -10.579  14.440  66.539  1.00  0.00    -0.296 A  
HETATM   36  C   UNL     1     -11.921  14.273  66.199  1.00  0.00    -0.422 A  
HETATM   37  C   UNL     1     -12.314  13.163  65.453  1.00  0.00    -0.532 A  
HETATM   38  C   UNL     1     -11.369  12.212  65.058  1.00  0.00    -0.379 A  
ENDBRANCH  32  33
ENDBRANCH  31  32
ENDBRANCH  14  26
ENDBRANCH   3   6
TORSDOF 6
ENDMDL
MODEL      143
REMARK 921   NORMALIZED FREE ENERGY PREDICTED BY IDOCK:   -3.22 KCAL/MOL
REMARK 922        TOTAL FREE ENERGY PREDICTED BY IDOCK:   -4.65 KCAL/MOL
REMARK 923 INTER-LIGAND FREE ENERGY PREDICTED BY IDOCK:   -3.66 KCAL/MOL
REMARK 924 INTRA-LIGAND FREE ENERGY PREDICTED BY IDOCK:   -0.99 KCAL/MOL
REMARK 927      BINDING AFFINITY PREDICTED BY RF-SCORE:    0.00 PKD
ROOT
HETATM    1  N   UNL     1     -10.869  10.944  62.869  1.00  0.00    -0.698 N  
HETATM    2  H1  UNL     1      -9.947  10.763  62.474  1.00  0.00     0.000 HD 
HETATM    3  C   UNL     1     -10.972  11.246  64.199  1.00  0.00    -0.305 C  
HETATM    4  H2  UNL     1     -11.702  10.902  62.282  1.00  0.00     0.000 HD 
HETATM    5  O   UNL     1     -12.080  11.463  64.673  1.00  0.00     0.133 OA 
ENDROOT
BRANCH   3   6
HETATM    6  C   UNL     1      -9.715  11.294  64.932  1.00  0.00    -0.297 A  
HETATM    7  C   UNL     1      -9.315  12.344  65.755  1.00  0.00    -0.011 A  
HETATM    8  N   UNL     1      -9.817  13.586  66.005  1.00  0.00    -0.364 NA 
HETATM    9  C   UNL     1      -8.903  14.569  66.594  1.00  0.00    -0.184 C  
HETATM   10  H   UNL     1     -10.786  13.822  65.792  1.00  0.00     0.000 HD 
HETATM   11  C   UNL     1      -8.240  13.948  67.814  1.00  0.00    -0.173 C  
HETATM   12  C   UNL     1      -7.515  12.612  67.486  1.00  0.00    -0.155 C  
HETATM   13  N   UNL     1      -8.202  11.897  66.410  1.00  0.00    -0.027 NA 
HETATM   14  C   UNL     1      -8.631  10.339  65.017  1.00  0.00    -0.180 A  
HETATM   15  N   UNL     1      -7.663  10.815  65.832  1.00  0.00    -0.145 NA 
BRANCH  12  16
HETATM   16  C   UNL     1      -7.176  11.787  68.793  1.00  0.00    -0.113 C  
HETATM   17  C   UNL     1      -8.380  11.226  69.572  1.00  0.00     0.493 C  
HETATM   18  C   UNL     1      -9.020  10.076  68.814  1.00  0.00    -0.145 C  
HETATM   19  O   UNL     1      -9.877   7.532  68.567  1.00  0.00    -0.157 OA 
HETATM   20  N   UNL     1      -8.081   8.971  68.687  1.00  0.00    -0.106 N  
HETATM   21  C   UNL     1      -6.174  10.620  68.656  1.00  0.00    -0.046 C  
HETATM   22  C   UNL     1      -6.783   9.319  68.103  1.00  0.00    -0.060 C  
HETATM   23  C   UNL     1      -8.661   7.716  68.531  1.00  0.00    -0.129 C  
BRANCH  23  24
HETATM   24  C   UNL     1      -7.746   6.559  68.349  1.00  0.00    -0.105 C  
HETATM   25  C   UNL     1      -8.241   5.387  67.929  1.00  0.00    -0.099 C  
ENDBRANCH  23  24
ENDBRANCH  12  16
BRANCH  14  26
HETATM   26  C   UNL     1      -8.454   8.984  64.443  1.00  0.00    -0.190 A  
HETATM   27  C   UNL     1      -8.054   8.829  63.099  1.00  0.00    -0.176 A  
HETATM   28  C   UNL     1      -8.703   7.813  65.162  1.00  0.00     0.051 A  
HETATM   29  C   UNL     1      -7.857   7.564  62.524  1.00  0.00    -0.129 A  
HETATM   30  C   UNL     1      -8.525   6.544  64.586  1.00  0.00     0.094 A  
HETATM   31  C   UNL     1      -8.064   6.409  63.276  1.00  0.00    -0.038 A  
BRANCH  31  32
HETATM   32  O   UNL     1      -7.869   5.215  62.620  1.00  0.00    -0.065 OA 
BRANCH  32  33
HETATM   33  C   UNL     1      -7.726   4.034  63.317  1.00  0.00    -0.066 A  
HETATM   34  C   UNL     1      -6.480   3.796  63.905  1.00  0.00    -0.034 A  
HETATM   35  C   UNL     1      -6.255   2.622  64.629  1.00  0.00    -0.019 A  
HETATM   36  C   UNL     1      -7.276   1.684  64.771  1.00  0.00    -0.049 A  
HETATM   37  C   UNL     1      -8.534   1.940  64.226  1.00  0.00    -0.079 A  
HETATM   38  C   UNL     1      -8.767   3.127  63.526  1.00  0.00    -0.089 A  
ENDBRANCH  32  33
ENDBRANCH  31  32
ENDBRANCH  14  26
ENDBRANCH   3   6
TORSDOF 6
ENDMDL
MODEL      144
REMARK 921   NORMALIZED FREE ENERGY PREDICTED BY IDOCK:   -3.04 KCAL/MOL
REMARK 922        TOTAL FREE ENERGY PREDICTED BY IDOCK:   -4.40 KCAL/MOL
REMARK 923 INTER-LIGAND FREE ENERGY PREDICTED BY IDOCK:   -3.58 KCAL/MOL
REMARK 924 INTRA-LIGAND FREE ENERGY PREDICTED BY IDOCK:   -0.83 KCAL/MOL
REMARK 927      BINDING AFFINITY PREDICTED BY RF-SCORE:    0.00 PKD
ROOT
HETATM    1  N   UNL     1     -12.444  12.734  66.654  1.00  0.00     0.134 N  
HETATM    2  H1  UNL     1     -12.241  13.408  65.915  1.00  0.00     0.000 HD 
HETATM    3  C   UNL     1     -11.444  12.376  67.515  1.00  0.00    -0.346 C  
HETATM    4  H2  UNL     1     -13.377  12.335  66.749  1.00  0.00     0.000 HD 
HETATM    5  O   UNL     1     -11.688  11.568  68.402  1.00  0.00    -0.327 OA 
ENDROOT
BRANCH   3   6
HETATM    6  C   UNL     1     -10.159  13.024  67.292  1.00  0.00    -0.235 A  
HETATM    7  C   UNL     1      -9.763  14.225  67.874  1.00  0.00    -0.222 A  
HETATM    8  N   UNL     1     -10.406  15.161  68.628  1.00  0.00    -0.226 NA 
HETATM    9  C   UNL     1      -9.797  16.492  68.699  1.00  0.00    -0.250 C  
HETATM   10  H   UNL     1     -11.272  14.945  69.121  1.00  0.00     0.000 HD 
HETATM   11  C   UNL     1      -8.332  16.339  69.079  1.00  0.00    -0.239 C  
HETATM   12  C   UNL     1      -7.557  15.403  68.108  1.00  0.00    -0.114 C  
HETATM   13  N   UNL     1      -8.435  14.357  67.582  1.00  0.00    -0.172 NA 
HETATM   14  C   UNL     1      -9.025  12.626  66.485  1.00  0.00    -0.112 A  
HETATM   15  N   UNL     1      -8.041  13.546  66.591  1.00  0.00     0.310 NA 
BRANCH  12  16
HETATM   16  C   UNL     1      -6.171  14.939  68.715  1.00  0.00    -0.083 C  
HETATM   17  C   UNL     1      -6.215  14.359  70.140  1.00  0.00    -0.166 C  
HETATM   18  C   UNL     1      -6.863  12.986  70.141  1.00  0.00     0.651 C  
HETATM   19  O   UNL     1      -6.901  10.339  70.653  1.00  0.00    -0.309 OA 
HETATM   20  N   UNL     1      -6.065  12.053  69.357  1.00  0.00    -0.088 N  
HETATM   21  C   UNL     1      -5.324  13.955  67.878  1.00  0.00    -0.080 C  
HETATM   22  C   UNL     1      -5.763  12.483  67.990  1.00  0.00    -0.082 C  
HETATM   23  C   UNL     1      -6.208  10.713  69.707  1.00  0.00    -0.085 C  
BRANCH  23  24
HETATM   24  C   UNL     1      -5.451   9.714  68.907  1.00  0.00    -0.036 C  
HETATM   25  C   UNL     1      -6.082   8.625  68.448  1.00  0.00    -0.050 C  
ENDBRANCH  23  24
ENDBRANCH  12  16
BRANCH  14  26
HETATM   26  C   UNL     1      -8.764  11.418  65.667  1.00  0.00    -0.016 A  
HETATM   27  C   UNL     1      -9.433  11.233  64.438  1.00  0.00    -0.206 A  
HETATM   28  C   UNL     1      -7.896  10.400  66.068  1.00  0.00    -0.142 A  
HETATM   29  C   UNL     1      -9.199  10.112  63.626  1.00  0.00    -0.320 A  
HETATM   30  C   UNL     1      -7.672   9.266  65.267  1.00  0.00    -0.103 A  
HETATM   31  C   UNL     1      -8.291   9.133  64.024  1.00  0.00    -0.180 A  
BRANCH  31  32
HETATM   32  O   UNL     1      -8.145   8.060  63.174  1.00  0.00    -0.157 OA 
BRANCH  32  33
HETATM   33  C   UNL     1      -7.485   6.918  63.573  1.00  0.00    -0.088 A  
HETATM   34  C   UNL     1      -8.166   6.070  64.452  1.00  0.00    -0.082 A  
HETATM   35  C   UNL     1      -7.566   4.891  64.902  1.00  0.00    -0.077 A  
HETATM   36  C   UNL     1      -6.284   4.554  64.471  1.00  0.00    -0.030 A  
HETATM   37  C   UNL     1      -5.621   5.372  63.557  1.00  0.00    -0.014 A  
HETATM   38  C   UNL     1      -6.233   6.537  63.085  1.00  0.00    -0.037 A  
ENDBRANCH  32  33
ENDBRANCH  31  32
ENDBRANCH  14  26
ENDBRANCH   3   6
TORSDOF 6
ENDMDL
MODEL      145
REMARK 921   NORMALIZED FREE ENERGY PREDICTED BY IDOCK:   -2.92 KCAL/MOL
REMARK 922        TOTAL FREE ENERGY PREDICTED BY IDOCK:   -4.24 KCAL/MOL
REMARK 923 INTER-LIGAND FREE ENERGY PREDICTED BY IDOCK:   -4.03 KCAL/MOL
REMARK 924 INTRA-LIGAND FREE ENERGY PREDICTED BY IDOCK:   -0.21 KCAL/MOL
REMARK 927      BINDING AFFINITY PREDICTED BY RF-SCORE:    0.00 PKD
ROOT
HETATM    1  N   UNL     1      -8.195   4.709  63.668  1.00  0.00    -0.101 N  
HETATM    2  H1  UNL     1      -7.271   4.736  64.098  1.00  0.00     0.000 HD 
HETATM    3  C   UNL     1      -9.300   4.790  64.470  1.00  0.00    -0.010 C  
HETATM    4  H2  UNL     1      -8.294   4.624  62.657  1.00  0.00     0.000 HD 
HETATM    5  O   UNL     1     -10.410   4.758  63.953  1.00  0.00     0.382 OA 
ENDROOT
BRANCH   3   6
HETATM    6  C   UNL     1      -9.035   4.925  65.895  1.00  0.00    -0.134 A  
HETATM    7  C   UNL     1      -8.787   3.864  66.761  1.00  0.00    -0.126 A  
HETATM    8  N   UNL     1      -8.849   2.508  66.630  1.00  0.00    -0.125 NA 
HETATM    9  C   UNL     1      -8.937   1.722  67.863  1.00  0.00    -0.137 C  
HETATM   10  H   UNL     1      -8.836   2.061  65.713  1.00  0.00     0.000 HD 
HETATM   11  C   UNL     1      -7.829   2.169  68.806  1.00  0.00    -0.054 C  
HETATM   12  C   UNL     1      -7.869   3.697  69.093  1.00  0.00    -0.051 C  
HETATM   13  N   UNL     1      -8.375   4.432  67.934  1.00  0.00    -0.094 NA 
HETATM   14  C   UNL     1      -8.945   6.101  66.735  1.00  0.00    -0.124 A  
HETATM   15  N   UNL     1      -8.670   5.737  68.007  1.00  0.00    -0.104 NA 
BRANCH  12  16
HETATM   16  C   UNL     1      -6.518   4.212  69.736  1.00  0.00    -0.032 C  
HETATM   17  C   UNL     1      -5.400   4.594  68.749  1.00  0.00    -0.011 C  
HETATM   18  C   UNL     1      -5.741   5.885  68.026  1.00  0.00    -0.012 C  
HETATM   19  O   UNL     1      -5.250   8.425  67.268  1.00  0.00    -0.032 OA 
HETATM   20  N   UNL     1      -5.825   6.986  68.974  1.00  0.00    -0.018 N  
HETATM   21  C   UNL     1      -6.611   5.376  70.747  1.00  0.00    -0.039 C  
HETATM   22  C   UNL     1      -6.732   6.770  70.104  1.00  0.00    -0.052 C  
HETATM   23  C   UNL     1      -5.582   8.248  68.440  1.00  0.00    -0.034 C  
BRANCH  23  24
HETATM   24  C   UNL     1      -5.702   9.412  69.356  1.00  0.00    -0.034 C  
HETATM   25  C   UNL     1      -5.319  10.625  68.933  1.00  0.00    -0.041 C  
ENDBRANCH  23  24
ENDBRANCH  12  16
BRANCH  14  26
HETATM   26  C   UNL     1      -9.036   7.549  66.429  1.00  0.00    -0.210 A  
HETATM   27  C   UNL     1      -9.060   8.495  67.475  1.00  0.00    -0.146 A  
HETATM   28  C   UNL     1      -9.141   8.048  65.129  1.00  0.00     0.291 A  
HETATM   29  C   UNL     1      -9.126   9.875  67.227  1.00  0.00    -0.149 A  
HETATM   30  C   UNL     1      -9.226   9.428  64.875  1.00  0.00    -0.246 A  
HETATM   31  C   UNL     1      -9.180  10.353  65.918  1.00  0.00    -0.170 A  
BRANCH  31  32
HETATM   32  O   UNL     1      -9.266  11.718  65.775  1.00  0.00    -0.216 OA 
BRANCH  32  33
HETATM   33  C   UNL     1     -10.371  12.307  65.196  1.00  0.00    -0.286 A  
HETATM   34  C   UNL     1     -10.700  11.892  63.902  1.00  0.00    -0.450 A  
HETATM   35  C   UNL     1     -11.806  12.439  63.246  1.00  0.00    -0.491 A  
HETATM   36  C   UNL     1     -12.589  13.400  63.884  1.00  0.00    -0.186 A  
HETATM   37  C   UNL     1     -12.292  13.781  65.191  1.00  0.00    -0.476 A  
HETATM   38  C   UNL     1     -11.202  13.213  65.857  1.00  0.00    -0.311 A  
ENDBRANCH  32  33
ENDBRANCH  31  32
ENDBRANCH  14  26
ENDBRANCH   3   6
TORSDOF 6
ENDMDL
MODEL      146
REMARK 921   NORMALIZED FREE ENERGY PREDICTED BY IDOCK:   -2.87 KCAL/MOL
REMARK 922        TOTAL FREE ENERGY PREDICTED BY IDOCK:   -4.18 KCAL/MOL
REMARK 923 INTER-LIGAND FREE ENERGY PREDICTED BY IDOCK:   -5.16 KCAL/MOL
REMARK 924 INTRA-LIGAND FREE ENERGY PREDICTED BY IDOCK:    0.98 KCAL/MOL
REMARK 927      BINDING AFFINITY PREDICTED BY RF-SCORE:    0.00 PKD
ROOT
HETATM    1  N   UNL     1     -12.074   9.668  71.662  1.00  0.00    -0.389 N  
HETATM    2  H1  UNL     1     -11.632   8.838  71.266  1.00  0.00     0.000 HD 
HETATM    3  C   UNL     1     -11.912  10.870  71.030  1.00  0.00    -0.270 C  
HETATM    4  H2  UNL     1     -12.628   9.601  72.515  1.00  0.00     0.000 HD 
HETATM    5  O   UNL     1     -12.443  11.865  71.506  1.00  0.00    -0.220 OA 
ENDROOT
BRANCH   3   6
HETATM    6  C   UNL     1     -11.114  10.837  69.813  1.00  0.00    -0.346 A  
HETATM    7  C   UNL     1     -10.993  11.894  68.914  1.00  0.00    -0.238 A  
HETATM    8  N   UNL     1     -11.613  13.102  68.794  1.00  0.00    -0.286 NA 
HETATM    9  C   UNL     1     -11.538  13.764  67.489  1.00  0.00    -0.354 C  
HETATM   10  H   UNL     1     -12.108  13.527  69.579  1.00  0.00     0.000 HD 
HETATM   11  C   UNL     1     -10.082  13.806  67.047  1.00  0.00    -0.256 C  
HETATM   12  C   UNL     1      -9.426  12.396  67.016  1.00  0.00    -0.211 C  
HETATM   13  N   UNL     1      -9.998  11.533  68.050  1.00  0.00    -0.183 NA 
HETATM   14  C   UNL     1     -10.281   9.794  69.253  1.00  0.00    -0.204 A  
HETATM   15  N   UNL     1      -9.722  10.222  68.100  1.00  0.00    -0.142 NA 
BRANCH  12  16
HETATM   16  C   UNL     1      -7.848  12.481  66.944  1.00  0.00     0.016 C  
HETATM   17  C   UNL     1      -7.128  12.842  68.256  1.00  0.00    -0.104 C  
HETATM   18  C   UNL     1      -7.185  11.684  69.236  1.00  0.00    -0.020 C  
HETATM   19  O   UNL     1      -6.071   9.842  70.860  1.00  0.00    -0.086 OA 
HETATM   20  N   UNL     1      -6.474  10.533  68.698  1.00  0.00    -0.051 N  
HETATM   21  C   UNL     1      -7.097  11.261  66.366  1.00  0.00    -0.053 C  
HETATM   22  C   UNL     1      -6.899  10.105  67.363  1.00  0.00    -0.077 C  
HETATM   23  C   UNL     1      -5.980   9.644  69.648  1.00  0.00    -0.036 C  
BRANCH  23  24
HETATM   24  C   UNL     1      -5.287   8.427  69.150  1.00  0.00    -0.031 C  
HETATM   25  C   UNL     1      -6.010   7.419  68.644  1.00  0.00    -0.027 C  
ENDBRANCH  23  24
ENDBRANCH  12  16
BRANCH  14  26
HETATM   26  C   UNL     1      -9.915   8.444  69.745  1.00  0.00    -0.191 A  
HETATM   27  C   UNL     1     -10.045   8.128  71.114  1.00  0.00    -0.222 A  
HETATM   28  C   UNL     1      -9.398   7.446  68.917  1.00  0.00    -0.145 A  
HETATM   29  C   UNL     1      -9.728   6.856  71.615  1.00  0.00    -0.163 A  
HETATM   30  C   UNL     1      -9.061   6.177  69.417  1.00  0.00    -0.135 A  
HETATM   31  C   UNL     1      -9.259   5.860  70.761  1.00  0.00    -0.153 A  
BRANCH  31  32
HETATM   32  O   UNL     1      -8.952   4.653  71.348  1.00  0.00    -0.123 OA 
BRANCH  32  33
HETATM   33  C   UNL     1      -8.450   3.606  70.605  1.00  0.00    -0.069 A  
HETATM   34  C   UNL     1      -7.064   3.571  70.423  1.00  0.00    -0.037 A  
HETATM   35  C   UNL     1      -6.476   2.540  69.684  1.00  0.00    -0.029 A  
HETATM   36  C   UNL     1      -7.272   1.540  69.129  1.00  0.00    -0.036 A  
HETATM   37  C   UNL     1      -8.648   1.546  69.348  1.00  0.00    -0.089 A  
HETATM   38  C   UNL     1      -9.233   2.561  70.112  1.00  0.00    -0.199 A  
ENDBRANCH  32  33
ENDBRANCH  31  32
ENDBRANCH  14  26
ENDBRANCH   3   6
TORSDOF 6
ENDMDL
MODEL      147
REMARK 921   NORMALIZED FREE ENERGY PREDICTED BY IDOCK:   -2.74 KCAL/MOL
REMARK 922        TOTAL FREE ENERGY PREDICTED BY IDOCK:   -4.01 KCAL/MOL
REMARK 923 INTER-LIGAND FREE ENERGY PREDICTED BY IDOCK:   -3.23 KCAL/MOL
REMARK 924 INTRA-LIGAND FREE ENERGY PREDICTED BY IDOCK:   -0.77 KCAL/MOL
REMARK 927      BINDING AFFINITY PREDICTED BY RF-SCORE:    0.00 PKD
ROOT
HETATM    1  N   UNL     1     -12.158   6.226  71.155  1.00  0.00    -0.128 N  
HETATM    2  H1  UNL     1     -11.840   6.328  70.191  1.00  0.00     0.000 HD 
HETATM    3  C   UNL     1     -11.265   6.431  72.170  1.00  0.00    -0.279 C  
HETATM    4  H2  UNL     1     -13.125   5.975  71.358  1.00  0.00     0.000 HD 
HETATM    5  O   UNL     1     -11.646   6.309  73.327  1.00  0.00     0.085 OA 
ENDROOT
BRANCH   3   6
HETATM    6  C   UNL     1      -9.918   6.801  71.759  1.00  0.00    -0.184 A  
HETATM    7  C   UNL     1      -8.917   7.242  72.620  1.00  0.00    -0.131 A  
HETATM    8  N   UNL     1      -8.895   7.583  73.940  1.00  0.00    -0.222 NA 
HETATM    9  C   UNL     1      -7.772   8.406  74.397  1.00  0.00    -0.205 C  
HETATM   10  H   UNL     1      -9.628   7.279  74.580  1.00  0.00     0.000 HD 
HETATM   11  C   UNL     1      -6.474   7.759  73.937  1.00  0.00    -0.094 C  
HETATM   12  C   UNL     1      -6.432   7.531  72.400  1.00  0.00    -0.054 C  
HETATM   13  N   UNL     1      -7.772   7.264  71.875  1.00  0.00    -0.089 NA 
HETATM   14  C   UNL     1      -9.292   6.796  70.454  1.00  0.00    -0.163 A  
HETATM   15  N   UNL     1      -8.012   7.217  70.558  1.00  0.00    -0.102 NA 
BRANCH  12  16
HETATM   16  C   UNL     1      -5.285   6.524  71.983  1.00  0.00    -0.027 C  
HETATM   17  C   UNL     1      -5.281   5.164  72.705  1.00  0.00    -0.009 C  
HETATM   18  C   UNL     1      -6.437   4.302  72.230  1.00  0.00    -0.022 C  
HETATM   19  O   UNL     1      -7.494   2.064  71.161  1.00  0.00    -0.033 OA 
HETATM   20  N   UNL     1      -6.290   3.998  70.814  1.00  0.00    -0.022 N  
HETATM   21  C   UNL     1      -5.127   6.209  70.479  1.00  0.00    -0.013 C  
HETATM   22  C   UNL     1      -6.118   5.162  69.940  1.00  0.00    -0.021 C  
HETATM   23  C   UNL     1      -6.916   2.829  70.390  1.00  0.00    -0.033 C  
BRANCH  23  24
HETATM   24  C   UNL     1      -6.837   2.498  68.944  1.00  0.00    -0.036 C  
HETATM   25  C   UNL     1      -5.918   1.620  68.518  1.00  0.00    -0.024 C  
ENDBRANCH  23  24
ENDBRANCH  12  16
BRANCH  14  26
HETATM   26  C   UNL     1      -9.778   6.369  69.120  1.00  0.00    -0.148 A  
HETATM   27  C   UNL     1      -9.547   5.053  68.668  1.00  0.00    -0.204 A  
HETATM   28  C   UNL     1     -10.439   7.228  68.239  1.00  0.00    -0.239 A  
HETATM   29  C   UNL     1     -10.008   4.605  67.420  1.00  0.00    -0.190 A  
HETATM   30  C   UNL     1     -10.886   6.790  66.981  1.00  0.00    -0.453 A  
HETATM   31  C   UNL     1     -10.708   5.467  66.578  1.00  0.00    -0.240 A  
BRANCH  31  32
HETATM   32  O   UNL     1     -11.100   4.945  65.366  1.00  0.00    -0.078 OA 
BRANCH  32  33
HETATM   33  C   UNL     1     -10.352   3.975  64.732  1.00  0.00    -0.197 A  
HETATM   34  C   UNL     1     -11.015   2.794  64.386  1.00  0.00     0.699 A  
HETATM   35  C   UNL     1     -10.329   1.763  63.739  1.00  0.00    -0.058 A  
HETATM   36  C   UNL     1      -8.977   1.912  63.432  1.00  0.00    -0.088 A  
HETATM   37  C   UNL     1      -8.325   3.107  63.732  1.00  0.00    -0.086 A  
HETATM   38  C   UNL     1      -9.019   4.148  64.354  1.00  0.00    -0.143 A  
ENDBRANCH  32  33
ENDBRANCH  31  32
ENDBRANCH  14  26
ENDBRANCH   3   6
TORSDOF 6
ENDMDL
MODEL      148
REMARK 921   NORMALIZED FREE ENERGY PREDICTED BY IDOCK:   -2.73 KCAL/MOL
REMARK 922        TOTAL FREE ENERGY PREDICTED BY IDOCK:   -3.98 KCAL/MOL
REMARK 923 INTER-LIGAND FREE ENERGY PREDICTED BY IDOCK:   -4.95 KCAL/MOL
REMARK 924 INTRA-LIGAND FREE ENERGY PREDICTED BY IDOCK:    0.97 KCAL/MOL
REMARK 927      BINDING AFFINITY PREDICTED BY RF-SCORE:    0.00 PKD
ROOT
HETATM    1  N   UNL     1     -12.830   9.712  72.479  1.00  0.00    -0.353 N  
HETATM    2  H1  UNL     1     -12.165   8.940  72.447  1.00  0.00     0.000 HD 
HETATM    3  C   UNL     1     -12.692  10.740  71.587  1.00  0.00    -0.414 C  
HETATM    4  H2  UNL     1     -13.585   9.717  73.164  1.00  0.00     0.000 HD 
HETATM    5  O   UNL     1     -13.492  11.667  71.626  1.00  0.00    -0.231 OA 
ENDROOT
BRANCH   3   6
HETATM    6  C   UNL     1     -11.588  10.614  70.647  1.00  0.00    -0.432 A  
HETATM    7  C   UNL     1     -11.414  11.406  69.515  1.00  0.00    -0.312 A  
HETATM    8  N   UNL     1     -12.188  12.339  68.893  1.00  0.00    -0.092 NA 
HETATM    9  C   UNL     1     -11.867  12.649  67.497  1.00  0.00    -0.334 C  
HETATM   10  H   UNL     1     -12.957  12.802  69.377  1.00  0.00     0.000 HD 
HETATM   11  C   UNL     1     -10.381  12.958  67.395  1.00  0.00    -0.233 C  
HETATM   12  C   UNL     1      -9.492  11.808  67.949  1.00  0.00    -0.191 C  
HETATM   13  N   UNL     1     -10.164  11.113  69.047  1.00  0.00    -0.201 NA 
HETATM   14  C   UNL     1     -10.450   9.720  70.637  1.00  0.00    -0.289 A  
HETATM   15  N   UNL     1      -9.674   9.976  69.561  1.00  0.00    -0.222 NA 
BRANCH  12  16
HETATM   16  C   UNL     1      -8.004  12.283  68.204  1.00  0.00    -0.155 C  
HETATM   17  C   UNL     1      -7.274  12.902  66.998  1.00  0.00     0.158 C  
HETATM   18  C   UNL     1      -7.833  14.277  66.681  1.00  0.00     0.706 C  
HETATM   19  O   UNL     1      -7.617  16.937  66.297  1.00  0.00    -0.286 OA 
HETATM   20  N   UNL     1      -7.599  15.185  67.795  1.00  0.00    -0.140 N  
HETATM   21  C   UNL     1      -7.757  13.241  69.391  1.00  0.00     0.562 C  
HETATM   22  C   UNL     1      -8.082  14.716  69.096  1.00  0.00    -0.078 C  
HETATM   23  C   UNL     1      -7.544  16.535  67.458  1.00  0.00    -0.148 C  
BRANCH  23  24
HETATM   24  C   UNL     1      -7.353  17.508  68.565  1.00  0.00    -0.243 C  
HETATM   25  C   UNL     1      -6.160  18.096  68.726  1.00  0.00    -0.202 C  
ENDBRANCH  23  24
ENDBRANCH  12  16
BRANCH  14  26
HETATM   26  C   UNL     1      -9.995   8.680  71.591  1.00  0.00    -0.353 A  
HETATM   27  C   UNL     1     -10.594   7.403  71.588  1.00  0.00    -0.229 A  
HETATM   28  C   UNL     1      -9.005   8.907  72.550  1.00  0.00     0.228 A  
HETATM   29  C   UNL     1     -10.178   6.386  72.462  1.00  0.00    -0.201 A  
HETATM   30  C   UNL     1      -8.598   7.899  73.440  1.00  0.00    -0.285 A  
HETATM   31  C   UNL     1      -9.154   6.620  73.378  1.00  0.00    -0.126 A  
BRANCH  31  32
HETATM   32  O   UNL     1      -8.832   5.572  74.209  1.00  0.00    -0.118 OA 
BRANCH  32  33
HETATM   33  C   UNL     1      -8.914   4.266  73.774  1.00  0.00    -0.091 A  
HETATM   34  C   UNL     1      -9.866   3.988  72.788  1.00  0.00    -0.200 A  
HETATM   35  C   UNL     1     -10.011   2.689  72.293  1.00  0.00    -0.237 A  
HETATM   36  C   UNL     1      -9.201   1.664  72.780  1.00  0.00    -0.092 A  
HETATM   37  C   UNL     1      -8.219   1.947  73.728  1.00  0.00    -0.047 A  
HETATM   38  C   UNL     1      -8.055   3.252  74.202  1.00  0.00    -0.070 A  
ENDBRANCH  32  33
ENDBRANCH  31  32
ENDBRANCH  14  26
ENDBRANCH   3   6
TORSDOF 6
ENDMDL
MODEL      149
REMARK 921   NORMALIZED FREE ENERGY PREDICTED BY IDOCK:   -2.67 KCAL/MOL
REMARK 922        TOTAL FREE ENERGY PREDICTED BY IDOCK:   -3.91 KCAL/MOL
REMARK 923 INTER-LIGAND FREE ENERGY PREDICTED BY IDOCK:   -3.18 KCAL/MOL
REMARK 924 INTRA-LIGAND FREE ENERGY PREDICTED BY IDOCK:   -0.73 KCAL/MOL
REMARK 927      BINDING AFFINITY PREDICTED BY RF-SCORE:    0.00 PKD
ROOT
HETATM    1  N   UNL     1      -6.557  18.167  66.745  1.00  0.00    -0.178 N  
HETATM    2  H1  UNL     1      -7.396  18.665  67.042  1.00  0.00     0.000 HD 
HETATM    3  C   UNL     1      -6.378  16.873  67.151  1.00  0.00    -0.186 C  
HETATM    4  H2  UNL     1      -5.864  18.626  66.155  1.00  0.00     0.000 HD 
HETATM    5  O   UNL     1      -5.371  16.275  66.794  1.00  0.00    -0.336 OA 
ENDROOT
BRANCH   3   6
HETATM    6  C   UNL     1      -7.442  16.320  67.976  1.00  0.00    -0.144 A  
HETATM    7  C   UNL     1      -8.444  17.069  68.588  1.00  0.00    -0.262 A  
HETATM    8  N   UNL     1      -8.660  18.407  68.737  1.00  0.00    -0.272 NA 
HETATM    9  C   UNL     1      -9.579  18.820  69.800  1.00  0.00     0.643 C  
HETATM   10  H   UNL     1      -8.201  19.090  68.134  1.00  0.00     0.000 HD 
HETATM   11  C   UNL     1     -10.872  18.029  69.661  1.00  0.00     1.189 C  
HETATM   12  C   UNL     1     -10.637  16.492  69.669  1.00  0.00    -0.302 C  
HETATM   13  N   UNL     1      -9.344  16.160  69.069  1.00  0.00    -0.237 NA 
HETATM   14  C   UNL     1      -7.741  14.953  68.346  1.00  0.00    -0.115 A  
HETATM   15  N   UNL     1      -8.843  14.919  69.128  1.00  0.00    -0.177 NA 
BRANCH  12  16
HETATM   16  C   UNL     1     -11.899  15.699  69.138  1.00  0.00    -0.378 C  
HETATM   17  C   UNL     1     -12.084  15.662  67.610  1.00  0.00     0.537 C  
HETATM   18  C   UNL     1     -11.043  14.765  66.965  1.00  0.00    -0.333 C  
HETATM   19  O   UNL     1     -10.269  12.684  65.436  1.00  0.00    -0.281 OA 
HETATM   20  N   UNL     1     -11.212  13.392  67.417  1.00  0.00    -0.278 N  
HETATM   21  C   UNL     1     -12.079  14.244  69.625  1.00  0.00    -0.396 C  
HETATM   22  C   UNL     1     -11.224  13.210  68.870  1.00  0.00    -0.277 C  
HETATM   23  C   UNL     1     -10.736  12.418  66.543  1.00  0.00    -0.236 C  
BRANCH  23  24
HETATM   24  C   UNL     1     -10.841  11.001  66.978  1.00  0.00    -0.334 C  
HETATM   25  C   UNL     1      -9.914  10.119  66.580  1.00  0.00    -0.283 C  
ENDBRANCH  23  24
ENDBRANCH  12  16
BRANCH  14  26
HETATM   26  C   UNL     1      -7.112  13.663  67.973  1.00  0.00    -0.132 A  
HETATM   27  C   UNL     1      -5.973  13.203  68.665  1.00  0.00    -0.075 A  
HETATM   28  C   UNL     1      -7.570  12.869  66.920  1.00  0.00     0.198 A  
HETATM   29  C   UNL     1      -5.360  11.979  68.355  1.00  0.00    -0.050 A  
HETATM   30  C   UNL     1      -6.949  11.651  66.592  1.00  0.00    -0.026 A  
HETATM   31  C   UNL     1      -5.864  11.179  67.331  1.00  0.00    -0.052 A  
BRANCH  31  32
HETATM   32  O   UNL     1      -5.183  10.008  67.085  1.00  0.00    -0.040 OA 
BRANCH  32  33
HETATM   33  C   UNL     1      -5.850   8.809  66.951  1.00  0.00    -0.052 A  
HETATM   34  C   UNL     1      -6.279   8.192  68.129  1.00  0.00    -0.050 A  
HETATM   35  C   UNL     1      -6.964   6.974  68.079  1.00  0.00    -0.083 A  
HETATM   36  C   UNL     1      -7.225   6.373  66.849  1.00  0.00    -0.074 A  
HETATM   37  C   UNL     1      -6.841   7.009  65.669  1.00  0.00    -0.052 A  
HETATM   38  C   UNL     1      -6.181   8.241  65.719  1.00  0.00    -0.052 A  
ENDBRANCH  32  33
ENDBRANCH  31  32
ENDBRANCH  14  26
ENDBRANCH   3   6
TORSDOF 6
ENDMDL
MODEL      150
REMARK 921   NORMALIZED FREE ENERGY PREDICTED BY IDOCK:   -2.66 KCAL/MOL
REMARK 922        TOTAL FREE ENERGY PREDICTED BY IDOCK:   -3.90 KCAL/MOL
REMARK 923 INTER-LIGAND FREE ENERGY PREDICTED BY IDOCK:   -3.63 KCAL/MOL
REMARK 924 INTRA-LIGAND FREE ENERGY PREDICTED BY IDOCK:   -0.27 KCAL/MOL
REMARK 927      BINDING AFFINITY PREDICTED BY RF-SCORE:    0.00 PKD
ROOT
HETATM    1  N   UNL     1      -8.259  16.999  66.094  1.00  0.00    -0.284 N  
HETATM    2  H1  UNL     1      -9.270  17.032  66.225  1.00  0.00     0.000 HD 
HETATM    3  C   UNL     1      -7.530  16.085  66.802  1.00  0.00    -0.183 C  
HETATM    4  H2  UNL     1      -7.800  17.638  65.445  1.00  0.00     0.000 HD 
HETATM    5  O   UNL     1      -6.317  16.045  66.645  1.00  0.00    -0.214 OA 
ENDROOT
BRANCH   3   6
HETATM    6  C   UNL     1      -8.297  15.216  67.684  1.00  0.00    -0.172 A  
HETATM    7  C   UNL     1      -9.278  15.651  68.571  1.00  0.00    -0.197 A  
HETATM    8  N   UNL     1      -9.697  16.882  68.980  1.00  0.00    -0.254 NA 
HETATM    9  C   UNL     1     -10.450  16.947  70.235  1.00  0.00     0.425 C  
HETATM   10  H   UNL     1      -9.494  17.721  68.437  1.00  0.00     0.000 HD 
HETATM   11  C   UNL     1     -11.583  15.932  70.177  1.00  0.00    -0.357 C  
HETATM   12  C   UNL     1     -11.079  14.491  69.882  1.00  0.00    -0.163 C  
HETATM   13  N   UNL     1      -9.890  14.519  69.031  1.00  0.00    -0.182 NA 
HETATM   14  C   UNL     1      -8.269  13.779  67.858  1.00  0.00    -0.166 A  
HETATM   15  N   UNL     1      -9.173  13.412  68.793  1.00  0.00     0.022 NA 
BRANCH  12  16
HETATM   16  C   UNL     1     -12.258  13.533  69.438  1.00  0.00    -0.278 C  
HETATM   17  C   UNL     1     -12.397  13.286  67.925  1.00  0.00     0.067 C  
HETATM   18  C   UNL     1     -11.269  12.404  67.419  1.00  0.00    -0.297 C  
HETATM   19  O   UNL     1     -10.287  10.216  66.188  1.00  0.00    -0.227 OA 
HETATM   20  N   UNL     1     -11.338  11.090  68.043  1.00  0.00    -0.298 N  
HETATM   21  C   UNL     1     -12.333  12.142  70.107  1.00  0.00    -0.219 C  
HETATM   22  C   UNL     1     -11.376  11.095  69.508  1.00  0.00    -0.290 C  
HETATM   23  C   UNL     1     -10.761  10.056  67.312  1.00  0.00    -0.244 C  
BRANCH  23  24
HETATM   24  C   UNL     1     -10.763   8.702  67.926  1.00  0.00    -0.158 C  
HETATM   25  C   UNL     1      -9.598   8.076  68.142  1.00  0.00    -0.165 C  
ENDBRANCH  23  24
ENDBRANCH  12  16
BRANCH  14  26
HETATM   26  C   UNL     1      -7.504  12.711  67.171  1.00  0.00    -0.055 A  
HETATM   27  C   UNL     1      -6.215  12.357  67.624  1.00  0.00    -0.132 A  
HETATM   28  C   UNL     1      -7.980  12.037  66.044  1.00  0.00     0.602 A  
HETATM   29  C   UNL     1      -5.467  11.339  67.013  1.00  0.00    -0.085 A  
HETATM   30  C   UNL     1      -7.227  11.029  65.417  1.00  0.00     0.293 A  
HETATM   31  C   UNL     1      -5.983  10.646  65.919  1.00  0.00    -0.133 A  
BRANCH  31  32
HETATM   32  O   UNL     1      -5.168   9.681  65.373  1.00  0.00    -0.038 OA 
BRANCH  32  33
HETATM   33  C   UNL     1      -5.613   8.388  65.194  1.00  0.00    -0.043 A  
HETATM   34  C   UNL     1      -5.609   7.896  63.886  1.00  0.00    -0.049 A  
HETATM   35  C   UNL     1      -6.043   6.594  63.620  1.00  0.00    -0.034 A  
HETATM   36  C   UNL     1      -6.479   5.780  64.664  1.00  0.00    -0.037 A  
HETATM   37  C   UNL     1      -6.440   6.251  65.975  1.00  0.00    -0.046 A  
HETATM   38  C   UNL     1      -5.979   7.543  66.243  1.00  0.00    -0.037 A  
ENDBRANCH  32  33
ENDBRANCH  31  32
ENDBRANCH  14  26
ENDBRANCH   3   6
TORSDOF 6
ENDMDL
MODEL      151
REMARK 921   NORMALIZED FREE ENERGY PREDICTED BY IDOCK:   -2.32 KCAL/MOL
REMARK 922        TOTAL FREE ENERGY PREDICTED BY IDOCK:   -3.43 KCAL/MOL
REMARK 923 INTER-LIGAND FREE ENERGY PREDICTED BY IDOCK:   -3.10 KCAL/MOL
REMARK 924 INTRA-LIGAND FREE ENERGY PREDICTED BY IDOCK:   -0.33 KCAL/MOL
REMARK 927      BINDING AFFINITY PREDICTED BY RF-SCORE:    0.00 PKD
ROOT
HETATM    1  N   UNL     1     -12.525  12.771  66.499  1.00  0.00     0.084 N  
HETATM    2  H1  UNL     1     -12.202  13.197  65.631  1.00  0.00     0.000 HD 
HETATM    3  C   UNL     1     -11.634  12.601  67.523  1.00  0.00    -0.359 C  
HETATM    4  H2  UNL     1     -13.496  12.477  66.603  1.00  0.00     0.000 HD 
HETATM    5  O   UNL     1     -12.022  12.090  68.566  1.00  0.00    -0.325 OA 
ENDROOT
BRANCH   3   6
HETATM    6  C   UNL     1     -10.282  13.074  67.266  1.00  0.00    -0.239 A  
HETATM    7  C   UNL     1      -9.898  14.413  67.246  1.00  0.00    -0.247 A  
HETATM    8  N   UNL     1     -10.586  15.589  67.301  1.00  0.00    -0.294 NA 
HETATM    9  C   UNL     1      -9.893  16.789  66.825  1.00  0.00    -0.276 C  
HETATM   10  H   UNL     1     -11.541  15.631  67.656  1.00  0.00     0.000 HD 
HETATM   11  C   UNL     1      -8.536  16.872  67.509  1.00  0.00    -0.204 C  
HETATM   12  C   UNL     1      -7.680  15.590  67.296  1.00  0.00    -0.212 C  
HETATM   13  N   UNL     1      -8.533  14.406  67.192  1.00  0.00    -0.213 NA 
HETATM   14  C   UNL     1      -9.059  12.348  66.997  1.00  0.00    -0.207 A  
HETATM   15  N   UNL     1      -8.037  13.216  66.827  1.00  0.00     0.097 NA 
BRANCH  12  16
HETATM   16  C   UNL     1      -6.467  15.515  68.309  1.00  0.00    -0.122 C  
HETATM   17  C   UNL     1      -6.826  15.209  69.775  1.00  0.00    -0.179 C  
HETATM   18  C   UNL     1      -7.259  13.762  69.930  1.00  0.00     0.486 C  
HETATM   19  O   UNL     1      -7.085  11.296  71.005  1.00  0.00     1.313 OA 
HETATM   20  N   UNL     1      -6.160  12.869  69.596  1.00  0.00    -0.117 N  
HETATM   21  C   UNL     1      -5.299  14.571  67.949  1.00  0.00    -0.082 C  
HETATM   22  C   UNL     1      -5.552  13.090  68.282  1.00  0.00    -0.081 C  
HETATM   23  C   UNL     1      -6.214  11.614  70.196  1.00  0.00    -0.121 C  
BRANCH  23  24
HETATM   24  C   UNL     1      -5.140  10.645  69.851  1.00  0.00    -0.039 C  
HETATM   25  C   UNL     1      -5.469   9.453  69.337  1.00  0.00    -0.035 C  
ENDBRANCH  23  24
ENDBRANCH  12  16
BRANCH  14  26
HETATM   26  C   UNL     1      -8.756  10.897  66.949  1.00  0.00    -0.144 A  
HETATM   27  C   UNL     1      -8.208  10.326  65.781  1.00  0.00    -0.147 A  
HETATM   28  C   UNL     1      -9.023  10.028  68.008  1.00  0.00    -0.128 A  
HETATM   29  C   UNL     1      -7.890   8.961  65.702  1.00  0.00    -0.096 A  
HETATM   30  C   UNL     1      -8.723   8.656  67.927  1.00  0.00    -0.137 A  
HETATM   31  C   UNL     1      -8.120   8.120  66.789  1.00  0.00    -0.103 A  
BRANCH  31  32
HETATM   32  O   UNL     1      -7.797   6.795  66.610  1.00  0.00    -0.103 OA 
BRANCH  32  33
HETATM   33  C   UNL     1      -8.256   5.825  67.476  1.00  0.00    -0.101 A  
HETATM   34  C   UNL     1      -8.307   6.164  68.832  1.00  0.00    -0.115 A  
HETATM   35  C   UNL     1      -8.762   5.238  69.774  1.00  0.00    -0.116 A  
HETATM   36  C   UNL     1      -9.170   3.970  69.363  1.00  0.00    -0.216 A  
HETATM   37  C   UNL     1      -9.165   3.644  68.008  1.00  0.00    -0.220 A  
HETATM   38  C   UNL     1      -8.738   4.582  67.062  1.00  0.00    -0.104 A  
ENDBRANCH  32  33
ENDBRANCH  31  32
ENDBRANCH  14  26
ENDBRANCH   3   6
TORSDOF 6
ENDMDL
MODEL      152
REMARK 921   NORMALIZED FREE ENERGY PREDICTED BY IDOCK:   -2.31 KCAL/MOL
REMARK 922        TOTAL FREE ENERGY PREDICTED BY IDOCK:   -3.43 KCAL/MOL
REMARK 923 INTER-LIGAND FREE ENERGY PREDICTED BY IDOCK:   -3.03 KCAL/MOL
REMARK 924 INTRA-LIGAND FREE ENERGY PREDICTED BY IDOCK:   -0.39 KCAL/MOL
REMARK 927      BINDING AFFINITY PREDICTED BY RF-SCORE:    0.00 PKD
ROOT
HETATM    1  N   UNL     1      -9.378   3.787  69.846  1.00  0.00    -0.161 N  
HETATM    2  H1  UNL     1      -8.905   4.137  69.014  1.00  0.00     0.000 HD 
HETATM    3  C   UNL     1      -9.499   4.609  70.933  1.00  0.00    -0.166 C  
HETATM    4  H2  UNL     1      -9.756   2.841  69.868  1.00  0.00     0.000 HD 
HETATM    5  O   UNL     1     -10.068   4.188  71.932  1.00  0.00    -0.179 OA 
ENDROOT
BRANCH   3   6
HETATM    6  C   UNL     1      -8.936   5.943  70.779  1.00  0.00    -0.155 A  
HETATM    7  C   UNL     1      -8.629   6.802  71.831  1.00  0.00    -0.120 A  
HETATM    8  N   UNL     1      -8.859   6.763  73.174  1.00  0.00    -0.123 NA 
HETATM    9  C   UNL     1      -8.776   8.032  73.901  1.00  0.00    -0.244 C  
HETATM   10  H   UNL     1      -9.079   5.889  73.651  1.00  0.00     0.000 HD 
HETATM   11  C   UNL     1      -7.459   8.710  73.551  1.00  0.00     0.045 C  
HETATM   12  C   UNL     1      -7.279   8.911  72.020  1.00  0.00     0.092 C  
HETATM   13  N   UNL     1      -7.930   7.835  71.273  1.00  0.00    -0.092 NA 
HETATM   14  C   UNL     1      -8.554   6.679  69.592  1.00  0.00    -0.133 A  
HETATM   15  N   UNL     1      -8.066   7.890  69.941  1.00  0.00    -0.116 NA 
BRANCH  12  16
HETATM   16  C   UNL     1      -5.779   9.242  71.640  1.00  0.00    -0.074 C  
HETATM   17  C   UNL     1      -5.359   8.923  70.194  1.00  0.00    -0.028 C  
HETATM   18  C   UNL     1      -5.995   9.901  69.222  1.00  0.00    -0.037 C  
HETATM   19  O   UNL     1      -5.908  11.757  67.269  1.00  0.00    -0.088 OA 
HETATM   20  N   UNL     1      -5.518  11.251  69.483  1.00  0.00    -0.045 N  
HETATM   21  C   UNL     1      -5.274  10.674  71.925  1.00  0.00     0.086 C  
HETATM   22  C   UNL     1      -5.677  11.714  70.864  1.00  0.00    -0.013 C  
HETATM   23  C   UNL     1      -5.561  12.116  68.393  1.00  0.00    -0.054 C  
BRANCH  23  24
HETATM   24  C   UNL     1      -5.129  13.521  68.618  1.00  0.00    -0.074 C  
HETATM   25  C   UNL     1      -6.055  14.483  68.732  1.00  0.00    -0.087 C  
ENDBRANCH  23  24
ENDBRANCH  12  16
BRANCH  14  26
HETATM   26  C   UNL     1      -8.553   6.314  68.155  1.00  0.00    -0.116 A  
HETATM   27  C   UNL     1      -9.681   6.588  67.353  1.00  0.00    -0.150 A  
HETATM   28  C   UNL     1      -7.485   5.662  67.536  1.00  0.00    -0.081 A  
HETATM   29  C   UNL     1      -9.711   6.276  65.984  1.00  0.00     0.067 A  
HETATM   30  C   UNL     1      -7.518   5.330  66.170  1.00  0.00    -0.083 A  
HETATM   31  C   UNL     1      -8.614   5.669  65.377  1.00  0.00    -0.150 A  
BRANCH  31  32
HETATM   32  O   UNL     1      -8.745   5.380  64.037  1.00  0.00    -0.082 OA 
BRANCH  32  33
HETATM   33  C   UNL     1      -8.892   4.081  63.598  1.00  0.00    -0.118 A  
HETATM   34  C   UNL     1     -10.198   3.635  63.376  1.00  0.00    -0.205 A  
HETATM   35  C   UNL     1     -10.431   2.331  62.929  1.00  0.00    -0.140 A  
HETATM   36  C   UNL     1      -9.358   1.472  62.697  1.00  0.00    -0.085 A  
HETATM   37  C   UNL     1      -8.052   1.929  62.872  1.00  0.00    -0.061 A  
HETATM   38  C   UNL     1      -7.819   3.242  63.292  1.00  0.00    -0.068 A  
ENDBRANCH  32  33
ENDBRANCH  31  32
ENDBRANCH  14  26
ENDBRANCH   3   6
TORSDOF 6
ENDMDL
MODEL      153
REMARK 921   NORMALIZED FREE ENERGY PREDICTED BY IDOCK:   -2.05 KCAL/MOL
REMARK 922        TOTAL FREE ENERGY PREDICTED BY IDOCK:   -3.07 KCAL/MOL
REMARK 923 INTER-LIGAND FREE ENERGY PREDICTED BY IDOCK:   -3.11 KCAL/MOL
REMARK 924 INTRA-LIGAND FREE ENERGY PREDICTED BY IDOCK:    0.04 KCAL/MOL
REMARK 927      BINDING AFFINITY PREDICTED BY RF-SCORE:    0.00 PKD
ROOT
HETATM    1  N   UNL     1     -11.085   4.174  71.180  1.00  0.00     1.417 N  
HETATM    2  H1  UNL     1     -10.774   4.304  70.218  1.00  0.00     0.000 HD 
HETATM    3  C   UNL     1     -10.607   5.011  72.150  1.00  0.00    -0.193 C  
HETATM    4  H2  UNL     1     -11.743   3.431  71.415  1.00  0.00     0.000 HD 
HETATM    5  O   UNL     1     -10.982   4.854  73.305  1.00  0.00    -0.264 OA 
ENDROOT
BRANCH   3   6
HETATM    6  C   UNL     1      -9.688   6.043  71.693  1.00  0.00    -0.180 A  
HETATM    7  C   UNL     1      -8.883   6.815  72.525  1.00  0.00    -0.126 A  
HETATM    8  N   UNL     1      -8.797   6.964  73.878  1.00  0.00    -0.153 NA 
HETATM    9  C   UNL     1      -8.136   8.172  74.376  1.00  0.00    -0.234 C  
HETATM   10  H   UNL     1      -9.178   6.264  74.515  1.00  0.00     0.000 HD 
HETATM   11  C   UNL     1      -6.787   8.310  73.685  1.00  0.00    -0.153 C  
HETATM   12  C   UNL     1      -6.907   8.317  72.135  1.00  0.00    -0.083 C  
HETATM   13  N   UNL     1      -8.030   7.488  71.696  1.00  0.00    -0.089 NA 
HETATM   14  C   UNL     1      -9.368   6.503  70.358  1.00  0.00    -0.162 A  
HETATM   15  N   UNL     1      -8.442   7.485  70.421  1.00  0.00    -0.139 NA 
BRANCH  12  16
HETATM   16  C   UNL     1      -5.512   8.065  71.433  1.00  0.00    -0.034 C  
HETATM   17  C   UNL     1      -5.247   6.628  70.947  1.00  0.00    -0.019 C  
HETATM   18  C   UNL     1      -6.101   6.307  69.733  1.00  0.00    -0.026 C  
HETATM   19  O   UNL     1      -6.462   5.527  67.178  1.00  0.00    -0.041 OA 
HETATM   20  N   UNL     1      -5.742   7.175  68.621  1.00  0.00    -0.021 N  
HETATM   21  C   UNL     1      -5.130   8.991  70.257  1.00  0.00    -0.027 C  
HETATM   22  C   UNL     1      -5.774   8.610  68.912  1.00  0.00    -0.040 C  
HETATM   23  C   UNL     1      -6.015   6.660  67.356  1.00  0.00    -0.017 C  
BRANCH  23  24
HETATM   24  C   UNL     1      -5.711   7.525  66.187  1.00  0.00    -0.036 C  
HETATM   25  C   UNL     1      -6.426   7.387  65.062  1.00  0.00    -0.037 C  
ENDBRANCH  23  24
ENDBRANCH  12  16
BRANCH  14  26
HETATM   26  C   UNL     1      -9.817   6.053  69.018  1.00  0.00    -0.182 A  
HETATM   27  C   UNL     1      -9.263   4.893  68.437  1.00  0.00    -0.157 A  
HETATM   28  C   UNL     1     -10.756   6.750  68.256  1.00  0.00    -0.290 A  
HETATM   29  C   UNL     1      -9.675   4.424  67.180  1.00  0.00    -0.230 A  
HETATM   30  C   UNL     1     -11.158   6.295  66.988  1.00  0.00    -0.379 A  
HETATM   31  C   UNL     1     -10.650   5.109  66.458  1.00  0.00    -0.260 A  
BRANCH  31  32
HETATM   32  O   UNL     1     -10.971   4.587  65.226  1.00  0.00    -0.252 OA 
BRANCH  32  33
HETATM   33  C   UNL     1     -10.019   3.974  64.440  1.00  0.00    -0.186 A  
HETATM   34  C   UNL     1     -10.378   2.762  63.844  1.00  0.00    -0.125 A  
HETATM   35  C   UNL     1      -9.470   2.079  63.031  1.00  0.00    -0.091 A  
HETATM   36  C   UNL     1      -8.200   2.609  62.808  1.00  0.00    -0.073 A  
HETATM   37  C   UNL     1      -7.855   3.841  63.361  1.00  0.00    -0.078 A  
HETATM   38  C   UNL     1      -8.774   4.537  64.151  1.00  0.00    -0.143 A  
ENDBRANCH  32  33
ENDBRANCH  31  32
ENDBRANCH  14  26
ENDBRANCH   3   6
TORSDOF 6
ENDMDL
MODEL      154
REMARK 921   NORMALIZED FREE ENERGY PREDICTED BY IDOCK:   -0.51 KCAL/MOL
REMARK 922        TOTAL FREE ENERGY PREDICTED BY IDOCK:   -0.99 KCAL/MOL
REMARK 923 INTER-LIGAND FREE ENERGY PREDICTED BY IDOCK:   -1.34 KCAL/MOL
REMARK 924 INTRA-LIGAND FREE ENERGY PREDICTED BY IDOCK:    0.35 KCAL/MOL
REMARK 927      BINDING AFFINITY PREDICTED BY RF-SCORE:    0.00 PKD
ROOT
HETATM    1  N   UNL     1      -9.702   6.555  66.451  1.00  0.00    -0.333 N  
HETATM    2  H1  UNL     1     -10.443   7.255  66.439  1.00  0.00     0.000 HD 
HETATM    3  C   UNL     1      -9.173   6.171  67.652  1.00  0.00    -0.107 C  
HETATM    4  H2  UNL     1      -9.361   6.147  65.580  1.00  0.00     0.000 HD 
HETATM    5  O   UNL     1      -8.284   5.330  67.665  1.00  0.00    -0.100 OA 
ENDROOT
BRANCH   3   6
HETATM    6  C   UNL     1      -9.751   6.809  68.826  1.00  0.00    -0.132 A  
HETATM    7  C   UNL     1     -10.398   6.136  69.859  1.00  0.00    -0.213 A  
HETATM    8  N   UNL     1     -10.798   4.844  70.034  1.00  0.00     0.313 NA 
HETATM    9  C   UNL     1     -11.823   4.596  71.051  1.00  0.00     3.958 C  
HETATM   10  H   UNL     1     -10.402   4.085  69.480  1.00  0.00     0.000 HD 
HETATM   11  C   UNL     1     -11.390   5.256  72.352  1.00  0.00    -0.190 C  
HETATM   12  C   UNL     1     -11.102   6.775  72.183  1.00  0.00    -0.250 C  
HETATM   13  N   UNL     1     -10.584   7.063  70.846  1.00  0.00    -0.215 NA 
HETATM   14  C   UNL     1      -9.795   8.200  69.223  1.00  0.00    -0.182 A  
HETATM   15  N   UNL     1     -10.435   8.320  70.407  1.00  0.00    -0.210 NA 
BRANCH  12  16
HETATM   16  C   UNL     1     -10.290   7.361  73.409  1.00  0.00    -0.411 C  
HETATM   17  C   UNL     1      -9.927   6.362  74.522  1.00  0.00    -0.370 C  
HETATM   18  C   UNL     1      -8.847   5.404  74.052  1.00  0.00    -0.120 C  
HETATM   19  O   UNL     1      -6.433   4.216  74.235  1.00  0.00    -0.044 OA 
HETATM   20  N   UNL     1      -7.621   6.134  73.759  1.00  0.00    -0.091 N  
HETATM   21  C   UNL     1      -8.994   8.140  73.095  1.00  0.00    -0.330 C  
HETATM   22  C   UNL     1      -7.767   7.251  72.824  1.00  0.00    -0.087 C  
HETATM   23  C   UNL     1      -6.450   5.388  73.859  1.00  0.00    -0.073 C  
BRANCH  23  24
HETATM   24  C   UNL     1      -5.174   6.072  73.525  1.00  0.00    -0.031 C  
HETATM   25  C   UNL     1      -5.136   6.927  72.493  1.00  0.00    -0.036 C  
ENDBRANCH  23  24
ENDBRANCH  12  16
BRANCH  14  26
HETATM   26  C   UNL     1      -9.229   9.426  68.611  1.00  0.00    -0.131 A  
HETATM   27  C   UNL     1      -7.979   9.921  69.039  1.00  0.00    -0.101 A  
HETATM   28  C   UNL     1      -9.895  10.166  67.632  1.00  0.00    -0.201 A  
HETATM   29  C   UNL     1      -7.400  11.068  68.470  1.00  0.00    -0.101 A  
HETATM   30  C   UNL     1      -9.329  11.325  67.073  1.00  0.00    -0.183 A  
HETATM   31  C   UNL     1      -8.062  11.762  67.460  1.00  0.00    -0.152 A  
BRANCH  31  32
HETATM   32  O   UNL     1      -7.428  12.886  66.981  1.00  0.00    -0.058 OA 
BRANCH  32  33
HETATM   33  C   UNL     1      -7.834  14.149  67.357  1.00  0.00    -0.177 A  
HETATM   34  C   UNL     1      -9.115  14.544  66.960  1.00  0.00    -0.254 A  
HETATM   35  C   UNL     1      -9.601  15.808  67.303  1.00  0.00    -0.220 A  
HETATM   36  C   UNL     1      -8.809  16.681  68.048  1.00  0.00    -0.206 A  
HETATM   37  C   UNL     1      -7.550  16.273  68.486  1.00  0.00    -0.179 A  
HETATM   38  C   UNL     1      -7.076  14.997  68.167  1.00  0.00    -0.126 A  
ENDBRANCH  32  33
ENDBRANCH  31  32
ENDBRANCH  14  26
ENDBRANCH   3   6
TORSDOF 6
ENDMDL
MODEL      155
REMARK 921   NORMALIZED FREE ENERGY PREDICTED BY IDOCK:   -0.44 KCAL/MOL
REMARK 922        TOTAL FREE ENERGY PREDICTED BY IDOCK:   -0.90 KCAL/MOL
REMARK 923 INTER-LIGAND FREE ENERGY PREDICTED BY IDOCK:   -3.11 KCAL/MOL
REMARK 924 INTRA-LIGAND FREE ENERGY PREDICTED BY IDOCK:    2.21 KCAL/MOL
REMARK 927      BINDING AFFINITY PREDICTED BY RF-SCORE:    0.00 PKD
ROOT
HETATM    1  N   UNL     1     -12.607  16.275  64.700  1.00  0.00     1.262 N  
HETATM    2  H1  UNL     1     -11.990  16.832  64.109  1.00  0.00     0.000 HD 
HETATM    3  C   UNL     1     -12.080  15.630  65.784  1.00  0.00     0.875 C  
HETATM    4  H2  UNL     1     -13.601  16.201  64.486  1.00  0.00     0.000 HD 
HETATM    5  O   UNL     1     -12.821  14.962  66.494  1.00  0.00     0.506 OA 
ENDROOT
BRANCH   3   6
HETATM    6  C   UNL     1     -10.653  15.824  65.999  1.00  0.00    -0.334 A  
HETATM    7  C   UNL     1     -10.042  17.057  66.215  1.00  0.00    -0.320 A  
HETATM    8  N   UNL     1     -10.480  18.347  66.156  1.00  0.00    -0.428 NA 
HETATM    9  C   UNL     1      -9.462  19.391  66.023  1.00  0.00    -0.205 C  
HETATM   10  H   UNL     1     -11.474  18.574  66.202  1.00  0.00     0.000 HD 
HETATM   11  C   UNL     1      -8.404  19.181  67.096  1.00  0.00    -0.300 C  
HETATM   12  C   UNL     1      -7.779  17.758  67.048  1.00  0.00    -0.210 C  
HETATM   13  N   UNL     1      -8.757  16.774  66.584  1.00  0.00    -0.227 NA 
HETATM   14  C   UNL     1      -9.565  14.871  66.059  1.00  0.00    -0.313 A  
HETATM   15  N   UNL     1      -8.401  15.517  66.288  1.00  0.00    -0.124 NA 
BRANCH  12  16
HETATM   16  C   UNL     1      -6.989  17.414  68.376  1.00  0.00    -0.201 C  
HETATM   17  C   UNL     1      -7.751  16.578  69.420  1.00  0.00    -0.037 C  
HETATM   18  C   UNL     1      -7.910  15.144  68.948  1.00  0.00    -0.164 C  
HETATM   19  O   UNL     1      -7.614  12.476  69.200  1.00  0.00     0.062 OA 
HETATM   20  N   UNL     1      -6.606  14.512  68.810  1.00  0.00    -0.084 N  
HETATM   21  C   UNL     1      -5.603  16.750  68.226  1.00  0.00    -0.115 C  
HETATM   22  C   UNL     1      -5.648  15.233  67.967  1.00  0.00    -0.136 C  
HETATM   23  C   UNL     1      -6.604  13.125  68.929  1.00  0.00    -0.104 C  
BRANCH  23  24
HETATM   24  C   UNL     1      -5.305  12.426  68.748  1.00  0.00    -0.054 C  
HETATM   25  C   UNL     1      -5.278  11.235  68.134  1.00  0.00    -0.042 C  
ENDBRANCH  23  24
ENDBRANCH  12  16
BRANCH  14  26
HETATM   26  C   UNL     1      -9.537  13.390  65.981  1.00  0.00    -0.174 A  
HETATM   27  C   UNL     1      -8.730  12.648  66.869  1.00  0.00    -0.175 A  
HETATM   28  C   UNL     1     -10.254  12.664  65.028  1.00  0.00    -0.294 A  
HETATM   29  C   UNL     1      -8.691  11.245  66.840  1.00  0.00    -0.157 A  
HETATM   30  C   UNL     1     -10.203  11.260  64.981  1.00  0.00    -0.339 A  
HETATM   31  C   UNL     1      -9.453  10.539  65.910  1.00  0.00    -0.190 A  
BRANCH  31  32
HETATM   32  O   UNL     1      -9.331   9.169  65.943  1.00  0.00    -0.207 OA 
BRANCH  32  33
HETATM   33  C   UNL     1      -9.339   8.479  67.137  1.00  0.00    -0.152 A  
HETATM   34  C   UNL     1      -9.369   7.084  67.059  1.00  0.00    -0.174 A  
HETATM   35  C   UNL     1      -9.377   6.312  68.224  1.00  0.00    -0.112 A  
HETATM   36  C   UNL     1      -9.351   6.934  69.471  1.00  0.00    -0.147 A  
HETATM   37  C   UNL     1      -9.273   8.323  69.552  1.00  0.00    -0.158 A  
HETATM   38  C   UNL     1      -9.236   9.094  68.386  1.00  0.00    -0.132 A  
ENDBRANCH  32  33
ENDBRANCH  31  32
ENDBRANCH  14  26
ENDBRANCH   3   6
TORSDOF 6
ENDMDL
MODEL      156
REMARK 921   NORMALIZED FREE ENERGY PREDICTED BY IDOCK:    0.03 KCAL/MOL
REMARK 922        TOTAL FREE ENERGY PREDICTED BY IDOCK:   -0.26 KCAL/MOL
REMARK 923 INTER-LIGAND FREE ENERGY PREDICTED BY IDOCK:   -1.16 KCAL/MOL
REMARK 924 INTRA-LIGAND FREE ENERGY PREDICTED BY IDOCK:    0.91 KCAL/MOL
REMARK 927      BINDING AFFINITY PREDICTED BY RF-SCORE:    0.00 PKD
ROOT
HETATM    1  N   UNL     1      -9.915  14.588  68.589  1.00  0.00    -0.233 N  
HETATM    2  H1  UNL     1      -9.544  13.704  68.939  1.00  0.00     0.000 HD 
HETATM    3  C   UNL     1     -10.413  14.639  67.317  1.00  0.00    -0.266 C  
HETATM    4  H2  UNL     1      -9.914  15.419  69.179  1.00  0.00     0.000 HD 
HETATM    5  O   UNL     1     -10.858  15.699  66.897  1.00  0.00    -0.315 OA 
ENDROOT
BRANCH   3   6
HETATM    6  C   UNL     1     -10.376  13.386  66.576  1.00  0.00    -0.284 A  
HETATM    7  C   UNL     1     -11.211  13.069  65.508  1.00  0.00    -0.288 A  
HETATM    8  N   UNL     1     -12.303  13.671  64.958  1.00  0.00    -0.446 NA 
HETATM    9  C   UNL     1     -13.175  12.839  64.125  1.00  0.00     0.430 C  
HETATM   10  H   UNL     1     -12.505  14.658  65.119  1.00  0.00     0.000 HD 
HETATM   11  C   UNL     1     -12.320  12.119  63.092  1.00  0.00    -0.383 C  
HETATM   12  C   UNL     1     -11.176  11.288  63.738  1.00  0.00    -0.149 C  
HETATM   13  N   UNL     1     -10.705  11.919  64.971  1.00  0.00    -0.282 NA 
HETATM   14  C   UNL     1      -9.523  12.225  66.720  1.00  0.00    -0.222 A  
HETATM   15  N   UNL     1      -9.853  11.296  65.796  1.00  0.00    -0.221 NA 
BRANCH  12  16
HETATM   16  C   UNL     1     -10.076  10.873  62.678  1.00  0.00     0.019 C  
HETATM   17  C   UNL     1      -8.767  11.682  62.708  1.00  0.00     0.277 C  
HETATM   18  C   UNL     1      -7.949  11.333  63.939  1.00  0.00     0.904 C  
HETATM   19  O   UNL     1      -5.717  10.478  65.186  1.00  0.00    -0.126 OA 
HETATM   20  N   UNL     1      -7.549   9.934  63.897  1.00  0.00    -0.137 N  
HETATM   21  C   UNL     1      -9.659   9.387  62.632  1.00  0.00     0.688 C  
HETATM   22  C   UNL     1      -8.642   8.977  63.713  1.00  0.00    -0.130 C  
HETATM   23  C   UNL     1      -6.396   9.626  64.614  1.00  0.00    -0.091 C  
BRANCH  23  24
HETATM   24  C   UNL     1      -5.970   8.202  64.643  1.00  0.00    -0.048 C  
HETATM   25  C   UNL     1      -5.549   7.617  63.514  1.00  0.00    -0.045 C  
ENDBRANCH  23  24
ENDBRANCH  12  16
BRANCH  14  26
HETATM   26  C   UNL     1      -8.377  11.939  67.617  1.00  0.00    -0.152 A  
HETATM   27  C   UNL     1      -8.028  10.606  67.919  1.00  0.00    -0.106 A  
HETATM   28  C   UNL     1      -7.623  12.941  68.231  1.00  0.00    -0.134 A  
HETATM   29  C   UNL     1      -6.939  10.294  68.748  1.00  0.00    -0.067 A  
HETATM   30  C   UNL     1      -6.543  12.634  69.077  1.00  0.00    -0.100 A  
HETATM   31  C   UNL     1      -6.169  11.310  69.311  1.00  0.00    -0.073 A  
BRANCH  31  32
HETATM   32  O   UNL     1      -5.138  10.908  70.128  1.00  0.00    -0.045 OA 
BRANCH  32  33
HETATM   33  C   UNL     1      -5.383  10.300  71.341  1.00  0.00    -0.056 A  
HETATM   34  C   UNL     1      -5.630   8.924  71.318  1.00  0.00    -0.043 A  
HETATM   35  C   UNL     1      -5.886   8.234  72.506  1.00  0.00    -0.053 A  
HETATM   36  C   UNL     1      -5.892   8.917  73.721  1.00  0.00    -0.096 A  
HETATM   37  C   UNL     1      -5.600  10.279  73.753  1.00  0.00     0.578 A  
HETATM   38  C   UNL     1      -5.316  10.964  72.568  1.00  0.00     0.528 A  
ENDBRANCH  32  33
ENDBRANCH  31  32
ENDBRANCH  14  26
ENDBRANCH   3   6
TORSDOF 6
ENDMDL
MODEL      157
REMARK 921   NORMALIZED FREE ENERGY PREDICTED BY IDOCK:    0.44 KCAL/MOL
REMARK 922        TOTAL FREE ENERGY PREDICTED BY IDOCK:    0.29 KCAL/MOL
REMARK 923 INTER-LIGAND FREE ENERGY PREDICTED BY IDOCK:   -2.20 KCAL/MOL
REMARK 924 INTRA-LIGAND FREE ENERGY PREDICTED BY IDOCK:    2.49 KCAL/MOL
REMARK 927      BINDING AFFINITY PREDICTED BY RF-SCORE:    0.00 PKD
ROOT
HETATM    1  N   UNL     1     -13.048   8.181  72.606  1.00  0.00    -0.571 N  
HETATM    2  H1  UNL     1     -12.338   7.980  71.902  1.00  0.00     0.000 HD 
HETATM    3  C   UNL     1     -13.536   9.454  72.709  1.00  0.00    -0.112 C  
HETATM    4  H2  UNL     1     -13.389   7.444  73.222  1.00  0.00     0.000 HD 
HETATM    5  O   UNL     1     -14.389   9.694  73.554  1.00  0.00     0.717 OA 
ENDROOT
BRANCH   3   6
HETATM    6  C   UNL     1     -12.987  10.417  71.764  1.00  0.00    -0.580 A  
HETATM    7  C   UNL     1     -13.198  11.792  71.819  1.00  0.00    -0.329 A  
HETATM    8  N   UNL     1     -14.002  12.591  72.576  1.00  0.00    -0.505 NA 
HETATM    9  C   UNL     1     -14.274  13.937  72.066  1.00  0.00    -0.446 C  
HETATM   10  H   UNL     1     -14.397  12.265  73.458  1.00  0.00     0.000 HD 
HETATM   11  C   UNL     1     -12.952  14.603  71.714  1.00  0.00    -0.410 C  
HETATM   12  C   UNL     1     -12.110  13.766  70.710  1.00  0.00    -0.319 C  
HETATM   13  N   UNL     1     -12.341  12.334  70.902  1.00  0.00    -0.347 NA 
HETATM   14  C   UNL     1     -12.129  10.231  70.613  1.00  0.00    -0.338 A  
HETATM   15  N   UNL     1     -11.869  11.426  70.038  1.00  0.00    -0.333 NA 
BRANCH  12  16
HETATM   16  C   UNL     1     -10.605  14.249  70.654  1.00  0.00     1.042 C  
HETATM   17  C   UNL     1      -9.982  14.366  69.251  1.00  0.00     0.008 C  
HETATM   18  C   UNL     1     -10.563  15.552  68.502  1.00  0.00    -0.246 C  
HETATM   19  O   UNL     1     -10.375  17.884  67.163  1.00  0.00    -0.344 OA 
HETATM   20  N   UNL     1     -10.230  16.792  69.188  1.00  0.00    -0.301 N  
HETATM   21  C   UNL     1     -10.253  15.562  71.388  1.00  0.00     1.187 C  
HETATM   22  C   UNL     1     -10.598  16.842  70.605  1.00  0.00     0.683 C  
HETATM   23  C   UNL     1     -10.201  17.926  68.381  1.00  0.00    -0.394 C  
BRANCH  23  24
HETATM   24  C   UNL     1      -9.913  19.226  69.040  1.00  0.00    -0.446 C  
HETATM   25  C   UNL     1      -9.896  19.297  70.378  1.00  0.00     1.179 C  
ENDBRANCH  23  24
ENDBRANCH  12  16
BRANCH  14  26
HETATM   26  C   UNL     1     -11.480   9.027  70.042  1.00  0.00    -0.005 A  
HETATM   27  C   UNL     1     -10.932   9.065  68.743  1.00  0.00     0.030 A  
HETATM   28  C   UNL     1     -11.409   7.807  70.719  1.00  0.00    -0.291 A  
HETATM   29  C   UNL     1     -10.292   7.951  68.175  1.00  0.00    -0.249 A  
HETATM   30  C   UNL     1     -10.787   6.684  70.147  1.00  0.00    -0.330 A  
HETATM   31  C   UNL     1     -10.190   6.758  68.888  1.00  0.00    -0.175 A  
BRANCH  31  32
HETATM   32  O   UNL     1      -9.567   5.716  68.240  1.00  0.00    -0.114 OA 
BRANCH  32  33
HETATM   33  C   UNL     1      -8.991   5.890  66.999  1.00  0.00    -0.116 A  
HETATM   34  C   UNL     1      -7.816   5.175  66.745  1.00  0.00    -0.100 A  
HETATM   35  C   UNL     1      -7.172   5.295  65.511  1.00  0.00    -0.068 A  
HETATM   36  C   UNL     1      -7.702   6.126  64.525  1.00  0.00    -0.105 A  
HETATM   37  C   UNL     1      -8.899   6.802  64.758  1.00  0.00     0.455 A  
HETATM   38  C   UNL     1      -9.558   6.660  65.982  1.00  0.00     0.072 A  
ENDBRANCH  32  33
ENDBRANCH  31  32
ENDBRANCH  14  26
ENDBRANCH   3   6
TORSDOF 6
ENDMDL
MODEL      158
REMARK 921   NORMALIZED FREE ENERGY PREDICTED BY IDOCK:    1.44 KCAL/MOL
REMARK 922        TOTAL FREE ENERGY PREDICTED BY IDOCK:    1.64 KCAL/MOL
REMARK 923 INTER-LIGAND FREE ENERGY PREDICTED BY IDOCK:   -0.29 KCAL/MOL
REMARK 924 INTRA-LIGAND FREE ENERGY PREDICTED BY IDOCK:    1.93 KCAL/MOL
REMARK 927      BINDING AFFINITY PREDICTED BY RF-SCORE:    0.00 PKD
ROOT
HETATM    1  N   UNL     1      -9.074  20.346  66.975  1.00  0.00    -0.505 N  
HETATM    2  H1  UNL     1      -8.331  20.619  67.617  1.00  0.00     0.000 HD 
HETATM    3  C   UNL     1      -9.193  19.031  66.621  1.00  0.00    -0.329 C  
HETATM    4  H2  UNL     1      -9.719  21.043  66.603  1.00  0.00     0.000 HD 
HETATM    5  O   UNL     1     -10.086  18.704  65.850  1.00  0.00    -0.522 OA 
ENDROOT
BRANCH   3   6
HETATM    6  C   UNL     1      -8.227  18.126  67.228  1.00  0.00    -0.234 A  
HETATM    7  C   UNL     1      -7.192  18.520  68.072  1.00  0.00    -0.245 A  
HETATM    8  N   UNL     1      -6.695  19.732  68.450  1.00  0.00    -0.279 NA 
HETATM    9  C   UNL     1      -5.340  19.753  69.006  1.00  0.00    -0.197 C  
HETATM   10  H   UNL     1      -7.243  20.586  68.348  1.00  0.00     0.000 HD 
HETATM   11  C   UNL     1      -5.251  18.713  70.114  1.00  0.00    -0.213 C  
HETATM   12  C   UNL     1      -5.653  17.291  69.631  1.00  0.00    -0.212 C  
HETATM   13  N   UNL     1      -6.673  17.364  68.585  1.00  0.00    -0.192 NA 
HETATM   14  C   UNL     1      -8.094  16.687  67.145  1.00  0.00    -0.182 A  
HETATM   15  N   UNL     1      -7.042  16.280  67.889  1.00  0.00    -0.127 NA 
BRANCH  12  16
HETATM   16  C   UNL     1      -5.937  16.314  70.843  1.00  0.00     0.498 C  
HETATM   17  C   UNL     1      -7.408  15.916  71.063  1.00  0.00     2.776 C  
HETATM   18  C   UNL     1      -7.875  14.967  69.974  1.00  0.00     0.308 C  
HETATM   19  O   UNL     1      -8.922  12.647  69.085  1.00  0.00     0.415 OA 
HETATM   20  N   UNL     1      -7.117  13.725  70.029  1.00  0.00     0.334 N  
HETATM   21  C   UNL     1      -5.126  15.001  70.902  1.00  0.00    -0.137 C  
HETATM   22  C   UNL     1      -5.661  13.881  69.992  1.00  0.00    -0.114 C  
HETATM   23  C   UNL     1      -7.765  12.611  69.504  1.00  0.00     0.853 C  
BRANCH  23  24
HETATM   24  C   UNL     1      -7.016  11.327  69.492  1.00  0.00    -0.089 C  
HETATM   25  C   UNL     1      -7.062  10.548  68.403  1.00  0.00    -0.078 C  
ENDBRANCH  23  24
ENDBRANCH  12  16
BRANCH  14  26
HETATM   26  C   UNL     1      -8.913  15.651  66.470  1.00  0.00    -0.343 A  
HETATM   27  C   UNL     1      -8.954  14.337  66.981  1.00  0.00    -0.251 A  
HETATM   28  C   UNL     1      -9.639  15.895  65.303  1.00  0.00     0.176 A  
HETATM   29  C   UNL     1      -9.732  13.333  66.382  1.00  0.00    -0.279 A  
HETATM   30  C   UNL     1     -10.405  14.889  64.689  1.00  0.00    -0.056 A  
HETATM   31  C   UNL     1     -10.488  13.612  65.245  1.00  0.00    -0.351 A  
BRANCH  31  32
HETATM   32  O   UNL     1     -11.200  12.559  64.717  1.00  0.00    -0.289 OA 
BRANCH  32  33
HETATM   33  C   UNL     1     -10.560  11.457  64.191  1.00  0.00    -0.369 A  
HETATM   34  C   UNL     1     -10.267  10.416  65.078  1.00  0.00    -0.334 A  
HETATM   35  C   UNL     1      -9.621   9.263  64.623  1.00  0.00     0.253 A  
HETATM   36  C   UNL     1      -9.269   9.146  63.279  1.00  0.00     0.370 A  
HETATM   37  C   UNL     1      -9.602  10.161  62.383  1.00  0.00    -0.145 A  
HETATM   38  C   UNL     1     -10.274  11.302  62.833  1.00  0.00    -0.201 A  
ENDBRANCH  32  33
ENDBRANCH  31  32
ENDBRANCH  14  26
ENDBRANCH   3   6
TORSDOF 6
ENDMDL
MODEL      159
REMARK 921   NORMALIZED FREE ENERGY PREDICTED BY IDOCK:    1.57 KCAL/MOL
REMARK 922        TOTAL FREE ENERGY PREDICTED BY IDOCK:    1.82 KCAL/MOL
REMARK 923 INTER-LIGAND FREE ENERGY PREDICTED BY IDOCK:    0.83 KCAL/MOL
REMARK 924 INTRA-LIGAND FREE ENERGY PREDICTED BY IDOCK:    0.99 KCAL/MOL
REMARK 927      BINDING AFFINITY PREDICTED BY RF-SCORE:    0.00 PKD
ROOT
HETATM    1  N   UNL     1     -12.377  13.859  66.340  1.00  0.00    -0.446 N  
HETATM    2  H1  UNL     1     -11.931  14.383  67.093  1.00  0.00     0.000 HD 
HETATM    3  C   UNL     1     -12.150  12.513  66.247  1.00  0.00    -0.243 C  
HETATM    4  H2  UNL     1     -12.982  14.330  65.669  1.00  0.00     0.000 HD 
HETATM    5  O   UNL     1     -12.687  11.884  65.344  1.00  0.00     0.007 OA 
ENDROOT
BRANCH   3   6
HETATM    6  C   UNL     1     -11.283  11.949  67.272  1.00  0.00    -0.376 A  
HETATM    7  C   UNL     1     -11.127  10.588  67.518  1.00  0.00    -0.290 A  
HETATM    8  N   UNL     1     -11.757   9.470  67.057  1.00  0.00     1.143 NA 
HETATM    9  C   UNL     1     -11.616   8.249  67.855  1.00  0.00     1.831 C  
HETATM   10  H   UNL     1     -12.302   9.483  66.196  1.00  0.00     0.000 HD 
HETATM   11  C   UNL     1     -10.138   8.015  68.134  1.00  0.00    -0.234 C  
HETATM   12  C   UNL     1      -9.460   9.234  68.822  1.00  0.00    -0.150 C  
HETATM   13  N   UNL     1     -10.078  10.487  68.389  1.00  0.00    -0.158 NA 
HETATM   14  C   UNL     1     -10.404  12.589  68.226  1.00  0.00    -0.236 A  
HETATM   15  N   UNL     1      -9.786  11.654  68.981  1.00  0.00    -0.002 NA 
BRANCH  12  16
HETATM   16  C   UNL     1      -7.882   9.149  68.751  1.00  0.00    -0.096 C  
HETATM   17  C   UNL     1      -7.176  10.277  67.977  1.00  0.00    -0.085 C  
HETATM   18  C   UNL     1      -7.237  11.580  68.754  1.00  0.00    -0.112 C  
HETATM   19  O   UNL     1      -6.126  13.723  69.957  1.00  0.00    -0.133 OA 
HETATM   20  N   UNL     1      -6.514  11.451  70.011  1.00  0.00    -0.132 N  
HETATM   21  C   UNL     1      -7.118   9.005  70.086  1.00  0.00    -0.052 C  
HETATM   22  C   UNL     1      -6.923  10.325  70.854  1.00  0.00     0.464 C  
HETATM   23  C   UNL     1      -6.023  12.642  70.538  1.00  0.00    -0.052 C  
BRANCH  23  24
HETATM   24  C   UNL     1      -5.318  12.572  71.844  1.00  0.00     0.187 C  
HETATM   25  C   UNL     1      -5.825  13.221  72.901  1.00  0.00     0.986 C  
ENDBRANCH  23  24
ENDBRANCH  12  16
BRANCH  14  26
HETATM   26  C   UNL     1     -10.047  14.011  68.450  1.00  0.00    -0.236 A  
HETATM   27  C   UNL     1     -10.635  14.732  69.510  1.00  0.00    -0.200 A  
HETATM   28  C   UNL     1      -9.165  14.713  67.627  1.00  0.00    -0.193 A  
HETATM   29  C   UNL     1     -10.310  16.073  69.766  1.00  0.00    -0.265 A  
HETATM   30  C   UNL     1      -8.849  16.062  67.867  1.00  0.00    -0.180 A  
HETATM   31  C   UNL     1      -9.389  16.740  68.960  1.00  0.00    -0.212 A  
BRANCH  31  32
HETATM   32  O   UNL     1      -9.151  18.059  69.274  1.00  0.00     0.024 OA 
BRANCH  32  33
HETATM   33  C   UNL     1      -9.102  19.028  68.295  1.00  0.00    -0.327 A  
HETATM   34  C   UNL     1      -8.864  18.592  66.988  1.00  0.00    -0.286 A  
HETATM   35  C   UNL     1      -8.802  19.513  65.938  1.00  0.00    -0.069 A  
HETATM   36  C   UNL     1      -8.982  20.872  66.192  1.00  0.00     0.674 A  
HETATM   37  C   UNL     1      -9.267  21.304  67.486  1.00  0.00     0.140 A  
HETATM   38  C   UNL     1      -9.357  20.380  68.531  1.00  0.00     0.142 A  
ENDBRANCH  32  33
ENDBRANCH  31  32
ENDBRANCH  14  26
ENDBRANCH   3   6
TORSDOF 6
ENDMDL
MODEL      160
REMARK 921   NORMALIZED FREE ENERGY PREDICTED BY IDOCK:    3.09 KCAL/MOL
REMARK 922        TOTAL FREE ENERGY PREDICTED BY IDOCK:    3.87 KCAL/MOL
REMARK 923 INTER-LIGAND FREE ENERGY PREDICTED BY IDOCK:    4.73 KCAL/MOL
REMARK 924 INTRA-LIGAND FREE ENERGY PREDICTED BY IDOCK:   -0.86 KCAL/MOL
REMARK 927      BINDING AFFINITY PREDICTED BY RF-SCORE:    0.00 PKD
ROOT
HETATM    1  N   UNL     1      -6.526   9.922  71.752  1.00  0.00     0.418 N  
HETATM    2  H1  UNL     1      -7.243   9.234  71.981  1.00  0.00     0.000 HD 
HETATM    3  C   UNL     1      -6.320  10.252  70.441  1.00  0.00    -0.127 C  
HETATM    4  H2  UNL     1      -5.972  10.358  72.490  1.00  0.00     0.000 HD 
HETATM    5  O   UNL     1      -5.459  11.078  70.167  1.00  0.00    -0.057 OA 
ENDROOT
BRANCH   3   6
HETATM    6  C   UNL     1      -7.182   9.578  69.481  1.00  0.00    -0.074 A  
HETATM    7  C   UNL     1      -7.142   8.216  69.196  1.00  0.00    -0.061 A  
HETATM    8  N   UNL     1      -6.298   7.205  69.551  1.00  0.00    -0.034 NA 
HETATM    9  C   UNL     1      -6.319   5.997  68.723  1.00  0.00    -0.041 C  
HETATM   10  H   UNL     1      -5.680   7.287  70.358  1.00  0.00     0.000 HD 
HETATM   11  C   UNL     1      -7.761   5.532  68.574  1.00  0.00    -0.085 C  
HETATM   12  C   UNL     1      -8.689   6.640  68.000  1.00  0.00    -0.117 C  
HETATM   13  N   UNL     1      -8.241   7.967  68.423  1.00  0.00    -0.123 NA 
HETATM   14  C   UNL     1      -8.242  10.089  68.638  1.00  0.00    -0.111 A  
HETATM   15  N   UNL     1      -8.773   9.084  67.908  1.00  0.00    -0.129 NA 
BRANCH  12  16
HETATM   16  C   UNL     1     -10.219   6.297  68.214  1.00  0.00    -0.198 C  
HETATM   17  C   UNL     1     -10.663   6.057  69.668  1.00  0.00    -0.405 C  
HETATM   18  C   UNL     1     -10.676   7.360  70.448  1.00  0.00    -0.237 C  
HETATM   19  O   UNL     1     -11.861   9.253  71.958  1.00  0.00    -0.363 OA 
HETATM   20  N   UNL     1     -11.656   8.275  69.881  1.00  0.00     0.173 N  
HETATM   21  C   UNL     1     -11.256   7.267  67.605  1.00  0.00     0.088 C  
HETATM   22  C   UNL     1     -11.515   8.531  68.445  1.00  0.00     1.149 C  
HETATM   23  C   UNL     1     -12.161   9.225  70.765  1.00  0.00    -0.171 C  
BRANCH  23  24
HETATM   24  C   UNL     1     -13.129  10.214  70.225  1.00  0.00     0.062 C  
HETATM   25  C   UNL     1     -13.262  11.402  70.830  1.00  0.00     0.223 C  
ENDBRANCH  23  24
ENDBRANCH  12  16
BRANCH  14  26
HETATM   26  C   UNL     1      -8.842  11.438  68.505  1.00  0.00    -0.151 A  
HETATM   27  C   UNL     1      -8.032  12.547  68.180  1.00  0.00    -0.157 A  
HETATM   28  C   UNL     1     -10.197  11.694  68.726  1.00  0.00    -0.190 A  
HETATM   29  C   UNL     1      -8.565  13.836  68.027  1.00  0.00    -0.177 A  
HETATM   30  C   UNL     1     -10.733  12.987  68.592  1.00  0.00    -0.273 A  
HETATM   31  C   UNL     1      -9.929  14.059  68.204  1.00  0.00    -0.242 A  
BRANCH  31  32
HETATM   32  O   UNL     1     -10.355  15.360  68.056  1.00  0.00    -0.242 OA 
BRANCH  32  33
HETATM   33  C   UNL     1     -10.710  16.123  69.148  1.00  0.00    -0.292 A  
HETATM   34  C   UNL     1     -11.029  17.462  68.903  1.00  0.00     0.143 A  
HETATM   35  C   UNL     1     -11.401  18.303  69.956  1.00  0.00     3.658 A  
HETATM   36  C   UNL     1     -11.458  17.805  71.257  1.00  0.00     3.174 A  
HETATM   37  C   UNL     1     -11.187  16.459  71.498  1.00  0.00     0.059 A  
HETATM   38  C   UNL     1     -10.843  15.612  70.440  1.00  0.00    -0.358 A  
ENDBRANCH  32  33
ENDBRANCH  31  32
ENDBRANCH  14  26
ENDBRANCH   3   6
TORSDOF 6
ENDMDL
MODEL      161
REMARK 921   NORMALIZED FREE ENERGY PREDICTED BY IDOCK:    4.24 KCAL/MOL
REMARK 922        TOTAL FREE ENERGY PREDICTED BY IDOCK:    5.43 KCAL/MOL
REMARK 923 INTER-LIGAND FREE ENERGY PREDICTED BY IDOCK:    4.56 KCAL/MOL
REMARK 924 INTRA-LIGAND FREE ENERGY PREDICTED BY IDOCK:    0.87 KCAL/MOL
REMARK 927      BINDING AFFINITY PREDICTED BY RF-SCORE:    0.00 PKD
ROOT
HETATM    1  N   UNL     1      -6.670  13.025  66.236  1.00  0.00     1.803 N  
HETATM    2  H1  UNL     1      -7.373  13.662  65.863  1.00  0.00     0.000 HD 
HETATM    3  C   UNL     1      -7.076  11.951  66.979  1.00  0.00    -0.116 C  
HETATM    4  H2  UNL     1      -5.679  13.187  66.057  1.00  0.00     0.000 HD 
HETATM    5  O   UNL     1      -6.231  11.187  67.426  1.00  0.00    -0.057 OA 
ENDROOT
BRANCH   3   6
HETATM    6  C   UNL     1      -8.515  11.815  67.152  1.00  0.00    -0.170 A  
HETATM    7  C   UNL     1      -9.186  10.605  67.307  1.00  0.00    -0.143 A  
HETATM    8  N   UNL     1      -8.805   9.300  67.210  1.00  0.00    -0.124 NA 
HETATM    9  C   UNL     1      -9.866   8.308  67.015  1.00  0.00    -0.232 C  
HETATM   10  H   UNL     1      -7.824   9.025  67.271  1.00  0.00     0.000 HD 
HETATM   11  C   UNL     1     -10.940   8.528  68.071  1.00  0.00     0.106 C  
HETATM   12  C   UNL     1     -11.499   9.979  68.061  1.00  0.00     0.194 C  
HETATM   13  N   UNL     1     -10.465  10.933  67.657  1.00  0.00    -0.197 NA 
HETATM   14  C   UNL     1      -9.560  12.815  67.223  1.00  0.00    -0.208 A  
HETATM   15  N   UNL     1     -10.758  12.215  67.400  1.00  0.00    -0.228 NA 
BRANCH  12  16
HETATM   16  C   UNL     1     -12.305  10.310  69.382  1.00  0.00     0.229 C  
HETATM   17  C   UNL     1     -11.461  10.632  70.628  1.00  0.00    -0.374 C  
HETATM   18  C   UNL     1     -10.801  11.993  70.493  1.00  0.00     1.990 C  
HETATM   19  O   UNL     1     -10.277  14.509  71.307  1.00  0.00     1.439 OA 
HETATM   20  N   UNL     1     -11.813  13.038  70.419  1.00  0.00    -0.238 N  
HETATM   21  C   UNL     1     -13.382  11.414  69.298  1.00  0.00     2.683 C  
HETATM   22  C   UNL     1     -12.831  12.849  69.382  1.00  0.00     1.024 C  
HETATM   23  C   UNL     1     -11.396  14.297  70.839  1.00  0.00     0.180 C  
BRANCH  23  24
HETATM   24  C   UNL     1     -12.376  15.410  70.739  1.00  0.00    -0.447 C  
HETATM   25  C   UNL     1     -13.195  15.473  69.681  1.00  0.00     0.856 C  
ENDBRANCH  23  24
ENDBRANCH  12  16
BRANCH  14  26
HETATM   26  C   UNL     1      -9.519  14.297  67.199  1.00  0.00    -0.229 A  
HETATM   27  C   UNL     1      -9.925  15.000  66.045  1.00  0.00    -0.334 A  
HETATM   28  C   UNL     1      -9.054  15.063  68.270  1.00  0.00    -0.182 A  
HETATM   29  C   UNL     1      -9.919  16.403  65.991  1.00  0.00    -0.369 A  
HETATM   30  C   UNL     1      -9.028  16.467  68.214  1.00  0.00    -0.214 A  
HETATM   31  C   UNL     1      -9.497  17.148  67.089  1.00  0.00    -0.248 A  
BRANCH  31  32
HETATM   32  O   UNL     1      -9.504  18.515  66.933  1.00  0.00    -0.280 OA 
BRANCH  32  33
HETATM   33  C   UNL     1      -8.366  19.264  67.146  1.00  0.00    -0.280 A  
HETATM   34  C   UNL     1      -7.481  18.802  68.125  1.00  0.00    -0.289 A  
HETATM   35  C   UNL     1      -6.304  19.503  68.400  1.00  0.00    -0.277 A  
HETATM   36  C   UNL     1      -6.006  20.668  67.693  1.00  0.00    -0.300 A  
HETATM   37  C   UNL     1      -6.863  21.105  66.684  1.00  0.00    -0.226 A  
HETATM   38  C   UNL     1      -8.026  20.387  66.390  1.00  0.00    -0.179 A  
ENDBRANCH  32  33
ENDBRANCH  31  32
ENDBRANCH  14  26
ENDBRANCH   3   6
TORSDOF 6
ENDMDL
MODEL      162
REMARK 921   NORMALIZED FREE ENERGY PREDICTED BY IDOCK:    4.60 KCAL/MOL
REMARK 922        TOTAL FREE ENERGY PREDICTED BY IDOCK:    5.92 KCAL/MOL
REMARK 923 INTER-LIGAND FREE ENERGY PREDICTED BY IDOCK:    5.17 KCAL/MOL
REMARK 924 INTRA-LIGAND FREE ENERGY PREDICTED BY IDOCK:    0.75 KCAL/MOL
REMARK 927      BINDING AFFINITY PREDICTED BY RF-SCORE:    0.00 PKD
ROOT
HETATM    1  N   UNL     1      -6.537  13.063  65.376  1.00  0.00     6.415 N  
HETATM    2  H1  UNL     1      -7.342  13.638  65.129  1.00  0.00     0.000 HD 
HETATM    3  C   UNL     1      -6.561  12.360  66.549  1.00  0.00     0.893 C  
HETATM    4  H2  UNL     1      -5.727  13.013  64.758  1.00  0.00     0.000 HD 
HETATM    5  O   UNL     1      -5.594  11.669  66.845  1.00  0.00    -0.111 OA 
ENDROOT
BRANCH   3   6
HETATM    6  C   UNL     1      -7.775  12.497  67.340  1.00  0.00    -0.167 A  
HETATM    7  C   UNL     1      -8.358  13.710  67.697  1.00  0.00    -0.182 A  
HETATM    8  N   UNL     1      -7.968  15.011  67.581  1.00  0.00    -0.147 NA 
HETATM    9  C   UNL     1      -8.634  15.986  68.448  1.00  0.00    -0.185 C  
HETATM   10  H   UNL     1      -7.245  15.293  66.920  1.00  0.00     0.000 HD 
HETATM   11  C   UNL     1     -10.139  15.812  68.314  1.00  0.00    -0.222 C  
HETATM   12  C   UNL     1     -10.603  14.359  68.619  1.00  0.00    -0.252 C  
HETATM   13  N   UNL     1      -9.575  13.392  68.232  1.00  0.00    -0.222 NA 
HETATM   14  C   UNL     1      -8.651  11.496  67.912  1.00  0.00    -0.143 A  
HETATM   15  N   UNL     1      -9.671  12.098  68.564  1.00  0.00    -0.186 NA 
BRANCH  12  16
HETATM   16  C   UNL     1     -12.074  14.088  68.105  1.00  0.00    -0.307 C  
HETATM   17  C   UNL     1     -12.688  15.174  67.203  1.00  0.00     1.532 C  
HETATM   18  C   UNL     1     -12.032  15.168  65.834  1.00  0.00     0.181 C  
HETATM   19  O   UNL     1     -12.070  14.999  63.143  1.00  0.00     0.590 OA 
HETATM   20  N   UNL     1     -12.286  13.903  65.159  1.00  0.00    -0.403 N  
HETATM   21  C   UNL     1     -12.342  12.742  67.396  1.00  0.00     0.250 C  
HETATM   22  C   UNL     1     -11.915  12.705  65.918  1.00  0.00    -0.438 C  
HETATM   23  C   UNL     1     -12.241  13.953  63.769  1.00  0.00    -0.261 C  
BRANCH  23  24
HETATM   24  C   UNL     1     -12.447  12.678  63.033  1.00  0.00     0.008 C  
HETATM   25  C   UNL     1     -12.343  11.515  63.689  1.00  0.00    -0.132 C  
ENDBRANCH  23  24
ENDBRANCH  12  16
BRANCH  14  26
HETATM   26  C   UNL     1      -8.645  10.015  67.844  1.00  0.00    -0.121 A  
HETATM   27  C   UNL     1      -9.676   9.332  67.165  1.00  0.00    -0.225 A  
HETATM   28  C   UNL     1      -7.672   9.229  68.463  1.00  0.00    -0.085 A  
HETATM   29  C   UNL     1      -9.695   7.932  67.062  1.00  0.00    -0.269 A  
HETATM   30  C   UNL     1      -7.697   7.826  68.380  1.00  0.00    -0.119 A  
HETATM   31  C   UNL     1      -8.686   7.169  67.647  1.00  0.00    -0.121 A  
BRANCH  31  32
HETATM   32  O   UNL     1      -8.803   5.804  67.513  1.00  0.00    -0.109 OA 
BRANCH  32  33
HETATM   33  C   UNL     1      -7.745   4.966  67.798  1.00  0.00    -0.083 A  
HETATM   34  C   UNL     1      -8.054   3.627  68.053  1.00  0.00    -0.085 A  
HETATM   35  C   UNL     1      -7.039   2.713  68.348  1.00  0.00    -0.048 A  
HETATM   36  C   UNL     1      -5.711   3.135  68.384  1.00  0.00    -0.022 A  
HETATM   37  C   UNL     1      -5.395   4.459  68.084  1.00  0.00    -0.015 A  
HETATM   38  C   UNL     1      -6.408   5.366  67.761  1.00  0.00    -0.039 A  
ENDBRANCH  32  33
ENDBRANCH  31  32
ENDBRANCH  14  26
ENDBRANCH   3   6
TORSDOF 6
ENDMDL
MODEL      163
REMARK 921   NORMALIZED FREE ENERGY PREDICTED BY IDOCK:    5.45 KCAL/MOL
REMARK 922        TOTAL FREE ENERGY PREDICTED BY IDOCK:    7.06 KCAL/MOL
REMARK 923 INTER-LIGAND FREE ENERGY PREDICTED BY IDOCK:    7.16 KCAL/MOL
REMARK 924 INTRA-LIGAND FREE ENERGY PREDICTED BY IDOCK:   -0.10 KCAL/MOL
REMARK 927      BINDING AFFINITY PREDICTED BY RF-SCORE:    0.00 PKD
ROOT
HETATM    1  N   UNL     1     -12.082   7.775  66.549  1.00  0.00     4.285 N  
HETATM    2  H1  UNL     1     -12.098   7.037  67.252  1.00  0.00     0.000 HD 
HETATM    3  C   UNL     1     -11.129   8.753  66.638  1.00  0.00     0.970 C  
HETATM    4  H2  UNL     1     -12.764   7.785  65.791  1.00  0.00     0.000 HD 
HETATM    5  O   UNL     1     -11.110   9.639  65.793  1.00  0.00     0.892 OA 
ENDROOT
BRANCH   3   6
HETATM    6  C   UNL     1     -10.200   8.626  67.752  1.00  0.00    -0.282 A  
HETATM    7  C   UNL     1      -9.444   7.490  68.029  1.00  0.00    -0.142 A  
HETATM    8  N   UNL     1      -9.425   6.225  67.521  1.00  0.00    -0.113 NA 
HETATM    9  C   UNL     1      -8.802   5.185  68.344  1.00  0.00    -0.101 C  
HETATM   10  H   UNL     1      -9.828   6.012  66.609  1.00  0.00     0.000 HD 
HETATM   11  C   UNL     1      -7.423   5.664  68.773  1.00  0.00    -0.084 C  
HETATM   12  C   UNL     1      -7.468   7.032  69.511  1.00  0.00    -0.096 C  
HETATM   13  N   UNL     1      -8.560   7.863  69.003  1.00  0.00    -0.134 NA 
HETATM   14  C   UNL     1      -9.822   9.569  68.782  1.00  0.00    -0.169 A  
HETATM   15  N   UNL     1      -8.910   9.007  69.607  1.00  0.00    -0.139 NA 
BRANCH  12  16
HETATM   16  C   UNL     1      -6.038   7.703  69.602  1.00  0.00    -0.030 C  
HETATM   17  C   UNL     1      -5.207   7.704  68.306  1.00  0.00    -0.026 C  
HETATM   18  C   UNL     1      -5.784   8.682  67.299  1.00  0.00    -0.039 C  
HETATM   19  O   UNL     1      -5.636  10.806  65.644  1.00  0.00    -0.119 OA 
HETATM   20  N   UNL     1      -5.710  10.041  67.818  1.00  0.00    -0.042 N  
HETATM   21  C   UNL     1      -5.962   9.142  70.159  1.00  0.00    -0.034 C  
HETATM   22  C   UNL     1      -6.313  10.239  69.138  1.00  0.00    -0.045 C  
HETATM   23  C   UNL     1      -5.674  11.042  66.852  1.00  0.00    -0.077 C  
BRANCH  23  24
HETATM   24  C   UNL     1      -5.646  12.450  67.328  1.00  0.00    -0.099 C  
HETATM   25  C   UNL     1      -6.694  12.936  68.006  1.00  0.00    -0.109 C  
ENDBRANCH  23  24
ENDBRANCH  12  16
BRANCH  14  26
HETATM   26  C   UNL     1     -10.201  10.982  69.023  1.00  0.00    -0.217 A  
HETATM   27  C   UNL     1      -9.869  11.607  70.244  1.00  0.00     2.790 A  
HETATM   28  C   UNL     1     -10.921  11.745  68.102  1.00  0.00    -0.275 A  
HETATM   29  C   UNL     1     -10.193  12.948  70.502  1.00  0.00     4.058 A  
HETATM   30  C   UNL     1     -11.265  13.082  68.364  1.00  0.00    -0.304 A  
HETATM   31  C   UNL     1     -10.871  13.705  69.548  1.00  0.00     0.079 A  
BRANCH  31  32
HETATM   32  O   UNL     1     -11.165  15.002  69.901  1.00  0.00    -0.253 OA 
BRANCH  32  33
HETATM   33  C   UNL     1     -11.997  15.282  70.964  1.00  0.00    -0.343 A  
HETATM   34  C   UNL     1     -13.372  15.264  70.710  1.00  0.00    -0.402 A  
HETATM   35  C   UNL     1     -14.282  15.535  71.736  1.00  0.00    -0.563 A  
HETATM   36  C   UNL     1     -13.819  15.820  73.020  1.00  0.00    -0.499 A  
HETATM   37  C   UNL     1     -12.452  15.791  73.287  1.00  0.00    -0.619 A  
HETATM   38  C   UNL     1     -11.543  15.492  72.268  1.00  0.00    -0.554 A  
ENDBRANCH  32  33
ENDBRANCH  31  32
ENDBRANCH  14  26
ENDBRANCH   3   6
TORSDOF 6
ENDMDL
MODEL      164
REMARK 921   NORMALIZED FREE ENERGY PREDICTED BY IDOCK:    7.03 KCAL/MOL
REMARK 922        TOTAL FREE ENERGY PREDICTED BY IDOCK:    9.19 KCAL/MOL
REMARK 923 INTER-LIGAND FREE ENERGY PREDICTED BY IDOCK:    7.66 KCAL/MOL
REMARK 924 INTRA-LIGAND FREE ENERGY PREDICTED BY IDOCK:    1.53 KCAL/MOL
REMARK 927      BINDING AFFINITY PREDICTED BY RF-SCORE:    0.00 PKD
ROOT
HETATM    1  N   UNL     1     -10.546  14.164  72.842  1.00  0.00     3.651 N  
HETATM    2  H1  UNL     1      -9.692  13.980  72.315  1.00  0.00     0.000 HD 
HETATM    3  C   UNL     1     -11.678  14.522  72.163  1.00  0.00     0.162 C  
HETATM    4  H2  UNL     1     -10.555  14.081  73.858  1.00  0.00     0.000 HD 
HETATM    5  O   UNL     1     -12.703  14.743  72.796  1.00  0.00    -0.360 OA 
ENDROOT
BRANCH   3   6
HETATM    6  C   UNL     1     -11.548  14.591  70.715  1.00  0.00    -0.260 A  
HETATM    7  C   UNL     1     -11.257  15.748  69.997  1.00  0.00    -0.342 A  
HETATM    8  N   UNL     1     -11.160  17.065  70.336  1.00  0.00    -0.199 NA 
HETATM    9  C   UNL     1     -11.263  18.043  69.249  1.00  0.00     1.777 C  
HETATM   10  H   UNL     1     -11.022  17.357  71.303  1.00  0.00     0.000 HD 
HETATM   11  C   UNL     1     -10.292  17.649  68.145  1.00  0.00    -0.386 C  
HETATM   12  C   UNL     1     -10.522  16.197  67.637  1.00  0.00    -0.292 C  
HETATM   13  N   UNL     1     -11.009  15.338  68.717  1.00  0.00    -0.248 NA 
HETATM   14  C   UNL     1     -11.657  13.561  69.703  1.00  0.00    -0.275 A  
HETATM   15  N   UNL     1     -11.450  14.095  68.480  1.00  0.00    -0.281 NA 
BRANCH  12  16
HETATM   16  C   UNL     1      -9.294  15.664  66.795  1.00  0.00    -0.268 C  
HETATM   17  C   UNL     1      -7.897  15.991  67.352  1.00  0.00    -0.188 C  
HETATM   18  C   UNL     1      -7.610  15.170  68.597  1.00  0.00    -0.127 C  
HETATM   19  O   UNL     1      -6.160  13.424  70.052  1.00  0.00    -0.137 OA 
HETATM   20  N   UNL     1      -7.584  13.751  68.270  1.00  0.00    -0.118 N  
HETATM   21  C   UNL     1      -9.272  14.160  66.443  1.00  0.00    -0.209 C  
HETATM   22  C   UNL     1      -8.773  13.248  67.578  1.00  0.00    -0.202 C  
HETATM   23  C   UNL     1      -6.823  12.960  69.125  1.00  0.00    -0.054 C  
BRANCH  23  24
HETATM   24  C   UNL     1      -6.801  11.497  68.863  1.00  0.00    -0.095 C  
HETATM   25  C   UNL     1      -7.455  11.009  67.800  1.00  0.00    -0.094 C  
ENDBRANCH  23  24
ENDBRANCH  12  16
BRANCH  14  26
HETATM   26  C   UNL     1     -11.880  12.098  69.796  1.00  0.00    -0.397 A  
HETATM   27  C   UNL     1     -11.055  11.208  69.077  1.00  0.00    -0.299 A  
HETATM   28  C   UNL     1     -12.912  11.531  70.546  1.00  0.00     0.041 A  
HETATM   29  C   UNL     1     -11.222   9.816  69.153  1.00  0.00    -0.101 A  
HETATM   30  C   UNL     1     -13.095  10.139  70.611  1.00  0.00    -0.274 A  
HETATM   31  C   UNL     1     -12.229   9.270  69.947  1.00  0.00     0.690 A  
BRANCH  31  32
HETATM   32  O   UNL     1     -12.329   7.898  69.940  1.00  0.00     0.779 OA 
BRANCH  32  33
HETATM   33  C   UNL     1     -11.609   7.134  69.046  1.00  0.00     0.456 A  
HETATM   34  C   UNL     1     -12.074   5.837  68.808  1.00  0.00     3.625 A  
HETATM   35  C   UNL     1     -11.401   4.999  67.914  1.00  0.00     2.338 A  
HETATM   36  C   UNL     1     -10.263   5.458  67.252  1.00  0.00    -0.258 A  
HETATM   37  C   UNL     1      -9.825   6.767  67.450  1.00  0.00    -0.174 A  
HETATM   38  C   UNL     1     -10.515   7.613  68.323  1.00  0.00    -0.219 A  
ENDBRANCH  32  33
ENDBRANCH  31  32
ENDBRANCH  14  26
ENDBRANCH   3   6
TORSDOF 6
ENDMDL
MODEL      165
REMARK 921   NORMALIZED FREE ENERGY PREDICTED BY IDOCK:    7.71 KCAL/MOL
REMARK 922        TOTAL FREE ENERGY PREDICTED BY IDOCK:   10.11 KCAL/MOL
REMARK 923 INTER-LIGAND FREE ENERGY PREDICTED BY IDOCK:   10.41 KCAL/MOL
REMARK 924 INTRA-LIGAND FREE ENERGY PREDICTED BY IDOCK:   -0.30 KCAL/MOL
REMARK 927      BINDING AFFINITY PREDICTED BY RF-SCORE:    0.00 PKD
ROOT
HETATM    1  N   UNL     1     -12.200   7.695  66.113  1.00  0.00     5.855 N  
HETATM    2  H1  UNL     1     -12.159   6.890  66.737  1.00  0.00     0.000 HD 
HETATM    3  C   UNL     1     -11.142   8.561  66.080  1.00  0.00     2.426 C  
HETATM    4  H2  UNL     1     -13.016   7.851  65.522  1.00  0.00     0.000 HD 
HETATM    5  O   UNL     1     -11.192   9.528  65.330  1.00  0.00     2.155 OA 
ENDROOT
BRANCH   3   6
HETATM    6  C   UNL     1     -10.027   8.226  66.954  1.00  0.00    -0.343 A  
HETATM    7  C   UNL     1      -9.408   6.980  67.009  1.00  0.00    -0.146 A  
HETATM    8  N   UNL     1      -9.687   5.765  66.456  1.00  0.00    -0.155 NA 
HETATM    9  C   UNL     1      -9.066   4.592  67.075  1.00  0.00    -0.121 C  
HETATM   10  H   UNL     1     -10.303   5.678  65.647  1.00  0.00     0.000 HD 
HETATM   11  C   UNL     1      -7.571   4.844  67.209  1.00  0.00    -0.087 C  
HETATM   12  C   UNL     1      -7.254   6.147  67.996  1.00  0.00    -0.083 C  
HETATM   13  N   UNL     1      -8.291   7.155  67.777  1.00  0.00    -0.117 NA 
HETATM   14  C   UNL     1      -9.301   9.029  67.915  1.00  0.00    -0.141 A  
HETATM   15  N   UNL     1      -8.330   8.288  68.492  1.00  0.00    -0.128 NA 
BRANCH  12  16
HETATM   16  C   UNL     1      -5.753   6.607  67.796  1.00  0.00    -0.016 C  
HETATM   17  C   UNL     1      -5.209   6.538  66.358  1.00  0.00    -0.013 C  
HETATM   18  C   UNL     1      -5.830   7.624  65.497  1.00  0.00    -0.038 C  
HETATM   19  O   UNL     1      -5.713   9.764  63.862  1.00  0.00    -0.091 OA 
HETATM   20  N   UNL     1      -5.457   8.939  65.999  1.00  0.00    -0.037 N  
HETATM   21  C   UNL     1      -5.359   8.000  68.336  1.00  0.00    -0.032 C  
HETATM   22  C   UNL     1      -5.746   9.172  67.415  1.00  0.00    -0.042 C  
HETATM   23  C   UNL     1      -5.472   9.960  65.053  1.00  0.00    -0.067 C  
BRANCH  23  24
HETATM   24  C   UNL     1      -5.145  11.331  65.523  1.00  0.00     0.109 C  
HETATM   25  C   UNL     1      -5.871  11.880  66.507  1.00  0.00     0.168 C  
ENDBRANCH  23  24
ENDBRANCH  12  16
BRANCH  14  26
HETATM   26  C   UNL     1      -9.404  10.459  68.293  1.00  0.00    -0.150 A  
HETATM   27  C   UNL     1      -9.797  10.821  69.599  1.00  0.00     0.041 A  
HETATM   28  C   UNL     1      -9.165  11.503  67.398  1.00  0.00    -0.166 A  
HETATM   29  C   UNL     1      -9.887  12.162  70.002  1.00  0.00     2.518 A  
HETATM   30  C   UNL     1      -9.272  12.848  67.790  1.00  0.00    -0.200 A  
HETATM   31  C   UNL     1      -9.596  13.188  69.104  1.00  0.00     0.547 A  
BRANCH  31  32
HETATM   32  O   UNL     1      -9.736  14.470  69.583  1.00  0.00     0.115 OA 
BRANCH  32  33
HETATM   33  C   UNL     1      -9.159  15.541  68.933  1.00  0.00    -0.219 A  
HETATM   34  C   UNL     1      -7.822  15.815  69.234  1.00  0.00    -0.233 A  
HETATM   35  C   UNL     1      -7.164  16.882  68.616  1.00  0.00    -0.215 A  
HETATM   36  C   UNL     1      -7.842  17.677  67.693  1.00  0.00    -0.212 A  
HETATM   37  C   UNL     1      -9.161  17.378  67.355  1.00  0.00    -0.236 A  
HETATM   38  C   UNL     1      -9.809  16.293  67.952  1.00  0.00    -0.237 A  
ENDBRANCH  32  33
ENDBRANCH  31  32
ENDBRANCH  14  26
ENDBRANCH   3   6
TORSDOF 6
ENDMDL
MODEL      166
REMARK 921   NORMALIZED FREE ENERGY PREDICTED BY IDOCK:    7.96 KCAL/MOL
REMARK 922        TOTAL FREE ENERGY PREDICTED BY IDOCK:   10.44 KCAL/MOL
REMARK 923 INTER-LIGAND FREE ENERGY PREDICTED BY IDOCK:    9.97 KCAL/MOL
REMARK 924 INTRA-LIGAND FREE ENERGY PREDICTED BY IDOCK:    0.48 KCAL/MOL
REMARK 927      BINDING AFFINITY PREDICTED BY RF-SCORE:    0.00 PKD
ROOT
HETATM    1  N   UNL     1     -10.618  10.568  64.089  1.00  0.00    -0.314 N  
HETATM    2  H1  UNL     1     -10.600   9.883  64.845  1.00  0.00     0.000 HD 
HETATM    3  C   UNL     1      -9.628  11.509  64.026  1.00  0.00    -0.168 C  
HETATM    4  H2  UNL     1     -11.362  10.550  63.392  1.00  0.00     0.000 HD 
HETATM    5  O   UNL     1      -9.651  12.331  63.118  1.00  0.00    -0.271 OA 
ENDROOT
BRANCH   3   6
HETATM    6  C   UNL     1      -8.612  11.425  65.065  1.00  0.00     0.320 A  
HETATM    7  C   UNL     1      -8.099  12.514  65.765  1.00  0.00     1.593 A  
HETATM    8  N   UNL     1      -8.235  13.864  65.635  1.00  0.00     1.860 NA 
HETATM    9  C   UNL     1      -7.216  14.701  66.273  1.00  0.00     2.967 C  
HETATM   10  H   UNL     1      -9.012  14.273  65.116  1.00  0.00     0.000 HD 
HETATM   11  C   UNL     1      -7.063  14.264  67.723  1.00  0.00    -0.190 C  
HETATM   12  C   UNL     1      -6.733  12.751  67.859  1.00  0.00    -0.116 C  
HETATM   13  N   UNL     1      -7.352  11.983  66.779  1.00  0.00    -0.036 NA 
HETATM   14  C   UNL     1      -7.923  10.282  65.625  1.00  0.00    -0.150 A  
HETATM   15  N   UNL     1      -7.061  10.690  66.582  1.00  0.00    -0.116 NA 
BRANCH  12  16
HETATM   16  C   UNL     1      -6.963  12.227  69.335  1.00  0.00     0.067 C  
HETATM   17  C   UNL     1      -8.189  11.322  69.550  1.00  0.00     0.437 C  
HETATM   18  C   UNL     1      -7.964   9.957  68.924  1.00  0.00    -0.096 C  
HETATM   19  O   UNL     1      -7.813   7.266  69.000  1.00  0.00    -0.113 OA 
HETATM   20  N   UNL     1      -6.853   9.280  69.577  1.00  0.00    -0.047 N  
HETATM   21  C   UNL     1      -5.779  11.516  70.028  1.00  0.00    -0.120 C  
HETATM   22  C   UNL     1      -5.602  10.040  69.628  1.00  0.00    -0.037 C  
HETATM   23  C   UNL     1      -6.883   7.890  69.510  1.00  0.00    -0.047 C  
BRANCH  23  24
HETATM   24  C   UNL     1      -5.747   7.152  70.121  1.00  0.00    -0.024 C  
HETATM   25  C   UNL     1      -5.878   5.845  70.387  1.00  0.00    -0.025 C  
ENDBRANCH  23  24
ENDBRANCH  12  16
BRANCH  14  26
HETATM   26  C   UNL     1      -8.051   8.826  65.378  1.00  0.00    -0.125 A  
HETATM   27  C   UNL     1      -8.863   8.032  66.215  1.00  0.00    -0.191 A  
HETATM   28  C   UNL     1      -7.366   8.163  64.357  1.00  0.00    -0.093 A  
HETATM   29  C   UNL     1      -9.025   6.654  66.003  1.00  0.00    -0.131 A  
HETATM   30  C   UNL     1      -7.510   6.780  64.151  1.00  0.00    -0.094 A  
HETATM   31  C   UNL     1      -8.369   6.023  64.948  1.00  0.00    -0.104 A  
BRANCH  31  32
HETATM   32  O   UNL     1      -8.571   4.666  64.833  1.00  0.00    -0.128 OA 
BRANCH  32  33
HETATM   33  C   UNL     1      -9.656   4.161  64.149  1.00  0.00    -0.148 A  
HETATM   34  C   UNL     1     -10.661   5.070  63.803  1.00  0.00     1.592 A  
HETATM   35  C   UNL     1     -11.793   4.637  63.106  1.00  0.00     2.459 A  
HETATM   36  C   UNL     1     -11.922   3.295  62.751  1.00  0.00     1.911 A  
HETATM   37  C   UNL     1     -10.900   2.396  63.053  1.00  0.00    -0.224 A  
HETATM   38  C   UNL     1      -9.755   2.835  63.724  1.00  0.00    -0.134 A  
ENDBRANCH  32  33
ENDBRANCH  31  32
ENDBRANCH  14  26
ENDBRANCH   3   6
TORSDOF 6
ENDMDL
MODEL      167
REMARK 921   NORMALIZED FREE ENERGY PREDICTED BY IDOCK:   10.56 KCAL/MOL
REMARK 922        TOTAL FREE ENERGY PREDICTED BY IDOCK:   13.96 KCAL/MOL
REMARK 923 INTER-LIGAND FREE ENERGY PREDICTED BY IDOCK:   14.22 KCAL/MOL
REMARK 924 INTRA-LIGAND FREE ENERGY PREDICTED BY IDOCK:   -0.26 KCAL/MOL
REMARK 927      BINDING AFFINITY PREDICTED BY RF-SCORE:    0.00 PKD
ROOT
HETATM    1  N   UNL     1      -8.153  14.413  65.704  1.00  0.00     2.398 N  
HETATM    2  H1  UNL     1      -8.848  13.935  66.277  1.00  0.00     0.000 HD 
HETATM    3  C   UNL     1      -7.472  15.473  66.236  1.00  0.00     1.221 C  
HETATM    4  H2  UNL     1      -7.969  14.105  64.749  1.00  0.00     0.000 HD 
HETATM    5  O   UNL     1      -6.638  16.046  65.547  1.00  0.00     2.982 OA 
ENDROOT
BRANCH   3   6
HETATM    6  C   UNL     1      -7.809  15.809  67.612  1.00  0.00    -0.168 A  
HETATM    7  C   UNL     1      -8.460  16.974  68.008  1.00  0.00    -0.216 A  
HETATM    8  N   UNL     1      -8.822  18.117  67.359  1.00  0.00    -0.254 NA 
HETATM    9  C   UNL     1      -9.102  19.294  68.185  1.00  0.00    -0.331 C  
HETATM   10  H   UNL     1      -8.895  18.151  66.342  1.00  0.00     0.000 HD 
HETATM   11  C   UNL     1     -10.090  18.901  69.275  1.00  0.00    -0.091 C  
HETATM   12  C   UNL     1      -9.591  17.702  70.130  1.00  0.00     1.769 C  
HETATM   13  N   UNL     1      -8.773  16.793  69.326  1.00  0.00    -0.074 NA 
HETATM   14  C   UNL     1      -7.594  15.082  68.845  1.00  0.00    -0.144 A  
HETATM   15  N   UNL     1      -8.085  15.789  69.886  1.00  0.00     0.144 NA 
BRANCH  12  16
HETATM   16  C   UNL     1     -10.759  17.056  70.979  1.00  0.00     1.250 C  
HETATM   17  C   UNL     1     -12.144  17.017  70.308  1.00  0.00     2.731 C  
HETATM   18  C   UNL     1     -12.168  15.991  69.188  1.00  0.00     0.099 C  
HETATM   19  O   UNL     1     -13.139  13.807  67.941  1.00  0.00     1.406 OA 
HETATM   20  N   UNL     1     -11.950  14.655  69.724  1.00  0.00    -0.310 N  
HETATM   21  C   UNL     1     -10.522  15.641  71.552  1.00  0.00     0.858 C  
HETATM   22  C   UNL     1     -10.746  14.500  70.543  1.00  0.00     0.386 C  
HETATM   23  C   UNL     1     -12.476  13.618  68.960  1.00  0.00     0.178 C  
BRANCH  23  24
HETATM   24  C   UNL     1     -12.240  12.230  69.438  1.00  0.00    -0.120 C  
HETATM   25  C   UNL     1     -12.860  11.801  70.545  1.00  0.00    -0.012 C  
ENDBRANCH  23  24
ENDBRANCH  12  16
BRANCH  14  26
HETATM   26  C   UNL     1      -7.018  13.744  69.121  1.00  0.00    -0.082 A  
HETATM   27  C   UNL     1      -6.706  12.872  68.057  1.00  0.00    -0.109 A  
HETATM   28  C   UNL     1      -6.794  13.263  70.413  1.00  0.00     0.895 A  
HETATM   29  C   UNL     1      -6.143  11.605  68.276  1.00  0.00    -0.049 A  
HETATM   30  C   UNL     1      -6.248  11.988  70.639  1.00  0.00     0.358 A  
HETATM   31  C   UNL     1      -5.882  11.166  69.573  1.00  0.00    -0.061 A  
BRANCH  31  32
HETATM   32  O   UNL     1      -5.351   9.902  69.689  1.00  0.00    -0.034 OA 
BRANCH  32  33
HETATM   33  C   UNL     1      -6.142   8.823  70.024  1.00  0.00    -0.037 A  
HETATM   34  C   UNL     1      -5.609   7.910  70.938  1.00  0.00    -0.030 A  
HETATM   35  C   UNL     1      -6.348   6.791  71.331  1.00  0.00    -0.042 A  
HETATM   36  C   UNL     1      -7.625   6.584  70.812  1.00  0.00    -0.089 A  
HETATM   37  C   UNL     1      -8.179   7.517  69.937  1.00  0.00    -0.131 A  
HETATM   38  C   UNL     1      -7.450   8.651  69.567  1.00  0.00    -0.072 A  
ENDBRANCH  32  33
ENDBRANCH  31  32
ENDBRANCH  14  26
ENDBRANCH   3   6
TORSDOF 6
ENDMDL
MODEL      168
REMARK 921   NORMALIZED FREE ENERGY PREDICTED BY IDOCK:   23.20 KCAL/MOL
REMARK 922        TOTAL FREE ENERGY PREDICTED BY IDOCK:   31.04 KCAL/MOL
REMARK 923 INTER-LIGAND FREE ENERGY PREDICTED BY IDOCK:   30.92 KCAL/MOL
REMARK 924 INTRA-LIGAND FREE ENERGY PREDICTED BY IDOCK:    0.12 KCAL/MOL
REMARK 927      BINDING AFFINITY PREDICTED BY RF-SCORE:    0.00 PKD
ROOT
HETATM    1  N   UNL     1     -10.907  10.344  73.119  1.00  0.00     7.965 N  
HETATM    2  H1  UNL     1     -10.282  11.127  73.316  1.00  0.00     0.000 HD 
HETATM    3  C   UNL     1     -11.290  10.113  71.827  1.00  0.00     0.582 C  
HETATM    4  H2  UNL     1     -11.239   9.744  73.874  1.00  0.00     0.000 HD 
HETATM    5  O   UNL     1     -12.040   9.174  71.591  1.00  0.00    -0.315 OA 
ENDROOT
BRANCH   3   6
HETATM    6  C   UNL     1     -10.739  11.025  70.834  1.00  0.00     1.662 A  
HETATM    7  C   UNL     1     -11.298  12.252  70.486  1.00  0.00     0.845 A  
HETATM    8  N   UNL     1     -12.472  12.872  70.794  1.00  0.00    -0.330 NA 
HETATM    9  C   UNL     1     -12.905  13.956  69.910  1.00  0.00     0.202 C  
HETATM   10  H   UNL     1     -13.024  12.593  71.605  1.00  0.00     0.000 HD 
HETATM   11  C   UNL     1     -11.753  14.936  69.737  1.00  0.00    -0.344 C  
HETATM   12  C   UNL     1     -10.459  14.249  69.215  1.00  0.00    -0.097 C  
HETATM   13  N   UNL     1     -10.367  12.872  69.701  1.00  0.00     0.699 NA 
HETATM   14  C   UNL     1      -9.550  10.927  70.015  1.00  0.00     0.912 A  
HETATM   15  N   UNL     1      -9.436  12.027  69.238  1.00  0.00     0.492 NA 
BRANCH  12  16
HETATM   16  C   UNL     1      -9.185  15.166  69.411  1.00  0.00    -0.175 C  
HETATM   17  C   UNL     1      -9.123  16.435  68.542  1.00  0.00    -0.223 C  
HETATM   18  C   UNL     1     -10.137  17.461  69.016  1.00  0.00    -0.295 C  
HETATM   19  O   UNL     1     -10.862  19.898  69.914  1.00  0.00     0.767 OA 
HETATM   20  N   UNL     1      -9.821  17.892  70.370  1.00  0.00     1.786 N  
HETATM   21  C   UNL     1      -8.848  15.617  70.849  1.00  0.00     2.664 C  
HETATM   22  C   UNL     1      -9.675  16.815  71.351  1.00  0.00     5.179 C  
HETATM   23  C   UNL     1     -10.286  19.159  70.712  1.00  0.00     2.066 C  
BRANCH  23  24
HETATM   24  C   UNL     1     -10.031  19.629  72.099  1.00  0.00     3.299 C  
HETATM   25  C   UNL     1      -8.776  19.651  72.566  1.00  0.00     4.283 C  
ENDBRANCH  23  24
ENDBRANCH  12  16
BRANCH  14  26
HETATM   26  C   UNL     1      -8.473   9.911  69.945  1.00  0.00    -0.210 A  
HETATM   27  C   UNL     1      -8.096   9.196  71.102  1.00  0.00    -0.136 A  
HETATM   28  C   UNL     1      -7.760   9.635  68.777  1.00  0.00    -0.080 A  
HETATM   29  C   UNL     1      -7.094   8.212  71.073  1.00  0.00    -0.056 A  
HETATM   30  C   UNL     1      -6.744   8.665  68.746  1.00  0.00    -0.058 A  
HETATM   31  C   UNL     1      -6.430   7.920  69.883  1.00  0.00    -0.037 A  
BRANCH  31  32
HETATM   32  O   UNL     1      -5.448   6.958  69.958  1.00  0.00    -0.018 OA 
BRANCH  32  33
HETATM   33  C   UNL     1      -5.603   5.732  69.347  1.00  0.00    -0.008 A  
HETATM   34  C   UNL     1      -6.107   5.736  68.043  1.00  0.00    -0.021 A  
HETATM   35  C   UNL     1      -6.291   4.534  67.354  1.00  0.00    -0.041 A  
HETATM   36  C   UNL     1      -5.968   3.324  67.967  1.00  0.00    -0.027 A  
HETATM   37  C   UNL     1      -5.420   3.319  69.249  1.00  0.00    -0.017 A  
HETATM   38  C   UNL     1      -5.209   4.523  69.926  1.00  0.00     0.000 A  
ENDBRANCH  32  33
ENDBRANCH  31  32
ENDBRANCH  14  26
ENDBRANCH   3   6
TORSDOF 6
ENDMDL
MODEL      169
REMARK 921   NORMALIZED FREE ENERGY PREDICTED BY IDOCK:   26.39 KCAL/MOL
REMARK 922        TOTAL FREE ENERGY PREDICTED BY IDOCK:   35.35 KCAL/MOL
REMARK 923 INTER-LIGAND FREE ENERGY PREDICTED BY IDOCK:   33.82 KCAL/MOL
REMARK 924 INTRA-LIGAND FREE ENERGY PREDICTED BY IDOCK:    1.53 KCAL/MOL
REMARK 927      BINDING AFFINITY PREDICTED BY RF-SCORE:    0.00 PKD
ROOT
HETATM    1  N   UNL     1     -10.245  14.058  73.206  1.00  0.00     6.020 N  
HETATM    2  H1  UNL     1      -9.295  13.715  73.065  1.00  0.00     0.000 HD 
HETATM    3  C   UNL     1     -11.000  14.388  72.114  1.00  0.00     2.055 C  
HETATM    4  H2  UNL     1     -10.627  14.153  74.147  1.00  0.00     0.000 HD 
HETATM    5  O   UNL     1     -12.140  14.799  72.284  1.00  0.00    -0.332 OA 
ENDROOT
BRANCH   3   6
HETATM    6  C   UNL     1     -10.355  14.194  70.823  1.00  0.00     2.030 A  
HETATM    7  C   UNL     1      -9.515  15.119  70.208  1.00  0.00     0.524 A  
HETATM    8  N   UNL     1      -9.175  16.410  70.485  1.00  0.00     1.971 NA 
HETATM    9  C   UNL     1      -8.608  17.200  69.389  1.00  0.00     0.345 C  
HETATM   10  H   UNL     1      -9.309  16.808  71.414  1.00  0.00     0.000 HD 
HETATM   11  C   UNL     1      -7.465  16.414  68.761  1.00  0.00    -0.207 C  
HETATM   12  C   UNL     1      -7.903  15.000  68.285  1.00  0.00    -0.119 C  
HETATM   13  N   UNL     1      -8.960  14.465  69.144  1.00  0.00     0.015 NA 
HETATM   14  C   UNL     1     -10.388  13.076  69.905  1.00  0.00     1.456 A  
HETATM   15  N   UNL     1      -9.622  13.345  68.825  1.00  0.00    -0.039 NA 
BRANCH  12  16
HETATM   16  C   UNL     1      -6.661  14.061  68.005  1.00  0.00    -0.148 C  
HETATM   17  C   UNL     1      -5.473  14.202  68.973  1.00  0.00    -0.084 C  
HETATM   18  C   UNL     1      -5.816  13.619  70.333  1.00  0.00    -0.161 C  
HETATM   19  O   UNL     1      -5.408  11.956  72.416  1.00  0.00    -0.247 OA 
HETATM   20  N   UNL     1      -6.067  12.189  70.219  1.00  0.00    -0.134 N  
HETATM   21  C   UNL     1      -6.932  12.545  67.878  1.00  0.00    -0.105 C  
HETATM   22  C   UNL     1      -7.071  11.809  69.223  1.00  0.00    -0.032 C  
HETATM   23  C   UNL     1      -5.848  11.455  71.381  1.00  0.00     0.514 C  
BRANCH  23  24
HETATM   24  C   UNL     1      -6.135   9.998  71.333  1.00  0.00     0.139 C  
HETATM   25  C   UNL     1      -6.543   9.445  70.182  1.00  0.00    -0.062 C  
ENDBRANCH  23  24
ENDBRANCH  12  16
BRANCH  14  26
HETATM   26  C   UNL     1     -11.034  11.743  69.986  1.00  0.00     0.318 A  
HETATM   27  C   UNL     1     -10.301  10.579  69.672  1.00  0.00    -0.231 A  
HETATM   28  C   UNL     1     -12.376  11.567  70.329  1.00  0.00    -0.355 A  
HETATM   29  C   UNL     1     -10.871   9.299  69.755  1.00  0.00    -0.239 A  
HETATM   30  C   UNL     1     -12.957  10.289  70.395  1.00  0.00    -0.153 A  
HETATM   31  C   UNL     1     -12.199   9.144  70.147  1.00  0.00     0.473 A  
BRANCH  31  32
HETATM   32  O   UNL     1     -12.676   7.853  70.176  1.00  0.00     0.779 OA 
BRANCH  32  33
HETATM   33  C   UNL     1     -11.970   6.818  69.599  1.00  0.00     0.170 A  
HETATM   34  C   UNL     1     -12.692   5.665  69.279  1.00  0.00     7.796 A  
HETATM   35  C   UNL     1     -12.051   4.572  68.689  1.00  0.00    11.529 A  
HETATM   36  C   UNL     1     -10.686   4.632  68.413  1.00  0.00     0.783 A  
HETATM   37  C   UNL     1      -9.973   5.798  68.687  1.00  0.00    -0.201 A  
HETATM   38  C   UNL     1     -10.621   6.901  69.251  1.00  0.00    -0.250 A  
ENDBRANCH  32  33
ENDBRANCH  31  32
ENDBRANCH  14  26
ENDBRANCH   3   6
TORSDOF 6
ENDMDL
MODEL      170
REMARK 921   NORMALIZED FREE ENERGY PREDICTED BY IDOCK:   28.48 KCAL/MOL
REMARK 922        TOTAL FREE ENERGY PREDICTED BY IDOCK:   38.17 KCAL/MOL
REMARK 923 INTER-LIGAND FREE ENERGY PREDICTED BY IDOCK:   37.48 KCAL/MOL
REMARK 924 INTRA-LIGAND FREE ENERGY PREDICTED BY IDOCK:    0.69 KCAL/MOL
REMARK 927      BINDING AFFINITY PREDICTED BY RF-SCORE:    0.00 PKD
ROOT
HETATM    1  N   UNL     1      -7.570  13.353  65.137  1.00  0.00     6.416 N  
HETATM    2  H1  UNL     1      -8.120  14.135  65.493  1.00  0.00     0.000 HD 
HETATM    3  C   UNL     1      -7.585  12.168  65.820  1.00  0.00     1.590 C  
HETATM    4  H2  UNL     1      -7.018  13.454  64.286  1.00  0.00     0.000 HD 
HETATM    5  O   UNL     1      -6.925  11.230  65.392  1.00  0.00     0.328 OA 
ENDROOT
BRANCH   3   6
HETATM    6  C   UNL     1      -8.423  12.139  67.011  1.00  0.00    -0.183 A  
HETATM    7  C   UNL     1      -8.702  13.242  67.813  1.00  0.00    -0.194 A  
HETATM    8  N   UNL     1      -8.232  14.522  67.849  1.00  0.00    -0.142 NA 
HETATM    9  C   UNL     1      -8.436  15.272  69.091  1.00  0.00    -0.234 C  
HETATM   10  H   UNL     1      -7.758  14.938  67.047  1.00  0.00     0.000 HD 
HETATM   11  C   UNL     1      -9.904  15.176  69.483  1.00  0.00    -0.191 C  
HETATM   12  C   UNL     1     -10.392  13.705  69.612  1.00  0.00     0.596 C  
HETATM   13  N   UNL     1      -9.683  12.836  68.673  1.00  0.00    -0.110 NA 
HETATM   14  C   UNL     1      -9.151  11.053  67.631  1.00  0.00    -0.145 A  
HETATM   15  N   UNL     1      -9.802  11.502  68.726  1.00  0.00    -0.180 NA 
BRANCH  12  16
HETATM   16  C   UNL     1     -11.971  13.607  69.628  1.00  0.00    -0.402 C  
HETATM   17  C   UNL     1     -12.561  12.200  69.838  1.00  0.00     0.152 C  
HETATM   18  C   UNL     1     -12.353  11.740  71.270  1.00  0.00    -0.145 C  
HETATM   19  O   UNL     1     -13.214  10.845  73.663  1.00  0.00     4.731 OA 
HETATM   20  N   UNL     1     -13.071  12.611  72.189  1.00  0.00    -0.387 N  
HETATM   21  C   UNL     1     -12.731  14.538  70.599  1.00  0.00    -0.421 C  
HETATM   22  C   UNL     1     -12.775  14.040  72.055  1.00  0.00    -0.277 C  
HETATM   23  C   UNL     1     -13.425  12.029  73.403  1.00  0.00     5.201 C  
BRANCH  23  24
HETATM   24  C   UNL     1     -14.119  12.891  74.396  1.00  0.00    13.242 C  
HETATM   25  C   UNL     1     -14.357  14.176  74.101  1.00  0.00     8.646 C  
ENDBRANCH  23  24
ENDBRANCH  12  16
BRANCH  14  26
HETATM   26  C   UNL     1      -9.337   9.633  67.243  1.00  0.00    -0.163 A  
HETATM   27  C   UNL     1     -10.584   9.189  66.755  1.00  0.00    -0.207 A  
HETATM   28  C   UNL     1      -8.334   8.671  67.372  1.00  0.00    -0.116 A  
HETATM   29  C   UNL     1     -10.794   7.858  66.360  1.00  0.00     0.928 A  
HETATM   30  C   UNL     1      -8.545   7.333  66.996  1.00  0.00    -0.122 A  
HETATM   31  C   UNL     1      -9.763   6.925  66.452  1.00  0.00    -0.064 A  
BRANCH  31  32
HETATM   32  O   UNL     1     -10.071   5.642  66.063  1.00  0.00    -0.091 OA 
BRANCH  32  33
HETATM   33  C   UNL     1      -9.089   4.684  65.921  1.00  0.00    -0.135 A  
HETATM   34  C   UNL     1      -9.506   3.350  65.915  1.00  0.00    -0.117 A  
HETATM   35  C   UNL     1      -8.572   2.320  65.773  1.00  0.00    -0.114 A  
HETATM   36  C   UNL     1      -7.218   2.621  65.632  1.00  0.00    -0.066 A  
HETATM   37  C   UNL     1      -6.805   3.952  65.590  1.00  0.00    -0.057 A  
HETATM   38  C   UNL     1      -7.742   4.982  65.703  1.00  0.00    -0.087 A  
ENDBRANCH  32  33
ENDBRANCH  31  32
ENDBRANCH  14  26
ENDBRANCH   3   6
TORSDOF 6
ENDMDL
MODEL      171
REMARK 921   NORMALIZED FREE ENERGY PREDICTED BY IDOCK:   28.87 KCAL/MOL
REMARK 922        TOTAL FREE ENERGY PREDICTED BY IDOCK:   38.69 KCAL/MOL
REMARK 923 INTER-LIGAND FREE ENERGY PREDICTED BY IDOCK:   38.19 KCAL/MOL
REMARK 924 INTRA-LIGAND FREE ENERGY PREDICTED BY IDOCK:    0.50 KCAL/MOL
REMARK 927      BINDING AFFINITY PREDICTED BY RF-SCORE:    0.00 PKD
ROOT
HETATM    1  N   UNL     1      -6.055  20.283  68.924  1.00  0.00    -0.302 N  
HETATM    2  H1  UNL     1      -6.589  20.708  69.682  1.00  0.00     0.000 HD 
HETATM    3  C   UNL     1      -6.255  18.962  68.633  1.00  0.00    -0.225 C  
HETATM    4  H2  UNL     1      -5.384  20.835  68.390  1.00  0.00     0.000 HD 
HETATM    5  O   UNL     1      -5.614  18.452  67.723  1.00  0.00    -0.158 OA 
ENDROOT
BRANCH   3   6
HETATM    6  C   UNL     1      -7.250  18.282  69.451  1.00  0.00     0.002 A  
HETATM    7  C   UNL     1      -7.978  18.879  70.476  1.00  0.00     2.593 A  
HETATM    8  N   UNL     1      -7.914  20.095  71.091  1.00  0.00     1.304 NA 
HETATM    9  C   UNL     1      -8.550  20.211  72.405  1.00  0.00     2.850 C  
HETATM   10  H   UNL     1      -7.444  20.888  70.654  1.00  0.00     0.000 HD 
HETATM   11  C   UNL     1      -9.972  19.677  72.309  1.00  0.00     3.333 C  
HETATM   12  C   UNL     1     -10.028  18.220  71.770  1.00  0.00     5.751 C  
HETATM   13  N   UNL     1      -8.938  17.972  70.825  1.00  0.00     4.726 NA 
HETATM   14  C   UNL     1      -7.732  16.918  69.417  1.00  0.00     0.089 A  
HETATM   15  N   UNL     1      -8.673  16.740  70.370  1.00  0.00     2.541 NA 
BRANCH  12  16
HETATM   16  C   UNL     1     -11.486  17.818  71.305  1.00  0.00     3.174 C  
HETATM   17  C   UNL     1     -11.904  18.288  69.900  1.00  0.00     6.654 C  
HETATM   18  C   UNL     1     -11.167  17.502  68.830  1.00  0.00     0.566 C  
HETATM   19  O   UNL     1     -11.055  15.917  66.652  1.00  0.00    -0.205 OA 
HETATM   20  N   UNL     1     -11.531  16.094  68.900  1.00  0.00    -0.352 N  
HETATM   21  C   UNL     1     -11.871  16.324  71.387  1.00  0.00    -0.394 C  
HETATM   22  C   UNL     1     -11.359  15.469  70.214  1.00  0.00    -0.332 C  
HETATM   23  C   UNL     1     -11.392  15.386  67.710  1.00  0.00    -0.306 C  
BRANCH  23  24
HETATM   24  C   UNL     1     -11.705  13.933  67.739  1.00  0.00    -0.401 C  
HETATM   25  C   UNL     1     -10.849  13.064  67.186  1.00  0.00    -0.278 C  
ENDBRANCH  23  24
ENDBRANCH  12  16
BRANCH  14  26
HETATM   26  C   UNL     1      -7.425  15.778  68.520  1.00  0.00    -0.129 A  
HETATM   27  C   UNL     1      -7.029  16.011  67.186  1.00  0.00    -0.242 A  
HETATM   28  C   UNL     1      -7.543  14.444  68.915  1.00  0.00    -0.128 A  
HETATM   29  C   UNL     1      -6.711  14.960  66.312  1.00  0.00     3.627 A  
HETATM   30  C   UNL     1      -7.245  13.387  68.038  1.00  0.00    -0.123 A  
HETATM   31  C   UNL     1      -6.790  13.637  66.743  1.00  0.00     1.493 A  
BRANCH  31  32
HETATM   32  O   UNL     1      -6.482  12.675  65.809  1.00  0.00     2.516 OA 
BRANCH  32  33
HETATM   33  C   UNL     1      -7.320  11.604  65.584  1.00  0.00     0.968 A  
HETATM   34  C   UNL     1      -8.692  11.872  65.555  1.00  0.00     0.372 A  
HETATM   35  C   UNL     1      -9.608  10.841  65.331  1.00  0.00    -0.272 A  
HETATM   36  C   UNL     1      -9.154   9.538  65.131  1.00  0.00    -0.281 A  
HETATM   37  C   UNL     1      -7.786   9.275  65.112  1.00  0.00    -0.108 A  
HETATM   38  C   UNL     1      -6.869  10.312  65.307  1.00  0.00    -0.131 A  
ENDBRANCH  32  33
ENDBRANCH  31  32
ENDBRANCH  14  26
ENDBRANCH   3   6
TORSDOF 6
ENDMDL
MODEL      172
REMARK 921   NORMALIZED FREE ENERGY PREDICTED BY IDOCK:   31.34 KCAL/MOL
REMARK 922        TOTAL FREE ENERGY PREDICTED BY IDOCK:   42.03 KCAL/MOL
REMARK 923 INTER-LIGAND FREE ENERGY PREDICTED BY IDOCK:   40.83 KCAL/MOL
REMARK 924 INTRA-LIGAND FREE ENERGY PREDICTED BY IDOCK:    1.20 KCAL/MOL
REMARK 927      BINDING AFFINITY PREDICTED BY RF-SCORE:    0.00 PKD
ROOT
HETATM    1  N   UNL     1     -12.930  16.685  64.879  1.00  0.00     4.101 N  
HETATM    2  H1  UNL     1     -12.067  17.029  64.460  1.00  0.00     0.000 HD 
HETATM    3  C   UNL     1     -12.988  16.520  66.236  1.00  0.00     5.699 C  
HETATM    4  H2  UNL     1     -13.738  16.468  64.296  1.00  0.00     0.000 HD 
HETATM    5  O   UNL     1     -14.025  16.107  66.738  1.00  0.00     6.645 OA 
ENDROOT
BRANCH   3   6
HETATM    6  C   UNL     1     -11.779  16.878  66.964  1.00  0.00     1.310 A  
HETATM    7  C   UNL     1     -11.644  18.002  67.775  1.00  0.00     1.255 A  
HETATM    8  N   UNL     1     -12.432  19.089  68.015  1.00  0.00     3.400 NA 
HETATM    9  C   UNL     1     -11.782  20.268  68.592  1.00  0.00     3.227 C  
HETATM   10  H   UNL     1     -13.429  19.080  67.803  1.00  0.00     0.000 HD 
HETATM   11  C   UNL     1     -10.987  19.839  69.816  1.00  0.00     1.778 C  
HETATM   12  C   UNL     1      -9.962  18.714  69.499  1.00  0.00     0.228 C  
HETATM   13  N   UNL     1     -10.456  17.844  68.432  1.00  0.00    -0.358 NA 
HETATM   14  C   UNL     1     -10.496  16.214  67.056  1.00  0.00    -0.306 A  
HETATM   15  N   UNL     1      -9.672  16.918  67.863  1.00  0.00    -0.249 NA 
BRANCH  12  16
HETATM   16  C   UNL     1      -9.433  18.009  70.813  1.00  0.00     4.253 C  
HETATM   17  C   UNL     1      -9.905  16.562  71.043  1.00  0.00     2.899 C  
HETATM   18  C   UNL     1      -9.230  15.616  70.066  1.00  0.00     0.274 C  
HETATM   19  O   UNL     1      -7.734  13.462  69.439  1.00  0.00     0.279 OA 
HETATM   20  N   UNL     1      -7.791  15.604  70.289  1.00  0.00     0.599 N  
HETATM   21  C   UNL     1      -7.906  18.004  71.051  1.00  0.00     6.011 C  
HETATM   22  C   UNL     1      -7.144  16.918  70.270  1.00  0.00     1.426 C  
HETATM   23  C   UNL     1      -7.139  14.441  69.887  1.00  0.00     0.047 C  
BRANCH  23  24
HETATM   24  C   UNL     1      -5.662  14.396  70.050  1.00  0.00    -0.121 C  
HETATM   25  C   UNL     1      -5.128  13.607  70.991  1.00  0.00    -0.134 C  
ENDBRANCH  23  24
ENDBRANCH  12  16
BRANCH  14  26
HETATM   26  C   UNL     1      -9.997  14.936  66.494  1.00  0.00    -0.277 A  
HETATM   27  C   UNL     1      -8.839  14.331  67.027  1.00  0.00    -0.243 A  
HETATM   28  C   UNL     1     -10.599  14.294  65.411  1.00  0.00    -0.367 A  
HETATM   29  C   UNL     1      -8.346  13.112  66.536  1.00  0.00     0.349 A  
HETATM   30  C   UNL     1     -10.098  13.082  64.903  1.00  0.00    -0.233 A  
HETATM   31  C   UNL     1      -8.992  12.463  65.486  1.00  0.00     0.485 A  
BRANCH  31  32
HETATM   32  O   UNL     1      -8.422  11.286  65.057  1.00  0.00     0.078 OA 
BRANCH  32  33
HETATM   33  C   UNL     1      -8.720  10.086  65.666  1.00  0.00    -0.155 A  
HETATM   34  C   UNL     1      -7.658   9.198  65.862  1.00  0.00    -0.095 A  
HETATM   35  C   UNL     1      -7.876   7.961  66.475  1.00  0.00    -0.098 A  
HETATM   36  C   UNL     1      -9.157   7.610  66.897  1.00  0.00    -0.171 A  
HETATM   37  C   UNL     1     -10.209   8.511  66.747  1.00  0.00    -0.370 A  
HETATM   38  C   UNL     1      -9.985   9.760  66.160  1.00  0.00    -0.338 A  
ENDBRANCH  32  33
ENDBRANCH  31  32
ENDBRANCH  14  26
ENDBRANCH   3   6
TORSDOF 6
ENDMDL
MODEL      173
REMARK 921   NORMALIZED FREE ENERGY PREDICTED BY IDOCK:   57.25 KCAL/MOL
REMARK 922        TOTAL FREE ENERGY PREDICTED BY IDOCK:   77.02 KCAL/MOL
REMARK 923 INTER-LIGAND FREE ENERGY PREDICTED BY IDOCK:   75.16 KCAL/MOL
REMARK 924 INTRA-LIGAND FREE ENERGY PREDICTED BY IDOCK:    1.86 KCAL/MOL
REMARK 927      BINDING AFFINITY PREDICTED BY RF-SCORE:    0.00 PKD
ROOT
HETATM    1  N   UNL     1      -9.180  19.875  66.143  1.00  0.00    -0.461 N  
HETATM    2  H1  UNL     1      -8.539  20.190  66.872  1.00  0.00     0.000 HD 
HETATM    3  C   UNL     1      -9.512  18.550  66.082  1.00  0.00    -0.165 C  
HETATM    4  H2  UNL     1      -9.566  20.538  65.472  1.00  0.00     0.000 HD 
HETATM    5  O   UNL     1     -10.281  18.173  65.207  1.00  0.00    -0.262 OA 
ENDROOT
BRANCH   3   6
HETATM    6  C   UNL     1      -8.911  17.703  67.102  1.00  0.00    -0.249 A  
HETATM    7  C   UNL     1      -7.890  18.098  67.962  1.00  0.00    -0.261 A  
HETATM    8  N   UNL     1      -7.100  19.207  68.038  1.00  0.00    -0.238 NA 
HETATM    9  C   UNL     1      -5.856  19.088  68.802  1.00  0.00    -0.209 C  
HETATM   10  H   UNL     1      -7.364  20.080  67.583  1.00  0.00     0.000 HD 
HETATM   11  C   UNL     1      -6.177  18.502  70.170  1.00  0.00    -0.023 C  
HETATM   12  C   UNL     1      -6.927  17.144  70.077  1.00  0.00     0.752 C  
HETATM   13  N   UNL     1      -7.780  17.099  68.888  1.00  0.00    -0.252 NA 
HETATM   14  C   UNL     1      -9.195  16.336  67.486  1.00  0.00    -0.205 A  
HETATM   15  N   UNL     1      -8.381  15.966  68.500  1.00  0.00    -0.173 NA 
BRANCH  12  16
HETATM   16  C   UNL     1      -7.595  16.743  71.454  1.00  0.00     6.821 C  
HETATM   17  C   UNL     1      -9.003  17.307  71.715  1.00  0.00    11.245 C  
HETATM   18  C   UNL     1     -10.029  16.621  70.829  1.00  0.00     2.124 C  
HETATM   19  O   UNL     1     -12.284  15.207  70.403  1.00  0.00    -0.299 OA 
HETATM   20  N   UNL     1     -10.104  15.203  71.152  1.00  0.00     0.796 N  
HETATM   21  C   UNL     1      -7.668  15.238  71.797  1.00  0.00     4.421 C  
HETATM   22  C   UNL     1      -8.828  14.486  71.119  1.00  0.00     4.058 C  
HETATM   23  C   UNL     1     -11.316  14.591  70.848  1.00  0.00    -0.022 C  
BRANCH  23  24
HETATM   24  C   UNL     1     -11.430  13.133  71.113  1.00  0.00     1.556 C  
HETATM   25  C   UNL     1     -10.938  12.261  70.223  1.00  0.00     1.059 C  
ENDBRANCH  23  24
ENDBRANCH  12  16
BRANCH  14  26
HETATM   26  C   UNL     1     -10.213  15.364  67.020  1.00  0.00    -0.262 A  
HETATM   27  C   UNL     1     -10.780  14.443  67.925  1.00  0.00    -0.246 A  
HETATM   28  C   UNL     1     -10.630  15.277  65.690  1.00  0.00    -0.377 A  
HETATM   29  C   UNL     1     -11.760  13.520  67.526  1.00  0.00    -0.403 A  
HETATM   30  C   UNL     1     -11.597  14.343  65.282  1.00  0.00    -0.353 A  
HETATM   31  C   UNL     1     -12.197  13.484  66.203  1.00  0.00    -0.433 A  
BRANCH  31  32
HETATM   32  O   UNL     1     -13.143  12.530  65.903  1.00  0.00     0.373 OA 
BRANCH  32  33
HETATM   33  C   UNL     1     -12.778  11.284  65.440  1.00  0.00     3.525 A  
HETATM   34  C   UNL     1     -11.900  10.546  66.240  1.00  0.00     2.160 A  
HETATM   35  C   UNL     1     -11.483   9.273  65.842  1.00  0.00     3.887 A  
HETATM   36  C   UNL     1     -11.947   8.732  64.644  1.00  0.00    15.199 A  
HETATM   37  C   UNL     1     -12.859   9.445  63.867  1.00  0.00    15.689 A  
HETATM   38  C   UNL     1     -13.297  10.706  64.280  1.00  0.00     6.388 A  
ENDBRANCH  32  33
ENDBRANCH  31  32
ENDBRANCH  14  26
ENDBRANCH   3   6
TORSDOF 6
ENDMDL
MODEL      174
REMARK 921   NORMALIZED FREE ENERGY PREDICTED BY IDOCK:   60.07 KCAL/MOL
REMARK 922        TOTAL FREE ENERGY PREDICTED BY IDOCK:   80.84 KCAL/MOL
REMARK 923 INTER-LIGAND FREE ENERGY PREDICTED BY IDOCK:   79.92 KCAL/MOL
REMARK 924 INTRA-LIGAND FREE ENERGY PREDICTED BY IDOCK:    0.92 KCAL/MOL
REMARK 927      BINDING AFFINITY PREDICTED BY RF-SCORE:    0.00 PKD
ROOT
HETATM    1  N   UNL     1      -5.356  20.688  69.550  1.00  0.00    -0.313 N  
HETATM    2  H1  UNL     1      -5.821  21.157  70.327  1.00  0.00     0.000 HD 
HETATM    3  C   UNL     1      -5.835  19.480  69.123  1.00  0.00    -0.239 C  
HETATM    4  H2  UNL     1      -4.546  21.114  69.098  1.00  0.00     0.000 HD 
HETATM    5  O   UNL     1      -5.275  18.918  68.191  1.00  0.00    -0.175 OA 
ENDROOT
BRANCH   3   6
HETATM    6  C   UNL     1      -7.004  18.981  69.833  1.00  0.00     0.148 A  
HETATM    7  C   UNL     1      -7.545  19.560  70.978  1.00  0.00     2.018 A  
HETATM    8  N   UNL     1      -7.139  20.563  71.807  1.00  0.00    -0.117 NA 
HETATM    9  C   UNL     1      -7.740  20.610  73.142  1.00  0.00     5.748 C  
HETATM   10  H   UNL     1      -6.445  21.250  71.511  1.00  0.00     0.000 HD 
HETATM   11  C   UNL     1      -9.254  20.547  72.997  1.00  0.00     4.194 C  
HETATM   12  C   UNL     1      -9.727  19.301  72.196  1.00  0.00     4.498 C  
HETATM   13  N   UNL     1      -8.738  18.927  71.184  1.00  0.00     4.863 NA 
HETATM   14  C   UNL     1      -7.867  17.851  69.561  1.00  0.00     0.515 A  
HETATM   15  N   UNL     1      -8.839  17.781  70.496  1.00  0.00     3.728 NA 
BRANCH  12  16
HETATM   16  C   UNL     1     -11.228  19.442  71.716  1.00  0.00     6.321 C  
HETATM   17  C   UNL     1     -11.462  20.314  70.469  1.00  0.00     5.458 C  
HETATM   18  C   UNL     1     -10.955  19.612  69.221  1.00  0.00     1.535 C  
HETATM   19  O   UNL     1     -11.249  18.590  66.743  1.00  0.00     0.132 OA 
HETATM   20  N   UNL     1     -11.706  18.385  68.994  1.00  0.00     3.343 N  
HETATM   21  C   UNL     1     -12.024  18.139  71.482  1.00  0.00     7.080 C  
HETATM   22  C   UNL     1     -11.749  17.460  70.128  1.00  0.00     2.827 C  
HETATM   23  C   UNL     1     -11.747  17.953  67.671  1.00  0.00     1.595 C  
BRANCH  23  24
HETATM   24  C   UNL     1     -12.461  16.680  67.391  1.00  0.00     2.862 C  
HETATM   25  C   UNL     1     -11.760  15.598  67.026  1.00  0.00     0.281 C  
ENDBRANCH  23  24
ENDBRANCH  12  16
BRANCH  14  26
HETATM   26  C   UNL     1      -7.891  16.864  68.455  1.00  0.00    -0.240 A  
HETATM   27  C   UNL     1      -8.923  15.905  68.382  1.00  0.00    -0.189 A  
HETATM   28  C   UNL     1      -6.902  16.797  67.472  1.00  0.00    -0.170 A  
HETATM   29  C   UNL     1      -8.992  14.966  67.341  1.00  0.00    -0.198 A  
HETATM   30  C   UNL     1      -6.955  15.846  66.438  1.00  0.00     0.873 A  
HETATM   31  C   UNL     1      -8.019  14.950  66.343  1.00  0.00     0.740 A  
BRANCH  31  32
HETATM   32  O   UNL     1      -8.158  13.978  65.378  1.00  0.00     3.265 OA 
BRANCH  32  33
HETATM   33  C   UNL     1      -7.203  12.998  65.211  1.00  0.00     7.254 A  
HETATM   34  C   UNL     1      -6.664  12.438  66.373  1.00  0.00     1.144 A  
HETATM   35  C   UNL     1      -5.692  11.437  66.289  1.00  0.00    -0.072 A  
HETATM   36  C   UNL     1      -5.260  10.989  65.042  1.00  0.00     0.042 A  
HETATM   37  C   UNL     1      -5.830  11.511  63.881  1.00  0.00     2.136 A  
HETATM   38  C   UNL     1      -6.822  12.492  63.966  1.00  0.00     9.025 A  
ENDBRANCH  32  33
ENDBRANCH  31  32
ENDBRANCH  14  26
ENDBRANCH   3   6
TORSDOF 6
ENDMDL
MODEL      175
REMARK 921   NORMALIZED FREE ENERGY PREDICTED BY IDOCK:   75.72 KCAL/MOL
REMARK 922        TOTAL FREE ENERGY PREDICTED BY IDOCK:  101.98 KCAL/MOL
REMARK 923 INTER-LIGAND FREE ENERGY PREDICTED BY IDOCK:  101.94 KCAL/MOL
REMARK 924 INTRA-LIGAND FREE ENERGY PREDICTED BY IDOCK:    0.04 KCAL/MOL
REMARK 927      BINDING AFFINITY PREDICTED BY RF-SCORE:    0.00 PKD
ROOT
HETATM    1  N   UNL     1     -10.461  18.020  71.074  1.00  0.00     1.594 N  
HETATM    2  H1  UNL     1     -11.450  17.771  71.101  1.00  0.00     0.000 HD 
HETATM    3  C   UNL     1      -9.765  17.839  69.910  1.00  0.00     0.963 C  
HETATM    4  H2  UNL     1      -9.999  18.397  71.901  1.00  0.00     0.000 HD 
HETATM    5  O   UNL     1      -8.578  18.138  69.878  1.00  0.00     1.093 OA 
ENDROOT
BRANCH   3   6
HETATM    6  C   UNL     1     -10.534  17.311  68.793  1.00  0.00    -0.340 A  
HETATM    7  C   UNL     1     -11.445  18.044  68.037  1.00  0.00     0.982 A  
HETATM    8  N   UNL     1     -11.975  19.295  68.158  1.00  0.00     1.790 NA 
HETATM    9  C   UNL     1     -13.215  19.566  67.427  1.00  0.00     6.739 C  
HETATM   10  H   UNL     1     -11.529  20.009  68.732  1.00  0.00     0.000 HD 
HETATM   11  C   UNL     1     -13.028  19.146  65.976  1.00  0.00    10.415 C  
HETATM   12  C   UNL     1     -12.590  17.661  65.835  1.00  0.00     7.728 C  
HETATM   13  N   UNL     1     -11.768  17.250  66.973  1.00  0.00     1.297 NA 
HETATM   14  C   UNL     1     -10.553  15.992  68.195  1.00  0.00    -0.286 A  
HETATM   15  N   UNL     1     -11.427  15.968  67.164  1.00  0.00     0.111 NA 
BRANCH  12  16
HETATM   16  C   UNL     1     -12.024  17.347  64.391  1.00  0.00     3.626 C  
HETATM   17  C   UNL     1     -10.842  18.215  63.922  1.00  0.00     7.271 C  
HETATM   18  C   UNL     1      -9.576  17.851  64.678  1.00  0.00     4.841 C  
HETATM   19  O   UNL     1      -7.007  17.047  64.830  1.00  0.00     2.138 OA 
HETATM   20  N   UNL     1      -9.196  16.475  64.389  1.00  0.00     4.663 N  
HETATM   21  C   UNL     1     -11.628  15.885  64.086  1.00  0.00    -0.058 C  
HETATM   22  C   UNL     1     -10.243  15.476  64.619  1.00  0.00     0.406 C  
HETATM   23  C   UNL     1      -7.842  16.190  64.542  1.00  0.00     9.910 C  
BRANCH  23  24
HETATM   24  C   UNL     1      -7.409  14.788  64.306  1.00  0.00    18.564 C  
HETATM   25  C   UNL     1      -8.023  14.058  63.365  1.00  0.00    16.405 C  
ENDBRANCH  23  24
ENDBRANCH  12  16
BRANCH  14  26
HETATM   26  C   UNL     1      -9.770  14.764  68.473  1.00  0.00    -0.218 A  
HETATM   27  C   UNL     1     -10.169  13.887  69.503  1.00  0.00     0.368 A  
HETATM   28  C   UNL     1      -8.604  14.432  67.782  1.00  0.00    -0.171 A  
HETATM   29  C   UNL     1      -9.466  12.705  69.785  1.00  0.00     2.289 A  
HETATM   30  C   UNL     1      -7.885  13.259  68.072  1.00  0.00    -0.148 A  
HETATM   31  C   UNL     1      -8.332  12.368  69.049  1.00  0.00     0.395 A  
BRANCH  31  32
HETATM   32  O   UNL     1      -7.696  11.203  69.413  1.00  0.00    -0.085 OA 
BRANCH  32  33
HETATM   33  C   UNL     1      -6.958  10.478  68.502  1.00  0.00    -0.066 A  
HETATM   34  C   UNL     1      -6.039   9.562  69.022  1.00  0.00    -0.042 A  
HETATM   35  C   UNL     1      -5.253   8.786  68.165  1.00  0.00    -0.034 A  
HETATM   36  C   UNL     1      -5.387   8.923  66.784  1.00  0.00    -0.039 A  
HETATM   37  C   UNL     1      -6.335   9.801  66.262  1.00  0.00    -0.070 A  
HETATM   38  C   UNL     1      -7.141  10.555  67.120  1.00  0.00    -0.091 A  
ENDBRANCH  32  33
ENDBRANCH  31  32
ENDBRANCH  14  26
ENDBRANCH   3   6
TORSDOF 6
ENDMDL
MODEL      176
REMARK 921   NORMALIZED FREE ENERGY PREDICTED BY IDOCK:   93.23 KCAL/MOL
REMARK 922        TOTAL FREE ENERGY PREDICTED BY IDOCK:  125.63 KCAL/MOL
REMARK 923 INTER-LIGAND FREE ENERGY PREDICTED BY IDOCK:  124.39 KCAL/MOL
REMARK 924 INTRA-LIGAND FREE ENERGY PREDICTED BY IDOCK:    1.24 KCAL/MOL
REMARK 927      BINDING AFFINITY PREDICTED BY RF-SCORE:    0.00 PKD
ROOT
HETATM    1  N   UNL     1      -8.156  17.017  69.819  1.00  0.00     0.770 N  
HETATM    2  H1  UNL     1      -8.115  16.017  70.016  1.00  0.00     0.000 HD 
HETATM    3  C   UNL     1      -8.410  17.430  68.541  1.00  0.00    -0.271 C  
HETATM    4  H2  UNL     1      -8.010  17.697  70.565  1.00  0.00     0.000 HD 
HETATM    5  O   UNL     1      -8.460  18.631  68.306  1.00  0.00    -0.304 OA 
ENDROOT
BRANCH   3   6
HETATM    6  C   UNL     1      -8.619  16.369  67.566  1.00  0.00    -0.185 A  
HETATM    7  C   UNL     1      -8.762  16.566  66.196  1.00  0.00    -0.300 A  
HETATM    8  N   UNL     1      -8.895  17.675  65.414  1.00  0.00     0.459 NA 
HETATM    9  C   UNL     1      -9.452  17.482  64.072  1.00  0.00     9.926 C  
HETATM   10  H   UNL     1      -8.619  18.598  65.748  1.00  0.00     0.000 HD 
HETATM   11  C   UNL     1      -8.683  16.367  63.380  1.00  0.00    18.431 C  
HETATM   12  C   UNL     1      -8.682  15.044  64.199  1.00  0.00     9.502 C  
HETATM   13  N   UNL     1      -8.713  15.321  65.635  1.00  0.00     0.613 NA 
HETATM   14  C   UNL     1      -8.709  14.934  67.733  1.00  0.00    -0.167 A  
HETATM   15  N   UNL     1      -8.901  14.344  66.533  1.00  0.00    -0.158 NA 
BRANCH  12  16
HETATM   16  C   UNL     1      -7.579  14.033  63.686  1.00  0.00    18.666 C  
HETATM   17  C   UNL     1      -6.602  13.499  64.749  1.00  0.00    15.646 C  
HETATM   18  C   UNL     1      -7.301  12.523  65.678  1.00  0.00     3.313 C  
HETATM   19  O   UNL     1      -7.594  10.126  66.878  1.00  0.00    -0.097 OA 
HETATM   20  N   UNL     1      -7.753  11.356  64.935  1.00  0.00     0.871 N  
HETATM   21  C   UNL     1      -8.062  12.799  62.891  1.00  0.00     6.444 C  
HETATM   22  C   UNL     1      -8.585  11.644  63.765  1.00  0.00     0.795 C  
HETATM   23  C   UNL     1      -7.894  10.193  65.686  1.00  0.00    -0.145 C  
BRANCH  23  24
HETATM   24  C   UNL     1      -8.399   8.983  64.985  1.00  0.00    -0.174 C  
HETATM   25  C   UNL     1      -8.966   7.999  65.695  1.00  0.00    -0.102 C  
ENDBRANCH  23  24
ENDBRANCH  12  16
BRANCH  14  26
HETATM   26  C   UNL     1      -8.568  14.062  68.924  1.00  0.00     0.053 A  
HETATM   27  C   UNL     1      -7.820  12.868  68.844  1.00  0.00     0.139 A  
HETATM   28  C   UNL     1      -9.181  14.338  70.147  1.00  0.00     1.627 A  
HETATM   29  C   UNL     1      -7.647  12.025  69.954  1.00  0.00     1.311 A  
HETATM   30  C   UNL     1      -9.028  13.488  71.256  1.00  0.00     9.880 A  
HETATM   31  C   UNL     1      -8.229  12.347  71.179  1.00  0.00    10.386 A  
BRANCH  31  32
HETATM   32  O   UNL     1      -8.023  11.449  72.201  1.00  0.00     9.843 OA 
BRANCH  32  33
HETATM   33  C   UNL     1      -8.568  10.183  72.160  1.00  0.00     5.366 A  
HETATM   34  C   UNL     1      -8.572   9.459  73.356  1.00  0.00     2.795 A  
HETATM   35  C   UNL     1      -9.108   8.169  73.397  1.00  0.00    -0.309 A  
HETATM   36  C   UNL     1      -9.646   7.601  72.244  1.00  0.00    -0.215 A  
HETATM   37  C   UNL     1      -9.687   8.338  71.061  1.00  0.00    -0.201 A  
HETATM   38  C   UNL     1      -9.177   9.639  71.027  1.00  0.00     0.181 A  
ENDBRANCH  32  33
ENDBRANCH  31  32
ENDBRANCH  14  26
ENDBRANCH   3   6
TORSDOF 6
ENDMDL
