MODEL        1
REMARK 921   NORMALIZED FREE ENERGY PREDICTED BY IDOCK:   -6.94 KCAL/MOL
REMARK 922        TOTAL FREE ENERGY PREDICTED BY IDOCK:   -9.07 KCAL/MOL
REMARK 923 INTER-LIGAND FREE ENERGY PREDICTED BY IDOCK:   -8.56 KCAL/MOL
REMARK 924 INTRA-LIGAND FREE ENERGY PREDICTED BY IDOCK:   -0.51 KCAL/MOL
REMARK 927      BINDING AFFINITY PREDICTED BY RF-SCORE:    0.00 PKD
ROOT
HETATM    1  C   UNL     1     -12.324  15.712  70.929  1.00  0.00    -0.479 C  
HETATM    2  C   UNL     1     -12.191  14.476  70.101  1.00  0.00    -0.399 C  
HETATM    3  C   UNL     1     -11.859  14.464  68.805  1.00  0.00    -0.325 C  
HETATM    4  N   UNL     1     -11.762  13.297  68.066  1.00  0.00    -0.340 N  
HETATM    5  C   UNL     1     -11.928  12.054  68.666  1.00  0.00    -0.235 C  
HETATM    6  O   UNL     1     -12.789  13.106  71.939  1.00  0.00    -0.293 OA 
HETATM    7  O   UNL     1     -11.806  10.980  68.078  1.00  0.00    -0.593 OA 
HETATM    8  H   UNL     1     -12.376  11.166  70.449  1.00  0.00     0.000 HD 
HETATM    9  N   UNL     1     -12.258  12.071  69.993  1.00  0.00    -0.245 N  
HETATM   10  C   UNL     1     -12.442  13.178  70.767  1.00  0.00    -0.308 C  
ENDROOT
BRANCH   4  11
HETATM   11  C   UNL     1     -11.387  13.310  66.651  1.00  0.00    -0.321 C  
HETATM   12  C   UNL     1     -12.522  13.706  65.713  1.00  0.00    -0.524 C  
HETATM   13  O   UNL     1     -10.329  14.258  66.406  1.00  0.00    -0.275 OA 
HETATM   14  C   UNL     1     -11.785  14.221  64.499  1.00  0.00    -0.418 C  
HETATM   15  C   UNL     1     -10.525  14.849  65.102  1.00  0.00    -0.417 C  
BRANCH  14  16
HETATM   16  N   UNL     1     -11.388  13.080  63.648  1.00  0.00    -0.592 NA 
HETATM   17  H   UNL     1     -10.419  12.923  63.371  1.00  0.00     0.000 HD 
BRANCH  16  18
HETATM   18  N   UNL     1     -12.308  12.321  63.291  1.00  0.00    -0.534 NA 
HETATM   19  N   UNL     1     -13.150  11.628  62.959  1.00  0.00    -0.760 NA 
HETATM   20  H1  UNL     1     -13.904  11.006  62.667  1.00  0.00     0.000 HD 
HETATM   21  H2  UNL     1     -13.143  12.070  62.040  1.00  0.00     0.000 HD 
ENDBRANCH  16  18
ENDBRANCH  14  16
BRANCH  15  22
HETATM   22  C   UNL     1     -10.632  16.367  65.275  1.00  0.00    -0.299 C  
HETATM   23  H   UNL     1     -11.458  17.900  64.330  1.00  0.00     0.000 HD 
HETATM   24  O   UNL     1     -11.391  16.958  64.223  1.00  0.00    -1.202 OA 
ENDBRANCH  15  22
ENDBRANCH   4  11
TORSDOF 4
ENDMDL
MODEL        2
REMARK 921   NORMALIZED FREE ENERGY PREDICTED BY IDOCK:   -6.66 KCAL/MOL
REMARK 922        TOTAL FREE ENERGY PREDICTED BY IDOCK:   -8.73 KCAL/MOL
REMARK 923 INTER-LIGAND FREE ENERGY PREDICTED BY IDOCK:   -8.23 KCAL/MOL
REMARK 924 INTRA-LIGAND FREE ENERGY PREDICTED BY IDOCK:   -0.50 KCAL/MOL
REMARK 927      BINDING AFFINITY PREDICTED BY RF-SCORE:    0.00 PKD
ROOT
HETATM    1  C   UNL     1     -12.135  16.299  73.325  1.00  0.00    -0.587 C  
HETATM    2  C   UNL     1     -12.108  15.605  72.003  1.00  0.00    -0.529 C  
HETATM    3  C   UNL     1     -11.441  16.044  70.929  1.00  0.00    -0.416 C  
HETATM    4  N   UNL     1     -11.454  15.380  69.714  1.00  0.00    -0.298 N  
HETATM    5  C   UNL     1     -12.106  14.161  69.573  1.00  0.00    -0.340 C  
HETATM    6  O   UNL     1     -13.539  13.894  72.803  1.00  0.00    -0.654 OA 
HETATM    7  O   UNL     1     -12.113  13.497  68.537  1.00  0.00    -0.359 OA 
HETATM    8  H   UNL     1     -13.255  12.813  70.588  1.00  0.00     0.000 HD 
HETATM    9  N   UNL     1     -12.777  13.710  70.675  1.00  0.00    -0.272 N  
HETATM   10  C   UNL     1     -12.871  14.343  71.880  1.00  0.00    -0.349 C  
ENDROOT
BRANCH   4  11
HETATM   11  C   UNL     1     -10.707  15.876  68.557  1.00  0.00    -0.274 C  
HETATM   12  C   UNL     1     -11.507  16.815  67.661  1.00  0.00     0.329 C  
HETATM   13  O   UNL     1      -9.549  16.626  68.973  1.00  0.00    -0.258 OA 
HETATM   14  C   UNL     1     -10.427  17.616  66.971  1.00  0.00    -0.305 C  
HETATM   15  C   UNL     1      -9.332  17.707  68.038  1.00  0.00    -0.274 C  
BRANCH  14  16
HETATM   16  N   UNL     1      -9.909  16.848  65.821  1.00  0.00    -0.554 NA 
HETATM   17  H   UNL     1      -8.954  16.489  65.796  1.00  0.00     0.000 HD 
BRANCH  16  18
HETATM   18  N   UNL     1     -10.707  16.665  64.883  1.00  0.00    -0.717 NA 
HETATM   19  N   UNL     1     -11.435  16.494  64.023  1.00  0.00    -1.581 NA 
HETATM   20  H1  UNL     1     -12.089  16.344  63.255  1.00  0.00     0.000 HD 
HETATM   21  H2  UNL     1     -10.782  15.827  63.610  1.00  0.00     0.000 HD 
ENDBRANCH  16  18
ENDBRANCH  14  16
BRANCH  15  22
HETATM   22  C   UNL     1      -9.358  19.026  68.817  1.00  0.00    -0.357 C  
HETATM   23  H   UNL     1     -10.295  20.769  68.725  1.00  0.00     0.000 HD 
HETATM   24  O   UNL     1     -10.278  19.951  68.243  1.00  0.00    -0.433 OA 
ENDBRANCH  15  22
ENDBRANCH   4  11
TORSDOF 4
ENDMDL
MODEL        3
REMARK 921   NORMALIZED FREE ENERGY PREDICTED BY IDOCK:   -6.57 KCAL/MOL
REMARK 922        TOTAL FREE ENERGY PREDICTED BY IDOCK:   -8.62 KCAL/MOL
REMARK 923 INTER-LIGAND FREE ENERGY PREDICTED BY IDOCK:   -8.03 KCAL/MOL
REMARK 924 INTRA-LIGAND FREE ENERGY PREDICTED BY IDOCK:   -0.59 KCAL/MOL
REMARK 927      BINDING AFFINITY PREDICTED BY RF-SCORE:    0.00 PKD
ROOT
HETATM    1  C   UNL     1     -11.656  12.449  67.470  1.00  0.00    -0.431 C  
HETATM    2  C   UNL     1     -11.609  13.620  66.545  1.00  0.00    -0.392 C  
HETATM    3  C   UNL     1     -10.980  14.772  66.810  1.00  0.00    -0.327 C  
HETATM    4  N   UNL     1     -10.974  15.843  65.933  1.00  0.00    -0.214 N  
HETATM    5  C   UNL     1     -11.563  15.742  64.677  1.00  0.00    -0.218 C  
HETATM    6  O   UNL     1     -12.938  12.487  64.944  1.00  0.00    -0.821 OA 
HETATM    7  O   UNL     1     -11.549  16.638  63.833  1.00  0.00    -1.204 OA 
HETATM    8  H   UNL     1     -12.626  14.470  63.486  1.00  0.00     0.000 HD 
HETATM    9  N   UNL     1     -12.195  14.561  64.406  1.00  0.00    -0.488 N  
HETATM   10  C   UNL     1     -12.306  13.492  65.246  1.00  0.00    -0.467 C  
ENDROOT
BRANCH   4  11
HETATM   11  C   UNL     1     -10.270  17.088  66.242  1.00  0.00    -0.329 C  
HETATM   12  C   UNL     1     -10.305  17.469  67.718  1.00  0.00    -0.367 C  
HETATM   13  O   UNL     1      -8.873  16.991  65.897  1.00  0.00    -0.518 OA 
HETATM   14  C   UNL     1      -9.087  18.351  67.863  1.00  0.00    -0.283 C  
HETATM   15  C   UNL     1      -8.102  17.744  66.859  1.00  0.00    -0.228 C  
BRANCH  14  16
HETATM   16  N   UNL     1      -9.424  19.723  67.429  1.00  0.00    -0.326 NA 
HETATM   17  H   UNL     1     -10.385  20.013  67.251  1.00  0.00     0.000 HD 
BRANCH  16  18
HETATM   18  N   UNL     1      -8.463  20.504  67.295  1.00  0.00    -0.332 NA 
HETATM   19  N   UNL     1      -7.587  21.222  67.175  1.00  0.00    -0.755 NA 
HETATM   20  H1  UNL     1      -6.800  21.861  67.065  1.00  0.00     0.000 HD 
HETATM   21  H2  UNL     1      -8.152  21.971  67.576  1.00  0.00     0.000 HD 
ENDBRANCH  16  18
ENDBRANCH  14  16
BRANCH  15  22
HETATM   22  C   UNL     1      -7.088  16.796  67.508  1.00  0.00    -0.147 C  
HETATM   23  H   UNL     1      -6.825  14.844  67.716  1.00  0.00     0.000 HD 
HETATM   24  O   UNL     1      -7.453  15.432  67.313  1.00  0.00    -0.186 OA 
ENDBRANCH  15  22
ENDBRANCH   4  11
TORSDOF 4
ENDMDL
MODEL        4
REMARK 921   NORMALIZED FREE ENERGY PREDICTED BY IDOCK:   -6.45 KCAL/MOL
REMARK 922        TOTAL FREE ENERGY PREDICTED BY IDOCK:   -8.47 KCAL/MOL
REMARK 923 INTER-LIGAND FREE ENERGY PREDICTED BY IDOCK:   -8.79 KCAL/MOL
REMARK 924 INTRA-LIGAND FREE ENERGY PREDICTED BY IDOCK:    0.31 KCAL/MOL
REMARK 927      BINDING AFFINITY PREDICTED BY RF-SCORE:    0.00 PKD
ROOT
HETATM    1  C   UNL     1     -13.108  13.904  72.388  1.00  0.00    -0.532 C  
HETATM    2  C   UNL     1     -12.734  13.237  71.105  1.00  0.00    -0.404 C  
HETATM    3  C   UNL     1     -12.410  13.885  69.979  1.00  0.00    -0.316 C  
HETATM    4  N   UNL     1     -12.086  13.230  68.803  1.00  0.00    -0.290 N  
HETATM    5  C   UNL     1     -12.000  11.844  68.757  1.00  0.00    -0.249 C  
HETATM    6  O   UNL     1     -13.043  11.090  72.060  1.00  0.00    -0.496 OA 
HETATM    7  O   UNL     1     -11.669  11.204  67.759  1.00  0.00    -0.560 OA 
HETATM    8  H   UNL     1     -12.257  10.168  69.895  1.00  0.00     0.000 HD 
HETATM    9  N   UNL     1     -12.322  11.186  69.912  1.00  0.00    -0.289 N  
HETATM   10  C   UNL     1     -12.721  11.757  71.084  1.00  0.00    -0.305 C  
ENDROOT
BRANCH   4  11
HETATM   11  C   UNL     1     -11.724  13.962  67.588  1.00  0.00    -0.368 C  
HETATM   12  C   UNL     1     -10.337  13.627  67.054  1.00  0.00    -0.260 C  
HETATM   13  O   UNL     1     -12.639  13.664  66.515  1.00  0.00    -0.335 OA 
HETATM   14  C   UNL     1     -10.448  13.987  65.590  1.00  0.00    -0.318 C  
HETATM   15  C   UNL     1     -11.910  13.663  65.267  1.00  0.00    -0.349 C  
BRANCH  14  16
HETATM   16  N   UNL     1     -10.235  15.440  65.428  1.00  0.00    -0.370 NA 
HETATM   17  H   UNL     1      -9.533  15.947  65.967  1.00  0.00     0.000 HD 
BRANCH  16  18
HETATM   18  N   UNL     1     -10.964  16.008  64.594  1.00  0.00    -0.621 NA 
HETATM   19  N   UNL     1     -11.630  16.533  63.833  1.00  0.00    -1.578 NA 
HETATM   20  H1  UNL     1     -12.227  16.999  63.149  1.00  0.00     0.000 HD 
HETATM   21  H2  UNL     1     -11.273  17.435  64.150  1.00  0.00     0.000 HD 
ENDBRANCH  16  18
ENDBRANCH  14  16
BRANCH  15  22
HETATM   22  C   UNL     1     -12.091  12.293  64.607  1.00  0.00    -0.374 C  
HETATM   23  H   UNL     1     -13.393  11.397  63.413  1.00  0.00     0.000 HD 
HETATM   24  O   UNL     1     -13.280  12.247  63.822  1.00  0.00    -0.771 OA 
ENDBRANCH  15  22
ENDBRANCH   4  11
TORSDOF 4
ENDMDL
MODEL        5
REMARK 921   NORMALIZED FREE ENERGY PREDICTED BY IDOCK:   -6.45 KCAL/MOL
REMARK 922        TOTAL FREE ENERGY PREDICTED BY IDOCK:   -8.47 KCAL/MOL
REMARK 923 INTER-LIGAND FREE ENERGY PREDICTED BY IDOCK:   -8.25 KCAL/MOL
REMARK 924 INTRA-LIGAND FREE ENERGY PREDICTED BY IDOCK:   -0.22 KCAL/MOL
REMARK 927      BINDING AFFINITY PREDICTED BY RF-SCORE:    0.00 PKD
ROOT
HETATM    1  C   UNL     1     -13.185  12.501  71.606  1.00  0.00    -0.381 C  
HETATM    2  C   UNL     1     -12.507  13.721  71.077  1.00  0.00    -0.458 C  
HETATM    3  C   UNL     1     -12.198  13.919  69.790  1.00  0.00    -0.332 C  
HETATM    4  N   UNL     1     -11.553  15.058  69.340  1.00  0.00    -0.296 N  
HETATM    5  C   UNL     1     -11.262  16.105  70.206  1.00  0.00    -0.381 C  
HETATM    6  O   UNL     1     -12.370  14.661  73.248  1.00  0.00    -0.322 OA 
HETATM    7  O   UNL     1     -10.736  17.163  69.861  1.00  0.00    -0.135 OA 
HETATM    8  H   UNL     1     -11.388  16.666  72.166  1.00  0.00     0.000 HD 
HETATM    9  N   UNL     1     -11.589  15.904  71.519  1.00  0.00    -0.440 N  
HETATM   10  C   UNL     1     -12.157  14.782  72.047  1.00  0.00    -0.325 C  
ENDROOT
BRANCH   4  11
HETATM   11  C   UNL     1     -11.235  15.255  67.924  1.00  0.00    -0.331 C  
HETATM   12  C   UNL     1      -9.924  14.611  67.489  1.00  0.00    -0.223 C  
HETATM   13  O   UNL     1     -12.253  14.679  67.082  1.00  0.00    -0.301 OA 
HETATM   14  C   UNL     1     -10.124  14.421  66.003  1.00  0.00    -0.322 C  
HETATM   15  C   UNL     1     -11.627  14.150  65.891  1.00  0.00    -0.348 C  
BRANCH  14  16
HETATM   16  N   UNL     1      -9.815  15.686  65.304  1.00  0.00    -0.354 NA 
HETATM   17  H   UNL     1      -8.928  16.172  65.434  1.00  0.00     0.000 HD 
BRANCH  16  18
HETATM   18  N   UNL     1     -10.701  16.120  64.545  1.00  0.00    -0.495 NA 
HETATM   19  N   UNL     1     -11.516  16.519  63.855  1.00  0.00    -1.599 NA 
HETATM   20  H1  UNL     1     -12.242  16.875  63.234  1.00  0.00     0.000 HD 
HETATM   21  H2  UNL     1     -12.090  16.738  64.669  1.00  0.00     0.000 HD 
ENDBRANCH  16  18
ENDBRANCH  14  16
BRANCH  15  22
HETATM   22  C   UNL     1     -11.965  12.659  65.795  1.00  0.00    -0.446 C  
HETATM   23  H   UNL     1     -13.213  11.496  64.789  1.00  0.00     0.000 HD 
HETATM   24  O   UNL     1     -13.004  12.420  64.848  1.00  0.00    -0.762 OA 
ENDBRANCH  15  22
ENDBRANCH   4  11
TORSDOF 4
ENDMDL
MODEL        6
REMARK 921   NORMALIZED FREE ENERGY PREDICTED BY IDOCK:   -6.40 KCAL/MOL
REMARK 922        TOTAL FREE ENERGY PREDICTED BY IDOCK:   -8.40 KCAL/MOL
REMARK 923 INTER-LIGAND FREE ENERGY PREDICTED BY IDOCK:   -8.11 KCAL/MOL
REMARK 924 INTRA-LIGAND FREE ENERGY PREDICTED BY IDOCK:   -0.29 KCAL/MOL
REMARK 927      BINDING AFFINITY PREDICTED BY RF-SCORE:    0.00 PKD
ROOT
HETATM    1  C   UNL     1     -12.177  10.542  70.725  1.00  0.00    -0.468 C  
HETATM    2  C   UNL     1     -12.274  12.000  70.422  1.00  0.00    -0.379 C  
HETATM    3  C   UNL     1     -11.902  12.561  69.265  1.00  0.00    -0.304 C  
HETATM    4  N   UNL     1     -11.991  13.922  69.027  1.00  0.00    -0.353 N  
HETATM    5  C   UNL     1     -12.557  14.777  69.967  1.00  0.00    -0.224 C  
HETATM    6  O   UNL     1     -13.146  12.454  72.578  1.00  0.00    -0.283 OA 
HETATM    7  O   UNL     1     -12.711  15.986  69.798  1.00  0.00    -0.101 OA 
HETATM    8  H   UNL     1     -13.367  14.812  71.841  1.00  0.00     0.000 HD 
HETATM    9  N   UNL     1     -12.944  14.199  71.144  1.00  0.00    -0.344 N  
HETATM   10  C   UNL     1     -12.821  12.882  71.477  1.00  0.00    -0.282 C  
ENDROOT
BRANCH   4  11
HETATM   11  C   UNL     1     -11.588  14.509  67.749  1.00  0.00    -0.365 C  
HETATM   12  C   UNL     1     -10.175  14.136  67.315  1.00  0.00    -0.256 C  
HETATM   13  O   UNL     1     -12.453  14.069  66.683  1.00  0.00    -0.420 OA 
HETATM   14  C   UNL     1     -10.229  14.317  65.815  1.00  0.00    -0.334 C  
HETATM   15  C   UNL     1     -11.672  13.932  65.475  1.00  0.00    -0.349 C  
BRANCH  14  16
HETATM   16  N   UNL     1     -10.027  15.744  65.488  1.00  0.00    -0.365 NA 
HETATM   17  H   UNL     1      -9.273  16.291  65.903  1.00  0.00     0.000 HD 
BRANCH  16  18
HETATM   18  N   UNL     1     -10.832  16.236  64.677  1.00  0.00    -0.676 NA 
HETATM   19  N   UNL     1     -11.564  16.689  63.930  1.00  0.00    -1.431 NA 
HETATM   20  H1  UNL     1     -12.224  17.093  63.265  1.00  0.00     0.000 HD 
HETATM   21  H2  UNL     1     -10.780  17.015  63.366  1.00  0.00     0.000 HD 
ENDBRANCH  16  18
ENDBRANCH  14  16
BRANCH  15  22
HETATM   22  C   UNL     1     -11.809  12.490  64.977  1.00  0.00    -0.396 C  
HETATM   23  H   UNL     1     -13.168  11.370  64.070  1.00  0.00     0.000 HD 
HETATM   24  O   UNL     1     -13.083  12.265  64.378  1.00  0.00    -0.780 OA 
ENDBRANCH  15  22
ENDBRANCH   4  11
TORSDOF 4
ENDMDL
MODEL        7
REMARK 921   NORMALIZED FREE ENERGY PREDICTED BY IDOCK:   -6.39 KCAL/MOL
REMARK 922        TOTAL FREE ENERGY PREDICTED BY IDOCK:   -8.40 KCAL/MOL
REMARK 923 INTER-LIGAND FREE ENERGY PREDICTED BY IDOCK:   -7.97 KCAL/MOL
REMARK 924 INTRA-LIGAND FREE ENERGY PREDICTED BY IDOCK:   -0.43 KCAL/MOL
REMARK 927      BINDING AFFINITY PREDICTED BY RF-SCORE:    0.00 PKD
ROOT
HETATM    1  C   UNL     1     -10.611   8.687  69.341  1.00  0.00    -0.207 C  
HETATM    2  C   UNL     1     -11.070  10.102  69.454  1.00  0.00    -0.288 C  
HETATM    3  C   UNL     1     -10.942  11.021  68.489  1.00  0.00    -0.228 C  
HETATM    4  N   UNL     1     -11.366  12.331  68.639  1.00  0.00    -0.266 N  
HETATM    5  C   UNL     1     -12.032  12.740  69.788  1.00  0.00    -0.292 C  
HETATM    6  O   UNL     1     -11.834   9.742  71.669  1.00  0.00    -0.389 OA 
HETATM    7  O   UNL     1     -12.478  13.874  69.963  1.00  0.00    -0.329 OA 
HETATM    8  H   UNL     1     -12.662  12.080  71.615  1.00  0.00     0.000 HD 
HETATM    9  N   UNL     1     -12.170  11.796  70.768  1.00  0.00    -0.371 N  
HETATM   10  C   UNL     1     -11.715  10.512  70.723  1.00  0.00    -0.356 C  
ENDROOT
BRANCH   4  11
HETATM   11  C   UNL     1     -11.224  13.314  67.564  1.00  0.00    -0.281 C  
HETATM   12  C   UNL     1      -9.900  13.223  66.814  1.00  0.00    -0.264 C  
HETATM   13  O   UNL     1     -12.251  13.141  66.567  1.00  0.00    -0.378 OA 
HETATM   14  C   UNL     1     -10.232  13.846  65.477  1.00  0.00    -0.331 C  
HETATM   15  C   UNL     1     -11.697  13.451  65.268  1.00  0.00    -0.323 C  
BRANCH  14  16
HETATM   16  N   UNL     1     -10.146  15.317  65.590  1.00  0.00    -0.346 NA 
HETATM   17  H   UNL     1      -9.557  15.772  66.287  1.00  0.00     0.000 HD 
BRANCH  16  18
HETATM   18  N   UNL     1     -10.837  15.967  64.783  1.00  0.00    -0.583 NA 
HETATM   19  N   UNL     1     -11.473  16.557  64.044  1.00  0.00    -1.581 NA 
HETATM   20  H1  UNL     1     -12.038  17.089  63.383  1.00  0.00     0.000 HD 
HETATM   21  H2  UNL     1     -12.164  15.807  64.048  1.00  0.00     0.000 HD 
ENDBRANCH  16  18
ENDBRANCH  14  16
BRANCH  15  22
HETATM   22  C   UNL     1     -11.867  12.223  64.369  1.00  0.00    -0.388 C  
HETATM   23  H   UNL     1     -13.150  11.560  63.014  1.00  0.00     0.000 HD 
HETATM   24  O   UNL     1     -13.044  12.322  63.571  1.00  0.00    -0.766 OA 
ENDBRANCH  15  22
ENDBRANCH   4  11
TORSDOF 4
ENDMDL
MODEL        8
REMARK 921   NORMALIZED FREE ENERGY PREDICTED BY IDOCK:   -6.39 KCAL/MOL
REMARK 922        TOTAL FREE ENERGY PREDICTED BY IDOCK:   -8.40 KCAL/MOL
REMARK 923 INTER-LIGAND FREE ENERGY PREDICTED BY IDOCK:   -8.92 KCAL/MOL
REMARK 924 INTRA-LIGAND FREE ENERGY PREDICTED BY IDOCK:    0.53 KCAL/MOL
REMARK 927      BINDING AFFINITY PREDICTED BY RF-SCORE:    0.00 PKD
ROOT
HETATM    1  C   UNL     1     -12.344  14.096  71.416  1.00  0.00    -0.425 C  
HETATM    2  C   UNL     1     -12.213  13.505  70.052  1.00  0.00    -0.381 C  
HETATM    3  C   UNL     1     -12.268  14.205  68.912  1.00  0.00    -0.222 C  
HETATM    4  N   UNL     1     -12.159  13.617  67.664  1.00  0.00    -0.338 N  
HETATM    5  C   UNL     1     -11.902  12.257  67.533  1.00  0.00    -0.261 C  
HETATM    6  O   UNL     1     -11.984  11.325  70.952  1.00  0.00    -0.326 OA 
HETATM    7  O   UNL     1     -11.745  11.683  66.456  1.00  0.00    -0.498 OA 
HETATM    8  H   UNL     1     -11.642  10.548  68.620  1.00  0.00     0.000 HD 
HETATM    9  N   UNL     1     -11.837  11.546  68.700  1.00  0.00    -0.332 N  
HETATM   10  C   UNL     1     -12.006  12.042  69.959  1.00  0.00    -0.324 C  
ENDROOT
BRANCH   4  11
HETATM   11  C   UNL     1     -12.211  14.407  66.432  1.00  0.00    -0.340 C  
HETATM   12  C   UNL     1     -10.844  14.693  65.822  1.00  0.00    -0.326 C  
HETATM   13  O   UNL     1     -12.960  13.720  65.410  1.00  0.00    -0.706 OA 
HETATM   14  C   UNL     1     -11.174  14.938  64.368  1.00  0.00    -0.160 C  
HETATM   15  C   UNL     1     -12.366  14.008  64.124  1.00  0.00    -0.332 C  
BRANCH  14  16
HETATM   16  N   UNL     1     -11.619  16.337  64.198  1.00  0.00    -1.351 NA 
HETATM   17  H   UNL     1     -12.360  16.593  63.546  1.00  0.00     0.000 HD 
BRANCH  16  18
HETATM   18  N   UNL     1     -11.034  17.184  64.899  1.00  0.00    -0.819 NA 
HETATM   19  N   UNL     1     -10.498  17.961  65.536  1.00  0.00    -0.631 NA 
HETATM   20  H1  UNL     1     -10.019  18.655  66.110  1.00  0.00     0.000 HD 
HETATM   21  H2  UNL     1     -10.178  18.428  64.687  1.00  0.00     0.000 HD 
ENDBRANCH  16  18
ENDBRANCH  14  16
BRANCH  15  22
HETATM   22  C   UNL     1     -11.969  12.680  63.471  1.00  0.00    -0.548 C  
HETATM   23  H   UNL     1     -12.869  11.064  62.763  1.00  0.00     0.000 HD 
HETATM   24  O   UNL     1     -13.115  11.888  63.167  1.00  0.00    -0.605 OA 
ENDBRANCH  15  22
ENDBRANCH   4  11
TORSDOF 4
ENDMDL
MODEL        9
REMARK 921   NORMALIZED FREE ENERGY PREDICTED BY IDOCK:   -6.38 KCAL/MOL
REMARK 922        TOTAL FREE ENERGY PREDICTED BY IDOCK:   -8.38 KCAL/MOL
REMARK 923 INTER-LIGAND FREE ENERGY PREDICTED BY IDOCK:   -7.87 KCAL/MOL
REMARK 924 INTRA-LIGAND FREE ENERGY PREDICTED BY IDOCK:   -0.51 KCAL/MOL
REMARK 927      BINDING AFFINITY PREDICTED BY RF-SCORE:    0.00 PKD
ROOT
HETATM    1  C   UNL     1      -9.393  16.244  66.028  1.00  0.00    -0.361 C  
HETATM    2  C   UNL     1     -10.337  15.190  65.550  1.00  0.00    -0.399 C  
HETATM    3  C   UNL     1     -10.288  13.904  65.918  1.00  0.00    -0.311 C  
HETATM    4  N   UNL     1     -11.172  12.952  65.439  1.00  0.00    -0.279 N  
HETATM    5  C   UNL     1     -12.222  13.309  64.601  1.00  0.00    -0.407 C  
HETATM    6  O   UNL     1     -11.489  16.752  64.190  1.00  0.00    -1.171 OA 
HETATM    7  O   UNL     1     -13.070  12.522  64.181  1.00  0.00    -0.751 OA 
HETATM    8  H   UNL     1     -13.044  14.904  63.626  1.00  0.00     0.000 HD 
HETATM    9  N   UNL     1     -12.275  14.626  64.236  1.00  0.00    -0.479 N  
HETATM   10  C   UNL     1     -11.400  15.603  64.607  1.00  0.00    -0.349 C  
ENDROOT
BRANCH   4  11
HETATM   11  C   UNL     1     -11.104  11.554  65.865  1.00  0.00    -0.214 C  
HETATM   12  C   UNL     1      -9.685  11.047  66.102  1.00  0.00    -0.257 C  
HETATM   13  O   UNL     1     -11.801  11.359  67.111  1.00  0.00    -0.566 OA 
HETATM   14  C   UNL     1      -9.898   9.897  67.059  1.00  0.00    -0.191 C  
HETATM   15  C   UNL     1     -11.104  10.356  67.885  1.00  0.00    -0.299 C  
BRANCH  14  16
HETATM   16  N   UNL     1     -10.275   8.690  66.295  1.00  0.00    -0.408 NA 
HETATM   17  H   UNL     1     -10.160   8.633  65.283  1.00  0.00     0.000 HD 
BRANCH  16  18
HETATM   18  N   UNL     1     -10.742   7.748  66.961  1.00  0.00    -0.326 NA 
HETATM   19  N   UNL     1     -11.171   6.882  67.566  1.00  0.00    -0.607 NA 
HETATM   20  H1  UNL     1     -11.553   6.110  68.111  1.00  0.00     0.000 HD 
HETATM   21  H2  UNL     1     -11.428   6.411  66.699  1.00  0.00     0.000 HD 
ENDBRANCH  16  18
ENDBRANCH  14  16
BRANCH  15  22
HETATM   22  C   UNL     1     -10.713  10.975  69.230  1.00  0.00    -0.222 C  
HETATM   23  H   UNL     1     -10.332  10.363  71.075  1.00  0.00     0.000 HD 
HETATM   24  O   UNL     1     -10.575   9.979  70.240  1.00  0.00    -0.275 OA 
ENDBRANCH  15  22
ENDBRANCH   4  11
TORSDOF 4
ENDMDL
MODEL       10
REMARK 921   NORMALIZED FREE ENERGY PREDICTED BY IDOCK:   -6.19 KCAL/MOL
REMARK 922        TOTAL FREE ENERGY PREDICTED BY IDOCK:   -8.15 KCAL/MOL
REMARK 923 INTER-LIGAND FREE ENERGY PREDICTED BY IDOCK:   -7.56 KCAL/MOL
REMARK 924 INTRA-LIGAND FREE ENERGY PREDICTED BY IDOCK:   -0.59 KCAL/MOL
REMARK 927      BINDING AFFINITY PREDICTED BY RF-SCORE:    0.00 PKD
ROOT
HETATM    1  C   UNL     1     -10.383  19.879  67.082  1.00  0.00    -0.581 C  
HETATM    2  C   UNL     1      -9.852  18.547  67.499  1.00  0.00    -0.330 C  
HETATM    3  C   UNL     1     -10.271  17.376  67.006  1.00  0.00    -0.323 C  
HETATM    4  N   UNL     1      -9.765  16.159  67.431  1.00  0.00    -0.231 N  
HETATM    5  C   UNL     1      -8.722  16.098  68.347  1.00  0.00    -0.190 C  
HETATM    6  O   UNL     1      -8.376  19.554  69.056  1.00  0.00    -0.339 OA 
HETATM    7  O   UNL     1      -8.195  15.053  68.728  1.00  0.00    -0.149 OA 
HETATM    8  H   UNL     1      -7.519  17.270  69.510  1.00  0.00     0.000 HD 
HETATM    9  N   UNL     1      -8.289  17.298  68.841  1.00  0.00    -0.223 N  
HETATM   10  C   UNL     1      -8.787  18.528  68.526  1.00  0.00    -0.326 C  
ENDROOT
BRANCH   4  11
HETATM   11  C   UNL     1     -10.233  14.891  66.868  1.00  0.00    -0.254 C  
HETATM   12  C   UNL     1     -11.619  14.475  67.349  1.00  0.00    -0.406 C  
HETATM   13  O   UNL     1     -10.324  14.966  65.432  1.00  0.00    -0.331 OA 
HETATM   14  C   UNL     1     -12.095  13.563  66.242  1.00  0.00    -0.428 C  
HETATM   15  C   UNL     1     -11.450  14.173  64.993  1.00  0.00    -0.352 C  
BRANCH  14  16
HETATM   16  N   UNL     1     -11.540  12.210  66.452  1.00  0.00    -0.477 NA 
HETATM   17  H   UNL     1     -10.895  11.781  65.789  1.00  0.00     0.000 HD 
BRANCH  16  18
HETATM   18  N   UNL     1     -11.908  11.625  67.488  1.00  0.00    -0.624 NA 
HETATM   19  N   UNL     1     -12.240  11.092  68.438  1.00  0.00    -0.780 NA 
HETATM   20  H1  UNL     1     -12.542  10.613  69.287  1.00  0.00     0.000 HD 
HETATM   21  H2  UNL     1     -11.406  11.434  68.916  1.00  0.00     0.000 HD 
ENDBRANCH  16  18
ENDBRANCH  14  16
BRANCH  15  22
HETATM   22  C   UNL     1     -12.400  15.082  64.208  1.00  0.00    -0.226 C  
HETATM   23  H   UNL     1     -12.370  16.888  63.395  1.00  0.00     0.000 HD 
HETATM   24  O   UNL     1     -11.780  16.323  63.882  1.00  0.00    -0.986 OA 
ENDBRANCH  15  22
ENDBRANCH   4  11
TORSDOF 4
ENDMDL
MODEL       11
REMARK 921   NORMALIZED FREE ENERGY PREDICTED BY IDOCK:   -6.17 KCAL/MOL
REMARK 922        TOTAL FREE ENERGY PREDICTED BY IDOCK:   -8.13 KCAL/MOL
REMARK 923 INTER-LIGAND FREE ENERGY PREDICTED BY IDOCK:   -7.73 KCAL/MOL
REMARK 924 INTRA-LIGAND FREE ENERGY PREDICTED BY IDOCK:   -0.39 KCAL/MOL
REMARK 927      BINDING AFFINITY PREDICTED BY RF-SCORE:    0.00 PKD
ROOT
HETATM    1  C   UNL     1     -13.496  13.557  72.377  1.00  0.00    -0.685 C  
HETATM    2  C   UNL     1     -12.830  12.862  71.236  1.00  0.00    -0.361 C  
HETATM    3  C   UNL     1     -12.254  13.484  70.201  1.00  0.00    -0.330 C  
HETATM    4  N   UNL     1     -11.660  12.803  69.151  1.00  0.00    -0.301 N  
HETATM    5  C   UNL     1     -11.560  11.416  69.164  1.00  0.00    -0.314 C  
HETATM    6  O   UNL     1     -13.345  10.737  72.149  1.00  0.00    -0.442 OA 
HETATM    7  O   UNL     1     -11.002  10.755  68.289  1.00  0.00    -0.215 OA 
HETATM    8  H   UNL     1     -12.070   9.767  70.255  1.00  0.00     0.000 HD 
HETATM    9  N   UNL     1     -12.141  10.785  70.228  1.00  0.00    -0.319 N  
HETATM   10  C   UNL     1     -12.806  11.382  71.258  1.00  0.00    -0.379 C  
ENDROOT
BRANCH   4  11
HETATM   11  C   UNL     1     -11.027  13.507  68.035  1.00  0.00    -0.251 C  
HETATM   12  C   UNL     1     -11.742  14.791  67.628  1.00  0.00    -0.364 C  
HETATM   13  O   UNL     1      -9.680  13.899  68.370  1.00  0.00    -0.222 OA 
HETATM   14  C   UNL     1     -10.644  15.585  66.959  1.00  0.00    -0.311 C  
HETATM   15  C   UNL     1      -9.394  15.168  67.738  1.00  0.00    -0.189 C  
BRANCH  14  16
HETATM   16  N   UNL     1     -10.504  15.137  65.557  1.00  0.00    -0.348 NA 
HETATM   17  H   UNL     1     -10.036  14.264  65.313  1.00  0.00     0.000 HD 
BRANCH  16  18
HETATM   18  N   UNL     1     -10.991  15.890  64.694  1.00  0.00    -0.569 NA 
HETATM   19  N   UNL     1     -11.433  16.576  63.899  1.00  0.00    -1.599 NA 
HETATM   20  H1  UNL     1     -11.832  17.193  63.191  1.00  0.00     0.000 HD 
HETATM   21  H2  UNL     1     -10.753  16.225  63.224  1.00  0.00     0.000 HD 
ENDBRANCH  16  18
ENDBRANCH  14  16
BRANCH  15  22
HETATM   22  C   UNL     1      -9.003  16.168  68.830  1.00  0.00    -0.247 C  
HETATM   23  H   UNL     1      -9.788  17.754  69.720  1.00  0.00     0.000 HD 
HETATM   24  O   UNL     1     -10.030  17.133  69.043  1.00  0.00    -0.288 OA 
ENDBRANCH  15  22
ENDBRANCH   4  11
TORSDOF 4
ENDMDL
MODEL       12
REMARK 921   NORMALIZED FREE ENERGY PREDICTED BY IDOCK:   -6.13 KCAL/MOL
REMARK 922        TOTAL FREE ENERGY PREDICTED BY IDOCK:   -8.08 KCAL/MOL
REMARK 923 INTER-LIGAND FREE ENERGY PREDICTED BY IDOCK:   -7.69 KCAL/MOL
REMARK 924 INTRA-LIGAND FREE ENERGY PREDICTED BY IDOCK:   -0.39 KCAL/MOL
REMARK 927      BINDING AFFINITY PREDICTED BY RF-SCORE:    0.00 PKD
ROOT
HETATM    1  C   UNL     1     -10.337   8.727  68.357  1.00  0.00    -0.242 C  
HETATM    2  C   UNL     1     -10.148   9.342  67.010  1.00  0.00    -0.304 C  
HETATM    3  C   UNL     1     -10.566  10.568  66.671  1.00  0.00    -0.198 C  
HETATM    4  N   UNL     1     -10.386  11.098  65.404  1.00  0.00    -0.264 N  
HETATM    5  C   UNL     1      -9.680  10.401  64.430  1.00  0.00    -0.333 C  
HETATM    6  O   UNL     1      -9.071   7.392  66.202  1.00  0.00    -0.168 OA 
HETATM    7  O   UNL     1      -9.443  10.835  63.303  1.00  0.00    -0.259 OA 
HETATM    8  H   UNL     1      -8.720   8.632  64.082  1.00  0.00     0.000 HD 
HETATM    9  N   UNL     1      -9.246   9.153  64.784  1.00  0.00    -0.112 N  
HETATM   10  C   UNL     1      -9.448   8.537  65.984  1.00  0.00    -0.186 C  
ENDROOT
BRANCH   4  11
HETATM   11  C   UNL     1     -10.843  12.445  65.061  1.00  0.00    -0.295 C  
HETATM   12  C   UNL     1     -12.357  12.618  65.112  1.00  0.00    -0.547 C  
HETATM   13  O   UNL     1     -10.307  13.421  65.977  1.00  0.00    -0.285 OA 
HETATM   14  C   UNL     1     -12.515  14.105  65.330  1.00  0.00    -0.461 C  
HETATM   15  C   UNL     1     -11.292  14.459  66.181  1.00  0.00    -0.350 C  
BRANCH  14  16
HETATM   16  N   UNL     1     -12.410  14.802  64.031  1.00  0.00    -1.010 NA 
HETATM   17  H   UNL     1     -12.752  14.386  63.165  1.00  0.00     0.000 HD 
BRANCH  16  18
HETATM   18  N   UNL     1     -11.880  15.928  64.058  1.00  0.00    -0.671 NA 
HETATM   19  N   UNL     1     -11.390  16.956  64.083  1.00  0.00    -1.277 NA 
HETATM   20  H1  UNL     1     -10.955  17.879  64.105  1.00  0.00     0.000 HD 
HETATM   21  H2  UNL     1     -10.477  16.519  63.951  1.00  0.00     0.000 HD 
ENDBRANCH  16  18
ENDBRANCH  14  16
BRANCH  15  22
HETATM   22  C   UNL     1     -11.603  14.538  67.679  1.00  0.00    -0.378 C  
HETATM   23  H   UNL     1     -11.505  15.880  69.132  1.00  0.00     0.000 HD 
HETATM   24  O   UNL     1     -11.312  15.831  68.203  1.00  0.00    -0.350 OA 
ENDBRANCH  15  22
ENDBRANCH   4  11
TORSDOF 4
ENDMDL
MODEL       13
REMARK 921   NORMALIZED FREE ENERGY PREDICTED BY IDOCK:   -6.13 KCAL/MOL
REMARK 922        TOTAL FREE ENERGY PREDICTED BY IDOCK:   -8.07 KCAL/MOL
REMARK 923 INTER-LIGAND FREE ENERGY PREDICTED BY IDOCK:   -7.61 KCAL/MOL
REMARK 924 INTRA-LIGAND FREE ENERGY PREDICTED BY IDOCK:   -0.47 KCAL/MOL
REMARK 927      BINDING AFFINITY PREDICTED BY RF-SCORE:    0.00 PKD
ROOT
HETATM    1  C   UNL     1      -7.691  16.692  69.287  1.00  0.00    -0.110 C  
HETATM    2  C   UNL     1      -8.583  16.883  68.105  1.00  0.00    -0.221 C  
HETATM    3  C   UNL     1      -9.485  15.989  67.682  1.00  0.00    -0.216 C  
HETATM    4  N   UNL     1     -10.283  16.197  66.570  1.00  0.00    -0.287 N  
HETATM    5  C   UNL     1     -10.243  17.400  65.875  1.00  0.00    -0.256 C  
HETATM    6  O   UNL     1      -7.631  19.006  67.654  1.00  0.00    -0.234 OA 
HETATM    7  O   UNL     1     -10.960  17.667  64.911  1.00  0.00    -0.886 OA 
HETATM    8  H   UNL     1      -9.291  19.206  65.820  1.00  0.00     0.000 HD 
HETATM    9  N   UNL     1      -9.327  18.315  66.316  1.00  0.00    -0.259 N  
HETATM   10  C   UNL     1      -8.459  18.154  67.355  1.00  0.00    -0.240 C  
ENDROOT
BRANCH   4  11
HETATM   11  C   UNL     1     -11.269  15.207  66.134  1.00  0.00    -0.271 C  
HETATM   12  C   UNL     1     -10.668  14.025  65.381  1.00  0.00    -0.344 C  
HETATM   13  O   UNL     1     -11.965  14.640  67.262  1.00  0.00    -0.391 OA 
HETATM   14  C   UNL     1     -11.701  12.941  65.587  1.00  0.00    -0.387 C  
HETATM   15  C   UNL     1     -12.252  13.251  66.982  1.00  0.00    -0.253 C  
BRANCH  14  16
HETATM   16  N   UNL     1     -12.786  13.107  64.599  1.00  0.00    -0.720 NA 
HETATM   17  H   UNL     1     -13.454  13.876  64.653  1.00  0.00     0.000 HD 
BRANCH  16  18
HETATM   18  N   UNL     1     -12.837  12.251  63.696  1.00  0.00    -0.797 NA 
HETATM   19  N   UNL     1     -12.886  11.471  62.866  1.00  0.00    -0.772 NA 
HETATM   20  H1  UNL     1     -12.927  10.770  62.127  1.00  0.00     0.000 HD 
HETATM   21  H2  UNL     1     -13.407  12.129  62.286  1.00  0.00     0.000 HD 
ENDBRANCH  16  18
ENDBRANCH  14  16
BRANCH  15  22
HETATM   22  C   UNL     1     -11.615  12.399  68.085  1.00  0.00    -0.341 C  
HETATM   23  H   UNL     1     -11.531  10.489  68.603  1.00  0.00     0.000 HD 
HETATM   24  O   UNL     1     -11.926  11.018  67.919  1.00  0.00    -0.620 OA 
ENDBRANCH  15  22
ENDBRANCH   4  11
TORSDOF 4
ENDMDL
MODEL       14
REMARK 921   NORMALIZED FREE ENERGY PREDICTED BY IDOCK:   -6.12 KCAL/MOL
REMARK 922        TOTAL FREE ENERGY PREDICTED BY IDOCK:   -8.06 KCAL/MOL
REMARK 923 INTER-LIGAND FREE ENERGY PREDICTED BY IDOCK:   -7.53 KCAL/MOL
REMARK 924 INTRA-LIGAND FREE ENERGY PREDICTED BY IDOCK:   -0.54 KCAL/MOL
REMARK 927      BINDING AFFINITY PREDICTED BY RF-SCORE:    0.00 PKD
ROOT
HETATM    1  C   UNL     1     -13.349  15.601  71.572  1.00  0.00    -0.535 C  
HETATM    2  C   UNL     1     -12.803  14.453  70.788  1.00  0.00    -0.417 C  
HETATM    3  C   UNL     1     -12.192  14.567  69.603  1.00  0.00    -0.292 C  
HETATM    4  N   UNL     1     -11.714  13.475  68.897  1.00  0.00    -0.316 N  
HETATM    5  C   UNL     1     -11.775  12.194  69.434  1.00  0.00    -0.329 C  
HETATM    6  O   UNL     1     -13.531  12.906  72.429  1.00  0.00    -0.566 OA 
HETATM    7  O   UNL     1     -11.324  11.191  68.882  1.00  0.00    -0.227 OA 
HETATM    8  H   UNL     1     -12.437  11.151  71.059  1.00  0.00     0.000 HD 
HETATM    9  N   UNL     1     -12.391  12.084  70.650  1.00  0.00    -0.345 N  
HETATM   10  C   UNL     1     -12.949  13.099  71.368  1.00  0.00    -0.298 C  
ENDROOT
BRANCH   4  11
HETATM   11  C   UNL     1     -11.040  13.627  67.607  1.00  0.00    -0.273 C  
HETATM   12  C   UNL     1     -11.966  14.042  66.470  1.00  0.00    -0.470 C  
HETATM   13  O   UNL     1     -10.021  14.645  67.674  1.00  0.00    -0.225 OA 
HETATM   14  C   UNL     1     -11.018  14.695  65.491  1.00  0.00    -0.340 C  
HETATM   15  C   UNL     1      -9.967  15.334  66.404  1.00  0.00    -0.275 C  
BRANCH  14  16
HETATM   16  N   UNL     1     -10.367  13.652  64.672  1.00  0.00    -0.540 NA 
HETATM   17  H   UNL     1      -9.363  13.477  64.717  1.00  0.00     0.000 HD 
BRANCH  16  18
HETATM   18  N   UNL     1     -11.118  12.999  63.924  1.00  0.00    -0.401 NA 
HETATM   19  N   UNL     1     -11.807  12.406  63.237  1.00  0.00    -0.723 NA 
HETATM   20  H1  UNL     1     -12.423  11.871  62.624  1.00  0.00     0.000 HD 
HETATM   21  H2  UNL     1     -12.205  13.280  62.891  1.00  0.00     0.000 HD 
ENDBRANCH  16  18
ENDBRANCH  14  16
BRANCH  15  22
HETATM   22  C   UNL     1     -10.214  16.824  66.656  1.00  0.00    -0.309 C  
HETATM   23  H   UNL     1     -10.715  18.429  65.609  1.00  0.00     0.000 HD 
HETATM   24  O   UNL     1     -10.562  17.504  65.453  1.00  0.00    -0.648 OA 
ENDBRANCH  15  22
ENDBRANCH   4  11
TORSDOF 4
ENDMDL
MODEL       15
REMARK 921   NORMALIZED FREE ENERGY PREDICTED BY IDOCK:   -6.11 KCAL/MOL
REMARK 922        TOTAL FREE ENERGY PREDICTED BY IDOCK:   -8.06 KCAL/MOL
REMARK 923 INTER-LIGAND FREE ENERGY PREDICTED BY IDOCK:   -8.30 KCAL/MOL
REMARK 924 INTRA-LIGAND FREE ENERGY PREDICTED BY IDOCK:    0.25 KCAL/MOL
REMARK 927      BINDING AFFINITY PREDICTED BY RF-SCORE:    0.00 PKD
ROOT
HETATM    1  C   UNL     1     -12.513  11.046  71.139  1.00  0.00    -0.502 C  
HETATM    2  C   UNL     1     -12.307  12.294  70.347  1.00  0.00    -0.309 C  
HETATM    3  C   UNL     1     -11.888  12.327  69.076  1.00  0.00    -0.305 C  
HETATM    4  N   UNL     1     -11.692  13.508  68.380  1.00  0.00    -0.338 N  
HETATM    5  C   UNL     1     -12.004  14.736  68.952  1.00  0.00    -0.263 C  
HETATM    6  O   UNL     1     -12.936  13.641  72.192  1.00  0.00    -0.344 OA 
HETATM    7  O   UNL     1     -11.901  15.816  68.372  1.00  0.00    -0.338 OA 
HETATM    8  H   UNL     1     -12.681  15.591  70.679  1.00  0.00     0.000 HD 
HETATM    9  N   UNL     1     -12.441  14.698  70.248  1.00  0.00    -0.348 N  
HETATM   10  C   UNL     1     -12.588  13.583  71.019  1.00  0.00    -0.359 C  
ENDROOT
BRANCH   4  11
HETATM   11  C   UNL     1     -11.244  13.516  66.987  1.00  0.00    -0.312 C  
HETATM   12  C   UNL     1     -12.340  13.868  65.986  1.00  0.00    -0.511 C  
HETATM   13  O   UNL     1     -10.203  14.492  66.785  1.00  0.00    -0.259 OA 
HETATM   14  C   UNL     1     -11.556  14.391  64.805  1.00  0.00    -0.408 C  
HETATM   15  C   UNL     1     -10.347  15.063  65.465  1.00  0.00    -0.373 C  
BRANCH  14  16
HETATM   16  N   UNL     1     -11.082  13.253  63.991  1.00  0.00    -0.528 NA 
HETATM   17  H   UNL     1     -10.090  13.049  63.872  1.00  0.00     0.000 HD 
BRANCH  16  18
HETATM   18  N   UNL     1     -11.968  12.558  63.459  1.00  0.00    -0.517 NA 
HETATM   19  N   UNL     1     -12.782  11.925  62.975  1.00  0.00    -0.857 NA 
HETATM   20  H1  UNL     1     -13.508  11.355  62.540  1.00  0.00     0.000 HD 
HETATM   21  H2  UNL     1     -13.492  12.525  63.396  1.00  0.00     0.000 HD 
ENDBRANCH  16  18
ENDBRANCH  14  16
BRANCH  15  22
HETATM   22  C   UNL     1     -10.508  16.579  65.613  1.00  0.00    -0.324 C  
HETATM   23  H   UNL     1     -11.309  18.079  64.597  1.00  0.00     0.000 HD 
HETATM   24  O   UNL     1     -11.209  17.138  64.506  1.00  0.00    -1.104 OA 
ENDBRANCH  15  22
ENDBRANCH   4  11
TORSDOF 4
ENDMDL
MODEL       16
REMARK 921   NORMALIZED FREE ENERGY PREDICTED BY IDOCK:   -6.10 KCAL/MOL
REMARK 922        TOTAL FREE ENERGY PREDICTED BY IDOCK:   -8.03 KCAL/MOL
REMARK 923 INTER-LIGAND FREE ENERGY PREDICTED BY IDOCK:   -8.47 KCAL/MOL
REMARK 924 INTRA-LIGAND FREE ENERGY PREDICTED BY IDOCK:    0.43 KCAL/MOL
REMARK 927      BINDING AFFINITY PREDICTED BY RF-SCORE:    0.00 PKD
ROOT
HETATM    1  C   UNL     1     -12.385  12.907  70.807  1.00  0.00    -0.385 C  
HETATM    2  C   UNL     1     -11.897  12.255  69.556  1.00  0.00    -0.380 C  
HETATM    3  C   UNL     1     -11.905  12.830  68.347  1.00  0.00    -0.310 C  
HETATM    4  N   UNL     1     -11.458  12.185  67.206  1.00  0.00    -0.332 N  
HETATM    5  C   UNL     1     -10.895  10.916  67.275  1.00  0.00    -0.287 C  
HETATM    6  O   UNL     1     -11.360  10.266  70.728  1.00  0.00    -0.328 OA 
HETATM    7  O   UNL     1     -10.435  10.310  66.308  1.00  0.00    -0.215 OA 
HETATM    8  H   UNL     1     -10.462   9.407  68.581  1.00  0.00     0.000 HD 
HETATM    9  N   UNL     1     -10.879  10.336  68.514  1.00  0.00    -0.226 N  
HETATM   10  C   UNL     1     -11.366  10.877  69.666  1.00  0.00    -0.292 C  
ENDROOT
BRANCH   4  11
HETATM   11  C   UNL     1     -11.468  12.840  65.897  1.00  0.00    -0.356 C  
HETATM   12  C   UNL     1     -12.717  13.673  65.631  1.00  0.00    -0.505 C  
HETATM   13  O   UNL     1     -10.357  13.749  65.767  1.00  0.00    -0.290 OA 
HETATM   14  C   UNL     1     -12.241  14.664  64.595  1.00  0.00    -0.434 C  
HETATM   15  C   UNL     1     -10.775  14.887  64.980  1.00  0.00    -0.431 C  
BRANCH  14  16
HETATM   16  N   UNL     1     -12.292  14.035  63.258  1.00  0.00    -1.145 NA 
HETATM   17  H   UNL     1     -12.058  14.550  62.410  1.00  0.00     0.000 HD 
BRANCH  16  18
HETATM   18  N   UNL     1     -12.638  12.840  63.232  1.00  0.00    -0.665 NA 
HETATM   19  N   UNL     1     -12.955  11.746  63.202  1.00  0.00    -0.843 NA 
HETATM   20  H1  UNL     1     -13.238  10.766  63.180  1.00  0.00     0.000 HD 
HETATM   21  H2  UNL     1     -13.045  11.805  62.187  1.00  0.00     0.000 HD 
ENDBRANCH  16  18
ENDBRANCH  14  16
BRANCH  15  22
HETATM   22  C   UNL     1     -10.558  16.153  65.815  1.00  0.00    -0.334 C  
HETATM   23  H   UNL     1     -10.575  18.115  65.542  1.00  0.00     0.000 HD 
HETATM   24  O   UNL     1     -10.709  17.329  65.025  1.00  0.00    -0.708 OA 
ENDBRANCH  15  22
ENDBRANCH   4  11
TORSDOF 4
ENDMDL
MODEL       17
REMARK 921   NORMALIZED FREE ENERGY PREDICTED BY IDOCK:   -5.90 KCAL/MOL
REMARK 922        TOTAL FREE ENERGY PREDICTED BY IDOCK:   -7.79 KCAL/MOL
REMARK 923 INTER-LIGAND FREE ENERGY PREDICTED BY IDOCK:   -7.34 KCAL/MOL
REMARK 924 INTRA-LIGAND FREE ENERGY PREDICTED BY IDOCK:   -0.45 KCAL/MOL
REMARK 927      BINDING AFFINITY PREDICTED BY RF-SCORE:    0.00 PKD
ROOT
HETATM    1  C   UNL     1      -8.797  10.927  65.967  1.00  0.00    -0.198 C  
HETATM    2  C   UNL     1     -10.042  11.741  65.838  1.00  0.00    -0.267 C  
HETATM    3  C   UNL     1     -10.503  12.576  66.778  1.00  0.00    -0.225 C  
HETATM    4  N   UNL     1     -11.672  13.302  66.628  1.00  0.00    -0.358 N  
HETATM    5  C   UNL     1     -12.393  13.261  65.440  1.00  0.00    -0.479 C  
HETATM    6  O   UNL     1     -10.481  10.844  63.689  1.00  0.00    -0.346 OA 
HETATM    7  O   UNL     1     -13.410  13.919  65.225  1.00  0.00    -0.732 OA 
HETATM    8  H   UNL     1     -12.428  12.379  63.598  1.00  0.00     0.000 HD 
HETATM    9  N   UNL     1     -11.913  12.415  64.478  1.00  0.00    -0.389 N  
HETATM   10  C   UNL     1     -10.813  11.615  64.581  1.00  0.00    -0.314 C  
ENDROOT
BRANCH   4  11
HETATM   11  C   UNL     1     -12.150  14.217  67.666  1.00  0.00    -0.302 C  
HETATM   12  C   UNL     1     -11.844  13.754  69.087  1.00  0.00    -0.398 C  
HETATM   13  O   UNL     1     -11.533  15.513  67.537  1.00  0.00    -0.297 OA 
HETATM   14  C   UNL     1     -11.859  15.047  69.868  1.00  0.00    -0.324 C  
HETATM   15  C   UNL     1     -11.329  16.067  68.856  1.00  0.00    -0.370 C  
BRANCH  14  16
HETATM   16  N   UNL     1     -13.255  15.395  70.208  1.00  0.00    -0.703 NA 
HETATM   17  H   UNL     1     -13.971  15.518  69.493  1.00  0.00     0.000 HD 
BRANCH  16  18
HETATM   18  N   UNL     1     -13.503  15.528  71.421  1.00  0.00    -0.513 NA 
HETATM   19  N   UNL     1     -13.726  15.653  72.531  1.00  0.00    -0.551 NA 
HETATM   20  H1  UNL     1     -13.929  15.762  73.525  1.00  0.00     0.000 HD 
HETATM   21  H2  UNL     1     -12.867  16.194  72.637  1.00  0.00     0.000 HD 
ENDBRANCH  16  18
ENDBRANCH  14  16
BRANCH  15  22
HETATM   22  C   UNL     1      -9.836  16.363  69.026  1.00  0.00    -0.266 C  
HETATM   23  H   UNL     1      -8.621  17.922  68.890  1.00  0.00     0.000 HD 
HETATM   24  O   UNL     1      -9.548  17.738  68.785  1.00  0.00    -0.311 OA 
ENDBRANCH  15  22
ENDBRANCH   4  11
TORSDOF 4
ENDMDL
MODEL       18
REMARK 921   NORMALIZED FREE ENERGY PREDICTED BY IDOCK:   -5.87 KCAL/MOL
REMARK 922        TOTAL FREE ENERGY PREDICTED BY IDOCK:   -7.76 KCAL/MOL
REMARK 923 INTER-LIGAND FREE ENERGY PREDICTED BY IDOCK:   -7.24 KCAL/MOL
REMARK 924 INTRA-LIGAND FREE ENERGY PREDICTED BY IDOCK:   -0.51 KCAL/MOL
REMARK 927      BINDING AFFINITY PREDICTED BY RF-SCORE:    0.00 PKD
ROOT
HETATM    1  C   UNL     1     -13.175  15.520  71.323  1.00  0.00    -0.588 C  
HETATM    2  C   UNL     1     -12.734  14.194  70.797  1.00  0.00    -0.414 C  
HETATM    3  C   UNL     1     -12.156  14.005  69.604  1.00  0.00    -0.355 C  
HETATM    4  N   UNL     1     -11.776  12.756  69.144  1.00  0.00    -0.309 N  
HETATM    5  C   UNL     1     -11.906  11.628  69.946  1.00  0.00    -0.358 C  
HETATM    6  O   UNL     1     -13.511  13.093  72.746  1.00  0.00    -0.536 OA 
HETATM    7  O   UNL     1     -11.543  10.499  69.616  1.00  0.00    -0.250 OA 
HETATM    8  H   UNL     1     -12.584  11.009  71.770  1.00  0.00     0.000 HD 
HETATM    9  N   UNL     1     -12.488  11.827  71.167  1.00  0.00    -0.336 N  
HETATM   10  C   UNL     1     -12.953  13.011  71.658  1.00  0.00    -0.321 C  
ENDROOT
BRANCH   4  11
HETATM   11  C   UNL     1     -11.136  12.577  67.840  1.00  0.00    -0.245 C  
HETATM   12  C   UNL     1     -12.029  12.935  66.657  1.00  0.00    -0.436 C  
HETATM   13  O   UNL     1      -9.971  13.418  67.718  1.00  0.00    -0.222 OA 
HETATM   14  C   UNL     1     -11.029  13.254  65.570  1.00  0.00    -0.282 C  
HETATM   15  C   UNL     1      -9.859  13.863  66.347  1.00  0.00    -0.295 C  
BRANCH  14  16
HETATM   16  N   UNL     1     -10.579  11.996  64.938  1.00  0.00    -0.279 NA 
HETATM   17  H   UNL     1      -9.816  11.440  65.324  1.00  0.00     0.000 HD 
BRANCH  16  18
HETATM   18  N   UNL     1     -11.187  11.657  63.906  1.00  0.00    -0.396 NA 
HETATM   19  N   UNL     1     -11.739  11.343  62.960  1.00  0.00    -0.866 NA 
HETATM   20  H1  UNL     1     -12.238  11.065  62.115  1.00  0.00     0.000 HD 
HETATM   21  H2  UNL     1     -10.912  10.830  62.654  1.00  0.00     0.000 HD 
ENDBRANCH  16  18
ENDBRANCH  14  16
BRANCH  15  22
HETATM   22  C   UNL     1      -9.863  15.395  66.339  1.00  0.00    -0.281 C  
HETATM   23  H   UNL     1     -10.372  16.857  65.104  1.00  0.00     0.000 HD 
HETATM   24  O   UNL     1     -10.369  15.907  65.109  1.00  0.00    -0.473 OA 
ENDBRANCH  15  22
ENDBRANCH   4  11
TORSDOF 4
ENDMDL
MODEL       19
REMARK 921   NORMALIZED FREE ENERGY PREDICTED BY IDOCK:   -5.82 KCAL/MOL
REMARK 922        TOTAL FREE ENERGY PREDICTED BY IDOCK:   -7.69 KCAL/MOL
REMARK 923 INTER-LIGAND FREE ENERGY PREDICTED BY IDOCK:   -7.14 KCAL/MOL
REMARK 924 INTRA-LIGAND FREE ENERGY PREDICTED BY IDOCK:   -0.55 KCAL/MOL
REMARK 927      BINDING AFFINITY PREDICTED BY RF-SCORE:    0.00 PKD
ROOT
HETATM    1  C   UNL     1     -12.946  10.331  71.525  1.00  0.00    -0.556 C  
HETATM    2  C   UNL     1     -11.810  10.525  70.577  1.00  0.00    -0.442 C  
HETATM    3  C   UNL     1     -11.706  11.544  69.715  1.00  0.00    -0.353 C  
HETATM    4  N   UNL     1     -10.643  11.680  68.838  1.00  0.00    -0.211 N  
HETATM    5  C   UNL     1      -9.573  10.793  68.868  1.00  0.00    -0.195 C  
HETATM    6  O   UNL     1     -10.763   8.536  71.328  1.00  0.00    -0.218 OA 
HETATM    7  O   UNL     1      -8.577  10.886  68.151  1.00  0.00    -0.123 OA 
HETATM    8  H   UNL     1      -8.897   9.103  69.794  1.00  0.00     0.000 HD 
HETATM    9  N   UNL     1      -9.678   9.759  69.757  1.00  0.00    -0.216 N  
HETATM   10  C   UNL     1     -10.724   9.518  70.597  1.00  0.00    -0.309 C  
ENDROOT
BRANCH   4  11
HETATM   11  C   UNL     1     -10.547  12.810  67.913  1.00  0.00    -0.221 C  
HETATM   12  C   UNL     1     -11.831  13.084  67.137  1.00  0.00    -0.431 C  
HETATM   13  O   UNL     1     -10.248  14.031  68.618  1.00  0.00    -0.236 OA 
HETATM   14  C   UNL     1     -11.692  14.544  66.771  1.00  0.00    -0.377 C  
HETATM   15  C   UNL     1     -10.926  15.126  67.963  1.00  0.00    -0.295 C  
BRANCH  14  16
HETATM   16  N   UNL     1     -10.853  14.665  65.560  1.00  0.00    -0.325 NA 
HETATM   17  H   UNL     1     -10.060  14.048  65.389  1.00  0.00     0.000 HD 
BRANCH  16  18
HETATM   18  N   UNL     1     -11.174  15.566  64.763  1.00  0.00    -0.423 NA 
HETATM   19  N   UNL     1     -11.474  16.389  64.034  1.00  0.00    -1.573 NA 
HETATM   20  H1  UNL     1     -11.737  17.127  63.381  1.00  0.00     0.000 HD 
HETATM   21  H2  UNL     1     -12.453  16.246  64.283  1.00  0.00     0.000 HD 
ENDBRANCH  16  18
ENDBRANCH  14  16
BRANCH  15  22
HETATM   22  C   UNL     1     -11.836  15.808  68.988  1.00  0.00    -0.355 C  
HETATM   23  H   UNL     1     -12.523  15.451  70.812  1.00  0.00     0.000 HD 
HETATM   24  O   UNL     1     -11.958  15.028  70.175  1.00  0.00    -0.280 OA 
ENDBRANCH  15  22
ENDBRANCH   4  11
TORSDOF 4
ENDMDL
MODEL       20
REMARK 921   NORMALIZED FREE ENERGY PREDICTED BY IDOCK:   -5.77 KCAL/MOL
REMARK 922        TOTAL FREE ENERGY PREDICTED BY IDOCK:   -7.63 KCAL/MOL
REMARK 923 INTER-LIGAND FREE ENERGY PREDICTED BY IDOCK:   -7.88 KCAL/MOL
REMARK 924 INTRA-LIGAND FREE ENERGY PREDICTED BY IDOCK:    0.25 KCAL/MOL
REMARK 927      BINDING AFFINITY PREDICTED BY RF-SCORE:    0.00 PKD
ROOT
HETATM    1  C   UNL     1     -12.437  10.329  71.530  1.00  0.00    -0.524 C  
HETATM    2  C   UNL     1     -11.860  10.349  70.154  1.00  0.00    -0.379 C  
HETATM    3  C   UNL     1     -11.903  11.402  69.328  1.00  0.00    -0.349 C  
HETATM    4  N   UNL     1     -11.370  11.376  68.051  1.00  0.00    -0.281 N  
HETATM    5  C   UNL     1     -10.680  10.263  67.585  1.00  0.00    -0.288 C  
HETATM    6  O   UNL     1     -11.144   8.099  70.354  1.00  0.00    -0.253 OA 
HETATM    7  O   UNL     1     -10.141  10.194  66.481  1.00  0.00    -0.215 OA 
HETATM    8  H   UNL     1     -10.120   8.370  68.110  1.00  0.00     0.000 HD 
HETATM    9  N   UNL     1     -10.629   9.193  68.435  1.00  0.00    -0.201 N  
HETATM   10  C   UNL     1     -11.192   9.118  69.675  1.00  0.00    -0.009 C  
ENDROOT
BRANCH   4  11
HETATM   11  C   UNL     1     -11.422  12.545  67.171  1.00  0.00    -0.351 C  
HETATM   12  C   UNL     1     -10.110  12.833  66.448  1.00  0.00    -0.266 C  
HETATM   13  O   UNL     1     -12.408  12.368  66.134  1.00  0.00    -0.606 OA 
HETATM   14  C   UNL     1     -10.564  13.613  65.236  1.00  0.00    -0.346 C  
HETATM   15  C   UNL     1     -11.933  13.001  64.925  1.00  0.00    -0.396 C  
BRANCH  14  16
HETATM   16  N   UNL     1     -10.750  15.031  65.609  1.00  0.00    -0.333 NA 
HETATM   17  H   UNL     1     -10.594  15.364  66.561  1.00  0.00     0.000 HD 
BRANCH  16  18
HETATM   18  N   UNL     1     -11.106  15.794  64.692  1.00  0.00    -0.458 NA 
HETATM   19  N   UNL     1     -11.430  16.489  63.850  1.00  0.00    -1.599 NA 
HETATM   20  H1  UNL     1     -11.722  17.114  63.098  1.00  0.00     0.000 HD 
HETATM   21  H2  UNL     1     -10.833  15.974  63.202  1.00  0.00     0.000 HD 
ENDBRANCH  16  18
ENDBRANCH  14  16
BRANCH  15  22
HETATM   22  C   UNL     1     -11.881  11.943  63.819  1.00  0.00    -0.458 C  
HETATM   23  H   UNL     1     -13.102  11.177  62.459  1.00  0.00     0.000 HD 
HETATM   24  O   UNL     1     -13.133  11.833  63.146  1.00  0.00    -0.568 OA 
ENDBRANCH  15  22
ENDBRANCH   4  11
TORSDOF 4
ENDMDL
MODEL       21
REMARK 921   NORMALIZED FREE ENERGY PREDICTED BY IDOCK:   -5.73 KCAL/MOL
REMARK 922        TOTAL FREE ENERGY PREDICTED BY IDOCK:   -7.59 KCAL/MOL
REMARK 923 INTER-LIGAND FREE ENERGY PREDICTED BY IDOCK:   -7.17 KCAL/MOL
REMARK 924 INTRA-LIGAND FREE ENERGY PREDICTED BY IDOCK:   -0.41 KCAL/MOL
REMARK 927      BINDING AFFINITY PREDICTED BY RF-SCORE:    0.00 PKD
ROOT
HETATM    1  C   UNL     1     -10.104  18.563  67.862  1.00  0.00    -0.398 C  
HETATM    2  C   UNL     1     -10.686  17.188  67.846  1.00  0.00    -0.355 C  
HETATM    3  C   UNL     1     -11.379  16.646  68.855  1.00  0.00    -0.123 C  
HETATM    4  N   UNL     1     -11.890  15.360  68.808  1.00  0.00    -0.344 N  
HETATM    5  C   UNL     1     -11.775  14.586  67.659  1.00  0.00    -0.382 C  
HETATM    6  O   UNL     1      -9.826  16.783  65.675  1.00  0.00    -0.544 OA 
HETATM    7  O   UNL     1     -12.249  13.457  67.536  1.00  0.00    -0.311 OA 
HETATM    8  H   UNL     1     -10.989  14.593  65.775  1.00  0.00     0.000 HD 
HETATM    9  N   UNL     1     -11.075  15.147  66.627  1.00  0.00    -0.327 N  
HETATM   10  C   UNL     1     -10.482  16.375  66.626  1.00  0.00    -0.274 C  
ENDROOT
BRANCH   4  11
HETATM   11  C   UNL     1     -12.654  14.794  69.921  1.00  0.00    -0.174 C  
HETATM   12  C   UNL     1     -11.843  13.866  70.819  1.00  0.00    -0.257 C  
HETATM   13  O   UNL     1     -13.156  15.833  70.784  1.00  0.00    -0.522 OA 
HETATM   14  C   UNL     1     -12.602  13.921  72.125  1.00  0.00    -0.152 C  
HETATM   15  C   UNL     1     -13.144  15.353  72.148  1.00  0.00    -0.406 C  
BRANCH  14  16
HETATM   16  N   UNL     1     -13.741  12.982  72.067  1.00  0.00    -0.420 NA 
HETATM   17  H   UNL     1     -14.707  13.306  72.019  1.00  0.00     0.000 HD 
BRANCH  16  18
HETATM   18  N   UNL     1     -13.451  11.771  72.079  1.00  0.00    -0.359 NA 
HETATM   19  N   UNL     1     -13.188  10.662  72.094  1.00  0.00    -0.582 NA 
HETATM   20  H1  UNL     1     -12.950   9.671  72.104  1.00  0.00     0.000 HD 
HETATM   21  H2  UNL     1     -13.819  10.529  72.885  1.00  0.00     0.000 HD 
ENDBRANCH  16  18
ENDBRANCH  14  16
BRANCH  15  22
HETATM   22  C   UNL     1     -12.286  16.308  72.984  1.00  0.00    -0.523 C  
HETATM   23  H   UNL     1     -12.111  16.848  74.882  1.00  0.00     0.000 HD 
HETATM   24  O   UNL     1     -12.643  16.256  74.363  1.00  0.00    -0.717 OA 
ENDBRANCH  15  22
ENDBRANCH   4  11
TORSDOF 4
ENDMDL
MODEL       22
REMARK 921   NORMALIZED FREE ENERGY PREDICTED BY IDOCK:   -5.72 KCAL/MOL
REMARK 922        TOTAL FREE ENERGY PREDICTED BY IDOCK:   -7.57 KCAL/MOL
REMARK 923 INTER-LIGAND FREE ENERGY PREDICTED BY IDOCK:   -7.00 KCAL/MOL
REMARK 924 INTRA-LIGAND FREE ENERGY PREDICTED BY IDOCK:   -0.57 KCAL/MOL
REMARK 927      BINDING AFFINITY PREDICTED BY RF-SCORE:    0.00 PKD
ROOT
HETATM    1  C   UNL     1      -7.104  18.965  69.058  1.00  0.00    -0.339 C  
HETATM    2  C   UNL     1      -8.179  18.928  68.023  1.00  0.00    -0.323 C  
HETATM    3  C   UNL     1      -9.019  17.903  67.836  1.00  0.00    -0.264 C  
HETATM    4  N   UNL     1      -9.993  17.900  66.852  1.00  0.00    -0.318 N  
HETATM    5  C   UNL     1     -10.203  19.015  66.050  1.00  0.00    -0.401 C  
HETATM    6  O   UNL     1      -7.569  21.075  67.226  1.00  0.00    -0.340 OA 
HETATM    7  O   UNL     1     -11.082  19.096  65.193  1.00  0.00    -0.387 OA 
HETATM    8  H   UNL     1      -9.495  20.894  65.673  1.00  0.00     0.000 HD 
HETATM    9  N   UNL     1      -9.349  20.065  66.250  1.00  0.00    -0.378 N  
HETATM   10  C   UNL     1      -8.323  20.113  67.146  1.00  0.00    -0.337 C  
ENDROOT
BRANCH   4  11
HETATM   11  C   UNL     1     -10.906  16.770  66.676  1.00  0.00    -0.005 C  
HETATM   12  C   UNL     1     -10.325  15.628  65.849  1.00  0.00    -0.368 C  
HETATM   13  O   UNL     1     -11.263  16.191  67.947  1.00  0.00    -0.325 OA 
HETATM   14  C   UNL     1     -11.134  14.438  66.312  1.00  0.00    -0.331 C  
HETATM   15  C   UNL     1     -11.412  14.762  67.783  1.00  0.00    -0.345 C  
BRANCH  14  16
HETATM   16  N   UNL     1     -12.417  14.406  65.580  1.00  0.00    -0.375 NA 
HETATM   17  H   UNL     1     -13.305  14.608  66.038  1.00  0.00     0.000 HD 
BRANCH  16  18
HETATM   18  N   UNL     1     -12.348  14.117  64.371  1.00  0.00    -0.636 NA 
HETATM   19  N   UNL     1     -12.280  13.857  63.264  1.00  0.00    -1.111 NA 
HETATM   20  H1  UNL     1     -12.223  13.621  62.273  1.00  0.00     0.000 HD 
HETATM   21  H2  UNL     1     -11.521  14.531  63.157  1.00  0.00     0.000 HD 
ENDBRANCH  16  18
ENDBRANCH  14  16
BRANCH  15  22
HETATM   22  C   UNL     1     -10.445  14.066  68.746  1.00  0.00    -0.233 C  
HETATM   23  H   UNL     1      -9.097  14.580  70.103  1.00  0.00     0.000 HD 
HETATM   24  O   UNL     1      -9.697  15.012  69.505  1.00  0.00    -0.185 OA 
ENDBRANCH  15  22
ENDBRANCH   4  11
TORSDOF 4
ENDMDL
MODEL       23
REMARK 921   NORMALIZED FREE ENERGY PREDICTED BY IDOCK:   -5.66 KCAL/MOL
REMARK 922        TOTAL FREE ENERGY PREDICTED BY IDOCK:   -7.50 KCAL/MOL
REMARK 923 INTER-LIGAND FREE ENERGY PREDICTED BY IDOCK:   -7.66 KCAL/MOL
REMARK 924 INTRA-LIGAND FREE ENERGY PREDICTED BY IDOCK:    0.17 KCAL/MOL
REMARK 927      BINDING AFFINITY PREDICTED BY RF-SCORE:    0.00 PKD
ROOT
HETATM    1  C   UNL     1      -9.676  20.573  67.167  1.00  0.00    -0.581 C  
HETATM    2  C   UNL     1      -9.516  19.097  67.333  1.00  0.00    -0.362 C  
HETATM    3  C   UNL     1     -10.217  18.178  66.659  1.00  0.00    -0.381 C  
HETATM    4  N   UNL     1     -10.052  16.817  66.853  1.00  0.00    -0.278 N  
HETATM    5  C   UNL     1      -9.075  16.331  67.713  1.00  0.00    -0.195 C  
HETATM    6  O   UNL     1      -7.854  19.402  68.994  1.00  0.00    -0.357 OA 
HETATM    7  O   UNL     1      -8.843  15.135  67.892  1.00  0.00    -0.162 OA 
HETATM    8  H   UNL     1      -7.627  16.931  69.022  1.00  0.00     0.000 HD 
HETATM    9  N   UNL     1      -8.353  17.273  68.392  1.00  0.00    -0.252 N  
HETATM   10  C   UNL     1      -8.509  18.625  68.309  1.00  0.00    -0.324 C  
ENDROOT
BRANCH   4  11
HETATM   11  C   UNL     1     -10.824  15.831  66.095  1.00  0.00    -0.240 C  
HETATM   12  C   UNL     1      -9.967  14.827  65.332  1.00  0.00    -0.369 C  
HETATM   13  O   UNL     1     -11.659  15.047  66.970  1.00  0.00    -0.331 OA 
HETATM   14  C   UNL     1     -10.898  13.647  65.175  1.00  0.00    -0.334 C  
HETATM   15  C   UNL     1     -11.737  13.698  66.455  1.00  0.00    -0.382 C  
BRANCH  14  16
HETATM   16  N   UNL     1     -11.785  13.876  64.015  1.00  0.00    -0.628 NA 
HETATM   17  H   UNL     1     -11.909  14.801  63.604  1.00  0.00     0.000 HD 
BRANCH  16  18
HETATM   18  N   UNL     1     -12.370  12.872  63.570  1.00  0.00    -0.704 NA 
HETATM   19  N   UNL     1     -12.910  11.956  63.160  1.00  0.00    -0.867 NA 
HETATM   20  H1  UNL     1     -13.390  11.133  62.795  1.00  0.00     0.000 HD 
HETATM   21  H2  UNL     1     -13.561  12.567  62.666  1.00  0.00     0.000 HD 
ENDBRANCH  16  18
ENDBRANCH  14  16
BRANCH  15  22
HETATM   22  C   UNL     1     -11.237  12.741  67.542  1.00  0.00    -0.289 C  
HETATM   23  H   UNL     1     -11.632  10.909  68.183  1.00  0.00     0.000 HD 
HETATM   24  O   UNL     1     -11.943  11.503  67.509  1.00  0.00    -0.629 OA 
ENDBRANCH  15  22
ENDBRANCH   4  11
TORSDOF 4
ENDMDL
MODEL       24
REMARK 921   NORMALIZED FREE ENERGY PREDICTED BY IDOCK:   -5.65 KCAL/MOL
REMARK 922        TOTAL FREE ENERGY PREDICTED BY IDOCK:   -7.48 KCAL/MOL
REMARK 923 INTER-LIGAND FREE ENERGY PREDICTED BY IDOCK:   -7.11 KCAL/MOL
REMARK 924 INTRA-LIGAND FREE ENERGY PREDICTED BY IDOCK:   -0.37 KCAL/MOL
REMARK 927      BINDING AFFINITY PREDICTED BY RF-SCORE:    0.00 PKD
ROOT
HETATM    1  C   UNL     1     -13.167  13.182  71.985  1.00  0.00    -0.543 C  
HETATM    2  C   UNL     1     -12.574  13.951  70.852  1.00  0.00    -0.431 C  
HETATM    3  C   UNL     1     -12.279  13.431  69.654  1.00  0.00    -0.221 C  
HETATM    4  N   UNL     1     -11.713  14.174  68.632  1.00  0.00    -0.329 N  
HETATM    5  C   UNL     1     -11.494  15.539  68.776  1.00  0.00    -0.355 C  
HETATM    6  O   UNL     1     -12.500  15.931  72.152  1.00  0.00    -0.415 OA 
HETATM    7  O   UNL     1     -11.042  16.265  67.891  1.00  0.00    -0.332 OA 
HETATM    8  H   UNL     1     -11.657  17.071  70.117  1.00  0.00     0.000 HD 
HETATM    9  N   UNL     1     -11.806  16.069  69.998  1.00  0.00    -0.290 N  
HETATM   10  C   UNL     1     -12.296  15.388  71.073  1.00  0.00    -0.392 C  
ENDROOT
BRANCH   4  11
HETATM   11  C   UNL     1     -11.410  13.584  67.327  1.00  0.00    -0.315 C  
HETATM   12  C   UNL     1      -9.922  13.363  67.079  1.00  0.00    -0.246 C  
HETATM   13  O   UNL     1     -12.025  12.288  67.191  1.00  0.00    -0.564 OA 
HETATM   14  C   UNL     1      -9.918  12.262  66.043  1.00  0.00    -0.252 C  
HETATM   15  C   UNL     1     -11.153  11.436  66.415  1.00  0.00    -0.240 C  
BRANCH  14  16
HETATM   16  N   UNL     1     -10.124  12.852  64.704  1.00  0.00    -0.544 NA 
HETATM   17  H   UNL     1     -10.125  13.860  64.551  1.00  0.00     0.000 HD 
BRANCH  16  18
HETATM   18  N   UNL     1     -10.297  12.043  63.774  1.00  0.00    -0.388 NA 
HETATM   19  N   UNL     1     -10.458  11.299  62.926  1.00  0.00    -0.743 NA 
HETATM   20  H1  UNL     1     -10.600  10.636  62.163  1.00  0.00     0.000 HD 
HETATM   21  H2  UNL     1     -10.876  10.643  63.587  1.00  0.00     0.000 HD 
ENDBRANCH  16  18
ENDBRANCH  14  16
BRANCH  15  22
HETATM   22  C   UNL     1     -10.819  10.200  67.255  1.00  0.00    -0.230 C  
HETATM   23  H   UNL     1      -9.991   8.420  66.988  1.00  0.00     0.000 HD 
HETATM   24  O   UNL     1     -10.198   9.187  66.467  1.00  0.00    -0.278 OA 
ENDBRANCH  15  22
ENDBRANCH   4  11
TORSDOF 4
ENDMDL
MODEL       25
REMARK 921   NORMALIZED FREE ENERGY PREDICTED BY IDOCK:   -5.56 KCAL/MOL
REMARK 922        TOTAL FREE ENERGY PREDICTED BY IDOCK:   -7.37 KCAL/MOL
REMARK 923 INTER-LIGAND FREE ENERGY PREDICTED BY IDOCK:   -6.78 KCAL/MOL
REMARK 924 INTRA-LIGAND FREE ENERGY PREDICTED BY IDOCK:   -0.59 KCAL/MOL
REMARK 927      BINDING AFFINITY PREDICTED BY RF-SCORE:    0.00 PKD
ROOT
HETATM    1  C   UNL     1     -11.547  10.623  69.951  1.00  0.00    -0.396 C  
HETATM    2  C   UNL     1     -12.051  11.997  70.244  1.00  0.00    -0.395 C  
HETATM    3  C   UNL     1     -11.720  13.092  69.548  1.00  0.00    -0.317 C  
HETATM    4  N   UNL     1     -12.196  14.353  69.862  1.00  0.00    -0.334 N  
HETATM    5  C   UNL     1     -13.120  14.535  70.885  1.00  0.00    -0.345 C  
HETATM    6  O   UNL     1     -13.302  11.209  72.096  1.00  0.00    -0.452 OA 
HETATM    7  O   UNL     1     -13.618  15.621  71.182  1.00  0.00    -0.582 OA 
HETATM    8  H   UNL     1     -14.145  13.530  72.337  1.00  0.00     0.000 HD 
HETATM    9  N   UNL     1     -13.463  13.413  71.588  1.00  0.00    -0.337 N  
HETATM   10  C   UNL     1     -12.982  12.154  71.384  1.00  0.00    -0.257 C  
ENDROOT
BRANCH   4  11
HETATM   11  C   UNL     1     -11.828  15.533  69.078  1.00  0.00    -0.354 C  
HETATM   12  C   UNL     1     -10.501  16.161  69.491  1.00  0.00    -0.295 C  
HETATM   13  O   UNL     1     -11.685  15.201  67.683  1.00  0.00    -0.329 OA 
HETATM   14  C   UNL     1     -10.076  16.893  68.239  1.00  0.00    -0.302 C  
HETATM   15  C   UNL     1     -10.623  16.003  67.119  1.00  0.00    -0.305 C  
BRANCH  14  16
HETATM   16  N   UNL     1     -10.758  18.203  68.184  1.00  0.00    -0.292 NA 
HETATM   17  H   UNL     1     -11.323  18.551  68.958  1.00  0.00     0.000 HD 
BRANCH  16  18
HETATM   18  N   UNL     1     -10.600  18.855  67.135  1.00  0.00    -0.444 NA 
HETATM   19  N   UNL     1     -10.455  19.447  66.173  1.00  0.00    -0.490 NA 
HETATM   20  H1  UNL     1     -10.325  19.982  65.314  1.00  0.00     0.000 HD 
HETATM   21  H2  UNL     1     -10.134  18.599  65.705  1.00  0.00     0.000 HD 
ENDBRANCH  16  18
ENDBRANCH  14  16
BRANCH  15  22
HETATM   22  C   UNL     1      -9.569  15.059  66.531  1.00  0.00    -0.277 C  
HETATM   23  H   UNL     1      -9.439  13.159  65.986  1.00  0.00     0.000 HD 
HETATM   24  O   UNL     1     -10.092  13.745  66.350  1.00  0.00    -0.279 OA 
ENDBRANCH  15  22
ENDBRANCH   4  11
TORSDOF 4
ENDMDL
MODEL       26
REMARK 921   NORMALIZED FREE ENERGY PREDICTED BY IDOCK:   -5.56 KCAL/MOL
REMARK 922        TOTAL FREE ENERGY PREDICTED BY IDOCK:   -7.37 KCAL/MOL
REMARK 923 INTER-LIGAND FREE ENERGY PREDICTED BY IDOCK:   -6.84 KCAL/MOL
REMARK 924 INTRA-LIGAND FREE ENERGY PREDICTED BY IDOCK:   -0.52 KCAL/MOL
REMARK 927      BINDING AFFINITY PREDICTED BY RF-SCORE:    0.00 PKD
ROOT
HETATM    1  C   UNL     1     -10.696  13.603  64.635  1.00  0.00    -0.433 C  
HETATM    2  C   UNL     1     -10.939  14.226  65.970  1.00  0.00    -0.312 C  
HETATM    3  C   UNL     1     -10.409  15.388  66.373  1.00  0.00    -0.296 C  
HETATM    4  N   UNL     1     -10.645  15.925  67.627  1.00  0.00    -0.300 N  
HETATM    5  C   UNL     1     -11.524  15.314  68.514  1.00  0.00    -0.342 C  
HETATM    6  O   UNL     1     -12.323  12.420  66.631  1.00  0.00    -0.477 OA 
HETATM    7  O   UNL     1     -11.815  15.766  69.621  1.00  0.00    -0.345 OA 
HETATM    8  H   UNL     1     -12.724  13.676  68.732  1.00  0.00     0.000 HD 
HETATM    9  N   UNL     1     -12.072  14.133  68.094  1.00  0.00    -0.319 N  
HETATM   10  C   UNL     1     -11.831  13.507  66.908  1.00  0.00    -0.407 C  
ENDROOT
BRANCH   4  11
HETATM   11  C   UNL     1     -10.062  17.203  68.040  1.00  0.00    -0.311 C  
HETATM   12  C   UNL     1      -8.686  17.476  67.443  1.00  0.00    -0.231 C  
HETATM   13  O   UNL     1     -10.892  18.306  67.628  1.00  0.00    -0.396 OA 
HETATM   14  C   UNL     1      -8.594  18.984  67.497  1.00  0.00    -0.286 C  
HETATM   15  C   UNL     1     -10.045  19.424  67.281  1.00  0.00    -0.390 C  
BRANCH  14  16
HETATM   16  N   UNL     1      -8.166  19.398  68.849  1.00  0.00    -0.352 NA 
HETATM   17  H   UNL     1      -8.764  19.278  69.666  1.00  0.00     0.000 HD 
BRANCH  16  18
HETATM   18  N   UNL     1      -7.030  19.903  68.930  1.00  0.00    -0.328 NA 
HETATM   19  N   UNL     1      -5.994  20.369  69.006  1.00  0.00    -0.322 NA 
HETATM   20  H1  UNL     1      -5.064  20.783  69.073  1.00  0.00     0.000 HD 
HETATM   21  H2  UNL     1      -6.421  21.270  69.224  1.00  0.00     0.000 HD 
ENDBRANCH  16  18
ENDBRANCH  14  16
BRANCH  15  22
HETATM   22  C   UNL     1     -10.344  19.821  65.832  1.00  0.00    -0.483 C  
HETATM   23  H   UNL     1     -11.126  18.991  64.212  1.00  0.00     0.000 HD 
HETATM   24  O   UNL     1     -10.940  18.746  65.111  1.00  0.00    -0.514 OA 
ENDBRANCH  15  22
ENDBRANCH   4  11
TORSDOF 4
ENDMDL
MODEL       27
REMARK 921   NORMALIZED FREE ENERGY PREDICTED BY IDOCK:   -5.50 KCAL/MOL
REMARK 922        TOTAL FREE ENERGY PREDICTED BY IDOCK:   -7.30 KCAL/MOL
REMARK 923 INTER-LIGAND FREE ENERGY PREDICTED BY IDOCK:   -6.76 KCAL/MOL
REMARK 924 INTRA-LIGAND FREE ENERGY PREDICTED BY IDOCK:   -0.53 KCAL/MOL
REMARK 927      BINDING AFFINITY PREDICTED BY RF-SCORE:    0.00 PKD
ROOT
HETATM    1  C   UNL     1      -8.940   9.849  63.353  1.00  0.00    -0.278 C  
HETATM    2  C   UNL     1      -9.524   9.990  64.720  1.00  0.00    -0.366 C  
HETATM    3  C   UNL     1     -10.216  11.055  65.143  1.00  0.00    -0.291 C  
HETATM    4  N   UNL     1     -10.728  11.156  66.425  1.00  0.00    -0.262 N  
HETATM    5  C   UNL     1     -10.616  10.103  67.325  1.00  0.00    -0.261 C  
HETATM    6  O   UNL     1      -8.669   7.878  65.371  1.00  0.00    -0.137 OA 
HETATM    7  O   UNL     1     -11.091  10.110  68.460  1.00  0.00    -0.245 OA 
HETATM    8  H   UNL     1      -9.833   8.229  67.533  1.00  0.00     0.000 HD 
HETATM    9  N   UNL     1      -9.918   9.012  66.886  1.00  0.00    -0.222 N  
HETATM   10  C   UNL     1      -9.323   8.871  65.667  1.00  0.00    -0.191 C  
ENDROOT
BRANCH   4  11
HETATM   11  C   UNL     1     -11.490  12.328  66.860  1.00  0.00    -0.356 C  
HETATM   12  C   UNL     1     -10.633  13.560  67.125  1.00  0.00    -0.264 C  
HETATM   13  O   UNL     1     -12.445  12.724  65.856  1.00  0.00    -0.560 OA 
HETATM   14  C   UNL     1     -11.618  14.694  66.949  1.00  0.00    -0.362 C  
HETATM   15  C   UNL     1     -12.561  14.165  65.865  1.00  0.00    -0.417 C  
BRANCH  14  16
HETATM   16  N   UNL     1     -12.383  14.872  68.201  1.00  0.00    -0.538 NA 
HETATM   17  H   UNL     1     -13.297  14.443  68.341  1.00  0.00     0.000 HD 
BRANCH  16  18
HETATM   18  N   UNL     1     -11.845  15.579  69.073  1.00  0.00    -0.367 NA 
HETATM   19  N   UNL     1     -11.347  16.227  69.867  1.00  0.00    -0.347 NA 
HETATM   20  H1  UNL     1     -10.906  16.806  70.582  1.00  0.00     0.000 HD 
HETATM   21  H2  UNL     1     -10.617  16.476  69.200  1.00  0.00     0.000 HD 
ENDBRANCH  16  18
ENDBRANCH  14  16
BRANCH  15  22
HETATM   22  C   UNL     1     -12.217  14.681  64.464  1.00  0.00    -0.456 C  
HETATM   23  H   UNL     1     -12.446  14.098  62.585  1.00  0.00     0.000 HD 
HETATM   24  O   UNL     1     -12.659  13.778  63.454  1.00  0.00    -0.842 OA 
ENDBRANCH  15  22
ENDBRANCH   4  11
TORSDOF 4
ENDMDL
MODEL       28
REMARK 921   NORMALIZED FREE ENERGY PREDICTED BY IDOCK:   -5.42 KCAL/MOL
REMARK 922        TOTAL FREE ENERGY PREDICTED BY IDOCK:   -7.20 KCAL/MOL
REMARK 923 INTER-LIGAND FREE ENERGY PREDICTED BY IDOCK:   -7.57 KCAL/MOL
REMARK 924 INTRA-LIGAND FREE ENERGY PREDICTED BY IDOCK:    0.37 KCAL/MOL
REMARK 927      BINDING AFFINITY PREDICTED BY RF-SCORE:    0.00 PKD
ROOT
HETATM    1  C   UNL     1      -9.560  18.545  68.835  1.00  0.00    -0.307 C  
HETATM    2  C   UNL     1      -9.983  17.760  67.637  1.00  0.00    -0.322 C  
HETATM    3  C   UNL     1     -10.047  16.424  67.590  1.00  0.00    -0.263 C  
HETATM    4  N   UNL     1     -10.428  15.731  66.453  1.00  0.00    -0.297 N  
HETATM    5  C   UNL     1     -10.848  16.404  65.312  1.00  0.00    -0.258 C  
HETATM    6  O   UNL     1     -10.289  19.740  66.371  1.00  0.00    -0.438 OA 
HETATM    7  O   UNL     1     -11.246  15.848  64.288  1.00  0.00    -0.428 OA 
HETATM    8  H   UNL     1     -11.102  18.277  64.539  1.00  0.00     0.000 HD 
HETATM    9  N   UNL     1     -10.791  17.769  65.368  1.00  0.00    -0.096 N  
HETATM   10  C   UNL     1     -10.358  18.518  66.422  1.00  0.00    -0.423 C  
ENDROOT
BRANCH   4  11
HETATM   11  C   UNL     1     -10.500  14.269  66.430  1.00  0.00    -0.282 C  
HETATM   12  C   UNL     1     -11.890  13.714  66.722  1.00  0.00    -0.452 C  
HETATM   13  O   UNL     1     -10.138  13.755  65.133  1.00  0.00    -0.335 OA 
HETATM   14  C   UNL     1     -11.848  12.352  66.067  1.00  0.00    -0.395 C  
HETATM   15  C   UNL     1     -10.936  12.581  64.858  1.00  0.00    -0.300 C  
BRANCH  14  16
HETATM   16  N   UNL     1     -11.197  11.391  66.980  1.00  0.00    -0.348 NA 
HETATM   17  H   UNL     1     -10.279  10.993  66.781  1.00  0.00     0.000 HD 
BRANCH  16  18
HETATM   18  N   UNL     1     -11.836  11.096  68.007  1.00  0.00    -0.620 NA 
HETATM   19  N   UNL     1     -12.416  10.824  68.949  1.00  0.00    -0.731 NA 
HETATM   20  H1  UNL     1     -12.940  10.583  69.791  1.00  0.00     0.000 HD 
HETATM   21  H2  UNL     1     -11.580  10.381  69.330  1.00  0.00     0.000 HD 
ENDBRANCH  16  18
ENDBRANCH  14  16
BRANCH  15  22
HETATM   22  C   UNL     1     -11.708  12.821  63.557  1.00  0.00    -0.530 C  
HETATM   23  H   UNL     1     -13.561  12.612  62.888  1.00  0.00     0.000 HD 
HETATM   24  O   UNL     1     -13.081  12.463  63.694  1.00  0.00    -0.748 OA 
ENDBRANCH  15  22
ENDBRANCH   4  11
TORSDOF 4
ENDMDL
MODEL       29
REMARK 921   NORMALIZED FREE ENERGY PREDICTED BY IDOCK:   -5.40 KCAL/MOL
REMARK 922        TOTAL FREE ENERGY PREDICTED BY IDOCK:   -7.18 KCAL/MOL
REMARK 923 INTER-LIGAND FREE ENERGY PREDICTED BY IDOCK:   -6.68 KCAL/MOL
REMARK 924 INTRA-LIGAND FREE ENERGY PREDICTED BY IDOCK:   -0.50 KCAL/MOL
REMARK 927      BINDING AFFINITY PREDICTED BY RF-SCORE:    0.00 PKD
ROOT
HETATM    1  C   UNL     1      -9.984  18.858  69.008  1.00  0.00    -0.365 C  
HETATM    2  C   UNL     1     -10.334  18.231  67.699  1.00  0.00    -0.414 C  
HETATM    3  C   UNL     1     -10.596  16.930  67.527  1.00  0.00    -0.307 C  
HETATM    4  N   UNL     1     -10.900  16.382  66.292  1.00  0.00    -0.145 N  
HETATM    5  C   UNL     1     -11.030  17.186  65.166  1.00  0.00     0.048 C  
HETATM    6  O   UNL     1     -10.132  20.310  66.579  1.00  0.00    -0.442 OA 
HETATM    7  O   UNL     1     -11.347  16.770  64.052  1.00  0.00    -1.153 OA 
HETATM    8  H   UNL     1     -10.870  19.120  64.531  1.00  0.00     0.000 HD 
HETATM    9  N   UNL     1     -10.772  18.517  65.347  1.00  0.00    -0.055 N  
HETATM   10  C   UNL     1     -10.396  19.115  66.513  1.00  0.00    -0.442 C  
ENDROOT
BRANCH   4  11
HETATM   11  C   UNL     1     -11.193  14.957  66.132  1.00  0.00    -0.325 C  
HETATM   12  C   UNL     1      -9.966  14.058  66.238  1.00  0.00    -0.317 C  
HETATM   13  O   UNL     1     -12.102  14.499  67.153  1.00  0.00    -0.397 OA 
HETATM   14  C   UNL     1     -10.562  12.730  66.646  1.00  0.00    -0.256 C  
HETATM   15  C   UNL     1     -11.760  13.141  67.508  1.00  0.00    -0.366 C  
BRANCH  14  16
HETATM   16  N   UNL     1     -11.058  12.028  65.444  1.00  0.00    -0.312 NA 
HETATM   17  H   UNL     1     -11.988  11.610  65.407  1.00  0.00     0.000 HD 
BRANCH  16  18
HETATM   18  N   UNL     1     -10.273  11.978  64.479  1.00  0.00    -0.277 NA 
HETATM   19  N   UNL     1      -9.555  11.938  63.595  1.00  0.00    -0.559 NA 
HETATM   20  H1  UNL     1      -8.912  11.897  62.805  1.00  0.00     0.000 HD 
HETATM   21  H2  UNL     1      -9.781  12.908  63.374  1.00  0.00     0.000 HD 
ENDBRANCH  16  18
ENDBRANCH  14  16
BRANCH  15  22
HETATM   22  C   UNL     1     -11.464  13.098  69.010  1.00  0.00    -0.296 C  
HETATM   23  H   UNL     1     -11.735  14.254  70.595  1.00  0.00     0.000 HD 
HETATM   24  O   UNL     1     -11.919  14.280  69.663  1.00  0.00    -0.297 OA 
ENDBRANCH  15  22
ENDBRANCH   4  11
TORSDOF 4
ENDMDL
MODEL       30
REMARK 921   NORMALIZED FREE ENERGY PREDICTED BY IDOCK:   -5.37 KCAL/MOL
REMARK 922        TOTAL FREE ENERGY PREDICTED BY IDOCK:   -7.14 KCAL/MOL
REMARK 923 INTER-LIGAND FREE ENERGY PREDICTED BY IDOCK:   -7.28 KCAL/MOL
REMARK 924 INTRA-LIGAND FREE ENERGY PREDICTED BY IDOCK:    0.13 KCAL/MOL
REMARK 927      BINDING AFFINITY PREDICTED BY RF-SCORE:    0.00 PKD
ROOT
HETATM    1  C   UNL     1     -11.524  11.718  65.753  1.00  0.00    -0.258 C  
HETATM    2  C   UNL     1     -11.379  13.187  65.536  1.00  0.00    -0.325 C  
HETATM    3  C   UNL     1     -10.699  14.010  66.343  1.00  0.00    -0.278 C  
HETATM    4  N   UNL     1     -10.601  15.373  66.116  1.00  0.00    -0.306 N  
HETATM    5  C   UNL     1     -11.145  15.949  64.974  1.00  0.00    -0.360 C  
HETATM    6  O   UNL     1     -12.703  13.090  63.573  1.00  0.00    -0.708 OA 
HETATM    7  O   UNL     1     -11.050  17.142  64.688  1.00  0.00    -1.036 OA 
HETATM    8  H   UNL     1     -12.228  15.510  63.300  1.00  0.00     0.000 HD 
HETATM    9  N   UNL     1     -11.829  15.103  64.146  1.00  0.00    -0.256 N  
HETATM   10  C   UNL     1     -12.031  13.768  64.340  1.00  0.00    -0.445 C  
ENDROOT
BRANCH   4  11
HETATM   11  C   UNL     1      -9.843  16.250  67.010  1.00  0.00    -0.244 C  
HETATM   12  C   UNL     1      -8.736  17.034  66.314  1.00  0.00    -0.285 C  
HETATM   13  O   UNL     1     -10.702  17.238  67.614  1.00  0.00    -0.359 OA 
HETATM   14  C   UNL     1      -8.548  18.224  67.226  1.00  0.00    -0.254 C  
HETATM   15  C   UNL     1      -9.960  18.469  67.767  1.00  0.00    -0.343 C  
BRANCH  14  16
HETATM   16  N   UNL     1      -7.667  17.844  68.350  1.00  0.00    -0.282 NA 
HETATM   17  H   UNL     1      -7.528  16.871  68.621  1.00  0.00     0.000 HD 
BRANCH  16  18
HETATM   18  N   UNL     1      -7.106  18.782  68.944  1.00  0.00    -0.301 NA 
HETATM   19  N   UNL     1      -6.597  19.644  69.490  1.00  0.00    -0.340 NA 
HETATM   20  H1  UNL     1      -6.136  20.413  69.977  1.00  0.00     0.000 HD 
HETATM   21  H2  UNL     1      -7.507  19.969  69.816  1.00  0.00     0.000 HD 
ENDBRANCH  16  18
ENDBRANCH  14  16
BRANCH  15  22
HETATM   22  C   UNL     1     -10.709  19.576  67.017  1.00  0.00    -0.477 C  
HETATM   23  H   UNL     1     -10.322  20.927  65.621  1.00  0.00     0.000 HD 
HETATM   24  O   UNL     1      -9.858  20.240  66.086  1.00  0.00    -0.418 OA 
ENDBRANCH  15  22
ENDBRANCH   4  11
TORSDOF 4
ENDMDL
MODEL       31
REMARK 921   NORMALIZED FREE ENERGY PREDICTED BY IDOCK:   -5.36 KCAL/MOL
REMARK 922        TOTAL FREE ENERGY PREDICTED BY IDOCK:   -7.13 KCAL/MOL
REMARK 923 INTER-LIGAND FREE ENERGY PREDICTED BY IDOCK:   -6.63 KCAL/MOL
REMARK 924 INTRA-LIGAND FREE ENERGY PREDICTED BY IDOCK:   -0.50 KCAL/MOL
REMARK 927      BINDING AFFINITY PREDICTED BY RF-SCORE:    0.00 PKD
ROOT
HETATM    1  C   UNL     1     -10.652  19.629  65.814  1.00  0.00    -0.537 C  
HETATM    2  C   UNL     1     -10.058  18.631  66.752  1.00  0.00    -0.413 C  
HETATM    3  C   UNL     1     -10.419  17.344  66.819  1.00  0.00    -0.257 C  
HETATM    4  N   UNL     1      -9.855  16.451  67.715  1.00  0.00    -0.236 N  
HETATM    5  C   UNL     1      -8.811  16.837  68.548  1.00  0.00    -0.248 C  
HETATM    6  O   UNL     1      -8.635  20.273  67.696  1.00  0.00    -0.319 OA 
HETATM    7  O   UNL     1      -8.234  16.082  69.330  1.00  0.00    -0.236 OA 
HETATM    8  H   UNL     1      -7.669  18.447  69.070  1.00  0.00     0.000 HD 
HETATM    9  N   UNL     1      -8.438  18.151  68.470  1.00  0.00    -0.305 N  
HETATM   10  C   UNL     1      -8.994  19.103  67.667  1.00  0.00    -0.298 C  
ENDROOT
BRANCH   4  11
HETATM   11  C   UNL     1     -10.260  15.046  67.761  1.00  0.00    -0.236 C  
HETATM   12  C   UNL     1     -11.644  14.820  68.359  1.00  0.00    -0.350 C  
HETATM   13  O   UNL     1     -10.310  14.479  66.436  1.00  0.00    -0.280 OA 
HETATM   14  C   UNL     1     -12.053  13.494  67.759  1.00  0.00    -0.280 C  
HETATM   15  C   UNL     1     -11.392  13.523  66.378  1.00  0.00    -0.316 C  
BRANCH  14  16
HETATM   16  N   UNL     1     -11.457  12.397  68.549  1.00  0.00    -0.280 NA 
HETATM   17  H   UNL     1     -10.792  11.739  68.144  1.00  0.00     0.000 HD 
BRANCH  16  18
HETATM   18  N   UNL     1     -11.817  12.325  69.739  1.00  0.00    -0.329 NA 
HETATM   19  N   UNL     1     -12.145  12.253  70.828  1.00  0.00    -0.466 NA 
HETATM   20  H1  UNL     1     -12.439  12.194  71.803  1.00  0.00     0.000 HD 
HETATM   21  H2  UNL     1     -11.982  11.246  70.805  1.00  0.00     0.000 HD 
ENDBRANCH  16  18
ENDBRANCH  14  16
BRANCH  15  22
HETATM   22  C   UNL     1     -12.350  13.952  65.261  1.00  0.00    -0.464 C  
HETATM   23  H   UNL     1     -13.842  13.167  64.223  1.00  0.00     0.000 HD 
HETATM   24  O   UNL     1     -13.249  12.901  64.916  1.00  0.00    -0.782 OA 
ENDBRANCH  15  22
ENDBRANCH   4  11
TORSDOF 4
ENDMDL
MODEL       32
REMARK 921   NORMALIZED FREE ENERGY PREDICTED BY IDOCK:   -5.32 KCAL/MOL
REMARK 922        TOTAL FREE ENERGY PREDICTED BY IDOCK:   -7.07 KCAL/MOL
REMARK 923 INTER-LIGAND FREE ENERGY PREDICTED BY IDOCK:   -6.49 KCAL/MOL
REMARK 924 INTRA-LIGAND FREE ENERGY PREDICTED BY IDOCK:   -0.58 KCAL/MOL
REMARK 927      BINDING AFFINITY PREDICTED BY RF-SCORE:    0.00 PKD
ROOT
HETATM    1  C   UNL     1     -12.240  12.150  63.397  1.00  0.00    -0.635 C  
HETATM    2  C   UNL     1     -12.053  12.810  64.723  1.00  0.00    -0.488 C  
HETATM    3  C   UNL     1     -11.648  12.182  65.833  1.00  0.00    -0.364 C  
HETATM    4  N   UNL     1     -11.503  12.827  67.050  1.00  0.00    -0.321 N  
HETATM    5  C   UNL     1     -11.697  14.199  67.160  1.00  0.00    -0.403 C  
HETATM    6  O   UNL     1     -12.748  14.900  63.849  1.00  0.00    -0.789 OA 
HETATM    7  O   UNL     1     -11.537  14.839  68.199  1.00  0.00    -0.307 OA 
HETATM    8  H   UNL     1     -12.242  15.847  66.085  1.00  0.00     0.000 HD 
HETATM    9  N   UNL     1     -12.102  14.839  66.022  1.00  0.00    -0.175 N  
HETATM   10  C   UNL     1     -12.336  14.261  64.809  1.00  0.00    -0.426 C  
ENDROOT
BRANCH   4  11
HETATM   11  C   UNL     1     -11.048  12.119  68.248  1.00  0.00    -0.243 C  
HETATM   12  C   UNL     1     -11.375  10.630  68.248  1.00  0.00    -0.357 C  
HETATM   13  O   UNL     1      -9.616  12.204  68.384  1.00  0.00    -0.209 OA 
HETATM   14  C   UNL     1     -10.339  10.062  69.190  1.00  0.00    -0.216 C  
HETATM   15  C   UNL     1      -9.127  10.969  68.955  1.00  0.00    -0.123 C  
BRANCH  14  16
HETATM   16  N   UNL     1     -10.799  10.234  70.584  1.00  0.00    -0.408 NA 
HETATM   17  H   UNL     1     -10.317  10.847  71.240  1.00  0.00     0.000 HD 
BRANCH  16  18
HETATM   18  N   UNL     1     -11.811   9.586  70.907  1.00  0.00    -0.296 NA 
HETATM   19  N   UNL     1     -12.739   8.992  71.197  1.00  0.00    -0.482 NA 
HETATM   20  H1  UNL     1     -13.569   8.461  71.462  1.00  0.00     0.000 HD 
HETATM   21  H2  UNL     1     -12.948   8.844  70.209  1.00  0.00     0.000 HD 
ENDBRANCH  16  18
ENDBRANCH  14  16
BRANCH  15  22
HETATM   22  C   UNL     1      -8.103  10.367  67.988  1.00  0.00    -0.110 C  
HETATM   23  H   UNL     1      -7.448  10.697  66.147  1.00  0.00     0.000 HD 
HETATM   24  O   UNL     1      -8.083  11.070  66.748  1.00  0.00    -0.138 OA 
ENDBRANCH  15  22
ENDBRANCH   4  11
TORSDOF 4
ENDMDL
MODEL       33
REMARK 921   NORMALIZED FREE ENERGY PREDICTED BY IDOCK:   -5.28 KCAL/MOL
REMARK 922        TOTAL FREE ENERGY PREDICTED BY IDOCK:   -7.03 KCAL/MOL
REMARK 923 INTER-LIGAND FREE ENERGY PREDICTED BY IDOCK:   -6.53 KCAL/MOL
REMARK 924 INTRA-LIGAND FREE ENERGY PREDICTED BY IDOCK:   -0.50 KCAL/MOL
REMARK 927      BINDING AFFINITY PREDICTED BY RF-SCORE:    0.00 PKD
ROOT
HETATM    1  C   UNL     1     -10.934   9.029  70.295  1.00  0.00    -0.274 C  
HETATM    2  C   UNL     1     -10.612   9.314  68.866  1.00  0.00    -0.222 C  
HETATM    3  C   UNL     1     -10.565  10.539  68.328  1.00  0.00    -0.206 C  
HETATM    4  N   UNL     1     -10.279  10.762  66.992  1.00  0.00    -0.208 N  
HETATM    5  C   UNL     1      -9.940   9.711  66.148  1.00  0.00    -0.276 C  
HETATM    6  O   UNL     1     -10.382   7.004  68.392  1.00  0.00    -0.178 OA 
HETATM    7  O   UNL     1      -9.627   9.846  64.965  1.00  0.00    -0.271 OA 
HETATM    8  H   UNL     1      -9.725   7.680  66.098  1.00  0.00     0.000 HD 
HETATM    9  N   UNL     1      -9.978   8.462  66.703  1.00  0.00    -0.268 N  
HETATM   10  C   UNL     1     -10.322   8.158  67.988  1.00  0.00    -0.211 C  
ENDROOT
BRANCH   4  11
HETATM   11  C   UNL     1     -10.224  12.112  66.430  1.00  0.00    -0.220 C  
HETATM   12  C   UNL     1     -11.592  12.705  66.108  1.00  0.00    -0.445 C  
HETATM   13  O   UNL     1      -9.609  13.031  67.355  1.00  0.00    -0.201 OA 
HETATM   14  C   UNL     1     -11.327  14.192  66.147  1.00  0.00    -0.337 C  
HETATM   15  C   UNL     1     -10.248  14.321  67.226  1.00  0.00    -0.252 C  
BRANCH  14  16
HETATM   16  N   UNL     1     -10.760  14.621  64.852  1.00  0.00    -0.469 NA 
HETATM   17  H   UNL     1     -10.141  14.020  64.307  1.00  0.00     0.000 HD 
BRANCH  16  18
HETATM   18  N   UNL     1     -11.082  15.759  64.465  1.00  0.00    -0.453 NA 
HETATM   19  N   UNL     1     -11.377  16.804  64.117  1.00  0.00    -1.400 NA 
HETATM   20  H1  UNL     1     -11.642  17.736  63.801  1.00  0.00     0.000 HD 
HETATM   21  H2  UNL     1     -11.289  17.142  65.076  1.00  0.00     0.000 HD 
ENDBRANCH  16  18
ENDBRANCH  14  16
BRANCH  15  22
HETATM   22  C   UNL     1     -10.810  14.716  68.595  1.00  0.00    -0.255 C  
HETATM   23  H   UNL     1     -12.041  16.077  69.342  1.00  0.00     0.000 HD 
HETATM   24  O   UNL     1     -11.692  15.831  68.493  1.00  0.00    -0.383 OA 
ENDBRANCH  15  22
ENDBRANCH   4  11
TORSDOF 4
ENDMDL
MODEL       34
REMARK 921   NORMALIZED FREE ENERGY PREDICTED BY IDOCK:   -5.22 KCAL/MOL
REMARK 922        TOTAL FREE ENERGY PREDICTED BY IDOCK:   -6.96 KCAL/MOL
REMARK 923 INTER-LIGAND FREE ENERGY PREDICTED BY IDOCK:   -6.48 KCAL/MOL
REMARK 924 INTRA-LIGAND FREE ENERGY PREDICTED BY IDOCK:   -0.47 KCAL/MOL
REMARK 927      BINDING AFFINITY PREDICTED BY RF-SCORE:    0.00 PKD
ROOT
HETATM    1  C   UNL     1      -9.940  19.859  69.334  1.00  0.00    -0.185 C  
HETATM    2  C   UNL     1     -10.150  18.885  68.222  1.00  0.00    -0.446 C  
HETATM    3  C   UNL     1     -10.370  17.576  68.391  1.00  0.00    -0.378 C  
HETATM    4  N   UNL     1     -10.544  16.701  67.332  1.00  0.00    -0.316 N  
HETATM    5  C   UNL     1     -10.580  17.162  66.022  1.00  0.00    -0.204 C  
HETATM    6  O   UNL     1      -9.880  20.589  66.597  1.00  0.00    -0.405 OA 
HETATM    7  O   UNL     1     -10.780  16.446  65.041  1.00  0.00    -0.638 OA 
HETATM    8  H   UNL     1     -10.395  18.857  64.897  1.00  0.00     0.000 HD 
HETATM    9  N   UNL     1     -10.365  18.502  65.853  1.00  0.00    -0.383 N  
HETATM   10  C   UNL     1     -10.115  19.411  66.839  1.00  0.00    -0.388 C  
ENDROOT
BRANCH   4  11
HETATM   11  C   UNL     1     -10.794  15.274  67.545  1.00  0.00    -0.304 C  
HETATM   12  C   UNL     1      -9.665  14.550  68.269  1.00  0.00    -0.218 C  
HETATM   13  O   UNL     1     -11.970  15.071  68.352  1.00  0.00    -0.291 OA 
HETATM   14  C   UNL     1     -10.371  13.361  68.879  1.00  0.00    -0.072 C  
HETATM   15  C   UNL     1     -11.765  13.912  69.192  1.00  0.00    -0.338 C  
BRANCH  14  16
HETATM   16  N   UNL     1     -10.497  12.294  67.865  1.00  0.00    -0.208 NA 
HETATM   17  H   UNL     1      -9.927  12.283  67.019  1.00  0.00     0.000 HD 
BRANCH  16  18
HETATM   18  N   UNL     1     -11.340  11.411  68.105  1.00  0.00    -0.277 NA 
HETATM   19  N   UNL     1     -12.116  10.605  68.323  1.00  0.00    -0.789 NA 
HETATM   20  H1  UNL     1     -12.807   9.881  68.519  1.00  0.00     0.000 HD 
HETATM   21  H2  UNL     1     -12.853  11.238  68.011  1.00  0.00     0.000 HD 
ENDBRANCH  16  18
ENDBRANCH  14  16
BRANCH  15  22
HETATM   22  C   UNL     1     -11.928  14.345  70.652  1.00  0.00    -0.323 C  
HETATM   23  H   UNL     1     -13.253  14.132  72.110  1.00  0.00     0.000 HD 
HETATM   24  O   UNL     1     -13.151  13.864  71.204  1.00  0.00    -0.323 OA 
ENDBRANCH  15  22
ENDBRANCH   4  11
TORSDOF 4
ENDMDL
MODEL       35
REMARK 921   NORMALIZED FREE ENERGY PREDICTED BY IDOCK:   -5.22 KCAL/MOL
REMARK 922        TOTAL FREE ENERGY PREDICTED BY IDOCK:   -6.95 KCAL/MOL
REMARK 923 INTER-LIGAND FREE ENERGY PREDICTED BY IDOCK:   -6.97 KCAL/MOL
REMARK 924 INTRA-LIGAND FREE ENERGY PREDICTED BY IDOCK:    0.01 KCAL/MOL
REMARK 927      BINDING AFFINITY PREDICTED BY RF-SCORE:    0.00 PKD
ROOT
HETATM    1  C   UNL     1     -13.667  13.223  72.188  1.00  0.00    -0.619 C  
HETATM    2  C   UNL     1     -12.775  13.958  71.244  1.00  0.00    -0.444 C  
HETATM    3  C   UNL     1     -12.248  13.431  70.132  1.00  0.00    -0.315 C  
HETATM    4  N   UNL     1     -11.410  14.141  69.289  1.00  0.00    -0.269 N  
HETATM    5  C   UNL     1     -11.137  15.485  69.518  1.00  0.00    -0.286 C  
HETATM    6  O   UNL     1     -12.868  15.913  72.581  1.00  0.00    -0.424 OA 
HETATM    7  O   UNL     1     -10.442  16.185  68.781  1.00  0.00    -0.237 OA 
HETATM    8  H   UNL     1     -11.499  17.010  70.826  1.00  0.00     0.000 HD 
HETATM    9  N   UNL     1     -11.686  16.023  70.649  1.00  0.00    -0.375 N  
HETATM   10  C   UNL     1     -12.458  15.368  71.563  1.00  0.00    -0.384 C  
ENDROOT
BRANCH   4  11
HETATM   11  C   UNL     1     -10.855  13.545  68.073  1.00  0.00    -0.250 C  
HETATM   12  C   UNL     1     -11.427  12.171  67.741  1.00  0.00    -0.398 C  
HETATM   13  O   UNL     1     -11.127  14.370  66.923  1.00  0.00    -0.307 OA 
HETATM   14  C   UNL     1     -11.197  12.067  66.251  1.00  0.00    -0.342 C  
HETATM   15  C   UNL     1     -11.348  13.516  65.778  1.00  0.00    -0.305 C  
BRANCH  14  16
HETATM   16  N   UNL     1      -9.809  11.626  66.001  1.00  0.00    -0.222 NA 
HETATM   17  H   UNL     1      -9.005  12.149  66.348  1.00  0.00     0.000 HD 
BRANCH  16  18
HETATM   18  N   UNL     1      -9.681  10.578  65.342  1.00  0.00    -0.237 NA 
HETATM   19  N   UNL     1      -9.558   9.619  64.738  1.00  0.00    -0.435 NA 
HETATM   20  H1  UNL     1      -9.452   8.760  64.198  1.00  0.00     0.000 HD 
HETATM   21  H2  UNL     1      -8.544   9.721  64.792  1.00  0.00     0.000 HD 
ENDBRANCH  16  18
ENDBRANCH  14  16
BRANCH  15  22
HETATM   22  C   UNL     1     -12.737  13.823  65.211  1.00  0.00    -0.439 C  
HETATM   23  H   UNL     1     -13.553  15.087  63.923  1.00  0.00     0.000 HD 
HETATM   24  O   UNL     1     -12.691  14.896  64.274  1.00  0.00    -0.678 OA 
ENDBRANCH  15  22
ENDBRANCH   4  11
TORSDOF 4
ENDMDL
MODEL       36
REMARK 921   NORMALIZED FREE ENERGY PREDICTED BY IDOCK:   -5.20 KCAL/MOL
REMARK 922        TOTAL FREE ENERGY PREDICTED BY IDOCK:   -6.93 KCAL/MOL
REMARK 923 INTER-LIGAND FREE ENERGY PREDICTED BY IDOCK:   -6.39 KCAL/MOL
REMARK 924 INTRA-LIGAND FREE ENERGY PREDICTED BY IDOCK:   -0.54 KCAL/MOL
REMARK 927      BINDING AFFINITY PREDICTED BY RF-SCORE:    0.00 PKD
ROOT
HETATM    1  C   UNL     1     -12.316  12.144  63.366  1.00  0.00    -0.648 C  
HETATM    2  C   UNL     1     -11.993  12.684  64.720  1.00  0.00    -0.458 C  
HETATM    3  C   UNL     1     -11.529  11.950  65.738  1.00  0.00    -0.265 C  
HETATM    4  N   UNL     1     -11.256  12.484  66.986  1.00  0.00    -0.284 N  
HETATM    5  C   UNL     1     -11.377  13.849  67.221  1.00  0.00    -0.323 C  
HETATM    6  O   UNL     1     -12.658  14.865  64.077  1.00  0.00    -0.832 OA 
HETATM    7  O   UNL     1     -11.103  14.394  68.291  1.00  0.00    -0.244 OA 
HETATM    8  H   UNL     1     -11.928  15.602  66.331  1.00  0.00     0.000 HD 
HETATM    9  N   UNL     1     -11.841  14.598  66.175  1.00  0.00    -0.323 N  
HETATM   10  C   UNL     1     -12.199  14.132  64.945  1.00  0.00    -0.438 C  
ENDROOT
BRANCH   4  11
HETATM   11  C   UNL     1     -10.739  11.662  68.081  1.00  0.00    -0.213 C  
HETATM   12  C   UNL     1     -11.782  10.748  68.714  1.00  0.00    -0.315 C  
HETATM   13  O   UNL     1      -9.686  10.792  67.620  1.00  0.00    -0.163 OA 
HETATM   14  C   UNL     1     -10.939   9.650  69.319  1.00  0.00    -0.168 C  
HETATM   15  C   UNL     1      -9.763   9.543  68.343  1.00  0.00    -0.154 C  
BRANCH  14  16
HETATM   16  N   UNL     1     -10.429  10.093  70.633  1.00  0.00    -0.391 NA 
HETATM   17  H   UNL     1     -10.078  11.038  70.786  1.00  0.00     0.000 HD 
BRANCH  16  18
HETATM   18  N   UNL     1     -10.454   9.243  71.542  1.00  0.00    -0.345 NA 
HETATM   19  N   UNL     1     -10.482   8.467  72.376  1.00  0.00    -0.331 NA 
HETATM   20  H1  UNL     1     -10.503   7.771  73.121  1.00  0.00     0.000 HD 
HETATM   21  H2  UNL     1     -11.384   8.835  72.681  1.00  0.00     0.000 HD 
ENDBRANCH  16  18
ENDBRANCH  14  16
BRANCH  15  22
HETATM   22  C   UNL     1      -9.926   8.410  67.326  1.00  0.00    -0.227 C  
HETATM   23  H   UNL     1     -10.025   8.203  65.358  1.00  0.00     0.000 HD 
HETATM   24  O   UNL     1      -9.924   8.906  65.990  1.00  0.00    -0.270 OA 
ENDBRANCH  15  22
ENDBRANCH   4  11
TORSDOF 4
ENDMDL
MODEL       37
REMARK 921   NORMALIZED FREE ENERGY PREDICTED BY IDOCK:   -5.18 KCAL/MOL
REMARK 922        TOTAL FREE ENERGY PREDICTED BY IDOCK:   -6.90 KCAL/MOL
REMARK 923 INTER-LIGAND FREE ENERGY PREDICTED BY IDOCK:   -6.38 KCAL/MOL
REMARK 924 INTRA-LIGAND FREE ENERGY PREDICTED BY IDOCK:   -0.52 KCAL/MOL
REMARK 927      BINDING AFFINITY PREDICTED BY RF-SCORE:    0.00 PKD
ROOT
HETATM    1  C   UNL     1      -9.034   7.694  70.540  1.00  0.00    -0.151 C  
HETATM    2  C   UNL     1     -10.110   8.724  70.628  1.00  0.00    -0.248 C  
HETATM    3  C   UNL     1     -10.390   9.612  69.666  1.00  0.00    -0.227 C  
HETATM    4  N   UNL     1     -11.387  10.565  69.792  1.00  0.00    -0.278 N  
HETATM    5  C   UNL     1     -12.214  10.593  70.909  1.00  0.00    -0.395 C  
HETATM    6  O   UNL     1     -10.705   8.007  72.807  1.00  0.00    -0.331 OA 
HETATM    7  O   UNL     1     -13.148  11.380  71.060  1.00  0.00    -0.245 OA 
HETATM    8  H   UNL     1     -12.534   9.681  72.708  1.00  0.00     0.000 HD 
HETATM    9  N   UNL     1     -11.931   9.677  71.885  1.00  0.00    -0.338 N  
HETATM   10  C   UNL     1     -10.923   8.759  71.865  1.00  0.00    -0.365 C  
ENDROOT
BRANCH   4  11
HETATM   11  C   UNL     1     -11.680  11.519  68.721  1.00  0.00    -0.334 C  
HETATM   12  C   UNL     1     -10.625  12.607  68.556  1.00  0.00    -0.262 C  
HETATM   13  O   UNL     1     -11.760  10.854  67.445  1.00  0.00    -0.510 OA 
HETATM   14  C   UNL     1     -10.812  13.035  67.118  1.00  0.00    -0.260 C  
HETATM   15  C   UNL     1     -11.238  11.737  66.426  1.00  0.00    -0.323 C  
BRANCH  14  16
HETATM   16  N   UNL     1     -11.923  14.005  67.038  1.00  0.00    -0.425 NA 
HETATM   17  H   UNL     1     -12.172  14.607  67.822  1.00  0.00     0.000 HD 
BRANCH  16  18
HETATM   18  N   UNL     1     -12.536  14.043  65.955  1.00  0.00    -0.468 NA 
HETATM   19  N   UNL     1     -13.103  14.078  64.967  1.00  0.00    -0.717 NA 
HETATM   20  H1  UNL     1     -13.605  14.109  64.080  1.00  0.00     0.000 HD 
HETATM   21  H2  UNL     1     -13.980  14.178  65.479  1.00  0.00     0.000 HD 
ENDBRANCH  16  18
ENDBRANCH  14  16
BRANCH  15  22
HETATM   22  C   UNL     1     -10.081  11.022  65.721  1.00  0.00    -0.252 C  
HETATM   23  H   UNL     1      -9.252   9.223  65.710  1.00  0.00     0.000 HD 
HETATM   24  O   UNL     1      -9.970   9.667  66.147  1.00  0.00    -0.256 OA 
ENDBRANCH  15  22
ENDBRANCH   4  11
TORSDOF 4
ENDMDL
MODEL       38
REMARK 921   NORMALIZED FREE ENERGY PREDICTED BY IDOCK:   -5.16 KCAL/MOL
REMARK 922        TOTAL FREE ENERGY PREDICTED BY IDOCK:   -6.88 KCAL/MOL
REMARK 923 INTER-LIGAND FREE ENERGY PREDICTED BY IDOCK:   -6.39 KCAL/MOL
REMARK 924 INTRA-LIGAND FREE ENERGY PREDICTED BY IDOCK:   -0.49 KCAL/MOL
REMARK 927      BINDING AFFINITY PREDICTED BY RF-SCORE:    0.00 PKD
ROOT
HETATM    1  C   UNL     1      -6.140  17.211  69.316  1.00  0.00    -0.216 C  
HETATM    2  C   UNL     1      -7.459  17.712  68.829  1.00  0.00    -0.255 C  
HETATM    3  C   UNL     1      -8.510  16.932  68.548  1.00  0.00    -0.258 C  
HETATM    4  N   UNL     1      -9.714  17.434  68.081  1.00  0.00    -0.279 N  
HETATM    5  C   UNL     1      -9.918  18.803  67.957  1.00  0.00    -0.356 C  
HETATM    6  O   UNL     1      -6.685  19.952  68.846  1.00  0.00    -0.306 OA 
HETATM    7  O   UNL     1     -10.978  19.315  67.597  1.00  0.00    -0.431 OA 
HETATM    8  H   UNL     1      -8.982  20.605  68.176  1.00  0.00     0.000 HD 
HETATM    9  N   UNL     1      -8.845  19.597  68.256  1.00  0.00    -0.325 N  
HETATM   10  C   UNL     1      -7.610  19.174  68.649  1.00  0.00    -0.346 C  
ENDROOT
BRANCH   4  11
HETATM   11  C   UNL     1     -10.852  16.561  67.790  1.00  0.00    -0.304 C  
HETATM   12  C   UNL     1     -10.465  15.234  67.145  1.00  0.00    -0.280 C  
HETATM   13  O   UNL     1     -11.559  16.216  68.998  1.00  0.00    -0.353 OA 
HETATM   14  C   UNL     1     -11.628  14.339  67.505  1.00  0.00    -0.363 C  
HETATM   15  C   UNL     1     -12.054  14.863  68.879  1.00  0.00    -0.194 C  
BRANCH  14  16
HETATM   16  N   UNL     1     -12.730  14.562  66.546  1.00  0.00    -0.302 NA 
HETATM   17  H   UNL     1     -13.424  15.297  66.683  1.00  0.00     0.000 HD 
BRANCH  16  18
HETATM   18  N   UNL     1     -12.760  13.800  65.562  1.00  0.00    -0.601 NA 
HETATM   19  N   UNL     1     -12.790  13.098  64.665  1.00  0.00    -0.720 NA 
HETATM   20  H1  UNL     1     -12.814  12.474  63.859  1.00  0.00     0.000 HD 
HETATM   21  H2  UNL     1     -13.128  12.349  65.269  1.00  0.00     0.000 HD 
ENDBRANCH  16  18
ENDBRANCH  14  16
BRANCH  15  22
HETATM   22  C   UNL     1     -11.486  14.041  70.040  1.00  0.00    -0.168 C  
HETATM   23  H   UNL     1     -11.458  14.116  72.019  1.00  0.00     0.000 HD 
HETATM   24  O   UNL     1     -11.810  14.626  71.299  1.00  0.00    -0.333 OA 
ENDBRANCH  15  22
ENDBRANCH   4  11
TORSDOF 4
ENDMDL
MODEL       39
REMARK 921   NORMALIZED FREE ENERGY PREDICTED BY IDOCK:   -5.12 KCAL/MOL
REMARK 922        TOTAL FREE ENERGY PREDICTED BY IDOCK:   -6.83 KCAL/MOL
REMARK 923 INTER-LIGAND FREE ENERGY PREDICTED BY IDOCK:   -7.17 KCAL/MOL
REMARK 924 INTRA-LIGAND FREE ENERGY PREDICTED BY IDOCK:    0.34 KCAL/MOL
REMARK 927      BINDING AFFINITY PREDICTED BY RF-SCORE:    0.00 PKD
ROOT
HETATM    1  C   UNL     1     -11.013   8.738  70.161  1.00  0.00    -0.236 C  
HETATM    2  C   UNL     1     -11.234  10.136  69.685  1.00  0.00    -0.310 C  
HETATM    3  C   UNL     1     -10.763  10.628  68.532  1.00  0.00    -0.217 C  
HETATM    4  N   UNL     1     -10.975  11.937  68.133  1.00  0.00    -0.213 N  
HETATM    5  C   UNL     1     -11.770  12.794  68.885  1.00  0.00    -0.326 C  
HETATM    6  O   UNL     1     -12.464  10.673  71.638  1.00  0.00    -0.373 OA 
HETATM    7  O   UNL     1     -12.038  13.951  68.561  1.00  0.00    -0.362 OA 
HETATM    8  H   UNL     1     -12.848  12.900  70.616  1.00  0.00     0.000 HD 
HETATM    9  N   UNL     1     -12.257  12.285  70.056  1.00  0.00    -0.241 N  
HETATM   10  C   UNL     1     -12.031  11.034  70.550  1.00  0.00    -0.379 C  
ENDROOT
BRANCH   4  11
HETATM   11  C   UNL     1     -10.458  12.448  66.863  1.00  0.00    -0.224 C  
HETATM   12  C   UNL     1     -11.543  12.870  65.878  1.00  0.00    -0.423 C  
HETATM   13  O   UNL     1      -9.643  13.619  67.070  1.00  0.00    -0.235 OA 
HETATM   14  C   UNL     1     -10.823  13.862  64.995  1.00  0.00    -0.382 C  
HETATM   15  C   UNL     1      -9.830  14.521  65.957  1.00  0.00    -0.318 C  
BRANCH  14  16
HETATM   16  N   UNL     1     -10.067  13.133  63.956  1.00  0.00    -0.768 NA 
HETATM   17  H   UNL     1      -9.132  13.419  63.666  1.00  0.00     0.000 HD 
BRANCH  16  18
HETATM   18  N   UNL     1     -10.641  12.147  63.456  1.00  0.00    -0.450 NA 
HETATM   19  N   UNL     1     -11.167  11.248  62.994  1.00  0.00    -0.835 NA 
HETATM   20  H1  UNL     1     -11.637  10.441  62.584  1.00  0.00     0.000 HD 
HETATM   21  H2  UNL     1     -11.276  11.767  62.122  1.00  0.00     0.000 HD 
ENDBRANCH  16  18
ENDBRANCH  14  16
BRANCH  15  22
HETATM   22  C   UNL     1     -10.323  15.863  66.506  1.00  0.00    -0.300 C  
HETATM   23  H   UNL     1     -10.569  17.717  65.854  1.00  0.00     0.000 HD 
HETATM   24  O   UNL     1     -10.263  16.885  65.513  1.00  0.00    -0.580 OA 
ENDBRANCH  15  22
ENDBRANCH   4  11
TORSDOF 4
ENDMDL
MODEL       40
REMARK 921   NORMALIZED FREE ENERGY PREDICTED BY IDOCK:   -5.12 KCAL/MOL
REMARK 922        TOTAL FREE ENERGY PREDICTED BY IDOCK:   -6.83 KCAL/MOL
REMARK 923 INTER-LIGAND FREE ENERGY PREDICTED BY IDOCK:   -6.74 KCAL/MOL
REMARK 924 INTRA-LIGAND FREE ENERGY PREDICTED BY IDOCK:   -0.08 KCAL/MOL
REMARK 927      BINDING AFFINITY PREDICTED BY RF-SCORE:    0.00 PKD
ROOT
HETATM    1  C   UNL     1     -11.916  13.174  66.165  1.00  0.00    -0.478 C  
HETATM    2  C   UNL     1     -11.547  14.198  67.187  1.00  0.00    -0.400 C  
HETATM    3  C   UNL     1     -12.056  14.252  68.424  1.00  0.00    -0.262 C  
HETATM    4  N   UNL     1     -11.701  15.229  69.339  1.00  0.00    -0.320 N  
HETATM    5  C   UNL     1     -10.721  16.169  69.038  1.00  0.00    -0.287 C  
HETATM    6  O   UNL     1     -10.065  15.262  65.675  1.00  0.00    -0.319 OA 
HETATM    7  O   UNL     1     -10.325  17.030  69.823  1.00  0.00    -0.150 OA 
HETATM    8  H   UNL     1      -9.472  16.782  67.544  1.00  0.00     0.000 HD 
HETATM    9  N   UNL     1     -10.197  16.103  67.777  1.00  0.00    -0.261 N  
HETATM   10  C   UNL     1     -10.548  15.219  66.800  1.00  0.00    -0.304 C  
ENDROOT
BRANCH   4  11
HETATM   11  C   UNL     1     -12.264  15.261  70.689  1.00  0.00    -0.364 C  
HETATM   12  C   UNL     1     -13.781  15.408  70.724  1.00  0.00    -0.186 C  
HETATM   13  O   UNL     1     -11.973  14.040  71.399  1.00  0.00    -0.265 OA 
HETATM   14  C   UNL     1     -14.141  14.822  72.070  1.00  0.00    -0.510 C  
HETATM   15  C   UNL     1     -13.092  13.722  72.257  1.00  0.00    -0.405 C  
BRANCH  14  16
HETATM   16  N   UNL     1     -13.949  15.847  73.116  1.00  0.00    -0.644 NA 
HETATM   17  H   UNL     1     -14.579  16.643  73.214  1.00  0.00     0.000 HD 
BRANCH  16  18
HETATM   18  N   UNL     1     -12.972  15.681  73.869  1.00  0.00    -0.486 NA 
HETATM   19  N   UNL     1     -12.082  15.529  74.564  1.00  0.00    -0.613 NA 
HETATM   20  H1  UNL     1     -11.282  15.393  75.181  1.00  0.00     0.000 HD 
HETATM   21  H2  UNL     1     -12.704  15.599  75.369  1.00  0.00     0.000 HD 
ENDBRANCH  16  18
ENDBRANCH  14  16
BRANCH  15  22
HETATM   22  C   UNL     1     -13.604  12.329  71.880  1.00  0.00    -0.099 C  
HETATM   23  H   UNL     1     -12.933  10.721  70.939  1.00  0.00     0.000 HD 
HETATM   24  O   UNL     1     -12.615  11.585  71.173  1.00  0.00    -0.389 OA 
ENDBRANCH  15  22
ENDBRANCH   4  11
TORSDOF 4
ENDMDL
MODEL       41
REMARK 921   NORMALIZED FREE ENERGY PREDICTED BY IDOCK:   -5.09 KCAL/MOL
REMARK 922        TOTAL FREE ENERGY PREDICTED BY IDOCK:   -6.79 KCAL/MOL
REMARK 923 INTER-LIGAND FREE ENERGY PREDICTED BY IDOCK:   -6.37 KCAL/MOL
REMARK 924 INTRA-LIGAND FREE ENERGY PREDICTED BY IDOCK:   -0.42 KCAL/MOL
REMARK 927      BINDING AFFINITY PREDICTED BY RF-SCORE:    0.00 PKD
ROOT
HETATM    1  C   UNL     1      -6.833  16.643  69.321  1.00  0.00    -0.232 C  
HETATM    2  C   UNL     1      -7.281  15.272  68.936  1.00  0.00    -0.137 C  
HETATM    3  C   UNL     1      -8.335  15.010  68.154  1.00  0.00    -0.142 C  
HETATM    4  N   UNL     1      -8.730  13.722  67.833  1.00  0.00    -0.171 N  
HETATM    5  C   UNL     1      -7.988  12.622  68.248  1.00  0.00    -0.153 C  
HETATM    6  O   UNL     1      -5.546  14.281  70.209  1.00  0.00    -0.104 OA 
HETATM    7  O   UNL     1      -8.255  11.457  67.956  1.00  0.00    -0.127 OA 
HETATM    8  H   UNL     1      -6.347  12.097  69.346  1.00  0.00     0.000 HD 
HETATM    9  N   UNL     1      -6.906  12.894  69.039  1.00  0.00    -0.097 N  
HETATM   10  C   UNL     1      -6.499  14.127  69.456  1.00  0.00    -0.127 C  
ENDROOT
BRANCH   4  11
HETATM   11  C   UNL     1      -9.881  13.462  66.967  1.00  0.00    -0.250 C  
HETATM   12  C   UNL     1     -11.210  13.934  67.546  1.00  0.00    -0.323 C  
HETATM   13  O   UNL     1      -9.741  14.143  65.704  1.00  0.00    -0.271 OA 
HETATM   14  C   UNL     1     -12.062  14.120  66.312  1.00  0.00    -0.442 C  
HETATM   15  C   UNL     1     -11.047  14.570  65.257  1.00  0.00    -0.353 C  
BRANCH  14  16
HETATM   16  N   UNL     1     -12.624  12.815  65.906  1.00  0.00    -0.445 NA 
HETATM   17  H   UNL     1     -12.841  12.085  66.585  1.00  0.00     0.000 HD 
BRANCH  16  18
HETATM   18  N   UNL     1     -12.817  12.660  64.686  1.00  0.00    -0.792 NA 
HETATM   19  N   UNL     1     -12.995  12.514  63.570  1.00  0.00    -0.680 NA 
HETATM   20  H1  UNL     1     -13.153  12.387  62.570  1.00  0.00     0.000 HD 
HETATM   21  H2  UNL     1     -13.140  11.516  63.729  1.00  0.00     0.000 HD 
ENDBRANCH  16  18
ENDBRANCH  14  16
BRANCH  15  22
HETATM   22  C   UNL     1     -11.014  16.089  65.064  1.00  0.00    -0.380 C  
HETATM   23  H   UNL     1     -11.718  17.424  63.780  1.00  0.00     0.000 HD 
HETATM   24  O   UNL     1     -11.738  16.481  63.901  1.00  0.00    -1.148 OA 
ENDBRANCH  15  22
ENDBRANCH   4  11
TORSDOF 4
ENDMDL
MODEL       42
REMARK 921   NORMALIZED FREE ENERGY PREDICTED BY IDOCK:   -5.05 KCAL/MOL
REMARK 922        TOTAL FREE ENERGY PREDICTED BY IDOCK:   -6.74 KCAL/MOL
REMARK 923 INTER-LIGAND FREE ENERGY PREDICTED BY IDOCK:   -6.99 KCAL/MOL
REMARK 924 INTRA-LIGAND FREE ENERGY PREDICTED BY IDOCK:    0.25 KCAL/MOL
REMARK 927      BINDING AFFINITY PREDICTED BY RF-SCORE:    0.00 PKD
ROOT
HETATM    1  C   UNL     1     -12.478  11.920  63.411  1.00  0.00    -0.582 C  
HETATM    2  C   UNL     1     -11.729  12.291  64.648  1.00  0.00    -0.420 C  
HETATM    3  C   UNL     1     -12.201  13.094  65.610  1.00  0.00    -0.466 C  
HETATM    4  N   UNL     1     -11.468  13.428  66.736  1.00  0.00    -0.328 N  
HETATM    5  C   UNL     1     -10.215  12.872  66.965  1.00  0.00    -0.243 C  
HETATM    6  O   UNL     1      -9.850  11.017  63.967  1.00  0.00    -0.257 OA 
HETATM    7  O   UNL     1      -9.535  13.088  67.968  1.00  0.00    -0.204 OA 
HETATM    8  H   UNL     1      -8.824  11.623  66.143  1.00  0.00     0.000 HD 
HETATM    9  N   UNL     1      -9.740  12.044  65.985  1.00  0.00    -0.237 N  
HETATM   10  C   UNL     1     -10.371  11.727  64.819  1.00  0.00    -0.288 C  
ENDROOT
BRANCH   4  11
HETATM   11  C   UNL     1     -12.012  14.300  67.778  1.00  0.00    -0.349 C  
HETATM   12  C   UNL     1     -11.844  13.753  69.192  1.00  0.00    -0.398 C  
HETATM   13  O   UNL     1     -11.353  15.582  67.775  1.00  0.00    -0.330 OA 
HETATM   14  C   UNL     1     -11.896  15.003  70.040  1.00  0.00    -0.319 C  
HETATM   15  C   UNL     1     -11.252  16.059  69.136  1.00  0.00    -0.342 C  
BRANCH  14  16
HETATM   16  N   UNL     1     -13.306  15.374  70.277  1.00  0.00    -0.690 NA 
HETATM   17  H   UNL     1     -13.972  15.482  69.512  1.00  0.00     0.000 HD 
BRANCH  16  18
HETATM   18  N   UNL     1     -13.632  15.546  71.466  1.00  0.00    -0.500 NA 
HETATM   19  N   UNL     1     -13.934  15.700  72.554  1.00  0.00    -0.568 NA 
HETATM   20  H1  UNL     1     -14.201  15.841  73.528  1.00  0.00     0.000 HD 
HETATM   21  H2  UNL     1     -14.648  14.978  72.452  1.00  0.00     0.000 HD 
ENDBRANCH  16  18
ENDBRANCH  14  16
BRANCH  15  22
HETATM   22  C   UNL     1      -9.773  16.300  69.450  1.00  0.00    -0.191 C  
HETATM   23  H   UNL     1      -8.357  17.594  68.957  1.00  0.00     0.000 HD 
HETATM   24  O   UNL     1      -9.275  17.444  68.762  1.00  0.00    -0.279 OA 
ENDBRANCH  15  22
ENDBRANCH   4  11
TORSDOF 4
ENDMDL
MODEL       43
REMARK 921   NORMALIZED FREE ENERGY PREDICTED BY IDOCK:   -5.05 KCAL/MOL
REMARK 922        TOTAL FREE ENERGY PREDICTED BY IDOCK:   -6.74 KCAL/MOL
REMARK 923 INTER-LIGAND FREE ENERGY PREDICTED BY IDOCK:   -6.19 KCAL/MOL
REMARK 924 INTRA-LIGAND FREE ENERGY PREDICTED BY IDOCK:   -0.55 KCAL/MOL
REMARK 927      BINDING AFFINITY PREDICTED BY RF-SCORE:    0.00 PKD
ROOT
HETATM    1  C   UNL     1     -12.660  15.276  70.822  1.00  0.00    -0.474 C  
HETATM    2  C   UNL     1     -12.704  13.791  70.975  1.00  0.00    -0.416 C  
HETATM    3  C   UNL     1     -12.050  12.928  70.189  1.00  0.00    -0.302 C  
HETATM    4  N   UNL     1     -12.129  11.555  70.352  1.00  0.00    -0.372 N  
HETATM    5  C   UNL     1     -12.841  11.001  71.410  1.00  0.00    -0.443 C  
HETATM    6  O   UNL     1     -14.188  13.963  72.814  1.00  0.00    -0.620 OA 
HETATM    7  O   UNL     1     -12.910   9.794  71.640  1.00  0.00    -0.356 OA 
HETATM    8  H   UNL     1     -14.021  11.495  73.002  1.00  0.00     0.000 HD 
HETATM    9  N   UNL     1     -13.500  11.887  72.217  1.00  0.00    -0.304 N  
HETATM   10  C   UNL     1     -13.528  13.243  72.075  1.00  0.00    -0.507 C  
ENDROOT
BRANCH   4  11
HETATM   11  C   UNL     1     -11.396  10.632  69.485  1.00  0.00    -0.277 C  
HETATM   12  C   UNL     1     -11.575  10.906  67.996  1.00  0.00    -0.295 C  
HETATM   13  O   UNL     1      -9.977  10.712  69.729  1.00  0.00    -0.137 OA 
HETATM   14  C   UNL     1     -10.333  10.292  67.393  1.00  0.00    -0.233 C  
HETATM   15  C   UNL     1      -9.277  10.514  68.480  1.00  0.00    -0.168 C  
BRANCH  14  16
HETATM   16  N   UNL     1     -10.541   8.839  67.221  1.00  0.00    -0.368 NA 
HETATM   17  H   UNL     1     -11.299   8.343  67.689  1.00  0.00     0.000 HD 
BRANCH  16  18
HETATM   18  N   UNL     1      -9.736   8.259  66.469  1.00  0.00    -0.245 NA 
HETATM   19  N   UNL     1      -8.998   7.732  65.780  1.00  0.00    -0.344 NA 
HETATM   20  H1  UNL     1      -8.338   7.257  65.164  1.00  0.00     0.000 HD 
HETATM   21  H2  UNL     1      -8.634   8.639  65.485  1.00  0.00     0.000 HD 
ENDBRANCH  16  18
ENDBRANCH  14  16
BRANCH  15  22
HETATM   22  C   UNL     1      -8.398  11.742  68.224  1.00  0.00    -0.159 C  
HETATM   23  H   UNL     1      -7.836  12.852  66.682  1.00  0.00     0.000 HD 
HETATM   24  O   UNL     1      -8.382  12.091  66.842  1.00  0.00    -0.171 OA 
ENDBRANCH  15  22
ENDBRANCH   4  11
TORSDOF 4
ENDMDL
MODEL       44
REMARK 921   NORMALIZED FREE ENERGY PREDICTED BY IDOCK:   -5.04 KCAL/MOL
REMARK 922        TOTAL FREE ENERGY PREDICTED BY IDOCK:   -6.73 KCAL/MOL
REMARK 923 INTER-LIGAND FREE ENERGY PREDICTED BY IDOCK:   -6.23 KCAL/MOL
REMARK 924 INTRA-LIGAND FREE ENERGY PREDICTED BY IDOCK:   -0.51 KCAL/MOL
REMARK 927      BINDING AFFINITY PREDICTED BY RF-SCORE:    0.00 PKD
ROOT
HETATM    1  C   UNL     1     -13.184  10.480  71.740  1.00  0.00    -0.522 C  
HETATM    2  C   UNL     1     -11.913  10.321  70.974  1.00  0.00    -0.483 C  
HETATM    3  C   UNL     1     -11.591  11.025  69.882  1.00  0.00    -0.337 C  
HETATM    4  N   UNL     1     -10.407  10.836  69.189  1.00  0.00    -0.214 N  
HETATM    5  C   UNL     1      -9.443   9.948  69.650  1.00  0.00    -0.231 C  
HETATM    6  O   UNL     1     -11.178   8.603  72.432  1.00  0.00    -0.357 OA 
HETATM    7  O   UNL     1      -8.351   9.771  69.109  1.00  0.00    -0.119 OA 
HETATM    8  H   UNL     1      -9.069   8.587  71.125  1.00  0.00     0.000 HD 
HETATM    9  N   UNL     1      -9.770   9.238  70.772  1.00  0.00    -0.268 N  
HETATM   10  C   UNL     1     -10.942   9.316  71.464  1.00  0.00    -0.375 C  
ENDROOT
BRANCH   4  11
HETATM   11  C   UNL     1     -10.075  11.626  68.003  1.00  0.00    -0.189 C  
HETATM   12  C   UNL     1     -11.182  11.667  66.956  1.00  0.00    -0.376 C  
HETATM   13  O   UNL     1      -9.818  13.001  68.354  1.00  0.00    -0.228 OA 
HETATM   14  C   UNL     1     -10.881  12.942  66.203  1.00  0.00    -0.279 C  
HETATM   15  C   UNL     1     -10.295  13.852  67.287  1.00  0.00    -0.257 C  
BRANCH  14  16
HETATM   16  N   UNL     1      -9.838  12.676  65.190  1.00  0.00    -0.463 NA 
HETATM   17  H   UNL     1      -8.845  12.780  65.396  1.00  0.00     0.000 HD 
BRANCH  16  18
HETATM   18  N   UNL     1     -10.246  12.316  64.070  1.00  0.00    -0.366 NA 
HETATM   19  N   UNL     1     -10.614  11.985  63.043  1.00  0.00    -0.619 NA 
HETATM   20  H1  UNL     1     -10.948  11.691  62.126  1.00  0.00     0.000 HD 
HETATM   21  H2  UNL     1      -9.660  11.724  62.791  1.00  0.00     0.000 HD 
ENDBRANCH  16  18
ENDBRANCH  14  16
BRANCH  15  22
HETATM   22  C   UNL     1     -11.320  14.827  67.873  1.00  0.00    -0.316 C  
HETATM   23  H   UNL     1     -11.549  15.907  69.518  1.00  0.00     0.000 HD 
HETATM   24  O   UNL     1     -10.913  15.302  69.154  1.00  0.00    -0.228 OA 
ENDBRANCH  15  22
ENDBRANCH   4  11
TORSDOF 4
ENDMDL
MODEL       45
REMARK 921   NORMALIZED FREE ENERGY PREDICTED BY IDOCK:   -5.04 KCAL/MOL
REMARK 922        TOTAL FREE ENERGY PREDICTED BY IDOCK:   -6.73 KCAL/MOL
REMARK 923 INTER-LIGAND FREE ENERGY PREDICTED BY IDOCK:   -6.35 KCAL/MOL
REMARK 924 INTRA-LIGAND FREE ENERGY PREDICTED BY IDOCK:   -0.37 KCAL/MOL
REMARK 927      BINDING AFFINITY PREDICTED BY RF-SCORE:    0.00 PKD
ROOT
HETATM    1  C   UNL     1     -11.682  15.184  68.690  1.00  0.00    -0.364 C  
HETATM    2  C   UNL     1     -12.040  14.032  69.570  1.00  0.00    -0.397 C  
HETATM    3  C   UNL     1     -11.690  12.762  69.336  1.00  0.00    -0.319 C  
HETATM    4  N   UNL     1     -12.055  11.717  70.168  1.00  0.00    -0.328 N  
HETATM    5  C   UNL     1     -12.747  11.953  71.351  1.00  0.00    -0.290 C  
HETATM    6  O   UNL     1     -13.228  15.452  71.050  1.00  0.00    -0.471 OA 
HETATM    7  O   UNL     1     -13.057  11.077  72.157  1.00  0.00    -0.460 OA 
HETATM    8  H   UNL     1     -13.596  13.444  72.459  1.00  0.00     0.000 HD 
HETATM    9  N   UNL     1     -13.094  13.254  71.591  1.00  0.00    -0.384 N  
HETATM   10  C   UNL     1     -12.834  14.322  70.785  1.00  0.00    -0.337 C  
ENDROOT
BRANCH   4  11
HETATM   11  C   UNL     1     -11.651  10.337  69.896  1.00  0.00    -0.256 C  
HETATM   12  C   UNL     1     -11.202  10.096  68.459  1.00  0.00    -0.226 C  
HETATM   13  O   UNL     1     -10.535   9.954  70.724  1.00  0.00    -0.290 OA 
HETATM   14  C   UNL     1     -10.313   8.881  68.588  1.00  0.00    -0.204 C  
HETATM   15  C   UNL     1      -9.680   9.063  69.971  1.00  0.00    -0.185 C  
BRANCH  14  16
HETATM   16  N   UNL     1     -11.150   7.663  68.604  1.00  0.00    -0.406 NA 
HETATM   17  H   UNL     1     -11.697   7.394  69.421  1.00  0.00     0.000 HD 
BRANCH  16  18
HETATM   18  N   UNL     1     -11.146   6.986  67.559  1.00  0.00    -0.213 NA 
HETATM   19  N   UNL     1     -11.146   6.363  66.605  1.00  0.00    -0.721 NA 
HETATM   20  H1  UNL     1     -11.143   5.808  65.749  1.00  0.00     0.000 HD 
HETATM   21  H2  UNL     1     -11.653   5.624  67.094  1.00  0.00     0.000 HD 
ENDBRANCH  16  18
ENDBRANCH  14  16
BRANCH  15  22
HETATM   22  C   UNL     1      -8.278   9.678  69.916  1.00  0.00    -0.174 C  
HETATM   23  H   UNL     1      -6.722   9.901  71.121  1.00  0.00     0.000 HD 
HETATM   24  O   UNL     1      -7.592   9.520  71.155  1.00  0.00    -0.328 OA 
ENDBRANCH  15  22
ENDBRANCH   4  11
TORSDOF 4
ENDMDL
MODEL       46
REMARK 921   NORMALIZED FREE ENERGY PREDICTED BY IDOCK:   -5.02 KCAL/MOL
REMARK 922        TOTAL FREE ENERGY PREDICTED BY IDOCK:   -6.71 KCAL/MOL
REMARK 923 INTER-LIGAND FREE ENERGY PREDICTED BY IDOCK:   -6.90 KCAL/MOL
REMARK 924 INTRA-LIGAND FREE ENERGY PREDICTED BY IDOCK:    0.19 KCAL/MOL
REMARK 927      BINDING AFFINITY PREDICTED BY RF-SCORE:    0.00 PKD
ROOT
HETATM    1  C   UNL     1      -5.731  16.391  68.495  1.00  0.00    -0.109 C  
HETATM    2  C   UNL     1      -7.182  16.484  68.157  1.00  0.00    -0.156 C  
HETATM    3  C   UNL     1      -7.892  15.505  67.584  1.00  0.00    -0.155 C  
HETATM    4  N   UNL     1      -9.234  15.636  67.270  1.00  0.00    -0.201 N  
HETATM    5  C   UNL     1      -9.941  16.782  67.615  1.00  0.00    -0.262 C  
HETATM    6  O   UNL     1      -7.291  18.707  68.972  1.00  0.00    -0.292 OA 
HETATM    7  O   UNL     1     -11.144  16.942  67.410  1.00  0.00    -0.146 OA 
HETATM    8  H   UNL     1      -9.721  18.621  68.475  1.00  0.00     0.000 HD 
HETATM    9  N   UNL     1      -9.214  17.777  68.210  1.00  0.00    -0.273 N  
HETATM   10  C   UNL     1      -7.878  17.749  68.483  1.00  0.00    -0.290 C  
ENDROOT
BRANCH   4  11
HETATM   11  C   UNL     1      -9.991  14.546  66.652  1.00  0.00    -0.270 C  
HETATM   12  C   UNL     1     -11.364  14.317  67.274  1.00  0.00    -0.350 C  
HETATM   13  O   UNL     1     -10.233  14.812  65.256  1.00  0.00    -0.358 OA 
HETATM   14  C   UNL     1     -12.127  13.644  66.156  1.00  0.00    -0.436 C  
HETATM   15  C   UNL     1     -11.530  14.283  64.899  1.00  0.00    -0.378 C  
BRANCH  14  16
HETATM   16  N   UNL     1     -11.812  12.200  66.152  1.00  0.00    -0.582 NA 
HETATM   17  H   UNL     1     -11.471  11.723  65.317  1.00  0.00     0.000 HD 
BRANCH  16  18
HETATM   18  N   UNL     1     -11.987  11.601  67.229  1.00  0.00    -0.602 NA 
HETATM   19  N   UNL     1     -12.149  11.057  68.218  1.00  0.00    -0.788 NA 
HETATM   20  H1  UNL     1     -12.293  10.567  69.100  1.00  0.00     0.000 HD 
HETATM   21  H2  UNL     1     -12.375  11.947  68.664  1.00  0.00     0.000 HD 
ENDBRANCH  16  18
ENDBRANCH  14  16
BRANCH  15  22
HETATM   22  C   UNL     1     -12.380  15.431  64.346  1.00  0.00    -0.077 C  
HETATM   23  H   UNL     1     -12.095  17.240  63.592  1.00  0.00     0.000 HD 
HETATM   24  O   UNL     1     -11.568  16.528  63.935  1.00  0.00    -1.175 OA 
ENDBRANCH  15  22
ENDBRANCH   4  11
TORSDOF 4
ENDMDL
MODEL       47
REMARK 921   NORMALIZED FREE ENERGY PREDICTED BY IDOCK:   -4.97 KCAL/MOL
REMARK 922        TOTAL FREE ENERGY PREDICTED BY IDOCK:   -6.64 KCAL/MOL
REMARK 923 INTER-LIGAND FREE ENERGY PREDICTED BY IDOCK:   -6.24 KCAL/MOL
REMARK 924 INTRA-LIGAND FREE ENERGY PREDICTED BY IDOCK:   -0.40 KCAL/MOL
REMARK 927      BINDING AFFINITY PREDICTED BY RF-SCORE:    0.00 PKD
ROOT
HETATM    1  C   UNL     1     -12.151  13.302  63.412  1.00  0.00    -0.508 C  
HETATM    2  C   UNL     1     -11.141  13.336  64.511  1.00  0.00    -0.392 C  
HETATM    3  C   UNL     1     -10.814  14.432  65.206  1.00  0.00    -0.361 C  
HETATM    4  N   UNL     1      -9.858  14.427  66.208  1.00  0.00    -0.291 N  
HETATM    5  C   UNL     1      -9.241  13.245  66.602  1.00  0.00    -0.215 C  
HETATM    6  O   UNL     1     -10.675  11.029  64.237  1.00  0.00    -0.368 OA 
HETATM    7  O   UNL     1      -8.422  13.165  67.517  1.00  0.00    -0.173 OA 
HETATM    8  H   UNL     1      -9.146  11.250  66.179  1.00  0.00     0.000 HD 
HETATM    9  N   UNL     1      -9.586  12.126  65.896  1.00  0.00    -0.236 N  
HETATM   10  C   UNL     1     -10.461  12.067  64.852  1.00  0.00    -0.285 C  
ENDROOT
BRANCH   4  11
HETATM   11  C   UNL     1      -9.525  15.637  66.961  1.00  0.00    -0.224 C  
HETATM   12  C   UNL     1      -8.336  16.409  66.399  1.00  0.00    -0.363 C  
HETATM   13  O   UNL     1     -10.628  16.565  66.962  1.00  0.00    -0.310 OA 
HETATM   14  C   UNL     1      -8.577  17.810  66.911  1.00  0.00    -0.244 C  
HETATM   15  C   UNL     1     -10.105  17.912  66.929  1.00  0.00    -0.348 C  
BRANCH  14  16
HETATM   16  N   UNL     1      -8.076  17.914  68.298  1.00  0.00    -0.283 NA 
HETATM   17  H   UNL     1      -8.207  17.165  68.977  1.00  0.00     0.000 HD 
BRANCH  16  18
HETATM   18  N   UNL     1      -7.486  18.972  68.586  1.00  0.00    -0.314 NA 
HETATM   19  N   UNL     1      -6.946  19.941  68.844  1.00  0.00    -0.328 NA 
HETATM   20  H1  UNL     1      -6.462  20.808  69.079  1.00  0.00     0.000 HD 
HETATM   21  H2  UNL     1      -7.009  20.231  67.867  1.00  0.00     0.000 HD 
ENDBRANCH  16  18
ENDBRANCH  14  16
BRANCH  15  22
HETATM   22  C   UNL     1     -10.675  18.617  65.694  1.00  0.00    -0.086 C  
HETATM   23  H   UNL     1     -11.442  18.116  63.938  1.00  0.00     0.000 HD 
HETATM   24  O   UNL     1     -11.089  17.679  64.704  1.00  0.00    -0.906 OA 
ENDBRANCH  15  22
ENDBRANCH   4  11
TORSDOF 4
ENDMDL
MODEL       48
REMARK 921   NORMALIZED FREE ENERGY PREDICTED BY IDOCK:   -4.91 KCAL/MOL
REMARK 922        TOTAL FREE ENERGY PREDICTED BY IDOCK:   -6.57 KCAL/MOL
REMARK 923 INTER-LIGAND FREE ENERGY PREDICTED BY IDOCK:   -6.93 KCAL/MOL
REMARK 924 INTRA-LIGAND FREE ENERGY PREDICTED BY IDOCK:    0.36 KCAL/MOL
REMARK 927      BINDING AFFINITY PREDICTED BY RF-SCORE:    0.00 PKD
ROOT
HETATM    1  C   UNL     1      -7.080  13.248  69.039  1.00  0.00    -0.044 C  
HETATM    2  C   UNL     1      -7.633  12.462  67.896  1.00  0.00    -0.130 C  
HETATM    3  C   UNL     1      -8.758  12.770  67.238  1.00  0.00    -0.200 C  
HETATM    4  N   UNL     1      -9.248  12.005  66.193  1.00  0.00    -0.211 N  
HETATM    5  C   UNL     1      -8.540  10.908  65.715  1.00  0.00    -0.173 C  
HETATM    6  O   UNL     1      -5.864  10.892  68.039  1.00  0.00    -0.046 OA 
HETATM    7  O   UNL     1      -8.895  10.219  64.759  1.00  0.00    -0.171 OA 
HETATM    8  H   UNL     1      -6.853   9.805  66.040  1.00  0.00     0.000 HD 
HETATM    9  N   UNL     1      -7.387  10.604  66.383  1.00  0.00    -0.132 N  
HETATM   10  C   UNL     1      -6.880  11.264  67.464  1.00  0.00    -0.086 C  
ENDROOT
BRANCH   4  11
HETATM   11  C   UNL     1     -10.475  12.368  65.482  1.00  0.00    -0.275 C  
HETATM   12  C   UNL     1     -11.598  12.853  66.394  1.00  0.00    -0.425 C  
HETATM   13  O   UNL     1     -10.235  13.444  64.553  1.00  0.00    -0.388 OA 
HETATM   14  C   UNL     1     -12.441  13.694  65.463  1.00  0.00    -0.503 C  
HETATM   15  C   UNL     1     -11.406  14.289  64.504  1.00  0.00    -0.334 C  
BRANCH  14  16
HETATM   16  N   UNL     1     -13.349  12.814  64.699  1.00  0.00    -0.495 NA 
HETATM   17  H   UNL     1     -14.348  12.764  64.898  1.00  0.00     0.000 HD 
BRANCH  16  18
HETATM   18  N   UNL     1     -12.821  12.137  63.797  1.00  0.00    -0.754 NA 
HETATM   19  N   UNL     1     -12.336  11.523  62.968  1.00  0.00    -0.935 NA 
HETATM   20  H1  UNL     1     -11.904  10.969  62.229  1.00  0.00     0.000 HD 
HETATM   21  H2  UNL     1     -12.201  12.374  62.423  1.00  0.00     0.000 HD 
ENDBRANCH  16  18
ENDBRANCH  14  16
BRANCH  15  22
HETATM   22  C   UNL     1     -10.986  15.713  64.880  1.00  0.00    -0.431 C  
HETATM   23  H   UNL     1     -11.325  17.561  64.252  1.00  0.00     0.000 HD 
HETATM   24  O   UNL     1     -11.586  16.677  64.019  1.00  0.00    -1.197 OA 
ENDBRANCH  15  22
ENDBRANCH   4  11
TORSDOF 4
ENDMDL
MODEL       49
REMARK 921   NORMALIZED FREE ENERGY PREDICTED BY IDOCK:   -4.91 KCAL/MOL
REMARK 922        TOTAL FREE ENERGY PREDICTED BY IDOCK:   -6.56 KCAL/MOL
REMARK 923 INTER-LIGAND FREE ENERGY PREDICTED BY IDOCK:   -6.66 KCAL/MOL
REMARK 924 INTRA-LIGAND FREE ENERGY PREDICTED BY IDOCK:    0.09 KCAL/MOL
REMARK 927      BINDING AFFINITY PREDICTED BY RF-SCORE:    0.00 PKD
ROOT
HETATM    1  C   UNL     1     -10.343   7.535  68.375  1.00  0.00    -0.226 C  
HETATM    2  C   UNL     1     -10.291   8.704  67.447  1.00  0.00    -0.353 C  
HETATM    3  C   UNL     1     -10.884   9.882  67.677  1.00  0.00    -0.257 C  
HETATM    4  N   UNL     1     -10.826  10.938  66.783  1.00  0.00    -0.251 N  
HETATM    5  C   UNL     1     -10.069  10.850  65.620  1.00  0.00    -0.261 C  
HETATM    6  O   UNL     1      -8.989   7.485  65.886  1.00  0.00    -0.159 OA 
HETATM    7  O   UNL     1      -9.935  11.768  64.811  1.00  0.00    -0.246 OA 
HETATM    8  H   UNL     1      -8.891   9.572  64.548  1.00  0.00     0.000 HD 
HETATM    9  N   UNL     1      -9.456   9.649  65.394  1.00  0.00    -0.262 N  
HETATM   10  C   UNL     1      -9.527   8.543  66.189  1.00  0.00    -0.217 C  
ENDROOT
BRANCH   4  11
HETATM   11  C   UNL     1     -11.474  12.220  67.062  1.00  0.00    -0.354 C  
HETATM   12  C   UNL     1     -10.512  13.402  67.108  1.00  0.00    -0.249 C  
HETATM   13  O   UNL     1     -12.441  12.542  66.042  1.00  0.00    -0.565 OA 
HETATM   14  C   UNL     1     -11.413  14.575  66.798  1.00  0.00    -0.367 C  
HETATM   15  C   UNL     1     -12.444  13.973  65.838  1.00  0.00    -0.481 C  
BRANCH  14  16
HETATM   16  N   UNL     1     -12.104  15.000  68.033  1.00  0.00    -0.529 NA 
HETATM   17  H   UNL     1     -13.067  14.732  68.233  1.00  0.00     0.000 HD 
BRANCH  16  18
HETATM   18  N   UNL     1     -11.438  15.705  68.814  1.00  0.00    -0.356 NA 
HETATM   19  N   UNL     1     -10.832  16.348  69.534  1.00  0.00    -0.327 NA 
HETATM   20  H1  UNL     1     -10.287  16.925  70.174  1.00  0.00     0.000 HD 
HETATM   21  H2  UNL     1     -11.362  15.962  70.316  1.00  0.00     0.000 HD 
ENDBRANCH  16  18
ENDBRANCH  14  16
BRANCH  15  22
HETATM   22  C   UNL     1     -12.126  14.247  64.365  1.00  0.00    -0.468 C  
HETATM   23  H   UNL     1     -12.456  13.395  62.607  1.00  0.00     0.000 HD 
HETATM   24  O   UNL     1     -12.653  13.226  63.521  1.00  0.00    -0.728 OA 
ENDBRANCH  15  22
ENDBRANCH   4  11
TORSDOF 4
ENDMDL
MODEL       50
REMARK 921   NORMALIZED FREE ENERGY PREDICTED BY IDOCK:   -4.90 KCAL/MOL
REMARK 922        TOTAL FREE ENERGY PREDICTED BY IDOCK:   -6.56 KCAL/MOL
REMARK 923 INTER-LIGAND FREE ENERGY PREDICTED BY IDOCK:   -6.24 KCAL/MOL
REMARK 924 INTRA-LIGAND FREE ENERGY PREDICTED BY IDOCK:   -0.32 KCAL/MOL
REMARK 927      BINDING AFFINITY PREDICTED BY RF-SCORE:    0.00 PKD
ROOT
HETATM    1  C   UNL     1     -10.025  12.038  65.485  1.00  0.00    -0.267 C  
HETATM    2  C   UNL     1     -10.602  13.066  66.400  1.00  0.00    -0.294 C  
HETATM    3  C   UNL     1     -10.278  14.365  66.384  1.00  0.00    -0.289 C  
HETATM    4  N   UNL     1     -10.823  15.286  67.262  1.00  0.00    -0.313 N  
HETATM    5  C   UNL     1     -11.812  14.914  68.166  1.00  0.00    -0.278 C  
HETATM    6  O   UNL     1     -11.925  11.435  67.498  1.00  0.00    -0.626 OA 
HETATM    7  O   UNL     1     -12.372  15.693  68.938  1.00  0.00    -0.165 OA 
HETATM    8  H   UNL     1     -12.877  13.302  68.827  1.00  0.00     0.000 HD 
HETATM    9  N   UNL     1     -12.148  13.589  68.173  1.00  0.00    -0.321 N  
HETATM   10  C   UNL     1     -11.604  12.613  67.392  1.00  0.00    -0.360 C  
ENDROOT
BRANCH   4  11
HETATM   11  C   UNL     1     -10.460  16.703  67.216  1.00  0.00    -0.313 C  
HETATM   12  C   UNL     1      -9.579  17.154  68.377  1.00  0.00    -0.281 C  
HETATM   13  O   UNL     1      -9.715  17.007  66.020  1.00  0.00    -0.421 OA 
HETATM   14  C   UNL     1      -8.881  18.369  67.811  1.00  0.00    -0.278 C  
HETATM   15  C   UNL     1      -8.731  18.020  66.327  1.00  0.00    -0.168 C  
BRANCH  14  16
HETATM   16  N   UNL     1      -9.767  19.544  67.937  1.00  0.00    -0.337 NA 
HETATM   17  H   UNL     1     -10.135  20.034  67.122  1.00  0.00     0.000 HD 
BRANCH  16  18
HETATM   18  N   UNL     1     -10.039  19.900  69.099  1.00  0.00    -0.354 NA 
HETATM   19  N   UNL     1     -10.292  20.228  70.160  1.00  0.00    -0.477 NA 
HETATM   20  H1  UNL     1     -10.514  20.520  71.112  1.00  0.00     0.000 HD 
HETATM   21  H2  UNL     1     -11.070  20.781  69.799  1.00  0.00     0.000 HD 
ENDBRANCH  16  18
ENDBRANCH  14  16
BRANCH  15  22
HETATM   22  C   UNL     1      -7.347  17.466  65.976  1.00  0.00    -0.229 C  
HETATM   23  H   UNL     1      -5.761  18.028  64.931  1.00  0.00     0.000 HD 
HETATM   24  O   UNL     1      -6.619  18.371  65.150  1.00  0.00    -0.471 OA 
ENDBRANCH  15  22
ENDBRANCH   4  11
TORSDOF 4
ENDMDL
MODEL       51
REMARK 921   NORMALIZED FREE ENERGY PREDICTED BY IDOCK:   -4.88 KCAL/MOL
REMARK 922        TOTAL FREE ENERGY PREDICTED BY IDOCK:   -6.53 KCAL/MOL
REMARK 923 INTER-LIGAND FREE ENERGY PREDICTED BY IDOCK:   -6.35 KCAL/MOL
REMARK 924 INTRA-LIGAND FREE ENERGY PREDICTED BY IDOCK:   -0.18 KCAL/MOL
REMARK 927      BINDING AFFINITY PREDICTED BY RF-SCORE:    0.00 PKD
ROOT
HETATM    1  C   UNL     1      -9.692  11.208  64.797  1.00  0.00    -0.303 C  
HETATM    2  C   UNL     1     -10.396  11.275  66.112  1.00  0.00    -0.300 C  
HETATM    3  C   UNL     1     -10.898  12.394  66.648  1.00  0.00    -0.246 C  
HETATM    4  N   UNL     1     -11.530  12.419  67.880  1.00  0.00    -0.305 N  
HETATM    5  C   UNL     1     -11.750  11.247  68.594  1.00  0.00    -0.324 C  
HETATM    6  O   UNL     1     -10.083   8.953  66.468  1.00  0.00    -0.277 OA 
HETATM    7  O   UNL     1     -12.348  11.193  69.668  1.00  0.00    -0.296 OA 
HETATM    8  H   UNL     1     -11.404   9.235  68.549  1.00  0.00     0.000 HD 
HETATM    9  N   UNL     1     -11.244  10.104  68.039  1.00  0.00    -0.240 N  
HETATM   10  C   UNL     1     -10.549  10.013  66.870  1.00  0.00    -0.192 C  
ENDROOT
BRANCH   4  11
HETATM   11  C   UNL     1     -12.080  13.654  68.439  1.00  0.00    -0.277 C  
HETATM   12  C   UNL     1     -11.425  14.087  69.746  1.00  0.00    -0.293 C  
HETATM   13  O   UNL     1     -11.901  14.758  67.529  1.00  0.00    -0.375 OA 
HETATM   14  C   UNL     1     -11.693  15.574  69.776  1.00  0.00    -0.349 C  
HETATM   15  C   UNL     1     -11.657  15.959  68.294  1.00  0.00    -0.272 C  
BRANCH  14  16
HETATM   16  N   UNL     1     -13.054  15.814  70.299  1.00  0.00    -0.705 NA 
HETATM   17  H   UNL     1     -13.795  16.206  69.717  1.00  0.00     0.000 HD 
BRANCH  16  18
HETATM   18  N   UNL     1     -13.242  15.509  71.491  1.00  0.00    -0.489 NA 
HETATM   19  N   UNL     1     -13.418  15.227  72.581  1.00  0.00    -0.462 NA 
HETATM   20  H1  UNL     1     -13.572  14.977  73.557  1.00  0.00     0.000 HD 
HETATM   21  H2  UNL     1     -14.262  14.722  72.308  1.00  0.00     0.000 HD 
ENDBRANCH  16  18
ENDBRANCH  14  16
BRANCH  15  22
HETATM   22  C   UNL     1     -10.311  16.542  67.855  1.00  0.00    -0.294 C  
HETATM   23  H   UNL     1      -9.482  18.328  67.638  1.00  0.00     0.000 HD 
HETATM   24  O   UNL     1     -10.318  17.966  67.911  1.00  0.00    -0.353 OA 
ENDBRANCH  15  22
ENDBRANCH   4  11
TORSDOF 4
ENDMDL
MODEL       52
REMARK 921   NORMALIZED FREE ENERGY PREDICTED BY IDOCK:   -4.87 KCAL/MOL
REMARK 922        TOTAL FREE ENERGY PREDICTED BY IDOCK:   -6.52 KCAL/MOL
REMARK 923 INTER-LIGAND FREE ENERGY PREDICTED BY IDOCK:   -6.28 KCAL/MOL
REMARK 924 INTRA-LIGAND FREE ENERGY PREDICTED BY IDOCK:   -0.24 KCAL/MOL
REMARK 927      BINDING AFFINITY PREDICTED BY RF-SCORE:    0.00 PKD
ROOT
HETATM    1  C   UNL     1     -12.235  15.350  69.981  1.00  0.00    -0.392 C  
HETATM    2  C   UNL     1     -11.320  15.445  68.806  1.00  0.00    -0.328 C  
HETATM    3  C   UNL     1     -11.109  14.458  67.927  1.00  0.00    -0.274 C  
HETATM    4  N   UNL     1     -10.238  14.578  66.858  1.00  0.00    -0.261 N  
HETATM    5  C   UNL     1      -9.591  15.780  66.593  1.00  0.00    -0.247 C  
HETATM    6  O   UNL     1     -10.709  17.661  69.382  1.00  0.00    -0.057 OA 
HETATM    7  O   UNL     1      -8.845  15.968  65.633  1.00  0.00    -0.281 OA 
HETATM    8  H   UNL     1      -9.355  17.681  67.303  1.00  0.00     0.000 HD 
HETATM    9  N   UNL     1      -9.818  16.790  67.487  1.00  0.00    -0.250 N  
HETATM   10  C   UNL     1     -10.602  16.723  68.601  1.00  0.00    -0.353 C  
ENDROOT
BRANCH   4  11
HETATM   11  C   UNL     1     -10.032  13.487  65.905  1.00  0.00    -0.283 C  
HETATM   12  C   UNL     1     -10.858  12.241  66.203  1.00  0.00    -0.314 C  
HETATM   13  O   UNL     1     -10.400  13.890  64.570  1.00  0.00    -0.436 OA 
HETATM   14  C   UNL     1     -10.948  11.570  64.851  1.00  0.00    -0.254 C  
HETATM   15  C   UNL     1     -10.970  12.755  63.881  1.00  0.00    -0.417 C  
BRANCH  14  16
HETATM   16  N   UNL     1      -9.720  10.783  64.615  1.00  0.00    -0.262 NA 
HETATM   17  H   UNL     1      -9.030  10.624  65.349  1.00  0.00     0.000 HD 
BRANCH  16  18
HETATM   18  N   UNL     1      -9.579  10.325  63.466  1.00  0.00    -0.298 NA 
HETATM   19  N   UNL     1      -9.447   9.901  62.416  1.00  0.00    -0.485 NA 
HETATM   20  H1  UNL     1      -9.332   9.526  61.475  1.00  0.00     0.000 HD 
HETATM   21  H2  UNL     1      -8.947   9.103  62.807  1.00  0.00     0.000 HD 
ENDBRANCH  16  18
ENDBRANCH  14  16
BRANCH  15  22
HETATM   22  C   UNL     1     -12.382  13.132  63.423  1.00  0.00    -0.362 C  
HETATM   23  H   UNL     1     -14.134  12.241  63.174  1.00  0.00     0.000 HD 
HETATM   24  O   UNL     1     -13.258  12.008  63.458  1.00  0.00    -0.724 OA 
ENDBRANCH  15  22
ENDBRANCH   4  11
TORSDOF 4
ENDMDL
MODEL       53
REMARK 921   NORMALIZED FREE ENERGY PREDICTED BY IDOCK:   -4.78 KCAL/MOL
REMARK 922        TOTAL FREE ENERGY PREDICTED BY IDOCK:   -6.41 KCAL/MOL
REMARK 923 INTER-LIGAND FREE ENERGY PREDICTED BY IDOCK:   -6.46 KCAL/MOL
REMARK 924 INTRA-LIGAND FREE ENERGY PREDICTED BY IDOCK:    0.05 KCAL/MOL
REMARK 927      BINDING AFFINITY PREDICTED BY RF-SCORE:    0.00 PKD
ROOT
HETATM    1  C   UNL     1      -7.271   9.707  69.758  1.00  0.00    -0.094 C  
HETATM    2  C   UNL     1      -8.713  10.059  69.599  1.00  0.00    -0.210 C  
HETATM    3  C   UNL     1      -9.222  10.715  68.549  1.00  0.00    -0.170 C  
HETATM    4  N   UNL     1     -10.565  11.039  68.445  1.00  0.00    -0.182 N  
HETATM    5  C   UNL     1     -11.478  10.618  69.405  1.00  0.00    -0.286 C  
HETATM    6  O   UNL     1      -9.247   9.079  71.689  1.00  0.00    -0.288 OA 
HETATM    7  O   UNL     1     -12.689  10.828  69.347  1.00  0.00    -0.261 OA 
HETATM    8  H   UNL     1     -11.615   9.617  71.180  1.00  0.00     0.000 HD 
HETATM    9  N   UNL     1     -10.956   9.938  70.471  1.00  0.00    -0.305 N  
HETATM   10  C   UNL     1      -9.640   9.648  70.678  1.00  0.00    -0.147 C  
ENDROOT
BRANCH   4  11
HETATM   11  C   UNL     1     -11.099  11.748  67.282  1.00  0.00    -0.287 C  
HETATM   12  C   UNL     1     -11.928  12.978  67.634  1.00  0.00    -0.353 C  
HETATM   13  O   UNL     1     -10.034  12.224  66.434  1.00  0.00    -0.219 OA 
HETATM   14  C   UNL     1     -11.830  13.815  66.380  1.00  0.00    -0.404 C  
HETATM   15  C   UNL     1     -10.428  13.490  65.858  1.00  0.00    -0.292 C  
BRANCH  14  16
HETATM   16  N   UNL     1     -12.827  13.340  65.397  1.00  0.00    -0.608 NA 
HETATM   17  H   UNL     1     -13.669  12.839  65.681  1.00  0.00     0.000 HD 
BRANCH  16  18
HETATM   18  N   UNL     1     -12.576  13.588  64.203  1.00  0.00    -0.669 NA 
HETATM   19  N   UNL     1     -12.350  13.818  63.111  1.00  0.00    -1.106 NA 
HETATM   20  H1  UNL     1     -12.145  14.021  62.132  1.00  0.00     0.000 HD 
HETATM   21  H2  UNL     1     -13.101  14.509  63.107  1.00  0.00     0.000 HD 
ENDBRANCH  16  18
ENDBRANCH  14  16
BRANCH  15  22
HETATM   22  C   UNL     1      -9.382  14.539  66.246  1.00  0.00    -0.247 C  
HETATM   23  H   UNL     1      -9.017  16.454  65.890  1.00  0.00     0.000 HD 
HETATM   24  O   UNL     1      -9.666  15.802  65.649  1.00  0.00    -0.331 OA 
ENDBRANCH  15  22
ENDBRANCH   4  11
TORSDOF 4
ENDMDL
MODEL       54
REMARK 921   NORMALIZED FREE ENERGY PREDICTED BY IDOCK:   -4.76 KCAL/MOL
REMARK 922        TOTAL FREE ENERGY PREDICTED BY IDOCK:   -6.38 KCAL/MOL
REMARK 923 INTER-LIGAND FREE ENERGY PREDICTED BY IDOCK:   -5.91 KCAL/MOL
REMARK 924 INTRA-LIGAND FREE ENERGY PREDICTED BY IDOCK:   -0.47 KCAL/MOL
REMARK 927      BINDING AFFINITY PREDICTED BY RF-SCORE:    0.00 PKD
ROOT
HETATM    1  C   UNL     1     -10.238  12.188  63.227  1.00  0.00    -0.341 C  
HETATM    2  C   UNL     1     -10.739  12.874  64.454  1.00  0.00    -0.407 C  
HETATM    3  C   UNL     1      -9.962  13.520  65.332  1.00  0.00    -0.199 C  
HETATM    4  N   UNL     1     -10.462  14.131  66.470  1.00  0.00    -0.277 N  
HETATM    5  C   UNL     1     -11.830  14.174  66.716  1.00  0.00    -0.425 C  
HETATM    6  O   UNL     1     -12.970  12.233  63.978  1.00  0.00    -0.740 OA 
HETATM    7  O   UNL     1     -12.342  14.742  67.680  1.00  0.00    -0.102 OA 
HETATM    8  H   UNL     1     -13.627  13.549  65.976  1.00  0.00     0.000 HD 
HETATM    9  N   UNL     1     -12.621  13.521  65.812  1.00  0.00    -0.458 N  
HETATM   10  C   UNL     1     -12.196  12.837  64.711  1.00  0.00    -0.459 C  
ENDROOT
BRANCH   4  11
HETATM   11  C   UNL     1      -9.593  14.841  67.409  1.00  0.00    -0.210 C  
HETATM   12  C   UNL     1      -8.144  14.365  67.391  1.00  0.00    -0.217 C  
HETATM   13  O   UNL     1      -9.546  16.249  67.106  1.00  0.00    -0.228 OA 
HETATM   14  C   UNL     1      -7.394  15.566  67.921  1.00  0.00    -0.140 C  
HETATM   15  C   UNL     1      -8.220  16.745  67.399  1.00  0.00    -0.177 C  
BRANCH  14  16
HETATM   16  N   UNL     1      -7.449  15.563  69.398  1.00  0.00    -0.209 NA 
HETATM   17  H   UNL     1      -7.928  16.295  69.922  1.00  0.00     0.000 HD 
BRANCH  16  18
HETATM   18  N   UNL     1      -6.876  14.612  69.962  1.00  0.00    -0.142 NA 
HETATM   19  N   UNL     1      -6.350  13.746  70.483  1.00  0.00    -0.405 NA 
HETATM   20  H1  UNL     1      -5.881  12.968  70.946  1.00  0.00     0.000 HD 
HETATM   21  H2  UNL     1      -6.090  14.370  71.247  1.00  0.00     0.000 HD 
ENDBRANCH  16  18
ENDBRANCH  14  16
BRANCH  15  22
HETATM   22  C   UNL     1      -7.646  17.362  66.119  1.00  0.00    -0.286 C  
HETATM   23  H   UNL     1      -7.787  19.064  65.116  1.00  0.00     0.000 HD 
HETATM   24  O   UNL     1      -8.143  18.681  65.910  1.00  0.00    -0.483 OA 
ENDBRANCH  15  22
ENDBRANCH   4  11
TORSDOF 4
ENDMDL
MODEL       55
REMARK 921   NORMALIZED FREE ENERGY PREDICTED BY IDOCK:   -4.74 KCAL/MOL
REMARK 922        TOTAL FREE ENERGY PREDICTED BY IDOCK:   -6.36 KCAL/MOL
REMARK 923 INTER-LIGAND FREE ENERGY PREDICTED BY IDOCK:   -5.80 KCAL/MOL
REMARK 924 INTRA-LIGAND FREE ENERGY PREDICTED BY IDOCK:   -0.56 KCAL/MOL
REMARK 927      BINDING AFFINITY PREDICTED BY RF-SCORE:    0.00 PKD
ROOT
HETATM    1  C   UNL     1     -11.239  12.032  65.537  1.00  0.00    -0.372 C  
HETATM    2  C   UNL     1     -11.488  12.240  66.995  1.00  0.00    -0.419 C  
HETATM    3  C   UNL     1     -11.281  11.315  67.939  1.00  0.00    -0.290 C  
HETATM    4  N   UNL     1     -11.541  11.540  69.280  1.00  0.00    -0.292 N  
HETATM    5  C   UNL     1     -11.959  12.788  69.728  1.00  0.00    -0.292 C  
HETATM    6  O   UNL     1     -12.249  14.451  66.612  1.00  0.00    -0.424 OA 
HETATM    7  O   UNL     1     -12.158  13.068  70.910  1.00  0.00    -0.298 OA 
HETATM    8  H   UNL     1     -12.460  14.657  69.075  1.00  0.00     0.000 HD 
HETATM    9  N   UNL     1     -12.159  13.734  68.761  1.00  0.00    -0.357 N  
HETATM   10  C   UNL     1     -11.996  13.564  67.418  1.00  0.00    -0.357 C  
ENDROOT
BRANCH   4  11
HETATM   11  C   UNL     1     -11.296  10.515  70.296  1.00  0.00    -0.327 C  
HETATM   12  C   UNL     1     -12.506   9.637  70.593  1.00  0.00    -0.161 C  
HETATM   13  O   UNL     1     -10.252   9.613  69.877  1.00  0.00    -0.212 OA 
HETATM   14  C   UNL     1     -11.877   8.376  71.139  1.00  0.00    -0.282 C  
HETATM   15  C   UNL     1     -10.558   8.287  70.365  1.00  0.00    -0.224 C  
BRANCH  14  16
HETATM   16  N   UNL     1     -11.575   8.564  72.574  1.00  0.00    -0.354 NA 
HETATM   17  H   UNL     1     -11.847   9.409  73.077  1.00  0.00     0.000 HD 
BRANCH  16  18
HETATM   18  N   UNL     1     -10.969   7.630  73.130  1.00  0.00    -0.398 NA 
HETATM   19  N   UNL     1     -10.412   6.778  73.643  1.00  0.00    -0.325 NA 
HETATM   20  H1  UNL     1      -9.915   6.013  74.098  1.00  0.00     0.000 HD 
HETATM   21  H2  UNL     1      -9.985   7.449  74.282  1.00  0.00     0.000 HD 
ENDBRANCH  16  18
ENDBRANCH  14  16
BRANCH  15  22
HETATM   22  C   UNL     1     -10.629   7.340  69.163  1.00  0.00    -0.208 C  
HETATM   23  H   UNL     1     -10.360   7.429  67.203  1.00  0.00     0.000 HD 
HETATM   24  O   UNL     1     -10.316   8.016  67.948  1.00  0.00    -0.211 OA 
ENDBRANCH  15  22
ENDBRANCH   4  11
TORSDOF 4
ENDMDL
MODEL       56
REMARK 921   NORMALIZED FREE ENERGY PREDICTED BY IDOCK:   -4.73 KCAL/MOL
REMARK 922        TOTAL FREE ENERGY PREDICTED BY IDOCK:   -6.35 KCAL/MOL
REMARK 923 INTER-LIGAND FREE ENERGY PREDICTED BY IDOCK:   -6.45 KCAL/MOL
REMARK 924 INTRA-LIGAND FREE ENERGY PREDICTED BY IDOCK:    0.10 KCAL/MOL
REMARK 927      BINDING AFFINITY PREDICTED BY RF-SCORE:    0.00 PKD
ROOT
HETATM    1  C   UNL     1      -9.316  19.474  68.731  1.00  0.00    -0.423 C  
HETATM    2  C   UNL     1      -9.852  18.647  67.609  1.00  0.00    -0.351 C  
HETATM    3  C   UNL     1     -10.089  17.332  67.682  1.00  0.00    -0.313 C  
HETATM    4  N   UNL     1     -10.571  16.596  66.613  1.00  0.00    -0.252 N  
HETATM    5  C   UNL     1     -10.916  17.214  65.416  1.00  0.00     0.035 C  
HETATM    6  O   UNL     1      -9.917  20.530  66.171  1.00  0.00    -0.274 OA 
HETATM    7  O   UNL     1     -11.396  16.626  64.447  1.00  0.00    -1.023 OA 
HETATM    8  H   UNL     1     -10.937  19.028  64.480  1.00  0.00     0.000 HD 
HETATM    9  N   UNL     1     -10.682  18.560  65.349  1.00  0.00    -0.055 N  
HETATM   10  C   UNL     1     -10.143  19.336  66.332  1.00  0.00    -0.429 C  
ENDROOT
BRANCH   4  11
HETATM   11  C   UNL     1     -10.832  15.160  66.721  1.00  0.00    -0.322 C  
HETATM   12  C   UNL     1     -10.194  14.330  65.613  1.00  0.00    -0.366 C  
HETATM   13  O   UNL     1     -10.307  14.632  67.956  1.00  0.00    -0.231 OA 
HETATM   14  C   UNL     1     -10.077  12.963  66.247  1.00  0.00    -0.276 C  
HETATM   15  C   UNL     1      -9.828  13.288  67.722  1.00  0.00    -0.224 C  
BRANCH  14  16
HETATM   16  N   UNL     1     -11.369  12.257  66.126  1.00  0.00    -0.336 NA 
HETATM   17  H   UNL     1     -11.927  12.293  65.272  1.00  0.00     0.000 HD 
BRANCH  16  18
HETATM   18  N   UNL     1     -11.736  11.615  67.128  1.00  0.00    -0.598 NA 
HETATM   19  N   UNL     1     -12.073  11.033  68.047  1.00  0.00    -0.727 NA 
HETATM   20  H1  UNL     1     -12.373  10.507  68.868  1.00  0.00     0.000 HD 
HETATM   21  H2  UNL     1     -12.350  11.908  68.493  1.00  0.00     0.000 HD 
ENDBRANCH  16  18
ENDBRANCH  14  16
BRANCH  15  22
HETATM   22  C   UNL     1      -8.347  13.234  68.109  1.00  0.00    -0.161 C  
HETATM   23  H   UNL     1      -6.955  14.476  68.777  1.00  0.00     0.000 HD 
HETATM   24  O   UNL     1      -7.874  14.509  68.537  1.00  0.00    -0.123 OA 
ENDBRANCH  15  22
ENDBRANCH   4  11
TORSDOF 4
ENDMDL
MODEL       57
REMARK 921   NORMALIZED FREE ENERGY PREDICTED BY IDOCK:   -4.73 KCAL/MOL
REMARK 922        TOTAL FREE ENERGY PREDICTED BY IDOCK:   -6.35 KCAL/MOL
REMARK 923 INTER-LIGAND FREE ENERGY PREDICTED BY IDOCK:   -5.81 KCAL/MOL
REMARK 924 INTRA-LIGAND FREE ENERGY PREDICTED BY IDOCK:   -0.54 KCAL/MOL
REMARK 927      BINDING AFFINITY PREDICTED BY RF-SCORE:    0.00 PKD
ROOT
HETATM    1  C   UNL     1     -10.472   8.045  66.733  1.00  0.00    -0.319 C  
HETATM    2  C   UNL     1      -9.539   9.211  66.725  1.00  0.00    -0.253 C  
HETATM    3  C   UNL     1      -9.925  10.492  66.741  1.00  0.00    -0.204 C  
HETATM    4  N   UNL     1      -9.028  11.547  66.716  1.00  0.00    -0.175 N  
HETATM    5  C   UNL     1      -7.657  11.321  66.756  1.00  0.00    -0.151 C  
HETATM    6  O   UNL     1      -7.652   7.779  66.645  1.00  0.00    -0.093 OA 
HETATM    7  O   UNL     1      -6.810  12.213  66.787  1.00  0.00    -0.055 OA 
HETATM    8  H   UNL     1      -6.263   9.830  66.786  1.00  0.00     0.000 HD 
HETATM    9  N   UNL     1      -7.266  10.011  66.750  1.00  0.00    -0.090 N  
HETATM   10  C   UNL     1      -8.087   8.923  66.701  1.00  0.00    -0.107 C  
ENDROOT
BRANCH   4  11
HETATM   11  C   UNL     1      -9.476  12.940  66.745  1.00  0.00    -0.245 C  
HETATM   12  C   UNL     1     -10.715  13.209  65.898  1.00  0.00    -0.287 C  
HETATM   13  O   UNL     1      -9.824  13.343  68.085  1.00  0.00    -0.222 OA 
HETATM   14  C   UNL     1     -11.297  14.446  66.545  1.00  0.00    -0.350 C  
HETATM   15  C   UNL     1     -10.936  14.264  68.022  1.00  0.00    -0.249 C  
BRANCH  14  16
HETATM   16  N   UNL     1     -10.599  15.641  66.027  1.00  0.00    -0.317 NA 
HETATM   17  H   UNL     1      -9.837  16.086  66.539  1.00  0.00     0.000 HD 
BRANCH  16  18
HETATM   18  N   UNL     1     -10.997  16.071  64.929  1.00  0.00    -0.548 NA 
HETATM   19  N   UNL     1     -11.361  16.460  63.922  1.00  0.00    -1.535 NA 
HETATM   20  H1  UNL     1     -11.687  16.812  63.022  1.00  0.00     0.000 HD 
HETATM   21  H2  UNL     1     -11.546  15.501  63.625  1.00  0.00     0.000 HD 
ENDBRANCH  16  18
ENDBRANCH  14  16
BRANCH  15  22
HETATM   22  C   UNL     1     -12.084  13.686  68.855  1.00  0.00    -0.300 C  
HETATM   23  H   UNL     1     -12.719  11.907  69.450  1.00  0.00     0.000 HD 
HETATM   24  O   UNL     1     -12.007  12.265  68.933  1.00  0.00    -0.308 OA 
ENDBRANCH  15  22
ENDBRANCH   4  11
TORSDOF 4
ENDMDL
MODEL       58
REMARK 921   NORMALIZED FREE ENERGY PREDICTED BY IDOCK:   -4.72 KCAL/MOL
REMARK 922        TOTAL FREE ENERGY PREDICTED BY IDOCK:   -6.34 KCAL/MOL
REMARK 923 INTER-LIGAND FREE ENERGY PREDICTED BY IDOCK:   -6.05 KCAL/MOL
REMARK 924 INTRA-LIGAND FREE ENERGY PREDICTED BY IDOCK:   -0.29 KCAL/MOL
REMARK 927      BINDING AFFINITY PREDICTED BY RF-SCORE:    0.00 PKD
ROOT
HETATM    1  C   UNL     1     -12.052  12.579  63.510  1.00  0.00    -0.653 C  
HETATM    2  C   UNL     1     -11.065  12.566  64.630  1.00  0.00    -0.343 C  
HETATM    3  C   UNL     1     -10.971  13.513  65.571  1.00  0.00    -0.288 C  
HETATM    4  N   UNL     1     -10.030  13.474  66.585  1.00  0.00    -0.274 N  
HETATM    5  C   UNL     1      -9.174  12.387  66.725  1.00  0.00    -0.212 C  
HETATM    6  O   UNL     1     -10.123  10.533  63.857  1.00  0.00    -0.327 OA 
HETATM    7  O   UNL     1      -8.350  12.267  67.632  1.00  0.00    -0.146 OA 
HETATM    8  H   UNL     1      -8.662  10.609  65.861  1.00  0.00     0.000 HD 
HETATM    9  N   UNL     1      -9.279  11.416  65.768  1.00  0.00    -0.216 N  
HETATM   10  C   UNL     1     -10.129  11.421  64.701  1.00  0.00    -0.280 C  
ENDROOT
BRANCH   4  11
HETATM   11  C   UNL     1      -9.955  14.517  67.609  1.00  0.00    -0.224 C  
HETATM   12  C   UNL     1     -10.842  15.725  67.327  1.00  0.00    -0.298 C  
HETATM   13  O   UNL     1     -10.377  14.014  68.892  1.00  0.00    -0.231 OA 
HETATM   14  C   UNL     1     -11.059  16.307  68.705  1.00  0.00    -0.356 C  
HETATM   15  C   UNL     1     -11.061  15.068  69.605  1.00  0.00    -0.273 C  
BRANCH  14  16
HETATM   16  N   UNL     1      -9.902  17.154  69.063  1.00  0.00    -0.265 NA 
HETATM   17  H   UNL     1      -9.028  16.758  69.407  1.00  0.00     0.000 HD 
BRANCH  16  18
HETATM   18  N   UNL     1     -10.060  18.381  68.920  1.00  0.00    -0.381 NA 
HETATM   19  N   UNL     1     -10.210  19.503  68.789  1.00  0.00    -0.558 NA 
HETATM   20  H1  UNL     1     -10.340  20.508  68.672  1.00  0.00     0.000 HD 
HETATM   21  H2  UNL     1     -11.210  19.383  68.953  1.00  0.00     0.000 HD 
ENDBRANCH  16  18
ENDBRANCH  14  16
BRANCH  15  22
HETATM   22  C   UNL     1     -12.471  14.577  69.949  1.00  0.00    -0.252 C  
HETATM   23  H   UNL     1     -14.012  15.177  71.039  1.00  0.00     0.000 HD 
HETATM   24  O   UNL     1     -13.137  15.482  70.825  1.00  0.00    -0.478 OA 
ENDBRANCH  15  22
ENDBRANCH   4  11
TORSDOF 4
ENDMDL
MODEL       59
REMARK 921   NORMALIZED FREE ENERGY PREDICTED BY IDOCK:   -4.69 KCAL/MOL
REMARK 922        TOTAL FREE ENERGY PREDICTED BY IDOCK:   -6.30 KCAL/MOL
REMARK 923 INTER-LIGAND FREE ENERGY PREDICTED BY IDOCK:   -6.58 KCAL/MOL
REMARK 924 INTRA-LIGAND FREE ENERGY PREDICTED BY IDOCK:    0.27 KCAL/MOL
REMARK 927      BINDING AFFINITY PREDICTED BY RF-SCORE:    0.00 PKD
ROOT
HETATM    1  C   UNL     1      -9.765  17.465  66.244  1.00  0.00    -0.276 C  
HETATM    2  C   UNL     1     -10.420  16.126  66.162  1.00  0.00    -0.334 C  
HETATM    3  C   UNL     1     -10.283  15.157  67.075  1.00  0.00    -0.262 C  
HETATM    4  N   UNL     1     -10.894  13.921  66.955  1.00  0.00    -0.284 N  
HETATM    5  C   UNL     1     -11.761  13.650  65.903  1.00  0.00    -0.354 C  
HETATM    6  O   UNL     1     -11.428  16.678  64.090  1.00  0.00    -1.131 OA 
HETATM    7  O   UNL     1     -12.374  12.592  65.765  1.00  0.00    -0.627 OA 
HETATM    8  H   UNL     1     -12.545  14.465  64.202  1.00  0.00     0.000 HD 
HETATM    9  N   UNL     1     -11.907  14.646  64.977  1.00  0.00    -0.381 N  
HETATM   10  C   UNL     1     -11.282  15.859  64.989  1.00  0.00    -0.290 C  
ENDROOT
BRANCH   4  11
HETATM   11  C   UNL     1     -10.737  12.881  67.974  1.00  0.00    -0.228 C  
HETATM   12  C   UNL     1     -12.030  12.149  68.316  1.00  0.00    -0.248 C  
HETATM   13  O   UNL     1      -9.816  11.863  67.534  1.00  0.00    -0.185 OA 
HETATM   14  C   UNL     1     -11.531  10.829  68.856  1.00  0.00    -0.293 C  
HETATM   15  C   UNL     1     -10.256  10.584  68.043  1.00  0.00    -0.166 C  
BRANCH  14  16
HETATM   16  N   UNL     1     -11.166  10.991  70.279  1.00  0.00    -0.472 NA 
HETATM   17  H   UNL     1     -11.113  11.908  70.722  1.00  0.00     0.000 HD 
BRANCH  16  18
HETATM   18  N   UNL     1     -10.926   9.941  70.903  1.00  0.00    -0.334 NA 
HETATM   19  N   UNL     1     -10.704   8.978  71.470  1.00  0.00    -0.325 NA 
HETATM   20  H1  UNL     1     -10.508   8.117  71.981  1.00  0.00     0.000 HD 
HETATM   21  H2  UNL     1     -10.105   8.670  70.703  1.00  0.00     0.000 HD 
ENDBRANCH  16  18
ENDBRANCH  14  16
BRANCH  15  22
HETATM   22  C   UNL     1     -10.472   9.643  66.854  1.00  0.00    -0.212 C  
HETATM   23  H   UNL     1      -9.476   9.054  65.246  1.00  0.00     0.000 HD 
HETATM   24  O   UNL     1      -9.343   9.637  65.984  1.00  0.00    -0.175 OA 
ENDBRANCH  15  22
ENDBRANCH   4  11
TORSDOF 4
ENDMDL
MODEL       60
REMARK 921   NORMALIZED FREE ENERGY PREDICTED BY IDOCK:   -4.69 KCAL/MOL
REMARK 922        TOTAL FREE ENERGY PREDICTED BY IDOCK:   -6.30 KCAL/MOL
REMARK 923 INTER-LIGAND FREE ENERGY PREDICTED BY IDOCK:   -6.58 KCAL/MOL
REMARK 924 INTRA-LIGAND FREE ENERGY PREDICTED BY IDOCK:    0.28 KCAL/MOL
REMARK 927      BINDING AFFINITY PREDICTED BY RF-SCORE:    0.00 PKD
ROOT
HETATM    1  C   UNL     1      -9.938  19.603  69.007  1.00  0.00    -0.482 C  
HETATM    2  C   UNL     1     -10.182  18.350  68.234  1.00  0.00    -0.412 C  
HETATM    3  C   UNL     1     -10.308  17.134  68.780  1.00  0.00    -0.353 C  
HETATM    4  N   UNL     1     -10.517  15.991  68.027  1.00  0.00    -0.266 N  
HETATM    5  C   UNL     1     -10.690  16.064  66.650  1.00  0.00    -0.247 C  
HETATM    6  O   UNL     1     -10.150  19.535  66.183  1.00  0.00    -0.412 OA 
HETATM    7  O   UNL     1     -10.929  15.094  65.931  1.00  0.00    -0.333 OA 
HETATM    8  H   UNL     1     -10.702  17.378  65.088  1.00  0.00     0.000 HD 
HETATM    9  N   UNL     1     -10.571  17.309  66.097  1.00  0.00    -0.263 N  
HETATM   10  C   UNL     1     -10.293  18.466  66.763  1.00  0.00    -0.394 C  
ENDROOT
BRANCH   4  11
HETATM   11  C   UNL     1     -10.663  14.674  68.650  1.00  0.00    -0.250 C  
HETATM   12  C   UNL     1     -12.070  14.095  68.550  1.00  0.00    -0.312 C  
HETATM   13  O   UNL     1      -9.797  13.708  68.021  1.00  0.00    -0.228 OA 
HETATM   14  C   UNL     1     -11.827  12.609  68.679  1.00  0.00    -0.302 C  
HETATM   15  C   UNL     1     -10.462  12.424  68.009  1.00  0.00    -0.217 C  
BRANCH  14  16
HETATM   16  N   UNL     1     -11.708  12.256  70.109  1.00  0.00    -0.529 NA 
HETATM   17  H   UNL     1     -11.228  12.859  70.776  1.00  0.00     0.000 HD 
BRANCH  16  18
HETATM   18  N   UNL     1     -12.230  11.178  70.449  1.00  0.00    -0.347 NA 
HETATM   19  N   UNL     1     -12.703  10.190  70.763  1.00  0.00    -0.450 NA 
HETATM   20  H1  UNL     1     -13.130   9.306  71.042  1.00  0.00     0.000 HD 
HETATM   21  H2  UNL     1     -11.848   9.946  71.264  1.00  0.00     0.000 HD 
ENDBRANCH  16  18
ENDBRANCH  14  16
BRANCH  15  22
HETATM   22  C   UNL     1     -10.563  11.951  66.556  1.00  0.00    -0.243 C  
HETATM   23  H   UNL     1     -11.984  11.572  65.229  1.00  0.00     0.000 HD 
HETATM   24  O   UNL     1     -11.921  11.866  66.130  1.00  0.00    -0.537 OA 
ENDBRANCH  15  22
ENDBRANCH   4  11
TORSDOF 4
ENDMDL
MODEL       61
REMARK 921   NORMALIZED FREE ENERGY PREDICTED BY IDOCK:   -4.69 KCAL/MOL
REMARK 922        TOTAL FREE ENERGY PREDICTED BY IDOCK:   -6.30 KCAL/MOL
REMARK 923 INTER-LIGAND FREE ENERGY PREDICTED BY IDOCK:   -6.03 KCAL/MOL
REMARK 924 INTRA-LIGAND FREE ENERGY PREDICTED BY IDOCK:   -0.26 KCAL/MOL
REMARK 927      BINDING AFFINITY PREDICTED BY RF-SCORE:    0.00 PKD
ROOT
HETATM    1  C   UNL     1      -8.305  10.359  65.023  1.00  0.00    -0.166 C  
HETATM    2  C   UNL     1      -9.599  11.096  65.123  1.00  0.00    -0.273 C  
HETATM    3  C   UNL     1     -10.135  11.537  66.267  1.00  0.00    -0.226 C  
HETATM    4  N   UNL     1     -11.349  12.202  66.320  1.00  0.00    -0.342 N  
HETATM    5  C   UNL     1     -12.041  12.521  65.158  1.00  0.00    -0.446 C  
HETATM    6  O   UNL     1      -9.933  10.950  62.781  1.00  0.00    -0.268 OA 
HETATM    7  O   UNL     1     -13.097  13.153  65.133  1.00  0.00    -0.703 OA 
HETATM    8  H   UNL     1     -11.979  12.309  63.128  1.00  0.00     0.000 HD 
HETATM    9  N   UNL     1     -11.486  12.077  63.990  1.00  0.00    -0.377 N  
HETATM   10  C   UNL     1     -10.336  11.355  63.865  1.00  0.00    -0.379 C  
ENDROOT
BRANCH   4  11
HETATM   11  C   UNL     1     -11.908  12.684  67.584  1.00  0.00    -0.329 C  
HETATM   12  C   UNL     1     -11.092  12.293  68.811  1.00  0.00    -0.295 C  
HETATM   13  O   UNL     1     -11.976  14.124  67.602  1.00  0.00    -0.377 OA 
HETATM   14  C   UNL     1     -11.482  13.350  69.820  1.00  0.00    -0.166 C  
HETATM   15  C   UNL     1     -11.720  14.586  68.948  1.00  0.00    -0.319 C  
BRANCH  14  16
HETATM   16  N   UNL     1     -12.758  12.966  70.460  1.00  0.00    -0.091 NA 
HETATM   17  H   UNL     1     -13.605  13.524  70.355  1.00  0.00     0.000 HD 
BRANCH  16  18
HETATM   18  N   UNL     1     -12.735  11.920  71.135  1.00  0.00    -0.344 NA 
HETATM   19  N   UNL     1     -12.713  10.965  71.757  1.00  0.00    -0.381 NA 
HETATM   20  H1  UNL     1     -12.695  10.108  72.310  1.00  0.00     0.000 HD 
HETATM   21  H2  UNL     1     -12.448  11.512  72.576  1.00  0.00     0.000 HD 
ENDBRANCH  16  18
ENDBRANCH  14  16
BRANCH  15  22
HETATM   22  C   UNL     1     -10.518  15.535  68.908  1.00  0.00    -0.223 C  
HETATM   23  H   UNL     1     -10.013  17.232  68.019  1.00  0.00     0.000 HD 
HETATM   24  O   UNL     1     -10.759  16.643  68.045  1.00  0.00    -0.330 OA 
ENDBRANCH  15  22
ENDBRANCH   4  11
TORSDOF 4
ENDMDL
MODEL       62
REMARK 921   NORMALIZED FREE ENERGY PREDICTED BY IDOCK:   -4.64 KCAL/MOL
REMARK 922        TOTAL FREE ENERGY PREDICTED BY IDOCK:   -6.24 KCAL/MOL
REMARK 923 INTER-LIGAND FREE ENERGY PREDICTED BY IDOCK:   -5.80 KCAL/MOL
REMARK 924 INTRA-LIGAND FREE ENERGY PREDICTED BY IDOCK:   -0.44 KCAL/MOL
REMARK 927      BINDING AFFINITY PREDICTED BY RF-SCORE:    0.00 PKD
ROOT
HETATM    1  C   UNL     1     -12.936  13.871  65.461  1.00  0.00    -0.375 C  
HETATM    2  C   UNL     1     -11.672  13.908  66.254  1.00  0.00    -0.402 C  
HETATM    3  C   UNL     1     -10.853  14.964  66.329  1.00  0.00    -0.331 C  
HETATM    4  N   UNL     1      -9.679  14.952  67.063  1.00  0.00    -0.230 N  
HETATM    5  C   UNL     1      -9.330  13.852  67.837  1.00  0.00    -0.208 C  
HETATM    6  O   UNL     1     -11.981  11.668  66.964  1.00  0.00    -0.593 OA 
HETATM    7  O   UNL     1      -8.328  13.798  68.550  1.00  0.00    -0.155 OA 
HETATM    8  H   UNL     1      -9.935  11.966  68.335  1.00  0.00     0.000 HD 
HETATM    9  N   UNL     1     -10.175  12.779  67.767  1.00  0.00    -0.218 N  
HETATM   10  C   UNL     1     -11.306  12.689  67.011  1.00  0.00    -0.323 C  
ENDROOT
BRANCH   4  11
HETATM   11  C   UNL     1      -8.805  16.124  67.137  1.00  0.00    -0.198 C  
HETATM   12  C   UNL     1      -9.056  17.153  66.039  1.00  0.00    -0.140 C  
HETATM   13  O   UNL     1      -8.990  16.828  68.381  1.00  0.00    -0.217 OA 
HETATM   14  C   UNL     1      -8.529  18.429  66.654  1.00  0.00    -0.269 C  
HETATM   15  C   UNL     1      -8.834  18.245  68.143  1.00  0.00    -0.295 C  
BRANCH  14  16
HETATM   16  N   UNL     1      -7.063  18.490  66.472  1.00  0.00    -0.208 NA 
HETATM   17  H   UNL     1      -6.415  18.237  67.218  1.00  0.00     0.000 HD 
BRANCH  16  18
HETATM   18  N   UNL     1      -6.669  18.867  65.353  1.00  0.00    -0.440 NA 
HETATM   19  N   UNL     1      -6.308  19.218  64.331  1.00  0.00    -0.420 NA 
HETATM   20  H1  UNL     1      -5.984  19.528  63.414  1.00  0.00     0.000 HD 
HETATM   21  H2  UNL     1      -6.485  20.185  64.606  1.00  0.00     0.000 HD 
ENDBRANCH  16  18
ENDBRANCH  14  16
BRANCH  15  22
HETATM   22  C   UNL     1     -10.121  18.950  68.585  1.00  0.00    -0.388 C  
HETATM   23  H   UNL     1     -10.933  20.751  68.445  1.00  0.00     0.000 HD 
HETATM   24  O   UNL     1     -10.135  20.313  68.171  1.00  0.00    -0.391 OA 
ENDBRANCH  15  22
ENDBRANCH   4  11
TORSDOF 4
ENDMDL
MODEL       63
REMARK 921   NORMALIZED FREE ENERGY PREDICTED BY IDOCK:   -4.60 KCAL/MOL
REMARK 922        TOTAL FREE ENERGY PREDICTED BY IDOCK:   -6.19 KCAL/MOL
REMARK 923 INTER-LIGAND FREE ENERGY PREDICTED BY IDOCK:   -6.39 KCAL/MOL
REMARK 924 INTRA-LIGAND FREE ENERGY PREDICTED BY IDOCK:    0.20 KCAL/MOL
REMARK 927      BINDING AFFINITY PREDICTED BY RF-SCORE:    0.00 PKD
ROOT
HETATM    1  C   UNL     1      -7.708  16.834  68.713  1.00  0.00    -0.242 C  
HETATM    2  C   UNL     1      -8.878  16.106  68.141  1.00  0.00    -0.184 C  
HETATM    3  C   UNL     1      -8.790  15.067  67.302  1.00  0.00    -0.201 C  
HETATM    4  N   UNL     1      -9.901  14.428  66.778  1.00  0.00    -0.256 N  
HETATM    5  C   UNL     1     -11.185  14.789  67.171  1.00  0.00    -0.343 C  
HETATM    6  O   UNL     1     -10.396  17.535  69.268  1.00  0.00    -0.327 OA 
HETATM    7  O   UNL     1     -12.210  14.229  66.782  1.00  0.00    -0.441 OA 
HETATM    8  H   UNL     1     -12.207  16.116  68.339  1.00  0.00     0.000 HD 
HETATM    9  N   UNL     1     -11.271  15.844  68.036  1.00  0.00    -0.340 N  
HETATM   10  C   UNL     1     -10.229  16.567  68.535  1.00  0.00    -0.266 C  
ENDROOT
BRANCH   4  11
HETATM   11  C   UNL     1      -9.777  13.287  65.870  1.00  0.00    -0.175 C  
HETATM   12  C   UNL     1     -10.718  12.132  66.195  1.00  0.00    -0.307 C  
HETATM   13  O   UNL     1     -10.082  13.670  64.514  1.00  0.00    -0.349 OA 
HETATM   14  C   UNL     1     -10.843  11.422  64.867  1.00  0.00    -0.257 C  
HETATM   15  C   UNL     1     -10.739  12.566  63.854  1.00  0.00    -0.437 C  
BRANCH  14  16
HETATM   16  N   UNL     1      -9.687  10.519  64.686  1.00  0.00    -0.281 NA 
HETATM   17  H   UNL     1      -8.910  10.753  64.068  1.00  0.00     0.000 HD 
BRANCH  16  18
HETATM   18  N   UNL     1      -9.720   9.456  65.333  1.00  0.00    -0.249 NA 
HETATM   19  N   UNL     1      -9.754   8.485  65.928  1.00  0.00    -0.466 NA 
HETATM   20  H1  UNL     1      -9.780   7.614  66.459  1.00  0.00     0.000 HD 
HETATM   21  H2  UNL     1     -10.584   8.820  66.418  1.00  0.00     0.000 HD 
ENDBRANCH  16  18
ENDBRANCH  14  16
BRANCH  15  22
HETATM   22  C   UNL     1     -12.103  13.050  63.351  1.00  0.00    -0.515 C  
HETATM   23  H   UNL     1     -13.965  12.380  63.275  1.00  0.00     0.000 HD 
HETATM   24  O   UNL     1     -13.119  12.079  63.587  1.00  0.00    -0.756 OA 
ENDBRANCH  15  22
ENDBRANCH   4  11
TORSDOF 4
ENDMDL
MODEL       64
REMARK 921   NORMALIZED FREE ENERGY PREDICTED BY IDOCK:   -4.51 KCAL/MOL
REMARK 922        TOTAL FREE ENERGY PREDICTED BY IDOCK:   -6.07 KCAL/MOL
REMARK 923 INTER-LIGAND FREE ENERGY PREDICTED BY IDOCK:   -6.54 KCAL/MOL
REMARK 924 INTRA-LIGAND FREE ENERGY PREDICTED BY IDOCK:    0.46 KCAL/MOL
REMARK 927      BINDING AFFINITY PREDICTED BY RF-SCORE:    0.00 PKD
ROOT
HETATM    1  C   UNL     1     -10.568  17.146  69.623  1.00  0.00     0.008 C  
HETATM    2  C   UNL     1     -11.048  15.779  69.263  1.00  0.00    -0.297 C  
HETATM    3  C   UNL     1     -11.221  15.340  68.010  1.00  0.00    -0.326 C  
HETATM    4  N   UNL     1     -11.684  14.069  67.717  1.00  0.00    -0.348 N  
HETATM    5  C   UNL     1     -11.919  13.143  68.726  1.00  0.00    -0.280 C  
HETATM    6  O   UNL     1     -11.254  15.183  71.547  1.00  0.00    -0.359 OA 
HETATM    7  O   UNL     1     -12.283  11.983  68.531  1.00  0.00    -0.340 OA 
HETATM    8  H   UNL     1     -11.893  12.920  70.756  1.00  0.00     0.000 HD 
HETATM    9  N   UNL     1     -11.731  13.591  70.005  1.00  0.00    -0.272 N  
HETATM   10  C   UNL     1     -11.349  14.847  70.373  1.00  0.00    -0.243 C  
ENDROOT
BRANCH   4  11
HETATM   11  C   UNL     1     -11.855  13.610  66.338  1.00  0.00    -0.398 C  
HETATM   12  C   UNL     1     -10.926  14.292  65.339  1.00  0.00    -0.335 C  
HETATM   13  O   UNL     1     -11.581  12.199  66.225  1.00  0.00    -0.369 OA 
HETATM   14  C   UNL     1     -10.852  13.287  64.214  1.00  0.00    -0.392 C  
HETATM   15  C   UNL     1     -10.963  11.945  64.944  1.00  0.00    -0.313 C  
BRANCH  14  16
HETATM   16  N   UNL     1     -12.029  13.450  63.335  1.00  0.00    -0.786 NA 
HETATM   17  H   UNL     1     -12.288  14.355  62.942  1.00  0.00     0.000 HD 
BRANCH  16  18
HETATM   18  N   UNL     1     -12.684  12.417  63.104  1.00  0.00    -0.559 NA 
HETATM   19  N   UNL     1     -13.279  11.469  62.891  1.00  0.00    -0.515 NA 
HETATM   20  H1  UNL     1     -13.816  10.623  62.702  1.00  0.00     0.000 HD 
HETATM   21  H2  UNL     1     -12.412  10.984  62.657  1.00  0.00     0.000 HD 
ENDBRANCH  16  18
ENDBRANCH  14  16
BRANCH  15  22
HETATM   22  C   UNL     1      -9.606  11.279  65.190  1.00  0.00    -0.235 C  
HETATM   23  H   UNL     1      -8.602  10.507  66.713  1.00  0.00     0.000 HD 
HETATM   24  O   UNL     1      -9.444  10.920  66.560  1.00  0.00    -0.178 OA 
ENDBRANCH  15  22
ENDBRANCH   4  11
TORSDOF 4
ENDMDL
MODEL       65
REMARK 921   NORMALIZED FREE ENERGY PREDICTED BY IDOCK:   -4.49 KCAL/MOL
REMARK 922        TOTAL FREE ENERGY PREDICTED BY IDOCK:   -6.05 KCAL/MOL
REMARK 923 INTER-LIGAND FREE ENERGY PREDICTED BY IDOCK:   -5.64 KCAL/MOL
REMARK 924 INTRA-LIGAND FREE ENERGY PREDICTED BY IDOCK:   -0.41 KCAL/MOL
REMARK 927      BINDING AFFINITY PREDICTED BY RF-SCORE:    0.00 PKD
ROOT
HETATM    1  C   UNL     1     -11.835  14.233  65.235  1.00  0.00    -0.374 C  
HETATM    2  C   UNL     1     -11.342  12.862  65.563  1.00  0.00    -0.340 C  
HETATM    3  C   UNL     1     -11.580  12.226  66.717  1.00  0.00    -0.369 C  
HETATM    4  N   UNL     1     -11.091  10.960  66.991  1.00  0.00    -0.251 N  
HETATM    5  C   UNL     1     -10.385  10.243  66.032  1.00  0.00    -0.178 C  
HETATM    6  O   UNL     1     -10.241  12.690  63.472  1.00  0.00    -0.387 OA 
HETATM    7  O   UNL     1      -9.967   9.097  66.194  1.00  0.00    -0.286 OA 
HETATM    8  H   UNL     1      -9.640  10.376  64.135  1.00  0.00     0.000 HD 
HETATM    9  N   UNL     1     -10.152  10.892  64.851  1.00  0.00    -0.290 N  
HETATM   10  C   UNL     1     -10.537  12.162  64.537  1.00  0.00    -0.310 C  
ENDROOT
BRANCH   4  11
HETATM   11  C   UNL     1     -11.375  10.282  68.256  1.00  0.00    -0.177 C  
HETATM   12  C   UNL     1     -10.239  10.364  69.270  1.00  0.00    -0.248 C  
HETATM   13  O   UNL     1     -12.522  10.863  68.908  1.00  0.00    -0.431 OA 
HETATM   14  C   UNL     1     -10.955  10.169  70.587  1.00  0.00    -0.285 C  
HETATM   15  C   UNL     1     -12.317  10.823  70.338  1.00  0.00    -0.353 C  
BRANCH  14  16
HETATM   16  N   UNL     1     -11.155   8.725  70.825  1.00  0.00    -0.253 NA 
HETATM   17  H   UNL     1     -12.080   8.296  70.797  1.00  0.00     0.000 HD 
BRANCH  16  18
HETATM   18  N   UNL     1     -10.127   8.063  71.061  1.00  0.00    -0.185 NA 
HETATM   19  N   UNL     1      -9.187   7.458  71.282  1.00  0.00    -0.150 NA 
HETATM   20  H1  UNL     1      -8.345   6.916  71.475  1.00  0.00     0.000 HD 
HETATM   21  H2  UNL     1      -9.389   7.520  72.280  1.00  0.00     0.000 HD 
ENDBRANCH  16  18
ENDBRANCH  14  16
BRANCH  15  22
HETATM   22  C   UNL     1     -12.406  12.254  70.875  1.00  0.00    -0.267 C  
HETATM   23  H   UNL     1     -13.379  13.234  72.295  1.00  0.00     0.000 HD 
HETATM   24  O   UNL     1     -13.324  12.346  71.962  1.00  0.00    -0.507 OA 
ENDBRANCH  15  22
ENDBRANCH   4  11
TORSDOF 4
ENDMDL
MODEL       66
REMARK 921   NORMALIZED FREE ENERGY PREDICTED BY IDOCK:   -4.47 KCAL/MOL
REMARK 922        TOTAL FREE ENERGY PREDICTED BY IDOCK:   -6.03 KCAL/MOL
REMARK 923 INTER-LIGAND FREE ENERGY PREDICTED BY IDOCK:   -5.55 KCAL/MOL
REMARK 924 INTRA-LIGAND FREE ENERGY PREDICTED BY IDOCK:   -0.48 KCAL/MOL
REMARK 927      BINDING AFFINITY PREDICTED BY RF-SCORE:    0.00 PKD
ROOT
HETATM    1  C   UNL     1     -10.306  10.668  66.190  1.00  0.00    -0.291 C  
HETATM    2  C   UNL     1     -10.922  10.827  67.541  1.00  0.00    -0.372 C  
HETATM    3  C   UNL     1     -10.888   9.898  68.504  1.00  0.00    -0.217 C  
HETATM    4  N   UNL     1     -11.487  10.075  69.740  1.00  0.00    -0.217 N  
HETATM    5  C   UNL     1     -12.093  11.281  70.075  1.00  0.00    -0.348 C  
HETATM    6  O   UNL     1     -11.725  12.987  66.990  1.00  0.00    -0.345 OA 
HETATM    7  O   UNL     1     -12.598  11.520  71.171  1.00  0.00    -0.389 OA 
HETATM    8  H   UNL     1     -12.552  13.124  69.325  1.00  0.00     0.000 HD 
HETATM    9  N   UNL     1     -12.117  12.231  69.092  1.00  0.00    -0.225 N  
HETATM   10  C   UNL     1     -11.615  12.102  67.830  1.00  0.00    -0.347 C  
ENDROOT
BRANCH   4  11
HETATM   11  C   UNL     1     -11.426   9.048  70.780  1.00  0.00    -0.282 C  
HETATM   12  C   UNL     1     -11.220   7.635  70.244  1.00  0.00    -0.230 C  
HETATM   13  O   UNL     1     -10.326   9.288  71.680  1.00  0.00    -0.340 OA 
HETATM   14  C   UNL     1     -10.605   6.918  71.424  1.00  0.00    -0.219 C  
HETATM   15  C   UNL     1      -9.783   8.017  72.103  1.00  0.00    -0.221 C  
BRANCH  14  16
HETATM   16  N   UNL     1     -11.677   6.486  72.345  1.00  0.00    -0.431 NA 
HETATM   17  H   UNL     1     -12.539   7.018  72.458  1.00  0.00     0.000 HD 
BRANCH  16  18
HETATM   18  N   UNL     1     -11.463   5.433  72.973  1.00  0.00    -0.296 NA 
HETATM   19  N   UNL     1     -11.262   4.471  73.550  1.00  0.00    -0.316 NA 
HETATM   20  H1  UNL     1     -11.087   3.608  74.065  1.00  0.00     0.000 HD 
HETATM   21  H2  UNL     1     -10.346   4.830  73.819  1.00  0.00     0.000 HD 
ENDBRANCH  16  18
ENDBRANCH  14  16
BRANCH  15  22
HETATM   22  C   UNL     1      -8.299   7.981  71.725  1.00  0.00    -0.127 C  
HETATM   23  H   UNL     1      -6.867   9.269  71.265  1.00  0.00     0.000 HD 
HETATM   24  O   UNL     1      -7.787   9.292  71.500  1.00  0.00    -0.336 OA 
ENDBRANCH  15  22
ENDBRANCH   4  11
TORSDOF 4
ENDMDL
MODEL       67
REMARK 921   NORMALIZED FREE ENERGY PREDICTED BY IDOCK:   -4.47 KCAL/MOL
REMARK 922        TOTAL FREE ENERGY PREDICTED BY IDOCK:   -6.03 KCAL/MOL
REMARK 923 INTER-LIGAND FREE ENERGY PREDICTED BY IDOCK:   -5.52 KCAL/MOL
REMARK 924 INTRA-LIGAND FREE ENERGY PREDICTED BY IDOCK:   -0.51 KCAL/MOL
REMARK 927      BINDING AFFINITY PREDICTED BY RF-SCORE:    0.00 PKD
ROOT
HETATM    1  C   UNL     1      -9.755  11.060  62.739  1.00  0.00    -0.303 C  
HETATM    2  C   UNL     1     -10.354  11.329  64.080  1.00  0.00    -0.410 C  
HETATM    3  C   UNL     1     -10.050  10.654  65.196  1.00  0.00    -0.307 C  
HETATM    4  N   UNL     1     -10.641  10.922  66.419  1.00  0.00    -0.250 N  
HETATM    5  C   UNL     1     -11.533  11.978  66.567  1.00  0.00    -0.349 C  
HETATM    6  O   UNL     1     -11.711  13.059  63.196  1.00  0.00    -0.438 OA 
HETATM    7  O   UNL     1     -12.053  12.300  67.635  1.00  0.00    -0.502 OA 
HETATM    8  H   UNL     1     -12.481  13.454  65.522  1.00  0.00     0.000 HD 
HETATM    9  N   UNL     1     -11.832  12.672  65.427  1.00  0.00    -0.404 N  
HETATM   10  C   UNL     1     -11.349  12.420  64.177  1.00  0.00    -0.379 C  
ENDROOT
BRANCH   4  11
HETATM   11  C   UNL     1     -10.284  10.176  67.627  1.00  0.00    -0.203 C  
HETATM   12  C   UNL     1     -10.427   8.665  67.486  1.00  0.00    -0.335 C  
HETATM   13  O   UNL     1      -8.907  10.406  67.987  1.00  0.00    -0.128 OA 
HETATM   14  C   UNL     1      -9.478   8.141  68.539  1.00  0.00    -0.143 C  
HETATM   15  C   UNL     1      -8.363   9.190  68.549  1.00  0.00    -0.123 C  
BRANCH  14  16
HETATM   16  N   UNL     1     -10.154   8.152  69.853  1.00  0.00    -0.191 NA 
HETATM   17  H   UNL     1      -9.821   8.724  70.628  1.00  0.00     0.000 HD 
BRANCH  16  18
HETATM   18  N   UNL     1     -11.156   7.419  69.956  1.00  0.00    -0.248 NA 
HETATM   19  N   UNL     1     -12.073   6.750  70.056  1.00  0.00    -0.638 NA 
HETATM   20  H1  UNL     1     -12.893   6.150  70.141  1.00  0.00     0.000 HD 
HETATM   21  H2  UNL     1     -12.073   6.910  71.064  1.00  0.00     0.000 HD 
ENDBRANCH  16  18
ENDBRANCH  14  16
BRANCH  15  22
HETATM   22  C   UNL     1      -7.144   8.781  67.716  1.00  0.00    -0.083 C  
HETATM   23  H   UNL     1      -6.522   7.199  66.700  1.00  0.00     0.000 HD 
HETATM   24  O   UNL     1      -7.278   7.453  67.217  1.00  0.00    -0.088 OA 
ENDBRANCH  15  22
ENDBRANCH   4  11
TORSDOF 4
ENDMDL
MODEL       68
REMARK 921   NORMALIZED FREE ENERGY PREDICTED BY IDOCK:   -4.43 KCAL/MOL
REMARK 922        TOTAL FREE ENERGY PREDICTED BY IDOCK:   -5.98 KCAL/MOL
REMARK 923 INTER-LIGAND FREE ENERGY PREDICTED BY IDOCK:   -5.43 KCAL/MOL
REMARK 924 INTRA-LIGAND FREE ENERGY PREDICTED BY IDOCK:   -0.55 KCAL/MOL
REMARK 927      BINDING AFFINITY PREDICTED BY RF-SCORE:    0.00 PKD
ROOT
HETATM    1  C   UNL     1     -10.980   6.306  67.625  1.00  0.00    -0.438 C  
HETATM    2  C   UNL     1     -10.095   7.131  66.750  1.00  0.00    -0.278 C  
HETATM    3  C   UNL     1     -10.230   8.449  66.560  1.00  0.00    -0.207 C  
HETATM    4  N   UNL     1      -9.398   9.176  65.726  1.00  0.00    -0.234 N  
HETATM    5  C   UNL     1      -8.312   8.576  65.098  1.00  0.00    -0.169 C  
HETATM    6  O   UNL     1      -8.824   5.227  66.138  1.00  0.00    -0.127 OA 
HETATM    7  O   UNL     1      -7.507   9.176  64.386  1.00  0.00    -0.097 OA 
HETATM    8  H   UNL     1      -7.375   6.779  64.854  1.00  0.00     0.000 HD 
HETATM    9  N   UNL     1      -8.172   7.232  65.303  1.00  0.00    -0.134 N  
HETATM   10  C   UNL     1      -8.991   6.437  66.049  1.00  0.00    -0.130 C  
ENDROOT
BRANCH   4  11
HETATM   11  C   UNL     1      -9.560  10.619  65.544  1.00  0.00    -0.221 C  
HETATM   12  C   UNL     1     -10.756  11.003  64.679  1.00  0.00    -0.318 C  
HETATM   13  O   UNL     1      -9.765  11.280  66.809  1.00  0.00    -0.189 OA 
HETATM   14  C   UNL     1     -11.055  12.414  65.132  1.00  0.00    -0.309 C  
HETATM   15  C   UNL     1     -10.675  12.386  66.616  1.00  0.00    -0.235 C  
BRANCH  14  16
HETATM   16  N   UNL     1     -10.157  13.353  64.428  1.00  0.00    -0.655 NA 
HETATM   17  H   UNL     1      -9.345  13.031  63.901  1.00  0.00     0.000 HD 
BRANCH  16  18
HETATM   18  N   UNL     1     -10.452  14.559  64.517  1.00  0.00    -0.200 NA 
HETATM   19  N   UNL     1     -10.717  15.664  64.601  1.00  0.00    -0.723 NA 
HETATM   20  H1  UNL     1     -10.959  16.652  64.674  1.00  0.00     0.000 HD 
HETATM   21  H2  UNL     1      -9.878  15.817  65.161  1.00  0.00     0.000 HD 
ENDBRANCH  16  18
ENDBRANCH  14  16
BRANCH  15  22
HETATM   22  C   UNL     1     -11.878  12.183  67.542  1.00  0.00    -0.237 C  
HETATM   23  H   UNL     1     -12.564  10.797  68.780  1.00  0.00     0.000 HD 
HETATM   24  O   UNL     1     -11.817  10.923  68.205  1.00  0.00    -0.530 OA 
ENDBRANCH  15  22
ENDBRANCH   4  11
TORSDOF 4
ENDMDL
MODEL       69
REMARK 921   NORMALIZED FREE ENERGY PREDICTED BY IDOCK:   -4.39 KCAL/MOL
REMARK 922        TOTAL FREE ENERGY PREDICTED BY IDOCK:   -5.93 KCAL/MOL
REMARK 923 INTER-LIGAND FREE ENERGY PREDICTED BY IDOCK:   -6.08 KCAL/MOL
REMARK 924 INTRA-LIGAND FREE ENERGY PREDICTED BY IDOCK:    0.15 KCAL/MOL
REMARK 927      BINDING AFFINITY PREDICTED BY RF-SCORE:    0.00 PKD
ROOT
HETATM    1  C   UNL     1     -12.716  12.638  64.885  1.00  0.00    -0.450 C  
HETATM    2  C   UNL     1     -11.853  13.343  65.878  1.00  0.00    -0.414 C  
HETATM    3  C   UNL     1     -11.220  14.499  65.648  1.00  0.00    -0.335 C  
HETATM    4  N   UNL     1     -10.413  15.113  66.591  1.00  0.00    -0.281 N  
HETATM    5  C   UNL     1     -10.286  14.591  67.873  1.00  0.00    -0.231 C  
HETATM    6  O   UNL     1     -12.208  11.639  67.487  1.00  0.00    -0.501 OA 
HETATM    7  O   UNL     1      -9.626  15.114  68.771  1.00  0.00    -0.202 OA 
HETATM    8  H   UNL     1     -10.864  13.023  69.046  1.00  0.00     0.000 HD 
HETATM    9  N   UNL     1     -10.943  13.415  68.108  1.00  0.00    -0.246 N  
HETATM   10  C   UNL     1     -11.693  12.716  67.210  1.00  0.00    -0.370 C  
ENDROOT
BRANCH   4  11
HETATM   11  C   UNL     1      -9.739  16.384  66.318  1.00  0.00    -0.308 C  
HETATM   12  C   UNL     1      -9.929  17.432  67.409  1.00  0.00    -0.305 C  
HETATM   13  O   UNL     1      -8.314  16.197  66.199  1.00  0.00    -0.318 OA 
HETATM   14  C   UNL     1      -8.728  18.330  67.220  1.00  0.00    -0.255 C  
HETATM   15  C   UNL     1      -7.645  17.359  66.739  1.00  0.00    -0.228 C  
BRANCH  14  16
HETATM   16  N   UNL     1      -9.009  19.300  66.142  1.00  0.00    -0.444 NA 
HETATM   17  H   UNL     1      -9.954  19.464  65.795  1.00  0.00     0.000 HD 
BRANCH  16  18
HETATM   18  N   UNL     1      -8.023  19.907  65.684  1.00  0.00    -0.344 NA 
HETATM   19  N   UNL     1      -7.118  20.459  65.267  1.00  0.00    -0.487 NA 
HETATM   20  H1  UNL     1      -6.310  20.956  64.892  1.00  0.00     0.000 HD 
HETATM   21  H2  UNL     1      -6.503  19.832  65.787  1.00  0.00     0.000 HD 
ENDBRANCH  16  18
ENDBRANCH  14  16
BRANCH  15  22
HETATM   22  C   UNL     1      -6.711  16.895  67.862  1.00  0.00    -0.144 C  
HETATM   23  H   UNL     1      -6.038  17.584  69.593  1.00  0.00     0.000 HD 
HETATM   24  O   UNL     1      -6.618  17.871  68.896  1.00  0.00    -0.221 OA 
ENDBRANCH  15  22
ENDBRANCH   4  11
TORSDOF 4
ENDMDL
MODEL       70
REMARK 921   NORMALIZED FREE ENERGY PREDICTED BY IDOCK:   -4.39 KCAL/MOL
REMARK 922        TOTAL FREE ENERGY PREDICTED BY IDOCK:   -5.93 KCAL/MOL
REMARK 923 INTER-LIGAND FREE ENERGY PREDICTED BY IDOCK:   -5.40 KCAL/MOL
REMARK 924 INTRA-LIGAND FREE ENERGY PREDICTED BY IDOCK:   -0.53 KCAL/MOL
REMARK 927      BINDING AFFINITY PREDICTED BY RF-SCORE:    0.00 PKD
ROOT
HETATM    1  C   UNL     1      -8.402   6.578  71.952  1.00  0.00    -0.115 C  
HETATM    2  C   UNL     1      -9.618   7.435  71.827  1.00  0.00    -0.168 C  
HETATM    3  C   UNL     1      -9.922   8.168  70.749  1.00  0.00    -0.188 C  
HETATM    4  N   UNL     1     -11.053   8.964  70.677  1.00  0.00    -0.255 N  
HETATM    5  C   UNL     1     -11.985   8.978  71.709  1.00  0.00    -0.368 C  
HETATM    6  O   UNL     1     -10.323   6.860  74.015  1.00  0.00    -0.363 OA 
HETATM    7  O   UNL     1     -13.032   9.623  71.686  1.00  0.00    -0.349 OA 
HETATM    8  H   UNL     1     -12.353   8.214  73.567  1.00  0.00     0.000 HD 
HETATM    9  N   UNL     1     -11.675   8.220  72.804  1.00  0.00    -0.345 N  
HETATM   10  C   UNL     1     -10.549   7.470  72.977  1.00  0.00    -0.368 C  
ENDROOT
BRANCH   4  11
HETATM   11  C   UNL     1     -11.369   9.748  69.483  1.00  0.00    -0.083 C  
HETATM   12  C   UNL     1     -10.780  11.154  69.491  1.00  0.00    -0.193 C  
HETATM   13  O   UNL     1     -10.849   9.114  68.297  1.00  0.00    -0.163 OA 
HETATM   14  C   UNL     1     -10.708  11.494  68.021  1.00  0.00    -0.202 C  
HETATM   15  C   UNL     1     -10.426  10.138  67.368  1.00  0.00    -0.256 C  
BRANCH  14  16
HETATM   16  N   UNL     1     -12.029  11.976  67.567  1.00  0.00    -0.578 NA 
HETATM   17  H   UNL     1     -12.803  12.122  68.215  1.00  0.00     0.000 HD 
BRANCH  16  18
HETATM   18  N   UNL     1     -12.140  12.193  66.346  1.00  0.00    -0.587 NA 
HETATM   19  N   UNL     1     -12.243  12.397  65.230  1.00  0.00    -0.553 NA 
HETATM   20  H1  UNL     1     -12.334  12.575  64.229  1.00  0.00     0.000 HD 
HETATM   21  H2  UNL     1     -12.453  13.375  65.433  1.00  0.00     0.000 HD 
ENDBRANCH  16  18
ENDBRANCH  14  16
BRANCH  15  22
HETATM   22  C   UNL     1      -8.944   9.917  67.053  1.00  0.00    -0.138 C  
HETATM   23  H   UNL     1      -7.278  10.988  66.994  1.00  0.00     0.000 HD 
HETATM   24  O   UNL     1      -8.198  11.125  67.189  1.00  0.00    -0.128 OA 
ENDBRANCH  15  22
ENDBRANCH   4  11
TORSDOF 4
ENDMDL
MODEL       71
REMARK 921   NORMALIZED FREE ENERGY PREDICTED BY IDOCK:   -4.38 KCAL/MOL
REMARK 922        TOTAL FREE ENERGY PREDICTED BY IDOCK:   -5.92 KCAL/MOL
REMARK 923 INTER-LIGAND FREE ENERGY PREDICTED BY IDOCK:   -6.00 KCAL/MOL
REMARK 924 INTRA-LIGAND FREE ENERGY PREDICTED BY IDOCK:    0.07 KCAL/MOL
REMARK 927      BINDING AFFINITY PREDICTED BY RF-SCORE:    0.00 PKD
ROOT
HETATM    1  C   UNL     1     -10.201  20.133  66.380  1.00  0.00    -0.552 C  
HETATM    2  C   UNL     1      -9.554  18.893  66.902  1.00  0.00    -0.348 C  
HETATM    3  C   UNL     1      -9.666  17.684  66.339  1.00  0.00    -0.294 C  
HETATM    4  N   UNL     1      -9.064  16.553  66.864  1.00  0.00    -0.211 N  
HETATM    5  C   UNL     1      -8.233  16.635  67.975  1.00  0.00    -0.185 C  
HETATM    6  O   UNL     1      -8.611  20.079  68.724  1.00  0.00    -0.103 OA 
HETATM    7  O   UNL     1      -7.629  15.679  68.460  1.00  0.00    -0.124 OA 
HETATM    8  H   UNL     1      -7.501  17.952  69.354  1.00  0.00     0.000 HD 
HETATM    9  N   UNL     1      -8.113  17.874  68.542  1.00  0.00    -0.298 N  
HETATM   10  C   UNL     1      -8.731  19.016  68.126  1.00  0.00    -0.316 C  
ENDROOT
BRANCH   4  11
HETATM   11  C   UNL     1      -9.193  15.243  66.223  1.00  0.00    -0.315 C  
HETATM   12  C   UNL     1      -9.694  14.145  67.155  1.00  0.00    -0.248 C  
HETATM   13  O   UNL     1     -10.137  15.292  65.134  1.00  0.00    -0.345 OA 
HETATM   14  C   UNL     1     -10.299  13.146  66.196  1.00  0.00    -0.284 C  
HETATM   15  C   UNL     1     -10.844  14.033  65.073  1.00  0.00    -0.392 C  
BRANCH  14  16
HETATM   16  N   UNL     1      -9.228  12.287  65.647  1.00  0.00    -0.438 NA 
HETATM   17  H   UNL     1      -8.416  12.017  66.201  1.00  0.00     0.000 HD 
BRANCH  16  18
HETATM   18  N   UNL     1      -9.379  11.914  64.469  1.00  0.00     0.099 NA 
HETATM   19  N   UNL     1      -9.514  11.577  63.389  1.00  0.00    -0.490 NA 
HETATM   20  H1  UNL     1      -9.637  11.271  62.424  1.00  0.00     0.000 HD 
HETATM   21  H2  UNL     1      -8.921  12.348  63.080  1.00  0.00     0.000 HD 
ENDBRANCH  16  18
ENDBRANCH  14  16
BRANCH  15  22
HETATM   22  C   UNL     1     -12.343  14.319  65.206  1.00  0.00    -0.424 C  
HETATM   23  H   UNL     1     -14.044  13.306  65.142  1.00  0.00     0.000 HD 
HETATM   24  O   UNL     1     -13.114  13.129  65.060  1.00  0.00    -0.728 OA 
ENDBRANCH  15  22
ENDBRANCH   4  11
TORSDOF 4
ENDMDL
MODEL       72
REMARK 921   NORMALIZED FREE ENERGY PREDICTED BY IDOCK:   -4.37 KCAL/MOL
REMARK 922        TOTAL FREE ENERGY PREDICTED BY IDOCK:   -5.90 KCAL/MOL
REMARK 923 INTER-LIGAND FREE ENERGY PREDICTED BY IDOCK:   -5.42 KCAL/MOL
REMARK 924 INTRA-LIGAND FREE ENERGY PREDICTED BY IDOCK:   -0.48 KCAL/MOL
REMARK 927      BINDING AFFINITY PREDICTED BY RF-SCORE:    0.00 PKD
ROOT
HETATM    1  C   UNL     1      -6.226  10.594  68.344  1.00  0.00    -0.050 C  
HETATM    2  C   UNL     1      -7.473   9.841  68.018  1.00  0.00    -0.082 C  
HETATM    3  C   UNL     1      -8.657  10.041  68.609  1.00  0.00    -0.123 C  
HETATM    4  N   UNL     1      -9.788   9.309  68.290  1.00  0.00    -0.154 N  
HETATM    5  C   UNL     1      -9.768   8.371  67.264  1.00  0.00    -0.184 C  
HETATM    6  O   UNL     1      -6.334   8.534  66.402  1.00  0.00    -0.056 OA 
HETATM    7  O   UNL     1     -10.749   7.725  66.899  1.00  0.00    -0.345 OA 
HETATM    8  H   UNL     1      -8.530   7.496  65.896  1.00  0.00     0.000 HD 
HETATM    9  N   UNL     1      -8.559   8.177  66.655  1.00  0.00    -0.130 N  
HETATM   10  C   UNL     1      -7.388   8.805  66.964  1.00  0.00    -0.080 C  
ENDROOT
BRANCH   4  11
HETATM   11  C   UNL     1     -11.074   9.554  68.945  1.00  0.00    -0.013 C  
HETATM   12  C   UNL     1     -10.977   9.723  70.457  1.00  0.00    -0.384 C  
HETATM   13  O   UNL     1     -11.680  10.767  68.454  1.00  0.00    -0.428 OA 
HETATM   14  C   UNL     1     -12.214  10.527  70.782  1.00  0.00    -0.369 C  
HETATM   15  C   UNL     1     -12.390  11.406  69.540  1.00  0.00    -0.145 C  
BRANCH  14  16
HETATM   16  N   UNL     1     -13.373   9.617  70.889  1.00  0.00    -0.596 NA 
HETATM   17  H   UNL     1     -13.882   9.291  70.068  1.00  0.00     0.000 HD 
BRANCH  16  18
HETATM   18  N   UNL     1     -13.690   9.272  72.043  1.00  0.00    -0.427 NA 
HETATM   19  N   UNL     1     -13.977   8.951  73.098  1.00  0.00    -1.215 NA 
HETATM   20  H1  UNL     1     -14.237   8.668  74.043  1.00  0.00     0.000 HD 
HETATM   21  H2  UNL     1     -13.543   8.043  72.934  1.00  0.00     0.000 HD 
ENDBRANCH  16  18
ENDBRANCH  14  16
BRANCH  15  22
HETATM   22  C   UNL     1     -11.824  12.818  69.716  1.00  0.00    -0.310 C  
HETATM   23  H   UNL     1     -11.560  14.444  68.616  1.00  0.00     0.000 HD 
HETATM   24  O   UNL     1     -11.911  13.568  68.507  1.00  0.00    -0.329 OA 
ENDBRANCH  15  22
ENDBRANCH   4  11
TORSDOF 4
ENDMDL
MODEL       73
REMARK 921   NORMALIZED FREE ENERGY PREDICTED BY IDOCK:   -4.36 KCAL/MOL
REMARK 922        TOTAL FREE ENERGY PREDICTED BY IDOCK:   -5.89 KCAL/MOL
REMARK 923 INTER-LIGAND FREE ENERGY PREDICTED BY IDOCK:   -5.52 KCAL/MOL
REMARK 924 INTRA-LIGAND FREE ENERGY PREDICTED BY IDOCK:   -0.37 KCAL/MOL
REMARK 927      BINDING AFFINITY PREDICTED BY RF-SCORE:    0.00 PKD
ROOT
HETATM    1  C   UNL     1      -8.685  10.798  66.440  1.00  0.00    -0.163 C  
HETATM    2  C   UNL     1      -9.658  11.117  67.527  1.00  0.00    -0.181 C  
HETATM    3  C   UNL     1      -9.861  10.357  68.610  1.00  0.00    -0.177 C  
HETATM    4  N   UNL     1     -10.787  10.678  69.589  1.00  0.00    -0.261 N  
HETATM    5  C   UNL     1     -11.504  11.868  69.533  1.00  0.00    -0.288 C  
HETATM    6  O   UNL     1     -10.351  13.090  66.413  1.00  0.00    -0.271 OA 
HETATM    7  O   UNL     1     -12.303  12.235  70.394  1.00  0.00    -0.302 OA 
HETATM    8  H   UNL     1     -11.800  13.525  68.378  1.00  0.00     0.000 HD 
HETATM    9  N   UNL     1     -11.286  12.646  68.430  1.00  0.00    -0.258 N  
HETATM   10  C   UNL     1     -10.448  12.361  67.392  1.00  0.00    -0.215 C  
ENDROOT
BRANCH   4  11
HETATM   11  C   UNL     1     -10.982   9.836  70.770  1.00  0.00    -0.336 C  
HETATM   12  C   UNL     1     -12.036   8.749  70.587  1.00  0.00    -0.078 C  
HETATM   13  O   UNL     1      -9.766   9.146  71.120  1.00  0.00    -0.269 OA 
HETATM   14  C   UNL     1     -11.629   7.716  71.613  1.00  0.00    -0.267 C  
HETATM   15  C   UNL     1     -10.103   7.840  71.639  1.00  0.00    -0.185 C  
BRANCH  14  16
HETATM   16  N   UNL     1     -12.162   8.106  72.935  1.00  0.00    -0.636 NA 
HETATM   17  H   UNL     1     -11.608   8.020  73.787  1.00  0.00     0.000 HD 
BRANCH  16  18
HETATM   18  N   UNL     1     -13.327   8.545  72.945  1.00  0.00    -0.115 NA 
HETATM   19  N   UNL     1     -14.391   8.952  72.957  1.00  0.00    -1.154 NA 
HETATM   20  H1  UNL     1     -15.345   9.312  72.965  1.00  0.00     0.000 HD 
HETATM   21  H2  UNL     1     -14.054   9.805  73.404  1.00  0.00     0.000 HD 
ENDBRANCH  16  18
ENDBRANCH  14  16
BRANCH  15  22
HETATM   22  C   UNL     1      -9.398   6.786  70.779  1.00  0.00    -0.161 C  
HETATM   23  H   UNL     1      -9.823   5.033  69.960  1.00  0.00     0.000 HD 
HETATM   24  O   UNL     1     -10.260   5.687  70.494  1.00  0.00    -0.200 OA 
ENDBRANCH  15  22
ENDBRANCH   4  11
TORSDOF 4
ENDMDL
MODEL       74
REMARK 921   NORMALIZED FREE ENERGY PREDICTED BY IDOCK:   -4.35 KCAL/MOL
REMARK 922        TOTAL FREE ENERGY PREDICTED BY IDOCK:   -5.88 KCAL/MOL
REMARK 923 INTER-LIGAND FREE ENERGY PREDICTED BY IDOCK:   -5.43 KCAL/MOL
REMARK 924 INTRA-LIGAND FREE ENERGY PREDICTED BY IDOCK:   -0.45 KCAL/MOL
REMARK 927      BINDING AFFINITY PREDICTED BY RF-SCORE:    0.00 PKD
ROOT
HETATM    1  C   UNL     1     -10.580  16.862  69.367  1.00  0.00    -0.292 C  
HETATM    2  C   UNL     1     -11.035  15.442  69.450  1.00  0.00    -0.276 C  
HETATM    3  C   UNL     1     -10.703  14.487  68.573  1.00  0.00    -0.250 C  
HETATM    4  N   UNL     1     -11.160  13.184  68.675  1.00  0.00    -0.257 N  
HETATM    5  C   UNL     1     -11.933  12.779  69.757  1.00  0.00    -0.292 C  
HETATM    6  O   UNL     1     -12.293  15.895  71.406  1.00  0.00    -0.423 OA 
HETATM    7  O   UNL     1     -12.328  11.626  69.932  1.00  0.00    -0.239 OA 
HETATM    8  H   UNL     1     -12.823  13.472  71.459  1.00  0.00     0.000 HD 
HETATM    9  N   UNL     1     -12.261  13.755  70.656  1.00  0.00    -0.352 N  
HETATM   10  C   UNL     1     -11.911  15.071  70.584  1.00  0.00    -0.318 C  
ENDROOT
BRANCH   4  11
HETATM   11  C   UNL     1     -10.774  12.154  67.709  1.00  0.00    -0.209 C  
HETATM   12  C   UNL     1     -10.170  12.708  66.423  1.00  0.00    -0.263 C  
HETATM   13  O   UNL     1      -9.775  11.275  68.263  1.00  0.00    -0.183 OA 
HETATM   14  C   UNL     1      -9.343  11.548  65.918  1.00  0.00    -0.226 C  
HETATM   15  C   UNL     1      -8.869  10.875  67.209  1.00  0.00    -0.134 C  
BRANCH  14  16
HETATM   16  N   UNL     1     -10.217  10.609  65.184  1.00  0.00    -0.306 NA 
HETATM   17  H   UNL     1     -10.475   9.699  65.566  1.00  0.00     0.000 HD 
BRANCH  16  18
HETATM   18  N   UNL     1     -10.620  10.996  64.071  1.00  0.00    -0.370 NA 
HETATM   19  N   UNL     1     -10.989  11.356  63.055  1.00  0.00    -0.825 NA 
HETATM   20  H1  UNL     1     -11.319  11.673  62.143  1.00  0.00     0.000 HD 
HETATM   21  H2  UNL     1     -10.948  12.320  63.387  1.00  0.00     0.000 HD 
ENDBRANCH  16  18
ENDBRANCH  14  16
BRANCH  15  22
HETATM   22  C   UNL     1      -7.451  11.283  67.616  1.00  0.00    -0.101 C  
HETATM   23  H   UNL     1      -6.491  11.821  69.263  1.00  0.00     0.000 HD 
HETATM   24  O   UNL     1      -7.371  11.567  69.011  1.00  0.00    -0.115 OA 
ENDBRANCH  15  22
ENDBRANCH   4  11
TORSDOF 4
ENDMDL
MODEL       75
REMARK 921   NORMALIZED FREE ENERGY PREDICTED BY IDOCK:   -4.35 KCAL/MOL
REMARK 922        TOTAL FREE ENERGY PREDICTED BY IDOCK:   -5.88 KCAL/MOL
REMARK 923 INTER-LIGAND FREE ENERGY PREDICTED BY IDOCK:   -5.29 KCAL/MOL
REMARK 924 INTRA-LIGAND FREE ENERGY PREDICTED BY IDOCK:   -0.58 KCAL/MOL
REMARK 927      BINDING AFFINITY PREDICTED BY RF-SCORE:    0.00 PKD
ROOT
HETATM    1  C   UNL     1     -11.579  11.890  67.610  1.00  0.00    -0.382 C  
HETATM    2  C   UNL     1     -10.174  12.392  67.538  1.00  0.00    -0.214 C  
HETATM    3  C   UNL     1      -9.835  13.666  67.306  1.00  0.00    -0.241 C  
HETATM    4  N   UNL     1      -8.519  14.089  67.229  1.00  0.00    -0.204 N  
HETATM    5  C   UNL     1      -7.469  13.211  67.474  1.00  0.00    -0.160 C  
HETATM    6  O   UNL     1      -9.313  10.217  67.917  1.00  0.00    -0.137 OA 
HETATM    7  O   UNL     1      -6.281  13.535  67.471  1.00  0.00    -0.255 OA 
HETATM    8  H   UNL     1      -7.061  11.258  67.909  1.00  0.00     0.000 HD 
HETATM    9  N   UNL     1      -7.820  11.913  67.721  1.00  0.00    -0.129 N  
HETATM   10  C   UNL     1      -9.087  11.408  67.740  1.00  0.00    -0.158 C  
ENDROOT
BRANCH   4  11
HETATM   11  C   UNL     1      -8.173  15.490  66.984  1.00  0.00    -0.240 C  
HETATM   12  C   UNL     1      -9.113  16.199  66.016  1.00  0.00    -0.354 C  
HETATM   13  O   UNL     1      -8.222  16.255  68.206  1.00  0.00    -0.163 OA 
HETATM   14  C   UNL     1      -8.946  17.653  66.395  1.00  0.00    -0.231 C  
HETATM   15  C   UNL     1      -8.692  17.588  67.904  1.00  0.00    -0.247 C  
BRANCH  14  16
HETATM   16  N   UNL     1      -7.742  18.195  65.731  1.00  0.00    -0.538 NA 
HETATM   17  H   UNL     1      -7.019  17.589  65.344  1.00  0.00     0.000 HD 
BRANCH  16  18
HETATM   18  N   UNL     1      -7.664  19.436  65.674  1.00  0.00    -0.432 NA 
HETATM   19  N   UNL     1      -7.597  20.572  65.623  1.00  0.00    -0.526 NA 
HETATM   20  H1  UNL     1      -7.533  21.589  65.575  1.00  0.00     0.000 HD 
HETATM   21  H2  UNL     1      -8.535  20.640  66.019  1.00  0.00     0.000 HD 
ENDBRANCH  16  18
ENDBRANCH  14  16
BRANCH  15  22
HETATM   22  C   UNL     1      -9.948  17.853  68.738  1.00  0.00    -0.376 C  
HETATM   23  H   UNL     1     -11.213  16.821  69.860  1.00  0.00     0.000 HD 
HETATM   24  O   UNL     1     -10.433  16.657  69.343  1.00  0.00    -0.308 OA 
ENDBRANCH  15  22
ENDBRANCH   4  11
TORSDOF 4
ENDMDL
MODEL       76
REMARK 921   NORMALIZED FREE ENERGY PREDICTED BY IDOCK:   -4.34 KCAL/MOL
REMARK 922        TOTAL FREE ENERGY PREDICTED BY IDOCK:   -5.86 KCAL/MOL
REMARK 923 INTER-LIGAND FREE ENERGY PREDICTED BY IDOCK:   -6.28 KCAL/MOL
REMARK 924 INTRA-LIGAND FREE ENERGY PREDICTED BY IDOCK:    0.42 KCAL/MOL
REMARK 927      BINDING AFFINITY PREDICTED BY RF-SCORE:    0.00 PKD
ROOT
HETATM    1  C   UNL     1     -10.803   8.822  71.725  1.00  0.00    -0.416 C  
HETATM    2  C   UNL     1     -11.112   9.725  70.578  1.00  0.00    -0.384 C  
HETATM    3  C   UNL     1     -11.630  10.954  70.697  1.00  0.00    -0.242 C  
HETATM    4  N   UNL     1     -11.918  11.755  69.606  1.00  0.00    -0.317 N  
HETATM    5  C   UNL     1     -11.603  11.348  68.315  1.00  0.00    -0.306 C  
HETATM    6  O   UNL     1     -10.384   8.095  69.019  1.00  0.00    -0.214 OA 
HETATM    7  O   UNL     1     -11.787  12.032  67.309  1.00  0.00    -0.556 OA 
HETATM    8  H   UNL     1     -10.822   9.785  67.257  1.00  0.00     0.000 HD 
HETATM    9  N   UNL     1     -11.065  10.096  68.198  1.00  0.00    -0.258 N  
HETATM   10  C   UNL     1     -10.821   9.222  69.216  1.00  0.00    -0.152 C  
ENDROOT
BRANCH   4  11
HETATM   11  C   UNL     1     -12.475  13.100  69.763  1.00  0.00     0.021 C  
HETATM   12  C   UNL     1     -11.867  13.889  70.918  1.00  0.00    -0.204 C  
HETATM   13  O   UNL     1     -12.245  13.895  68.583  1.00  0.00    -0.345 OA 
HETATM   14  C   UNL     1     -12.117  15.323  70.508  1.00  0.00    -0.354 C  
HETATM   15  C   UNL     1     -12.017  15.266  68.981  1.00  0.00    -0.276 C  
BRANCH  14  16
HETATM   16  N   UNL     1     -13.495  15.704  70.882  1.00  0.00    -0.769 NA 
HETATM   17  H   UNL     1     -14.221  15.860  70.183  1.00  0.00     0.000 HD 
BRANCH  16  18
HETATM   18  N   UNL     1     -13.716  15.822  72.101  1.00  0.00    -0.430 NA 
HETATM   19  N   UNL     1     -13.924  15.928  73.217  1.00  0.00    -0.624 NA 
HETATM   20  H1  UNL     1     -14.105  16.025  74.216  1.00  0.00     0.000 HD 
HETATM   21  H2  UNL     1     -14.887  15.629  73.061  1.00  0.00     0.000 HD 
ENDBRANCH  16  18
ENDBRANCH  14  16
BRANCH  15  22
HETATM   22  C   UNL     1     -10.646  15.697  68.451  1.00  0.00    -0.252 C  
HETATM   23  H   UNL     1      -8.886  14.868  68.081  1.00  0.00     0.000 HD 
HETATM   24  O   UNL     1      -9.737  14.601  68.409  1.00  0.00    -0.205 OA 
ENDBRANCH  15  22
ENDBRANCH   4  11
TORSDOF 4
ENDMDL
MODEL       77
REMARK 921   NORMALIZED FREE ENERGY PREDICTED BY IDOCK:   -4.33 KCAL/MOL
REMARK 922        TOTAL FREE ENERGY PREDICTED BY IDOCK:   -5.85 KCAL/MOL
REMARK 923 INTER-LIGAND FREE ENERGY PREDICTED BY IDOCK:   -5.34 KCAL/MOL
REMARK 924 INTRA-LIGAND FREE ENERGY PREDICTED BY IDOCK:   -0.50 KCAL/MOL
REMARK 927      BINDING AFFINITY PREDICTED BY RF-SCORE:    0.00 PKD
ROOT
HETATM    1  C   UNL     1      -8.580  17.913  67.730  1.00  0.00    -0.242 C  
HETATM    2  C   UNL     1      -8.134  16.492  67.622  1.00  0.00    -0.177 C  
HETATM    3  C   UNL     1      -8.958  15.448  67.473  1.00  0.00    -0.183 C  
HETATM    4  N   UNL     1      -8.506  14.141  67.393  1.00  0.00    -0.192 N  
HETATM    5  C   UNL     1      -7.146  13.854  67.383  1.00  0.00    -0.070 C  
HETATM    6  O   UNL     1      -5.862  17.123  67.857  1.00  0.00    -0.118 OA 
HETATM    7  O   UNL     1      -6.680  12.721  67.264  1.00  0.00    -0.158 OA 
HETATM    8  H   UNL     1      -5.306  14.729  67.512  1.00  0.00     0.000 HD 
HETATM    9  N   UNL     1      -6.308  14.924  67.525  1.00  0.00    -0.116 N  
HETATM   10  C   UNL     1      -6.679  16.227  67.682  1.00  0.00    -0.145 C  
ENDROOT
BRANCH   4  11
HETATM   11  C   UNL     1      -9.427  13.017  67.219  1.00  0.00    -0.224 C  
HETATM   12  C   UNL     1     -10.841  13.292  67.722  1.00  0.00    -0.268 C  
HETATM   13  O   UNL     1      -9.567  12.675  65.826  1.00  0.00    -0.215 OA 
HETATM   14  C   UNL     1     -11.673  12.317  66.921  1.00  0.00    -0.334 C  
HETATM   15  C   UNL     1     -10.925  12.242  65.586  1.00  0.00    -0.299 C  
BRANCH  14  16
HETATM   16  N   UNL     1     -11.627  10.989  67.568  1.00  0.00    -0.543 NA 
HETATM   17  H   UNL     1     -11.142  10.198  67.145  1.00  0.00     0.000 HD 
BRANCH  16  18
HETATM   18  N   UNL     1     -12.216  10.895  68.661  1.00  0.00    -0.474 NA 
HETATM   19  N   UNL     1     -12.759  10.812  69.659  1.00  0.00    -0.528 NA 
HETATM   20  H1  UNL     1     -13.242  10.735  70.554  1.00  0.00     0.000 HD 
HETATM   21  H2  UNL     1     -13.499  11.417  69.301  1.00  0.00     0.000 HD 
ENDBRANCH  16  18
ENDBRANCH  14  16
BRANCH  15  22
HETATM   22  C   UNL     1     -11.531  13.142  64.505  1.00  0.00    -0.353 C  
HETATM   23  H   UNL     1     -13.309  13.477  63.697  1.00  0.00     0.000 HD 
HETATM   24  O   UNL     1     -12.933  12.919  64.368  1.00  0.00    -0.705 OA 
ENDBRANCH  15  22
ENDBRANCH   4  11
TORSDOF 4
ENDMDL
MODEL       78
REMARK 921   NORMALIZED FREE ENERGY PREDICTED BY IDOCK:   -4.32 KCAL/MOL
REMARK 922        TOTAL FREE ENERGY PREDICTED BY IDOCK:   -5.84 KCAL/MOL
REMARK 923 INTER-LIGAND FREE ENERGY PREDICTED BY IDOCK:   -5.36 KCAL/MOL
REMARK 924 INTRA-LIGAND FREE ENERGY PREDICTED BY IDOCK:   -0.48 KCAL/MOL
REMARK 927      BINDING AFFINITY PREDICTED BY RF-SCORE:    0.00 PKD
ROOT
HETATM    1  C   UNL     1     -10.010   6.477  70.846  1.00  0.00    -0.204 C  
HETATM    2  C   UNL     1     -10.535   7.867  70.703  1.00  0.00    -0.216 C  
HETATM    3  C   UNL     1     -10.495   8.580  69.571  1.00  0.00    -0.220 C  
HETATM    4  N   UNL     1     -10.978   9.875  69.482  1.00  0.00    -0.239 N  
HETATM    5  C   UNL     1     -11.613  10.477  70.563  1.00  0.00    -0.350 C  
HETATM    6  O   UNL     1     -11.184   7.922  72.981  1.00  0.00    -0.411 OA 
HETATM    7  O   UNL     1     -12.108  11.604  70.534  1.00  0.00    -0.361 OA 
HETATM    8  H   UNL     1     -12.130  10.167  72.514  1.00  0.00     0.000 HD 
HETATM    9  N   UNL     1     -11.662   9.741  71.714  1.00  0.00    -0.314 N  
HETATM   10  C   UNL     1     -11.144   8.493  71.898  1.00  0.00    -0.325 C  
ENDROOT
BRANCH   4  11
HETATM   11  C   UNL     1     -10.932  10.631  68.230  1.00  0.00    -0.263 C  
HETATM   12  C   UNL     1      -9.641  11.416  68.028  1.00  0.00    -0.184 C  
HETATM   13  O   UNL     1     -11.037   9.751  67.092  1.00  0.00    -0.139 OA 
HETATM   14  C   UNL     1      -9.578  11.571  66.526  1.00  0.00    -0.205 C  
HETATM   15  C   UNL     1     -10.224  10.278  66.019  1.00  0.00    -0.228 C  
BRANCH  14  16
HETATM   16  N   UNL     1     -10.419  12.715  66.118  1.00  0.00    -0.253 NA 
HETATM   17  H   UNL     1     -11.052  13.180  66.768  1.00  0.00     0.000 HD 
BRANCH  16  18
HETATM   18  N   UNL     1     -10.306  13.079  64.932  1.00  0.00    -0.325 NA 
HETATM   19  N   UNL     1     -10.201  13.406  63.846  1.00  0.00    -0.691 NA 
HETATM   20  H1  UNL     1     -10.109  13.704  62.875  1.00  0.00     0.000 HD 
HETATM   21  H2  UNL     1      -9.762  12.513  63.625  1.00  0.00     0.000 HD 
ENDBRANCH  16  18
ENDBRANCH  14  16
BRANCH  15  22
HETATM   22  C   UNL     1      -9.201   9.208  65.624  1.00  0.00    -0.234 C  
HETATM   23  H   UNL     1      -8.317   8.558  63.975  1.00  0.00     0.000 HD 
HETATM   24  O   UNL     1      -8.951   9.222  64.221  1.00  0.00    -0.193 OA 
ENDBRANCH  15  22
ENDBRANCH   4  11
TORSDOF 4
ENDMDL
MODEL       79
REMARK 921   NORMALIZED FREE ENERGY PREDICTED BY IDOCK:   -4.29 KCAL/MOL
REMARK 922        TOTAL FREE ENERGY PREDICTED BY IDOCK:   -5.81 KCAL/MOL
REMARK 923 INTER-LIGAND FREE ENERGY PREDICTED BY IDOCK:   -5.29 KCAL/MOL
REMARK 924 INTRA-LIGAND FREE ENERGY PREDICTED BY IDOCK:   -0.52 KCAL/MOL
REMARK 927      BINDING AFFINITY PREDICTED BY RF-SCORE:    0.00 PKD
ROOT
HETATM    1  C   UNL     1     -10.586   6.060  69.729  1.00  0.00    -0.356 C  
HETATM    2  C   UNL     1     -11.113   7.411  70.085  1.00  0.00    -0.265 C  
HETATM    3  C   UNL     1     -10.908   8.520  69.363  1.00  0.00    -0.091 C  
HETATM    4  N   UNL     1     -11.399   9.760  69.735  1.00  0.00    -0.201 N  
HETATM    5  C   UNL     1     -12.212   9.901  70.854  1.00  0.00    -0.328 C  
HETATM    6  O   UNL     1     -12.118   6.568  72.058  1.00  0.00    -0.328 OA 
HETATM    7  O   UNL     1     -12.720  10.963  71.210  1.00  0.00    -0.380 OA 
HETATM    8  H   UNL     1     -13.027   8.851  72.404  1.00  0.00     0.000 HD 
HETATM    9  N   UNL     1     -12.427   8.764  71.584  1.00  0.00    -0.323 N  
HETATM   10  C   UNL     1     -11.918   7.526  71.321  1.00  0.00    -0.307 C  
ENDROOT
BRANCH   4  11
HETATM   11  C   UNL     1     -11.170  10.955  68.922  1.00  0.00    -0.267 C  
HETATM   12  C   UNL     1      -9.705  11.365  68.824  1.00  0.00    -0.155 C  
HETATM   13  O   UNL     1     -11.610  10.748  67.565  1.00  0.00    -0.510 OA 
HETATM   14  C   UNL     1      -9.667  12.158  67.537  1.00  0.00    -0.185 C  
HETATM   15  C   UNL     1     -10.723  11.461  66.673  1.00  0.00    -0.269 C  
BRANCH  14  16
HETATM   16  N   UNL     1     -10.109  13.542  67.804  1.00  0.00    -0.231 NA 
HETATM   17  H   UNL     1     -10.910  13.955  67.327  1.00  0.00     0.000 HD 
BRANCH  16  18
HETATM   18  N   UNL     1      -9.444  14.174  68.646  1.00  0.00    -0.195 NA 
HETATM   19  N   UNL     1      -8.830  14.748  69.416  1.00  0.00    -0.412 NA 
HETATM   20  H1  UNL     1      -8.285  15.265  70.106  1.00  0.00     0.000 HD 
HETATM   21  H2  UNL     1      -8.068  14.080  69.299  1.00  0.00     0.000 HD 
ENDBRANCH  16  18
ENDBRANCH  14  16
BRANCH  15  22
HETATM   22  C   UNL     1     -10.123  10.453  65.688  1.00  0.00    -0.269 C  
HETATM   23  H   UNL     1      -9.969   8.486  65.507  1.00  0.00     0.000 HD 
HETATM   24  O   UNL     1     -10.341   9.112  66.119  1.00  0.00    -0.221 OA 
ENDBRANCH  15  22
ENDBRANCH   4  11
TORSDOF 4
ENDMDL
MODEL       80
REMARK 921   NORMALIZED FREE ENERGY PREDICTED BY IDOCK:   -4.29 KCAL/MOL
REMARK 922        TOTAL FREE ENERGY PREDICTED BY IDOCK:   -5.81 KCAL/MOL
REMARK 923 INTER-LIGAND FREE ENERGY PREDICTED BY IDOCK:   -5.26 KCAL/MOL
REMARK 924 INTRA-LIGAND FREE ENERGY PREDICTED BY IDOCK:   -0.55 KCAL/MOL
REMARK 927      BINDING AFFINITY PREDICTED BY RF-SCORE:    0.00 PKD
ROOT
HETATM    1  C   UNL     1      -6.080   6.140  68.941  1.00  0.00    -0.028 C  
HETATM    2  C   UNL     1      -7.378   6.700  68.462  1.00  0.00    -0.087 C  
HETATM    3  C   UNL     1      -8.424   6.972  69.251  1.00  0.00    -0.133 C  
HETATM    4  N   UNL     1      -9.620   7.475  68.766  1.00  0.00    -0.148 N  
HETATM    5  C   UNL     1      -9.765   7.804  67.423  1.00  0.00    -0.163 C  
HETATM    6  O   UNL     1      -6.614   6.715  66.219  1.00  0.00    -0.042 OA 
HETATM    7  O   UNL     1     -10.781   8.301  66.938  1.00  0.00    -0.299 OA 
HETATM    8  H   UNL     1      -8.779   7.777  65.635  1.00  0.00     0.000 HD 
HETATM    9  N   UNL     1      -8.690   7.534  66.622  1.00  0.00    -0.132 N  
HETATM   10  C   UNL     1      -7.510   6.973  67.013  1.00  0.00    -0.094 C  
ENDROOT
BRANCH   4  11
HETATM   11  C   UNL     1     -10.746   7.774  69.652  1.00  0.00    -0.223 C  
HETATM   12  C   UNL     1     -11.521   6.542  70.105  1.00  0.00    -0.477 C  
HETATM   13  O   UNL     1     -10.295   8.419  70.860  1.00  0.00    -0.189 OA 
HETATM   14  C   UNL     1     -12.163   7.008  71.391  1.00  0.00    -0.366 C  
HETATM   15  C   UNL     1     -11.127   7.983  71.959  1.00  0.00    -0.293 C  
BRANCH  14  16
HETATM   16  N   UNL     1     -13.399   7.755  71.078  1.00  0.00    -0.564 NA 
HETATM   17  H   UNL     1     -13.816   7.743  70.147  1.00  0.00     0.000 HD 
BRANCH  16  18
HETATM   18  N   UNL     1     -13.899   8.400  72.018  1.00  0.00    -0.387 NA 
HETATM   19  N   UNL     1     -14.352   8.989  72.881  1.00  0.00    -1.108 NA 
HETATM   20  H1  UNL     1     -14.762   9.517  73.652  1.00  0.00     0.000 HD 
HETATM   21  H2  UNL     1     -13.534   8.774  73.451  1.00  0.00     0.000 HD 
ENDBRANCH  16  18
ENDBRANCH  14  16
BRANCH  15  22
HETATM   22  C   UNL     1     -10.223   7.349  73.022  1.00  0.00    -0.286 C  
HETATM   23  H   UNL     1     -10.296   5.842  74.305  1.00  0.00     0.000 HD 
HETATM   24  O   UNL     1     -10.857   6.235  73.645  1.00  0.00    -0.242 OA 
ENDBRANCH  15  22
ENDBRANCH   4  11
TORSDOF 4
ENDMDL
MODEL       81
REMARK 921   NORMALIZED FREE ENERGY PREDICTED BY IDOCK:   -4.27 KCAL/MOL
REMARK 922        TOTAL FREE ENERGY PREDICTED BY IDOCK:   -5.78 KCAL/MOL
REMARK 923 INTER-LIGAND FREE ENERGY PREDICTED BY IDOCK:   -6.40 KCAL/MOL
REMARK 924 INTRA-LIGAND FREE ENERGY PREDICTED BY IDOCK:    0.61 KCAL/MOL
REMARK 927      BINDING AFFINITY PREDICTED BY RF-SCORE:    0.00 PKD
ROOT
HETATM    1  C   UNL     1     -11.681  11.856  65.712  1.00  0.00    -0.210 C  
HETATM    2  C   UNL     1     -11.543  13.323  65.469  1.00  0.00    -0.351 C  
HETATM    3  C   UNL     1     -10.925  14.174  66.296  1.00  0.00    -0.303 C  
HETATM    4  N   UNL     1     -10.832  15.533  66.044  1.00  0.00    -0.319 N  
HETATM    5  C   UNL     1     -11.315  16.074  64.858  1.00  0.00    -0.229 C  
HETATM    6  O   UNL     1     -12.747  13.161  63.435  1.00  0.00    -0.697 OA 
HETATM    7  O   UNL     1     -11.220  17.262  64.551  1.00  0.00    -1.083 OA 
HETATM    8  H   UNL     1     -12.291  15.581  63.133  1.00  0.00     0.000 HD 
HETATM    9  N   UNL     1     -11.937  15.199  64.011  1.00  0.00    -0.169 N  
HETATM   10  C   UNL     1     -12.131  13.866  64.224  1.00  0.00    -0.440 C  
ENDROOT
BRANCH   4  11
HETATM   11  C   UNL     1     -10.141  16.442  66.960  1.00  0.00    -0.272 C  
HETATM   12  C   UNL     1     -10.921  17.714  67.274  1.00  0.00    -0.024 C  
HETATM   13  O   UNL     1      -9.899  15.807  68.231  1.00  0.00    -0.210 OA 
HETATM   14  C   UNL     1     -10.344  18.136  68.606  1.00  0.00    -0.298 C  
HETATM   15  C   UNL     1     -10.013  16.799  69.277  1.00  0.00    -0.206 C  
BRANCH  14  16
HETATM   16  N   UNL     1      -9.088  18.879  68.380  1.00  0.00    -0.331 NA 
HETATM   17  H   UNL     1      -9.083  19.855  68.082  1.00  0.00     0.000 HD 
BRANCH  16  18
HETATM   18  N   UNL     1      -8.036  18.244  68.575  1.00  0.00    -0.304 NA 
HETATM   19  N   UNL     1      -7.071  17.665  68.759  1.00  0.00    -0.254 NA 
HETATM   20  H1  UNL     1      -6.209  17.144  68.919  1.00  0.00     0.000 HD 
HETATM   21  H2  UNL     1      -6.902  18.222  69.597  1.00  0.00     0.000 HD 
ENDBRANCH  16  18
ENDBRANCH  14  16
BRANCH  15  22
HETATM   22  C   UNL     1     -11.092  16.335  70.260  1.00  0.00    -0.332 C  
HETATM   23  H   UNL     1     -12.790  15.317  70.207  1.00  0.00     0.000 HD 
HETATM   24  O   UNL     1     -12.121  15.604  69.597  1.00  0.00    -0.364 OA 
ENDBRANCH  15  22
ENDBRANCH   4  11
TORSDOF 4
ENDMDL
MODEL       82
REMARK 921   NORMALIZED FREE ENERGY PREDICTED BY IDOCK:   -4.27 KCAL/MOL
REMARK 922        TOTAL FREE ENERGY PREDICTED BY IDOCK:   -5.78 KCAL/MOL
REMARK 923 INTER-LIGAND FREE ENERGY PREDICTED BY IDOCK:   -5.58 KCAL/MOL
REMARK 924 INTRA-LIGAND FREE ENERGY PREDICTED BY IDOCK:   -0.21 KCAL/MOL
REMARK 927      BINDING AFFINITY PREDICTED BY RF-SCORE:    0.00 PKD
ROOT
HETATM    1  C   UNL     1     -11.013   7.866  70.192  1.00  0.00    -0.235 C  
HETATM    2  C   UNL     1     -11.353   9.319  70.259  1.00  0.00    -0.238 C  
HETATM    3  C   UNL     1     -10.934  10.237  69.381  1.00  0.00    -0.247 C  
HETATM    4  N   UNL     1     -11.257  11.580  69.487  1.00  0.00    -0.253 N  
HETATM    5  C   UNL     1     -12.115  12.032  70.483  1.00  0.00    -0.311 C  
HETATM    6  O   UNL     1     -12.610   8.996  72.242  1.00  0.00    -0.380 OA 
HETATM    7  O   UNL     1     -12.481  13.201  70.601  1.00  0.00    -0.338 OA 
HETATM    8  H   UNL     1     -13.186  11.405  72.104  1.00  0.00     0.000 HD 
HETATM    9  N   UNL     1     -12.550  11.089  71.372  1.00  0.00    -0.399 N  
HETATM   10  C   UNL     1     -12.217   9.767  71.375  1.00  0.00    -0.397 C  
ENDROOT
BRANCH   4  11
HETATM   11  C   UNL     1     -10.794  12.563  68.507  1.00  0.00    -0.243 C  
HETATM   12  C   UNL     1      -9.680  12.055  67.599  1.00  0.00    -0.187 C  
HETATM   13  O   UNL     1     -11.865  12.960  67.628  1.00  0.00    -0.356 OA 
HETATM   14  C   UNL     1      -9.814  12.940  66.381  1.00  0.00    -0.268 C  
HETATM   15  C   UNL     1     -11.322  13.200  66.310  1.00  0.00    -0.315 C  
BRANCH  14  16
HETATM   16  N   UNL     1      -9.120  14.221  66.630  1.00  0.00    -0.371 NA 
HETATM   17  H   UNL     1      -9.505  15.113  66.320  1.00  0.00     0.000 HD 
BRANCH  16  18
HETATM   18  N   UNL     1      -8.039  14.145  67.242  1.00  0.00    -0.188 NA 
HETATM   19  N   UNL     1      -7.051  14.075  67.806  1.00  0.00    -0.158 NA 
HETATM   20  H1  UNL     1      -6.165  14.013  68.307  1.00  0.00     0.000 HD 
HETATM   21  H2  UNL     1      -7.560  14.114  68.690  1.00  0.00     0.000 HD 
ENDBRANCH  16  18
ENDBRANCH  14  16
BRANCH  15  22
HETATM   22  C   UNL     1     -12.045  12.284  65.319  1.00  0.00    -0.297 C  
HETATM   23  H   UNL     1     -12.579  12.311  63.412  1.00  0.00     0.000 HD 
HETATM   24  O   UNL     1     -12.130  12.879  64.027  1.00  0.00    -0.397 OA 
ENDBRANCH  15  22
ENDBRANCH   4  11
TORSDOF 4
ENDMDL
MODEL       83
REMARK 921   NORMALIZED FREE ENERGY PREDICTED BY IDOCK:   -4.22 KCAL/MOL
REMARK 922        TOTAL FREE ENERGY PREDICTED BY IDOCK:   -5.72 KCAL/MOL
REMARK 923 INTER-LIGAND FREE ENERGY PREDICTED BY IDOCK:   -5.27 KCAL/MOL
REMARK 924 INTRA-LIGAND FREE ENERGY PREDICTED BY IDOCK:   -0.44 KCAL/MOL
REMARK 927      BINDING AFFINITY PREDICTED BY RF-SCORE:    0.00 PKD
ROOT
HETATM    1  C   UNL     1     -13.056  11.561  64.169  1.00  0.00     0.756 C  
HETATM    2  C   UNL     1     -12.462  12.732  64.878  1.00  0.00    -0.563 C  
HETATM    3  C   UNL     1     -12.194  12.770  66.189  1.00  0.00    -0.271 C  
HETATM    4  N   UNL     1     -11.657  13.883  66.813  1.00  0.00    -0.358 N  
HETATM    5  C   UNL     1     -11.289  15.006  66.082  1.00  0.00    -0.270 C  
HETATM    6  O   UNL     1     -12.399  13.992  62.872  1.00  0.00    -0.423 OA 
HETATM    7  O   UNL     1     -10.762  16.007  66.568  1.00  0.00    -0.306 OA 
HETATM    8  H   UNL     1     -11.285  15.775  64.190  1.00  0.00     0.000 HD 
HETATM    9  N   UNL     1     -11.555  14.960  64.741  1.00  0.00    -0.412 N  
HETATM   10  C   UNL     1     -12.147  13.932  64.069  1.00  0.00    -0.396 C  
ENDROOT
BRANCH   4  11
HETATM   11  C   UNL     1     -11.363  13.895  68.247  1.00  0.00    -0.294 C  
HETATM   12  C   UNL     1     -12.510  14.410  69.110  1.00  0.00    -0.010 C  
HETATM   13  O   UNL     1     -11.079  12.566  68.727  1.00  0.00    -0.245 OA 
HETATM   14  C   UNL     1     -12.225  13.777  70.453  1.00  0.00    -0.363 C  
HETATM   15  C   UNL     1     -11.588  12.437  70.074  1.00  0.00    -0.138 C  
BRANCH  14  16
HETATM   16  N   UNL     1     -11.226  14.593  71.174  1.00  0.00    -0.527 NA 
HETATM   17  H   UNL     1     -10.243  14.609  70.902  1.00  0.00     0.000 HD 
BRANCH  16  18
HETATM   18  N   UNL     1     -11.657  15.261  72.132  1.00  0.00    -0.444 NA 
HETATM   19  N   UNL     1     -12.052  15.876  73.006  1.00  0.00    -0.474 NA 
HETATM   20  H1  UNL     1     -12.405  16.423  73.791  1.00  0.00     0.000 HD 
HETATM   21  H2  UNL     1     -12.091  16.698  72.403  1.00  0.00     0.000 HD 
ENDBRANCH  16  18
ENDBRANCH  14  16
BRANCH  15  22
HETATM   22  C   UNL     1     -12.579  11.270  70.101  1.00  0.00    -0.135 C  
HETATM   23  H   UNL     1     -13.619  10.256  71.448  1.00  0.00     0.000 HD 
HETATM   24  O   UNL     1     -13.004  10.980  71.431  1.00  0.00    -0.400 OA 
ENDBRANCH  15  22
ENDBRANCH   4  11
TORSDOF 4
ENDMDL
MODEL       84
REMARK 921   NORMALIZED FREE ENERGY PREDICTED BY IDOCK:   -4.20 KCAL/MOL
REMARK 922        TOTAL FREE ENERGY PREDICTED BY IDOCK:   -5.70 KCAL/MOL
REMARK 923 INTER-LIGAND FREE ENERGY PREDICTED BY IDOCK:   -5.30 KCAL/MOL
REMARK 924 INTRA-LIGAND FREE ENERGY PREDICTED BY IDOCK:   -0.40 KCAL/MOL
REMARK 927      BINDING AFFINITY PREDICTED BY RF-SCORE:    0.00 PKD
ROOT
HETATM    1  C   UNL     1     -12.985  10.700  71.853  1.00  0.00    -0.542 C  
HETATM    2  C   UNL     1     -12.120   9.770  71.068  1.00  0.00    -0.434 C  
HETATM    3  C   UNL     1     -11.590  10.054  69.872  1.00  0.00    -0.175 C  
HETATM    4  N   UNL     1     -10.806   9.157  69.167  1.00  0.00    -0.165 N  
HETATM    5  C   UNL     1     -10.458   7.927  69.713  1.00  0.00    -0.233 C  
HETATM    6  O   UNL     1     -12.309   8.092  72.732  1.00  0.00    -0.259 OA 
HETATM    7  O   UNL     1      -9.725   7.107  69.161  1.00  0.00    -0.157 OA 
HETATM    8  H   UNL     1     -10.741   6.748  71.357  1.00  0.00     0.000 HD 
HETATM    9  N   UNL     1     -10.993   7.644  70.940  1.00  0.00    -0.246 N  
HETATM   10  C   UNL     1     -11.830   8.444  71.660  1.00  0.00    -0.304 C  
ENDROOT
BRANCH   4  11
HETATM   11  C   UNL     1     -10.230   9.495  67.865  1.00  0.00    -0.205 C  
HETATM   12  C   UNL     1     -10.893  10.688  67.185  1.00  0.00    -0.328 C  
HETATM   13  O   UNL     1      -8.837   9.844  67.992  1.00  0.00    -0.125 OA 
HETATM   14  C   UNL     1      -9.810  11.188  66.258  1.00  0.00    -0.214 C  
HETATM   15  C   UNL     1      -8.525  10.879  67.033  1.00  0.00    -0.134 C  
BRANCH  14  16
HETATM   16  N   UNL     1      -9.822  10.386  65.017  1.00  0.00    -0.297 NA 
HETATM   17  H   UNL     1      -9.430   9.445  64.977  1.00  0.00     0.000 HD 
BRANCH  16  18
HETATM   18  N   UNL     1     -10.340  10.928  64.023  1.00  0.00    -0.364 NA 
HETATM   19  N   UNL     1     -10.817  11.428  63.117  1.00  0.00    -0.789 NA 
HETATM   20  H1  UNL     1     -11.242  11.872  62.303  1.00  0.00     0.000 HD 
HETATM   21  H2  UNL     1     -11.300  12.079  63.737  1.00  0.00     0.000 HD 
ENDBRANCH  16  18
ENDBRANCH  14  16
BRANCH  15  22
HETATM   22  C   UNL     1      -7.976  12.089  67.795  1.00  0.00    -0.147 C  
HETATM   23  H   UNL     1      -8.336  14.033  67.922  1.00  0.00     0.000 HD 
HETATM   24  O   UNL     1      -8.676  13.282  67.450  1.00  0.00    -0.185 OA 
ENDBRANCH  15  22
ENDBRANCH   4  11
TORSDOF 4
ENDMDL
MODEL       85
REMARK 921   NORMALIZED FREE ENERGY PREDICTED BY IDOCK:   -4.20 KCAL/MOL
REMARK 922        TOTAL FREE ENERGY PREDICTED BY IDOCK:   -5.70 KCAL/MOL
REMARK 923 INTER-LIGAND FREE ENERGY PREDICTED BY IDOCK:   -5.23 KCAL/MOL
REMARK 924 INTRA-LIGAND FREE ENERGY PREDICTED BY IDOCK:   -0.47 KCAL/MOL
REMARK 927      BINDING AFFINITY PREDICTED BY RF-SCORE:    0.00 PKD
ROOT
HETATM    1  C   UNL     1     -10.021   4.797  69.147  1.00  0.00    -0.233 C  
HETATM    2  C   UNL     1      -9.612   5.902  70.064  1.00  0.00    -0.200 C  
HETATM    3  C   UNL     1     -10.161   7.123  70.073  1.00  0.00    -0.188 C  
HETATM    4  N   UNL     1      -9.742   8.128  70.928  1.00  0.00    -0.164 N  
HETATM    5  C   UNL     1      -8.769   7.888  71.892  1.00  0.00    -0.129 C  
HETATM    6  O   UNL     1      -7.945   4.543  71.059  1.00  0.00    -0.074 OA 
HETATM    7  O   UNL     1      -8.389   8.722  72.713  1.00  0.00    -0.412 OA 
HETATM    8  H   UNL     1      -7.508   6.443  72.593  1.00  0.00     0.000 HD 
HETATM    9  N   UNL     1      -8.218   6.637  71.887  1.00  0.00    -0.103 N  
HETATM   10  C   UNL     1      -8.526   5.621  71.030  1.00  0.00    -0.122 C  
ENDROOT
BRANCH   4  11
HETATM   11  C   UNL     1     -10.366   9.452  70.925  1.00  0.00    -0.310 C  
HETATM   12  C   UNL     1     -11.006   9.832  69.594  1.00  0.00    -0.269 C  
HETATM   13  O   UNL     1     -11.423   9.527  71.902  1.00  0.00    -0.355 OA 
HETATM   14  C   UNL     1     -12.037  10.858  70.002  1.00  0.00    -0.355 C  
HETATM   15  C   UNL     1     -12.475  10.374  71.387  1.00  0.00    -0.415 C  
BRANCH  14  16
HETATM   16  N   UNL     1     -11.384  12.177  70.143  1.00  0.00    -0.479 NA 
HETATM   17  H   UNL     1     -10.373  12.271  70.238  1.00  0.00     0.000 HD 
BRANCH  16  18
HETATM   18  N   UNL     1     -12.143  13.164  70.138  1.00  0.00    -0.345 NA 
HETATM   19  N   UNL     1     -12.840  14.065  70.130  1.00  0.00    -0.329 NA 
HETATM   20  H1  UNL     1     -13.461  14.874  70.126  1.00  0.00     0.000 HD 
HETATM   21  H2  UNL     1     -13.350  13.657  69.346  1.00  0.00     0.000 HD 
ENDBRANCH  16  18
ENDBRANCH  14  16
BRANCH  15  22
HETATM   22  C   UNL     1     -13.773   9.561  71.358  1.00  0.00    -0.226 C  
HETATM   23  H   UNL     1     -14.914   8.566  72.636  1.00  0.00     0.000 HD 
HETATM   24  O   UNL     1     -14.109   9.071  72.654  1.00  0.00    -0.516 OA 
ENDBRANCH  15  22
ENDBRANCH   4  11
TORSDOF 4
ENDMDL
MODEL       86
REMARK 921   NORMALIZED FREE ENERGY PREDICTED BY IDOCK:   -4.19 KCAL/MOL
REMARK 922        TOTAL FREE ENERGY PREDICTED BY IDOCK:   -5.68 KCAL/MOL
REMARK 923 INTER-LIGAND FREE ENERGY PREDICTED BY IDOCK:   -5.88 KCAL/MOL
REMARK 924 INTRA-LIGAND FREE ENERGY PREDICTED BY IDOCK:    0.20 KCAL/MOL
REMARK 927      BINDING AFFINITY PREDICTED BY RF-SCORE:    0.00 PKD
ROOT
HETATM    1  C   UNL     1     -11.665   8.702  71.555  1.00  0.00    -0.369 C  
HETATM    2  C   UNL     1     -11.390   9.374  70.251  1.00  0.00    -0.261 C  
HETATM    3  C   UNL     1     -11.660  10.658  69.987  1.00  0.00    -0.325 C  
HETATM    4  N   UNL     1     -11.405  11.242  68.758  1.00  0.00    -0.243 N  
HETATM    5  C   UNL     1     -10.771  10.530  67.746  1.00  0.00    -0.272 C  
HETATM    6  O   UNL     1     -10.533   7.367  69.327  1.00  0.00    -0.213 OA 
HETATM    7  O   UNL     1     -10.472  11.004  66.650  1.00  0.00    -0.238 OA 
HETATM    8  H   UNL     1     -10.016   8.688  67.292  1.00  0.00     0.000 HD 
HETATM    9  N   UNL     1     -10.488   9.221  68.022  1.00  0.00    -0.222 N  
HETATM   10  C   UNL     1     -10.774   8.559  69.180  1.00  0.00    -0.110 C  
ENDROOT
BRANCH   4  11
HETATM   11  C   UNL     1     -11.700  12.652  68.498  1.00  0.00    -0.330 C  
HETATM   12  C   UNL     1     -10.462  13.507  68.249  1.00  0.00    -0.258 C  
HETATM   13  O   UNL     1     -12.520  12.799  67.322  1.00  0.00    -0.217 OA 
HETATM   14  C   UNL     1     -11.013  14.663  67.448  1.00  0.00    -0.308 C  
HETATM   15  C   UNL     1     -12.140  14.015  66.638  1.00  0.00    -0.456 C  
BRANCH  14  16
HETATM   16  N   UNL     1     -11.601  15.659  68.368  1.00  0.00    -0.371 NA 
HETATM   17  H   UNL     1     -12.521  15.530  68.788  1.00  0.00     0.000 HD 
BRANCH  16  18
HETATM   18  N   UNL     1     -10.904  16.664  68.601  1.00  0.00    -0.340 NA 
HETATM   19  N   UNL     1     -10.266  17.583  68.819  1.00  0.00    -0.362 NA 
HETATM   20  H1  UNL     1      -9.695  18.406  69.009  1.00  0.00     0.000 HD 
HETATM   21  H2  UNL     1     -10.271  17.345  69.811  1.00  0.00     0.000 HD 
ENDBRANCH  16  18
ENDBRANCH  14  16
BRANCH  15  22
HETATM   22  C   UNL     1     -11.722  13.650  65.210  1.00  0.00    -0.334 C  
HETATM   23  H   UNL     1     -12.488  12.696  63.652  1.00  0.00     0.000 HD 
HETATM   24  O   UNL     1     -12.747  12.923  64.538  1.00  0.00    -0.654 OA 
ENDBRANCH  15  22
ENDBRANCH   4  11
TORSDOF 4
ENDMDL
MODEL       87
REMARK 921   NORMALIZED FREE ENERGY PREDICTED BY IDOCK:   -4.18 KCAL/MOL
REMARK 922        TOTAL FREE ENERGY PREDICTED BY IDOCK:   -5.67 KCAL/MOL
REMARK 923 INTER-LIGAND FREE ENERGY PREDICTED BY IDOCK:   -5.22 KCAL/MOL
REMARK 924 INTRA-LIGAND FREE ENERGY PREDICTED BY IDOCK:   -0.45 KCAL/MOL
REMARK 927      BINDING AFFINITY PREDICTED BY RF-SCORE:    0.00 PKD
ROOT
HETATM    1  C   UNL     1      -9.593   8.956  66.082  1.00  0.00    -0.335 C  
HETATM    2  C   UNL     1      -9.142  10.216  66.744  1.00  0.00    -0.159 C  
HETATM    3  C   UNL     1      -9.699  11.417  66.549  1.00  0.00    -0.200 C  
HETATM    4  N   UNL     1      -9.240  12.567  67.170  1.00  0.00    -0.198 N  
HETATM    5  C   UNL     1      -8.213  12.514  68.106  1.00  0.00    -0.170 C  
HETATM    6  O   UNL     1      -7.412   9.068  67.887  1.00  0.00    -0.084 OA 
HETATM    7  O   UNL     1      -7.794  13.488  68.729  1.00  0.00    -0.118 OA 
HETATM    8  H   UNL     1      -6.903  11.227  68.999  1.00  0.00     0.000 HD 
HETATM    9  N   UNL     1      -7.654  11.282  68.310  1.00  0.00    -0.107 N  
HETATM   10  C   UNL     1      -8.001  10.122  67.684  1.00  0.00    -0.102 C  
ENDROOT
BRANCH   4  11
HETATM   11  C   UNL     1      -9.873  13.868  66.948  1.00  0.00    -0.268 C  
HETATM   12  C   UNL     1      -9.233  14.684  65.831  1.00  0.00    -0.035 C  
HETATM   13  O   UNL     1     -11.256  13.711  66.574  1.00  0.00    -0.302 OA 
HETATM   14  C   UNL     1     -10.354  15.605  65.408  1.00  0.00    -0.393 C  
HETATM   15  C   UNL     1     -11.604  14.748  65.629  1.00  0.00    -0.290 C  
BRANCH  14  16
HETATM   16  N   UNL     1     -10.403  16.765  66.321  1.00  0.00    -0.319 NA 
HETATM   17  H   UNL     1     -10.263  16.668  67.327  1.00  0.00     0.000 HD 
BRANCH  16  18
HETATM   18  N   UNL     1     -10.626  17.869  65.789  1.00  0.00    -0.535 NA 
HETATM   19  N   UNL     1     -10.836  18.878  65.304  1.00  0.00    -0.426 NA 
HETATM   20  H1  UNL     1     -11.018  19.782  64.868  1.00  0.00     0.000 HD 
HETATM   21  H2  UNL     1     -11.825  18.778  65.533  1.00  0.00     0.000 HD 
ENDBRANCH  16  18
ENDBRANCH  14  16
BRANCH  15  22
HETATM   22  C   UNL     1     -12.110  14.079  64.347  1.00  0.00    -0.458 C  
HETATM   23  H   UNL     1     -13.356  12.625  63.841  1.00  0.00     0.000 HD 
HETATM   24  O   UNL     1     -13.043  13.041  64.636  1.00  0.00    -0.723 OA 
ENDBRANCH  15  22
ENDBRANCH   4  11
TORSDOF 4
ENDMDL
MODEL       88
REMARK 921   NORMALIZED FREE ENERGY PREDICTED BY IDOCK:   -4.17 KCAL/MOL
REMARK 922        TOTAL FREE ENERGY PREDICTED BY IDOCK:   -5.65 KCAL/MOL
REMARK 923 INTER-LIGAND FREE ENERGY PREDICTED BY IDOCK:   -5.22 KCAL/MOL
REMARK 924 INTRA-LIGAND FREE ENERGY PREDICTED BY IDOCK:   -0.43 KCAL/MOL
REMARK 927      BINDING AFFINITY PREDICTED BY RF-SCORE:    0.00 PKD
ROOT
HETATM    1  C   UNL     1     -11.495  13.199  66.464  1.00  0.00    -0.378 C  
HETATM    2  C   UNL     1     -11.378  12.151  67.520  1.00  0.00    -0.392 C  
HETATM    3  C   UNL     1     -10.931  10.907  67.308  1.00  0.00    -0.294 C  
HETATM    4  N   UNL     1     -10.853   9.956  68.312  1.00  0.00    -0.242 N  
HETATM    5  C   UNL     1     -11.163  10.278  69.628  1.00  0.00    -0.269 C  
HETATM    6  O   UNL     1     -12.239  13.623  69.165  1.00  0.00    -0.326 OA 
HETATM    7  O   UNL     1     -11.067   9.496  70.573  1.00  0.00    -0.242 OA 
HETATM    8  H   UNL     1     -11.835  11.806  70.805  1.00  0.00     0.000 HD 
HETATM    9  N   UNL     1     -11.610  11.553  69.843  1.00  0.00    -0.312 N  
HETATM   10  C   UNL     1     -11.783  12.519  68.896  1.00  0.00    -0.322 C  
ENDROOT
BRANCH   4  11
HETATM   11  C   UNL     1     -10.350   8.606  68.056  1.00  0.00    -0.223 C  
HETATM   12  C   UNL     1     -10.404   8.192  66.590  1.00  0.00    -0.284 C  
HETATM   13  O   UNL     1      -8.967   8.487  68.445  1.00  0.00    -0.139 OA 
HETATM   14  C   UNL     1      -9.341   7.122  66.507  1.00  0.00    -0.164 C  
HETATM   15  C   UNL     1      -8.299   7.592  67.527  1.00  0.00    -0.117 C  
BRANCH  14  16
HETATM   16  N   UNL     1      -9.907   5.835  66.961  1.00  0.00    -0.139 NA 
HETATM   17  H   UNL     1      -9.705   5.452  67.885  1.00  0.00     0.000 HD 
BRANCH  16  18
HETATM   18  N   UNL     1     -10.645   5.247  66.150  1.00  0.00    -0.242 NA 
HETATM   19  N   UNL     1     -11.318   4.711  65.402  1.00  0.00    -1.028 NA 
HETATM   20  H1  UNL     1     -11.923   4.230  64.737  1.00  0.00     0.000 HD 
HETATM   21  H2  UNL     1     -10.733   5.052  64.639  1.00  0.00     0.000 HD 
ENDBRANCH  16  18
ENDBRANCH  14  16
BRANCH  15  22
HETATM   22  C   UNL     1      -7.128   8.345  66.889  1.00  0.00    -0.075 C  
HETATM   23  H   UNL     1      -5.149   8.273  66.908  1.00  0.00     0.000 HD 
HETATM   24  O   UNL     1      -5.876   7.806  67.303  1.00  0.00    -0.035 OA 
ENDBRANCH  15  22
ENDBRANCH   4  11
TORSDOF 4
ENDMDL
MODEL       89
REMARK 921   NORMALIZED FREE ENERGY PREDICTED BY IDOCK:   -4.14 KCAL/MOL
REMARK 922        TOTAL FREE ENERGY PREDICTED BY IDOCK:   -5.62 KCAL/MOL
REMARK 923 INTER-LIGAND FREE ENERGY PREDICTED BY IDOCK:   -5.23 KCAL/MOL
REMARK 924 INTRA-LIGAND FREE ENERGY PREDICTED BY IDOCK:   -0.40 KCAL/MOL
REMARK 927      BINDING AFFINITY PREDICTED BY RF-SCORE:    0.00 PKD
ROOT
HETATM    1  C   UNL     1      -6.912  12.392  67.579  1.00  0.00    -0.142 C  
HETATM    2  C   UNL     1      -8.373  12.139  67.751  1.00  0.00    -0.159 C  
HETATM    3  C   UNL     1      -8.890  11.102  68.422  1.00  0.00    -0.157 C  
HETATM    4  N   UNL     1     -10.253  10.893  68.545  1.00  0.00    -0.177 N  
HETATM    5  C   UNL     1     -11.167  11.810  68.039  1.00  0.00    -0.263 C  
HETATM    6  O   UNL     1      -8.919  14.061  66.476  1.00  0.00    -0.202 OA 
HETATM    7  O   UNL     1     -12.387  11.708  68.159  1.00  0.00    -0.429 OA 
HETATM    8  H   UNL     1     -11.293  13.559  66.993  1.00  0.00     0.000 HD 
HETATM    9  N   UNL     1     -10.635  12.874  67.364  1.00  0.00    -0.232 N  
HETATM   10  C   UNL     1      -9.310  13.108  67.139  1.00  0.00    -0.235 C  
ENDROOT
BRANCH   4  11
HETATM   11  C   UNL     1     -10.793   9.756  69.293  1.00  0.00    -0.216 C  
HETATM   12  C   UNL     1     -10.239   8.406  68.852  1.00  0.00    -0.223 C  
HETATM   13  O   UNL     1     -10.482   9.866  70.696  1.00  0.00    -0.292 OA 
HETATM   14  C   UNL     1     -10.439   7.547  70.079  1.00  0.00    -0.228 C  
HETATM   15  C   UNL     1     -10.253   8.542  71.229  1.00  0.00    -0.223 C  
BRANCH  14  16
HETATM   16  N   UNL     1     -11.829   7.047  70.103  1.00  0.00    -0.592 NA 
HETATM   17  H   UNL     1     -12.348   6.852  69.247  1.00  0.00     0.000 HD 
BRANCH  16  18
HETATM   18  N   UNL     1     -12.327   6.876  71.231  1.00  0.00    -0.375 NA 
HETATM   19  N   UNL     1     -12.786   6.725  72.263  1.00  0.00    -0.543 NA 
HETATM   20  H1  UNL     1     -13.194   6.585  73.187  1.00  0.00     0.000 HD 
HETATM   21  H2  UNL     1     -13.168   7.670  72.225  1.00  0.00     0.000 HD 
ENDBRANCH  16  18
ENDBRANCH  14  16
BRANCH  15  22
HETATM   22  C   UNL     1      -8.846   8.506  71.834  1.00  0.00    -0.216 C  
HETATM   23  H   UNL     1      -8.016   8.599  73.630  1.00  0.00     0.000 HD 
HETATM   24  O   UNL     1      -8.888   8.621  73.254  1.00  0.00    -0.323 OA 
ENDBRANCH  15  22
ENDBRANCH   4  11
TORSDOF 4
ENDMDL
MODEL       90
REMARK 921   NORMALIZED FREE ENERGY PREDICTED BY IDOCK:   -4.13 KCAL/MOL
REMARK 922        TOTAL FREE ENERGY PREDICTED BY IDOCK:   -5.61 KCAL/MOL
REMARK 923 INTER-LIGAND FREE ENERGY PREDICTED BY IDOCK:   -5.00 KCAL/MOL
REMARK 924 INTRA-LIGAND FREE ENERGY PREDICTED BY IDOCK:   -0.60 KCAL/MOL
REMARK 927      BINDING AFFINITY PREDICTED BY RF-SCORE:    0.00 PKD
ROOT
HETATM    1  C   UNL     1     -11.477   8.458  72.135  1.00  0.00    -0.442 C  
HETATM    2  C   UNL     1     -11.518   9.350  70.939  1.00  0.00    -0.382 C  
HETATM    3  C   UNL     1     -10.787   9.170  69.832  1.00  0.00    -0.228 C  
HETATM    4  N   UNL     1     -10.840  10.031  68.749  1.00  0.00    -0.221 N  
HETATM    5  C   UNL     1     -11.733  11.097  68.725  1.00  0.00    -0.326 C  
HETATM    6  O   UNL     1     -13.110  10.768  71.975  1.00  0.00    -0.483 OA 
HETATM    7  O   UNL     1     -11.866  11.867  67.775  1.00  0.00    -0.518 OA 
HETATM    8  H   UNL     1     -13.151  12.045  69.848  1.00  0.00     0.000 HD 
HETATM    9  N   UNL     1     -12.486  11.271  69.854  1.00  0.00    -0.204 N  
HETATM   10  C   UNL     1     -12.436  10.511  70.985  1.00  0.00    -0.400 C  
ENDROOT
BRANCH   4  11
HETATM   11  C   UNL     1     -10.037   9.807  67.546  1.00  0.00    -0.197 C  
HETATM   12  C   UNL     1      -8.538   9.722  67.810  1.00  0.00    -0.125 C  
HETATM   13  O   UNL     1     -10.393   8.562  66.913  1.00  0.00    -0.287 OA 
HETATM   14  C   UNL     1      -8.038   8.922  66.629  1.00  0.00    -0.107 C  
HETATM   15  C   UNL     1      -9.205   7.975  66.336  1.00  0.00    -0.194 C  
BRANCH  14  16
HETATM   16  N   UNL     1      -7.853   9.823  65.472  1.00  0.00    -0.115 NA 
HETATM   17  H   UNL     1      -8.454   9.775  64.649  1.00  0.00     0.000 HD 
BRANCH  16  18
HETATM   18  N   UNL     1      -6.921  10.643  65.563  1.00  0.00    -0.097 NA 
HETATM   19  N   UNL     1      -6.066  11.391  65.643  1.00  0.00    -0.431 NA 
HETATM   20  H1  UNL     1      -5.302  12.063  65.717  1.00  0.00     0.000 HD 
HETATM   21  H2  UNL     1      -5.594  10.926  64.867  1.00  0.00     0.000 HD 
ENDBRANCH  16  18
ENDBRANCH  14  16
BRANCH  15  22
HETATM   22  C   UNL     1      -9.016   6.581  66.944  1.00  0.00    -0.126 C  
HETATM   23  H   UNL     1      -9.871   5.453  68.329  1.00  0.00     0.000 HD 
HETATM   24  O   UNL     1      -9.988   6.318  67.952  1.00  0.00    -0.123 OA 
ENDBRANCH  15  22
ENDBRANCH   4  11
TORSDOF 4
ENDMDL
MODEL       91
REMARK 921   NORMALIZED FREE ENERGY PREDICTED BY IDOCK:   -4.13 KCAL/MOL
REMARK 922        TOTAL FREE ENERGY PREDICTED BY IDOCK:   -5.61 KCAL/MOL
REMARK 923 INTER-LIGAND FREE ENERGY PREDICTED BY IDOCK:   -5.09 KCAL/MOL
REMARK 924 INTRA-LIGAND FREE ENERGY PREDICTED BY IDOCK:   -0.51 KCAL/MOL
REMARK 927      BINDING AFFINITY PREDICTED BY RF-SCORE:    0.00 PKD
ROOT
HETATM    1  C   UNL     1     -12.330  14.013  66.798  1.00  0.00    -0.368 C  
HETATM    2  C   UNL     1     -11.726  13.143  65.746  1.00  0.00    -0.415 C  
HETATM    3  C   UNL     1     -11.001  12.045  65.994  1.00  0.00    -0.304 C  
HETATM    4  N   UNL     1     -10.442  11.273  64.990  1.00  0.00    -0.290 N  
HETATM    5  C   UNL     1     -10.680  11.559  63.650  1.00  0.00    -0.424 C  
HETATM    6  O   UNL     1     -12.568  14.535  64.024  1.00  0.00    -0.797 OA 
HETATM    7  O   UNL     1     -10.255  10.884  62.713  1.00  0.00    -0.171 OA 
HETATM    8  H   UNL     1     -11.618  12.894  62.423  1.00  0.00     0.000 HD 
HETATM    9  N   UNL     1     -11.430  12.675  63.402  1.00  0.00    -0.488 N  
HETATM   10  C   UNL     1     -11.950  13.524  64.334  1.00  0.00    -0.422 C  
ENDROOT
BRANCH   4  11
HETATM   11  C   UNL     1      -9.661  10.071  65.286  1.00  0.00    -0.306 C  
HETATM   12  C   UNL     1      -8.246  10.357  65.776  1.00  0.00    -0.156 C  
HETATM   13  O   UNL     1     -10.286   9.294  66.328  1.00  0.00    -0.273 OA 
HETATM   14  C   UNL     1      -7.904   9.106  66.552  1.00  0.00    -0.100 C  
HETATM   15  C   UNL     1      -9.255   8.682  67.136  1.00  0.00    -0.144 C  
BRANCH  14  16
HETATM   16  N   UNL     1      -7.441   8.062  65.614  1.00  0.00    -0.078 NA 
HETATM   17  H   UNL     1      -7.628   8.114  64.613  1.00  0.00     0.000 HD 
BRANCH  16  18
HETATM   18  N   UNL     1      -6.810   7.116  66.120  1.00  0.00    -0.056 NA 
HETATM   19  N   UNL     1      -6.237   6.247  66.584  1.00  0.00    -0.035 NA 
HETATM   20  H1  UNL     1      -5.719   5.472  66.998  1.00  0.00     0.000 HD 
HETATM   21  H2  UNL     1      -7.115   5.745  66.717  1.00  0.00     0.000 HD 
ENDBRANCH  16  18
ENDBRANCH  14  16
BRANCH  15  22
HETATM   22  C   UNL     1      -9.452   9.133  68.586  1.00  0.00    -0.143 C  
HETATM   23  H   UNL     1      -8.626   8.799  70.355  1.00  0.00     0.000 HD 
HETATM   24  O   UNL     1      -8.504   8.519  69.455  1.00  0.00    -0.123 OA 
ENDBRANCH  15  22
ENDBRANCH   4  11
TORSDOF 4
ENDMDL
MODEL       92
REMARK 921   NORMALIZED FREE ENERGY PREDICTED BY IDOCK:   -4.12 KCAL/MOL
REMARK 922        TOTAL FREE ENERGY PREDICTED BY IDOCK:   -5.59 KCAL/MOL
REMARK 923 INTER-LIGAND FREE ENERGY PREDICTED BY IDOCK:   -5.85 KCAL/MOL
REMARK 924 INTRA-LIGAND FREE ENERGY PREDICTED BY IDOCK:    0.26 KCAL/MOL
REMARK 927      BINDING AFFINITY PREDICTED BY RF-SCORE:    0.00 PKD
ROOT
HETATM    1  C   UNL     1     -13.264  15.454  71.123  1.00  0.00    -0.583 C  
HETATM    2  C   UNL     1     -12.892  14.033  70.856  1.00  0.00    -0.389 C  
HETATM    3  C   UNL     1     -12.186  13.620  69.797  1.00  0.00    -0.291 C  
HETATM    4  N   UNL     1     -11.876  12.288  69.575  1.00  0.00    -0.319 N  
HETATM    5  C   UNL     1     -12.219  11.310  70.501  1.00  0.00    -0.383 C  
HETATM    6  O   UNL     1     -14.019  13.307  72.810  1.00  0.00    -0.701 OA 
HETATM    7  O   UNL     1     -11.930  10.119  70.388  1.00  0.00    -0.268 OA 
HETATM    8  H   UNL     1     -13.185  11.032  72.278  1.00  0.00     0.000 HD 
HETATM    9  N   UNL     1     -12.931  11.738  71.587  1.00  0.00    -0.416 N  
HETATM   10  C   UNL     1     -13.336  13.016  71.836  1.00  0.00    -0.446 C  
ENDROOT
BRANCH   4  11
HETATM   11  C   UNL     1     -11.093  11.863  68.414  1.00  0.00    -0.244 C  
HETATM   12  C   UNL     1      -9.675  11.417  68.753  1.00  0.00    -0.155 C  
HETATM   13  O   UNL     1     -11.710  10.737  67.760  1.00  0.00    -0.547 OA 
HETATM   14  C   UNL     1      -9.327  10.508  67.598  1.00  0.00    -0.149 C  
HETATM   15  C   UNL     1     -10.674   9.871  67.243  1.00  0.00    -0.238 C  
BRANCH  14  16
HETATM   16  N   UNL     1      -8.870  11.325  66.454  1.00  0.00    -0.178 NA 
HETATM   17  H   UNL     1      -9.405  12.123  66.113  1.00  0.00     0.000 HD 
BRANCH  16  18
HETATM   18  N   UNL     1      -7.793  10.980  65.934  1.00  0.00    -0.090 NA 
HETATM   19  N   UNL     1      -6.810  10.662  65.454  1.00  0.00    -0.327 NA 
HETATM   20  H1  UNL     1      -5.927  10.379  65.028  1.00  0.00     0.000 HD 
HETATM   21  H2  UNL     1      -7.330  10.161  64.733  1.00  0.00     0.000 HD 
ENDBRANCH  16  18
ENDBRANCH  14  16
BRANCH  15  22
HETATM   22  C   UNL     1     -10.862   8.480  67.855  1.00  0.00     0.024 C  
HETATM   23  H   UNL     1      -9.727   7.016  68.555  1.00  0.00     0.000 HD 
HETATM   24  O   UNL     1      -9.610   7.879  68.176  1.00  0.00    -0.148 OA 
ENDBRANCH  15  22
ENDBRANCH   4  11
TORSDOF 4
ENDMDL
MODEL       93
REMARK 921   NORMALIZED FREE ENERGY PREDICTED BY IDOCK:   -4.12 KCAL/MOL
REMARK 922        TOTAL FREE ENERGY PREDICTED BY IDOCK:   -5.59 KCAL/MOL
REMARK 923 INTER-LIGAND FREE ENERGY PREDICTED BY IDOCK:   -6.26 KCAL/MOL
REMARK 924 INTRA-LIGAND FREE ENERGY PREDICTED BY IDOCK:    0.67 KCAL/MOL
REMARK 927      BINDING AFFINITY PREDICTED BY RF-SCORE:    0.00 PKD
ROOT
HETATM    1  C   UNL     1     -13.023  15.559  71.648  1.00  0.00    -0.540 C  
HETATM    2  C   UNL     1     -12.753  14.341  70.829  1.00  0.00    -0.419 C  
HETATM    3  C   UNL     1     -12.496  14.352  69.515  1.00  0.00    -0.125 C  
HETATM    4  N   UNL     1     -12.267  13.197  68.786  1.00  0.00    -0.171 N  
HETATM    5  C   UNL     1     -12.210  11.956  69.410  1.00  0.00    -0.125 C  
HETATM    6  O   UNL     1     -13.033  12.935  72.716  1.00  0.00    -0.185 OA 
HETATM    7  O   UNL     1     -11.961  10.901  68.829  1.00  0.00    -0.441 OA 
HETATM    8  H   UNL     1     -12.418  11.048  71.227  1.00  0.00     0.000 HD 
HETATM    9  N   UNL     1     -12.462  11.951  70.754  1.00  0.00    -0.335 N  
HETATM   10  C   UNL     1     -12.768  13.034  71.524  1.00  0.00    -0.251 C  
ENDROOT
BRANCH   4  11
HETATM   11  C   UNL     1     -11.978  13.237  67.352  1.00  0.00    -0.335 C  
HETATM   12  C   UNL     1     -10.712  14.008  66.996  1.00  0.00    -0.284 C  
HETATM   13  O   UNL     1     -11.786  11.908  66.827  1.00  0.00    -0.598 OA 
HETATM   14  C   UNL     1     -10.323  13.412  65.663  1.00  0.00    -0.290 C  
HETATM   15  C   UNL     1     -10.780  11.956  65.790  1.00  0.00    -0.284 C  
BRANCH  14  16
HETATM   16  N   UNL     1     -11.104  14.065  64.591  1.00  0.00    -0.430 NA 
HETATM   17  H   UNL     1     -11.566  13.529  63.857  1.00  0.00     0.000 HD 
BRANCH  16  18
HETATM   18  N   UNL     1     -11.163  15.307  64.639  1.00  0.00    -0.384 NA 
HETATM   19  N   UNL     1     -11.218  16.444  64.689  1.00  0.00    -0.724 NA 
HETATM   20  H1  UNL     1     -11.267  17.462  64.729  1.00  0.00     0.000 HD 
HETATM   21  H2  UNL     1     -11.318  16.390  65.703  1.00  0.00     0.000 HD 
ENDBRANCH  16  18
ENDBRANCH  14  16
BRANCH  15  22
HETATM   22  C   UNL     1      -9.647  11.001  66.178  1.00  0.00    -0.207 C  
HETATM   23  H   UNL     1      -7.925  10.380  65.421  1.00  0.00     0.000 HD 
HETATM   24  O   UNL     1      -8.628  10.972  65.181  1.00  0.00    -0.133 OA 
ENDBRANCH  15  22
ENDBRANCH   4  11
TORSDOF 4
ENDMDL
MODEL       94
REMARK 921   NORMALIZED FREE ENERGY PREDICTED BY IDOCK:   -4.11 KCAL/MOL
REMARK 922        TOTAL FREE ENERGY PREDICTED BY IDOCK:   -5.59 KCAL/MOL
REMARK 923 INTER-LIGAND FREE ENERGY PREDICTED BY IDOCK:   -5.15 KCAL/MOL
REMARK 924 INTRA-LIGAND FREE ENERGY PREDICTED BY IDOCK:   -0.44 KCAL/MOL
REMARK 927      BINDING AFFINITY PREDICTED BY RF-SCORE:    0.00 PKD
ROOT
HETATM    1  C   UNL     1      -9.760  17.240  65.805  1.00  0.00    -0.007 C  
HETATM    2  C   UNL     1     -10.367  15.890  65.610  1.00  0.00    -0.413 C  
HETATM    3  C   UNL     1     -10.021  14.796  66.300  1.00  0.00    -0.291 C  
HETATM    4  N   UNL     1     -10.596  13.556  66.078  1.00  0.00    -0.281 N  
HETATM    5  C   UNL     1     -11.635  13.401  65.168  1.00  0.00    -0.308 C  
HETATM    6  O   UNL     1     -11.770  16.701  63.882  1.00  0.00    -1.153 OA 
HETATM    7  O   UNL     1     -12.221  12.339  64.961  1.00  0.00    -0.407 OA 
HETATM    8  H   UNL     1     -12.759  14.427  63.806  1.00  0.00     0.000 HD 
HETATM    9  N   UNL     1     -11.993  14.523  64.472  1.00  0.00    -0.463 N  
HETATM   10  C   UNL     1     -11.425  15.758  64.583  1.00  0.00    -0.282 C  
ENDROOT
BRANCH   4  11
HETATM   11  C   UNL     1     -10.208  12.377  66.854  1.00  0.00    -0.225 C  
HETATM   12  C   UNL     1      -9.239  11.450  66.127  1.00  0.00    -0.223 C  
HETATM   13  O   UNL     1      -9.542  12.758  68.074  1.00  0.00    -0.204 OA 
HETATM   14  C   UNL     1      -8.557  10.725  67.265  1.00  0.00    -0.130 C  
HETATM   15  C   UNL     1      -8.519  11.782  68.372  1.00  0.00    -0.155 C  
BRANCH  14  16
HETATM   16  N   UNL     1      -9.409   9.601  67.708  1.00  0.00    -0.128 NA 
HETATM   17  H   UNL     1     -10.346   9.749  68.083  1.00  0.00     0.000 HD 
BRANCH  16  18
HETATM   18  N   UNL     1      -8.914   8.465  67.594  1.00  0.00    -0.135 NA 
HETATM   19  N   UNL     1      -8.465   7.423  67.487  1.00  0.00    -0.116 NA 
HETATM   20  H1  UNL     1      -8.060   6.492  67.394  1.00  0.00     0.000 HD 
HETATM   21  H2  UNL     1      -9.209   7.175  66.833  1.00  0.00     0.000 HD 
ENDBRANCH  16  18
ENDBRANCH  14  16
BRANCH  15  22
HETATM   22  C   UNL     1      -7.174  12.510  68.463  1.00  0.00    -0.110 C  
HETATM   23  H   UNL     1      -6.518  14.353  68.777  1.00  0.00     0.000 HD 
HETATM   24  O   UNL     1      -7.352  13.901  68.720  1.00  0.00    -0.115 OA 
ENDBRANCH  15  22
ENDBRANCH   4  11
TORSDOF 4
ENDMDL
MODEL       95
REMARK 921   NORMALIZED FREE ENERGY PREDICTED BY IDOCK:   -4.07 KCAL/MOL
REMARK 922        TOTAL FREE ENERGY PREDICTED BY IDOCK:   -5.54 KCAL/MOL
REMARK 923 INTER-LIGAND FREE ENERGY PREDICTED BY IDOCK:   -5.70 KCAL/MOL
REMARK 924 INTRA-LIGAND FREE ENERGY PREDICTED BY IDOCK:    0.16 KCAL/MOL
REMARK 927      BINDING AFFINITY PREDICTED BY RF-SCORE:    0.00 PKD
ROOT
HETATM    1  C   UNL     1     -10.135  11.110  63.299  1.00  0.00    -0.426 C  
HETATM    2  C   UNL     1     -10.775  11.987  64.324  1.00  0.00    -0.382 C  
HETATM    3  C   UNL     1     -10.170  12.418  65.438  1.00  0.00    -0.278 C  
HETATM    4  N   UNL     1     -10.803  13.217  66.374  1.00  0.00    -0.286 N  
HETATM    5  C   UNL     1     -12.094  13.687  66.159  1.00  0.00    -0.436 C  
HETATM    6  O   UNL     1     -12.810  12.026  63.111  1.00  0.00    -0.661 OA 
HETATM    7  O   UNL     1     -12.693  14.439  66.926  1.00  0.00    -0.012 OA 
HETATM    8  H   UNL     1     -13.650  13.594  64.840  1.00  0.00     0.000 HD 
HETATM    9  N   UNL     1     -12.705  13.253  65.015  1.00  0.00    -0.417 N  
HETATM   10  C   UNL     1     -12.174  12.409  64.085  1.00  0.00    -0.468 C  
ENDROOT
BRANCH   4  11
HETATM   11  C   UNL     1     -10.116  13.684  67.580  1.00  0.00    -0.237 C  
HETATM   12  C   UNL     1     -10.121  15.199  67.748  1.00  0.00    -0.230 C  
HETATM   13  O   UNL     1     -10.741  13.157  68.767  1.00  0.00    -0.249 OA 
HETATM   14  C   UNL     1      -9.938  15.369  69.238  1.00  0.00    -0.256 C  
HETATM   15  C   UNL     1     -10.664  14.150  69.815  1.00  0.00     0.134 C  
BRANCH  14  16
HETATM   16  N   UNL     1      -8.501  15.269  69.568  1.00  0.00    -0.364 NA 
HETATM   17  H   UNL     1      -8.096  14.423  69.968  1.00  0.00     0.000 HD 
BRANCH  16  18
HETATM   18  N   UNL     1      -7.815  16.279  69.327  1.00  0.00    -0.225 NA 
HETATM   19  N   UNL     1      -7.185  17.201  69.102  1.00  0.00    -0.232 NA 
HETATM   20  H1  UNL     1      -6.622  18.029  68.905  1.00  0.00     0.000 HD 
HETATM   21  H2  UNL     1      -6.710  16.689  68.359  1.00  0.00     0.000 HD 
ENDBRANCH  16  18
ENDBRANCH  14  16
BRANCH  15  22
HETATM   22  C   UNL     1     -12.088  14.463  70.285  1.00  0.00    -0.331 C  
HETATM   23  H   UNL     1     -13.297  13.937  71.763  1.00  0.00     0.000 HD 
HETATM   24  O   UNL     1     -12.413  13.743  71.472  1.00  0.00    -0.337 OA 
ENDBRANCH  15  22
ENDBRANCH   4  11
TORSDOF 4
ENDMDL
MODEL       96
REMARK 921   NORMALIZED FREE ENERGY PREDICTED BY IDOCK:   -4.06 KCAL/MOL
REMARK 922        TOTAL FREE ENERGY PREDICTED BY IDOCK:   -5.53 KCAL/MOL
REMARK 923 INTER-LIGAND FREE ENERGY PREDICTED BY IDOCK:   -5.36 KCAL/MOL
REMARK 924 INTRA-LIGAND FREE ENERGY PREDICTED BY IDOCK:   -0.17 KCAL/MOL
REMARK 927      BINDING AFFINITY PREDICTED BY RF-SCORE:    0.00 PKD
ROOT
HETATM    1  C   UNL     1     -12.621  14.680  70.683  1.00  0.00    -0.419 C  
HETATM    2  C   UNL     1     -12.226  13.263  70.429  1.00  0.00    -0.404 C  
HETATM    3  C   UNL     1     -11.477  12.858  69.396  1.00  0.00    -0.260 C  
HETATM    4  N   UNL     1     -11.145  11.530  69.185  1.00  0.00    -0.246 N  
HETATM    5  C   UNL     1     -11.512  10.547  70.097  1.00  0.00    -0.325 C  
HETATM    6  O   UNL     1     -13.415  12.524  72.340  1.00  0.00    -0.529 OA 
HETATM    7  O   UNL     1     -11.206   9.360  69.995  1.00  0.00    -0.240 OA 
HETATM    8  H   UNL     1     -12.539  10.258  71.839  1.00  0.00     0.000 HD 
HETATM    9  N   UNL     1     -12.268  10.967  71.157  1.00  0.00    -0.337 N  
HETATM   10  C   UNL     1     -12.694  12.241  71.391  1.00  0.00    -0.248 C  
ENDROOT
BRANCH   4  11
HETATM   11  C   UNL     1     -10.316  11.113  68.053  1.00  0.00    -0.185 C  
HETATM   12  C   UNL     1     -11.025  10.181  67.077  1.00  0.00    -0.162 C  
HETATM   13  O   UNL     1      -9.898  12.251  67.273  1.00  0.00    -0.202 OA 
HETATM   14  C   UNL     1     -10.255  10.395  65.794  1.00  0.00    -0.235 C  
HETATM   15  C   UNL     1      -9.847  11.869  65.880  1.00  0.00    -0.237 C  
BRANCH  14  16
HETATM   16  N   UNL     1      -9.036   9.560  65.812  1.00  0.00    -0.167 NA 
HETATM   17  H   UNL     1      -8.102   9.967  65.770  1.00  0.00     0.000 HD 
BRANCH  16  18
HETATM   18  N   UNL     1      -9.218   8.331  65.883  1.00  0.00    -0.161 NA 
HETATM   19  N   UNL     1      -9.381   7.205  65.951  1.00  0.00    -0.386 NA 
HETATM   20  H1  UNL     1      -9.530   6.198  66.009  1.00  0.00     0.000 HD 
HETATM   21  H2  UNL     1      -8.720   7.162  66.727  1.00  0.00     0.000 HD 
ENDBRANCH  16  18
ENDBRANCH  14  16
BRANCH  15  22
HETATM   22  C   UNL     1     -10.775  12.798  65.093  1.00  0.00    -0.294 C  
HETATM   23  H   UNL     1     -10.612  14.338  63.858  1.00  0.00     0.000 HD 
HETATM   24  O   UNL     1     -10.036  13.761  64.346  1.00  0.00    -0.319 OA 
ENDBRANCH  15  22
ENDBRANCH   4  11
TORSDOF 4
ENDMDL
MODEL       97
REMARK 921   NORMALIZED FREE ENERGY PREDICTED BY IDOCK:   -4.03 KCAL/MOL
REMARK 922        TOTAL FREE ENERGY PREDICTED BY IDOCK:   -5.49 KCAL/MOL
REMARK 923 INTER-LIGAND FREE ENERGY PREDICTED BY IDOCK:   -5.48 KCAL/MOL
REMARK 924 INTRA-LIGAND FREE ENERGY PREDICTED BY IDOCK:   -0.01 KCAL/MOL
REMARK 927      BINDING AFFINITY PREDICTED BY RF-SCORE:    0.00 PKD
ROOT
HETATM    1  C   UNL     1     -12.004  12.632  69.391  1.00  0.00    -0.318 C  
HETATM    2  C   UNL     1     -12.040  11.391  70.219  1.00  0.00    -0.459 C  
HETATM    3  C   UNL     1     -11.357  10.274  69.942  1.00  0.00    -0.290 C  
HETATM    4  N   UNL     1     -11.430   9.135  70.727  1.00  0.00    -0.275 N  
HETATM    5  C   UNL     1     -12.166   9.125  71.906  1.00  0.00    -0.379 C  
HETATM    6  O   UNL     1     -13.576  12.372  71.733  1.00  0.00    -0.253 OA 
HETATM    7  O   UNL     1     -12.231   8.165  72.673  1.00  0.00    -0.334 OA 
HETATM    8  H   UNL     1     -13.393  10.282  73.057  1.00  0.00     0.000 HD 
HETATM    9  N   UNL     1     -12.854  10.272  72.191  1.00  0.00    -0.346 N  
HETATM   10  C   UNL     1     -12.890  11.404  71.431  1.00  0.00    -0.397 C  
ENDROOT
BRANCH   4  11
HETATM   11  C   UNL     1     -10.665   7.929  70.408  1.00  0.00    -0.233 C  
HETATM   12  C   UNL     1     -11.516   6.670  70.289  1.00  0.00    -0.449 C  
HETATM   13  O   UNL     1      -9.990   8.066  69.141  1.00  0.00    -0.179 OA 
HETATM   14  C   UNL     1     -10.671   5.780  69.407  1.00  0.00    -0.326 C  
HETATM   15  C   UNL     1      -9.967   6.779  68.483  1.00  0.00    -0.149 C  
BRANCH  14  16
HETATM   16  N   UNL     1      -9.654   5.097  70.234  1.00  0.00    -0.170 NA 
HETATM   17  H   UNL     1      -8.676   5.038  69.948  1.00  0.00     0.000 HD 
BRANCH  16  18
HETATM   18  N   UNL     1     -10.062   4.600  71.299  1.00  0.00    -0.193 NA 
HETATM   19  N   UNL     1     -10.432   4.146  72.277  1.00  0.00    -0.123 NA 
HETATM   20  H1  UNL     1     -10.766   3.739  73.150  1.00  0.00     0.000 HD 
HETATM   21  H2  UNL     1      -9.647   4.576  72.767  1.00  0.00     0.000 HD 
ENDBRANCH  16  18
ENDBRANCH  14  16
BRANCH  15  22
HETATM   22  C   UNL     1     -10.652   6.925  67.121  1.00  0.00    -0.338 C  
HETATM   23  H   UNL     1     -11.206   8.386  65.903  1.00  0.00     0.000 HD 
HETATM   24  O   UNL     1     -10.781   8.295  66.748  1.00  0.00    -0.267 OA 
ENDBRANCH  15  22
ENDBRANCH   4  11
TORSDOF 4
ENDMDL
MODEL       98
REMARK 921   NORMALIZED FREE ENERGY PREDICTED BY IDOCK:   -4.03 KCAL/MOL
REMARK 922        TOTAL FREE ENERGY PREDICTED BY IDOCK:   -5.48 KCAL/MOL
REMARK 923 INTER-LIGAND FREE ENERGY PREDICTED BY IDOCK:   -5.04 KCAL/MOL
REMARK 924 INTRA-LIGAND FREE ENERGY PREDICTED BY IDOCK:   -0.44 KCAL/MOL
REMARK 927      BINDING AFFINITY PREDICTED BY RF-SCORE:    0.00 PKD
ROOT
HETATM    1  C   UNL     1     -12.420  13.180  65.532  1.00  0.00    -0.516 C  
HETATM    2  C   UNL     1     -11.226  12.863  66.370  1.00  0.00    -0.337 C  
HETATM    3  C   UNL     1     -11.186  11.899  67.298  1.00  0.00    -0.317 C  
HETATM    4  N   UNL     1     -10.064  11.646  68.069  1.00  0.00    -0.184 N  
HETATM    5  C   UNL     1      -8.878  12.339  67.856  1.00  0.00    -0.178 C  
HETATM    6  O   UNL     1      -9.972  14.597  65.352  1.00  0.00    -0.359 OA 
HETATM    7  O   UNL     1      -7.833  12.128  68.470  1.00  0.00    -0.134 OA 
HETATM    8  H   UNL     1      -8.055  13.828  66.727  1.00  0.00     0.000 HD 
HETATM    9  N   UNL     1      -8.920  13.316  66.899  1.00  0.00    -0.225 N  
HETATM   10  C   UNL     1     -10.005  13.671  66.154  1.00  0.00    -0.306 C  
ENDROOT
BRANCH   4  11
HETATM   11  C   UNL     1     -10.042  10.579  69.071  1.00  0.00    -0.217 C  
HETATM   12  C   UNL     1     -11.423  10.053  69.445  1.00  0.00    -0.139 C  
HETATM   13  O   UNL     1      -9.305   9.436  68.592  1.00  0.00    -0.140 OA 
HETATM   14  C   UNL     1     -11.122   8.663  69.956  1.00  0.00    -0.157 C  
HETATM   15  C   UNL     1      -9.925   8.234  69.101  1.00  0.00    -0.196 C  
BRANCH  14  16
HETATM   16  N   UNL     1     -10.695   8.744  71.368  1.00  0.00    -0.260 NA 
HETATM   17  H   UNL     1      -9.728   8.935  71.630  1.00  0.00     0.000 HD 
BRANCH  16  18
HETATM   18  N   UNL     1     -11.586   8.564  72.218  1.00  0.00    -0.373 NA 
HETATM   19  N   UNL     1     -12.399   8.396  72.999  1.00  0.00    -0.556 NA 
HETATM   20  H1  UNL     1     -13.129   8.249  73.696  1.00  0.00     0.000 HD 
HETATM   21  H2  UNL     1     -11.791   7.734  73.482  1.00  0.00     0.000 HD 
ENDBRANCH  16  18
ENDBRANCH  14  16
BRANCH  15  22
HETATM   22  C   UNL     1     -10.319   7.356  67.910  1.00  0.00    -0.204 C  
HETATM   23  H   UNL     1     -10.183   7.412  65.934  1.00  0.00     0.000 HD 
HETATM   24  O   UNL     1      -9.938   7.956  66.674  1.00  0.00    -0.245 OA 
ENDBRANCH  15  22
ENDBRANCH   4  11
TORSDOF 4
ENDMDL
MODEL       99
REMARK 921   NORMALIZED FREE ENERGY PREDICTED BY IDOCK:   -3.99 KCAL/MOL
REMARK 922        TOTAL FREE ENERGY PREDICTED BY IDOCK:   -5.43 KCAL/MOL
REMARK 923 INTER-LIGAND FREE ENERGY PREDICTED BY IDOCK:   -4.88 KCAL/MOL
REMARK 924 INTRA-LIGAND FREE ENERGY PREDICTED BY IDOCK:   -0.55 KCAL/MOL
REMARK 927      BINDING AFFINITY PREDICTED BY RF-SCORE:    0.00 PKD
ROOT
HETATM    1  C   UNL     1     -12.008  11.988  63.385  1.00  0.00    -0.571 C  
HETATM    2  C   UNL     1     -10.825  11.781  64.272  1.00  0.00    -0.404 C  
HETATM    3  C   UNL     1     -10.634  12.406  65.440  1.00  0.00    -0.284 C  
HETATM    4  N   UNL     1      -9.513  12.200  66.227  1.00  0.00    -0.232 N  
HETATM    5  C   UNL     1      -8.556  11.255  65.875  1.00  0.00    -0.096 C  
HETATM    6  O   UNL     1      -9.879  10.230  62.750  1.00  0.00    -0.241 OA 
HETATM    7  O   UNL     1      -7.565  10.988  66.554  1.00  0.00    -0.139 OA 
HETATM    8  H   UNL     1      -8.069   9.910  64.417  1.00  0.00     0.000 HD 
HETATM    9  N   UNL     1      -8.760  10.611  64.686  1.00  0.00    -0.177 N  
HETATM   10  C   UNL     1      -9.798  10.814  63.824  1.00  0.00    -0.339 C  
ENDROOT
BRANCH   4  11
HETATM   11  C   UNL     1      -9.332  12.888  67.505  1.00  0.00    -0.190 C  
HETATM   12  C   UNL     1      -9.214  14.403  67.381  1.00  0.00    -0.199 C  
HETATM   13  O   UNL     1     -10.453  12.655  68.381  1.00  0.00    -0.228 OA 
HETATM   14  C   UNL     1      -9.643  14.883  68.748  1.00  0.00    -0.214 C  
HETATM   15  C   UNL     1     -10.690  13.846  69.164  1.00  0.00    -0.147 C  
BRANCH  14  16
HETATM   16  N   UNL     1      -8.496  14.801  69.676  1.00  0.00    -0.425 NA 
HETATM   17  H   UNL     1      -8.456  14.111  70.426  1.00  0.00     0.000 HD 
BRANCH  16  18
HETATM   18  N   UNL     1      -7.581  15.624  69.486  1.00  0.00    -0.213 NA 
HETATM   19  N   UNL     1      -6.746  16.380  69.316  1.00  0.00    -0.205 NA 
HETATM   20  H1  UNL     1      -5.997  17.055  69.161  1.00  0.00     0.000 HD 
HETATM   21  H2  UNL     1      -7.166  16.993  70.016  1.00  0.00     0.000 HD 
ENDBRANCH  16  18
ENDBRANCH  14  16
BRANCH  15  22
HETATM   22  C   UNL     1     -12.128  14.308  68.911  1.00  0.00    -0.279 C  
HETATM   23  H   UNL     1     -13.171  15.989  69.008  1.00  0.00     0.000 HD 
HETATM   24  O   UNL     1     -12.279  15.703  69.165  1.00  0.00    -0.298 OA 
ENDBRANCH  15  22
ENDBRANCH   4  11
TORSDOF 4
ENDMDL
MODEL      100
REMARK 921   NORMALIZED FREE ENERGY PREDICTED BY IDOCK:   -3.98 KCAL/MOL
REMARK 922        TOTAL FREE ENERGY PREDICTED BY IDOCK:   -5.42 KCAL/MOL
REMARK 923 INTER-LIGAND FREE ENERGY PREDICTED BY IDOCK:   -4.89 KCAL/MOL
REMARK 924 INTRA-LIGAND FREE ENERGY PREDICTED BY IDOCK:   -0.53 KCAL/MOL
REMARK 927      BINDING AFFINITY PREDICTED BY RF-SCORE:    0.00 PKD
ROOT
HETATM    1  C   UNL     1      -7.844  14.315  68.696  1.00  0.00    -0.140 C  
HETATM    2  C   UNL     1      -8.968  13.696  67.932  1.00  0.00    -0.195 C  
HETATM    3  C   UNL     1      -9.240  12.386  67.909  1.00  0.00    -0.192 C  
HETATM    4  N   UNL     1     -10.282  11.848  67.174  1.00  0.00    -0.207 N  
HETATM    5  C   UNL     1     -11.162  12.667  66.476  1.00  0.00    -0.296 C  
HETATM    6  O   UNL     1      -9.636  15.807  67.086  1.00  0.00    -0.215 OA 
HETATM    7  O   UNL     1     -12.136  12.257  65.845  1.00  0.00    -0.609 OA 
HETATM    8  H   UNL     1     -11.529  14.621  66.008  1.00  0.00     0.000 HD 
HETATM    9  N   UNL     1     -10.888  14.007  66.510  1.00  0.00    -0.298 N  
HETATM   10  C   UNL     1      -9.840  14.601  67.150  1.00  0.00    -0.237 C  
ENDROOT
BRANCH   4  11
HETATM   11  C   UNL     1     -10.565  10.412  67.174  1.00  0.00    -0.261 C  
HETATM   12  C   UNL     1      -9.337   9.540  66.940  1.00  0.00    -0.185 C  
HETATM   13  O   UNL     1     -11.107   9.993  68.442  1.00  0.00    -0.237 OA 
HETATM   14  C   UNL     1      -9.739   8.225  67.568  1.00  0.00    -0.165 C  
HETATM   15  C   UNL     1     -10.630   8.660  68.735  1.00  0.00    -0.140 C  
BRANCH  14  16
HETATM   16  N   UNL     1     -10.554   7.454  66.606  1.00  0.00    -0.509 NA 
HETATM   17  H   UNL     1     -11.012   7.897  65.809  1.00  0.00     0.000 HD 
BRANCH  16  18
HETATM   18  N   UNL     1     -10.648   6.233  66.828  1.00  0.00    -0.267 NA 
HETATM   19  N   UNL     1     -10.739   5.115  67.028  1.00  0.00    -0.272 NA 
HETATM   20  H1  UNL     1     -10.817   4.114  67.210  1.00  0.00     0.000 HD 
HETATM   21  H2  UNL     1     -11.645   5.110  66.558  1.00  0.00     0.000 HD 
ENDBRANCH  16  18
ENDBRANCH  14  16
BRANCH  15  22
HETATM   22  C   UNL     1      -9.891   8.699  70.076  1.00  0.00    -0.179 C  
HETATM   23  H   UNL     1      -9.911   9.782  71.735  1.00  0.00     0.000 HD 
HETATM   24  O   UNL     1     -10.370   9.757  70.903  1.00  0.00    -0.286 OA 
ENDBRANCH  15  22
ENDBRANCH   4  11
TORSDOF 4
ENDMDL
MODEL      101
REMARK 921   NORMALIZED FREE ENERGY PREDICTED BY IDOCK:   -3.97 KCAL/MOL
REMARK 922        TOTAL FREE ENERGY PREDICTED BY IDOCK:   -5.41 KCAL/MOL
REMARK 923 INTER-LIGAND FREE ENERGY PREDICTED BY IDOCK:   -4.93 KCAL/MOL
REMARK 924 INTRA-LIGAND FREE ENERGY PREDICTED BY IDOCK:   -0.48 KCAL/MOL
REMARK 927      BINDING AFFINITY PREDICTED BY RF-SCORE:    0.00 PKD
ROOT
HETATM    1  C   UNL     1     -10.245  10.236  65.869  1.00  0.00    -0.293 C  
HETATM    2  C   UNL     1     -10.646  10.131  67.303  1.00  0.00    -0.321 C  
HETATM    3  C   UNL     1     -10.248   9.159  68.132  1.00  0.00    -0.207 C  
HETATM    4  N   UNL     1     -10.656   9.086  69.454  1.00  0.00    -0.228 N  
HETATM    5  C   UNL     1     -11.446  10.083  70.014  1.00  0.00    -0.248 C  
HETATM    6  O   UNL     1     -11.983  12.080  67.136  1.00  0.00    -0.601 OA 
HETATM    7  O   UNL     1     -11.801  10.104  71.193  1.00  0.00    -0.345 OA 
HETATM    8  H   UNL     1     -12.417  11.822  69.565  1.00  0.00     0.000 HD 
HETATM    9  N   UNL     1     -11.842  11.080  69.166  1.00  0.00    -0.325 N  
HETATM   10  C   UNL     1     -11.543  11.179  67.839  1.00  0.00    -0.251 C  
ENDROOT
BRANCH   4  11
HETATM   11  C   UNL     1     -10.198   8.018  70.344  1.00  0.00    -0.201 C  
HETATM   12  C   UNL     1     -10.999   6.727  70.224  1.00  0.00    -0.339 C  
HETATM   13  O   UNL     1      -8.832   7.658  70.058  1.00  0.00    -0.141 OA 
HETATM   14  C   UNL     1     -10.025   5.684  70.720  1.00  0.00    -0.195 C  
HETATM   15  C   UNL     1      -8.670   6.237  70.269  1.00  0.00    -0.142 C  
BRANCH  14  16
HETATM   16  N   UNL     1     -10.058   5.648  72.197  1.00  0.00    -0.182 NA 
HETATM   17  H   UNL     1      -9.233   5.850  72.761  1.00  0.00     0.000 HD 
BRANCH  16  18
HETATM   18  N   UNL     1     -11.154   5.357  72.710  1.00  0.00    -0.276 NA 
HETATM   19  N   UNL     1     -12.159   5.096  73.180  1.00  0.00    -0.420 NA 
HETATM   20  H1  UNL     1     -13.057   4.857  73.601  1.00  0.00     0.000 HD 
HETATM   21  H2  UNL     1     -12.424   6.081  73.148  1.00  0.00     0.000 HD 
ENDBRANCH  16  18
ENDBRANCH  14  16
BRANCH  15  22
HETATM   22  C   UNL     1      -8.168   5.613  68.963  1.00  0.00    -0.100 C  
HETATM   23  H   UNL     1      -8.036   6.112  67.051  1.00  0.00     0.000 HD 
HETATM   24  O   UNL     1      -8.347   6.499  67.861  1.00  0.00    -0.115 OA 
ENDBRANCH  15  22
ENDBRANCH   4  11
TORSDOF 4
ENDMDL
MODEL      102
REMARK 921   NORMALIZED FREE ENERGY PREDICTED BY IDOCK:   -3.95 KCAL/MOL
REMARK 922        TOTAL FREE ENERGY PREDICTED BY IDOCK:   -5.39 KCAL/MOL
REMARK 923 INTER-LIGAND FREE ENERGY PREDICTED BY IDOCK:   -5.16 KCAL/MOL
REMARK 924 INTRA-LIGAND FREE ENERGY PREDICTED BY IDOCK:   -0.22 KCAL/MOL
REMARK 927      BINDING AFFINITY PREDICTED BY RF-SCORE:    0.00 PKD
ROOT
HETATM    1  C   UNL     1     -11.220  14.357  67.452  1.00  0.00    -0.337 C  
HETATM    2  C   UNL     1     -11.770  13.892  68.760  1.00  0.00    -0.392 C  
HETATM    3  C   UNL     1     -11.620  12.656  69.250  1.00  0.00    -0.318 C  
HETATM    4  N   UNL     1     -12.161  12.258  70.461  1.00  0.00    -0.349 N  
HETATM    5  C   UNL     1     -12.828  13.162  71.279  1.00  0.00    -0.296 C  
HETATM    6  O   UNL     1     -12.747  16.012  69.172  1.00  0.00     0.246 OA 
HETATM    7  O   UNL     1     -13.287  12.886  72.387  1.00  0.00    -0.528 OA 
HETATM    8  H   UNL     1     -13.453  15.104  71.371  1.00  0.00     0.000 HD 
HETATM    9  N   UNL     1     -12.971  14.427  70.779  1.00  0.00    -0.350 N  
HETATM   10  C   UNL     1     -12.531  14.872  69.568  1.00  0.00    -0.088 C  
ENDROOT
BRANCH   4  11
HETATM   11  C   UNL     1     -11.973  10.902  70.980  1.00  0.00    -0.270 C  
HETATM   12  C   UNL     1     -13.032   9.909  70.514  1.00  0.00    -0.078 C  
HETATM   13  O   UNL     1     -10.710  10.355  70.552  1.00  0.00    -0.236 OA 
HETATM   14  C   UNL     1     -12.323   8.581  70.645  1.00  0.00     0.178 C  
HETATM   15  C   UNL     1     -10.867   8.936  70.329  1.00  0.00    -0.239 C  
BRANCH  14  16
HETATM   16  N   UNL     1     -12.408   8.119  72.046  1.00  0.00    -0.322 NA 
HETATM   17  H   UNL     1     -11.704   7.505  72.456  1.00  0.00     0.000 HD 
BRANCH  16  18
HETATM   18  N   UNL     1     -13.389   8.525  72.696  1.00  0.00    -0.213 NA 
HETATM   19  N   UNL     1     -14.284   8.900  73.293  1.00  0.00    -1.237 NA 
HETATM   20  H1  UNL     1     -15.088   9.233  73.825  1.00  0.00     0.000 HD 
HETATM   21  H2  UNL     1     -13.658   9.472  73.861  1.00  0.00     0.000 HD 
ENDBRANCH  16  18
ENDBRANCH  14  16
BRANCH  15  22
HETATM   22  C   UNL     1     -10.474   8.632  68.880  1.00  0.00    -0.192 C  
HETATM   23  H   UNL     1      -9.534   9.538  67.391  1.00  0.00     0.000 HD 
HETATM   24  O   UNL     1      -9.778   9.726  68.290  1.00  0.00    -0.143 OA 
ENDBRANCH  15  22
ENDBRANCH   4  11
TORSDOF 4
ENDMDL
MODEL      103
REMARK 921   NORMALIZED FREE ENERGY PREDICTED BY IDOCK:   -3.94 KCAL/MOL
REMARK 922        TOTAL FREE ENERGY PREDICTED BY IDOCK:   -5.38 KCAL/MOL
REMARK 923 INTER-LIGAND FREE ENERGY PREDICTED BY IDOCK:   -5.66 KCAL/MOL
REMARK 924 INTRA-LIGAND FREE ENERGY PREDICTED BY IDOCK:    0.28 KCAL/MOL
REMARK 927      BINDING AFFINITY PREDICTED BY RF-SCORE:    0.00 PKD
ROOT
HETATM    1  C   UNL     1     -10.973   7.902  70.806  1.00  0.00    -0.259 C  
HETATM    2  C   UNL     1     -11.431   9.320  70.728  1.00  0.00    -0.351 C  
HETATM    3  C   UNL     1     -11.009  10.206  69.817  1.00  0.00    -0.280 C  
HETATM    4  N   UNL     1     -11.445  11.519  69.789  1.00  0.00    -0.294 N  
HETATM    5  C   UNL     1     -12.422  11.968  70.671  1.00  0.00    -0.247 C  
HETATM    6  O   UNL     1     -12.829   9.037  72.620  1.00  0.00    -0.381 OA 
HETATM    7  O   UNL     1     -12.888  13.107  70.665  1.00  0.00    -0.163 OA 
HETATM    8  H   UNL     1     -13.579  11.371  72.243  1.00  0.00     0.000 HD 
HETATM    9  N   UNL     1     -12.858  11.058  71.594  1.00  0.00    -0.443 N  
HETATM   10  C   UNL     1     -12.423   9.773  71.730  1.00  0.00    -0.398 C  
ENDROOT
BRANCH   4  11
HETATM   11  C   UNL     1     -10.976  12.465  68.775  1.00  0.00    -0.246 C  
HETATM   12  C   UNL     1     -12.026  12.822  67.729  1.00  0.00    -0.316 C  
HETATM   13  O   UNL     1     -10.584  13.715  69.377  1.00  0.00    -0.047 OA 
HETATM   14  C   UNL     1     -11.553  14.167  67.229  1.00  0.00    -0.373 C  
HETATM   15  C   UNL     1     -10.918  14.793  68.474  1.00  0.00    -0.258 C  
BRANCH  14  16
HETATM   16  N   UNL     1     -10.504  13.967  66.208  1.00  0.00    -0.282 NA 
HETATM   17  H   UNL     1     -10.388  13.079  65.719  1.00  0.00     0.000 HD 
BRANCH  16  18
HETATM   18  N   UNL     1      -9.771  14.947  65.980  1.00  0.00    -0.312 NA 
HETATM   19  N   UNL     1      -9.099  15.843  65.766  1.00  0.00    -0.330 NA 
HETATM   20  H1  UNL     1      -8.499  16.645  65.580  1.00  0.00     0.000 HD 
HETATM   21  H2  UNL     1      -9.080  15.586  64.779  1.00  0.00     0.000 HD 
ENDBRANCH  16  18
ENDBRANCH  14  16
BRANCH  15  22
HETATM   22  C   UNL     1     -11.853  15.760  69.206  1.00  0.00    -0.346 C  
HETATM   23  H   UNL     1     -12.047  16.526  71.023  1.00  0.00     0.000 HD 
HETATM   24  O   UNL     1     -11.467  15.926  70.568  1.00  0.00    -0.334 OA 
ENDBRANCH  15  22
ENDBRANCH   4  11
TORSDOF 4
ENDMDL
MODEL      104
REMARK 921   NORMALIZED FREE ENERGY PREDICTED BY IDOCK:   -3.93 KCAL/MOL
REMARK 922        TOTAL FREE ENERGY PREDICTED BY IDOCK:   -5.36 KCAL/MOL
REMARK 923 INTER-LIGAND FREE ENERGY PREDICTED BY IDOCK:   -4.83 KCAL/MOL
REMARK 924 INTRA-LIGAND FREE ENERGY PREDICTED BY IDOCK:   -0.53 KCAL/MOL
REMARK 927      BINDING AFFINITY PREDICTED BY RF-SCORE:    0.00 PKD
ROOT
HETATM    1  C   UNL     1      -9.044   9.284  65.749  1.00  0.00    -0.260 C  
HETATM    2  C   UNL     1      -8.632   9.456  67.173  1.00  0.00    -0.130 C  
HETATM    3  C   UNL     1      -9.345   9.036  68.225  1.00  0.00    -0.139 C  
HETATM    4  N   UNL     1      -8.936   9.229  69.534  1.00  0.00    -0.144 N  
HETATM    5  C   UNL     1      -7.705   9.807  69.822  1.00  0.00    -0.143 C  
HETATM    6  O   UNL     1      -6.651  10.586  66.528  1.00  0.00    -0.085 OA 
HETATM    7  O   UNL     1      -7.262   9.962  70.959  1.00  0.00    -0.330 OA 
HETATM    8  H   UNL     1      -6.066  10.646  68.938  1.00  0.00     0.000 HD 
HETATM    9  N   UNL     1      -6.975  10.226  68.744  1.00  0.00    -0.064 N  
HETATM   10  C   UNL     1      -7.344  10.137  67.434  1.00  0.00    -0.089 C  
ENDROOT
BRANCH   4  11
HETATM   11  C   UNL     1      -9.729   8.751  70.668  1.00  0.00    -0.197 C  
HETATM   12  C   UNL     1     -11.223   8.646  70.378  1.00  0.00    -0.236 C  
HETATM   13  O   UNL     1      -9.315   7.428  71.066  1.00  0.00    -0.157 OA 
HETATM   14  C   UNL     1     -11.686   7.621  71.387  1.00  0.00    -0.283 C  
HETATM   15  C   UNL     1     -10.475   6.691  71.513  1.00  0.00    -0.215 C  
BRANCH  14  16
HETATM   16  N   UNL     1     -11.914   8.284  72.687  1.00  0.00    -0.524 NA 
HETATM   17  H   UNL     1     -11.161   8.431  73.359  1.00  0.00     0.000 HD 
BRANCH  16  18
HETATM   18  N   UNL     1     -13.082   8.653  72.913  1.00  0.00    -0.215 NA 
HETATM   19  N   UNL     1     -14.152   8.986  73.118  1.00  0.00    -1.223 NA 
HETATM   20  H1  UNL     1     -15.108   9.289  73.303  1.00  0.00     0.000 HD 
HETATM   21  H2  UNL     1     -14.488   8.067  72.830  1.00  0.00     0.000 HD 
ENDBRANCH  16  18
ENDBRANCH  14  16
BRANCH  15  22
HETATM   22  C   UNL     1     -10.597   5.425  70.658  1.00  0.00    -0.232 C  
HETATM   23  H   UNL     1      -9.903   4.744  68.932  1.00  0.00     0.000 HD 
HETATM   24  O   UNL     1      -9.828   5.529  69.463  1.00  0.00    -0.160 OA 
ENDBRANCH  15  22
ENDBRANCH   4  11
TORSDOF 4
ENDMDL
MODEL      105
REMARK 921   NORMALIZED FREE ENERGY PREDICTED BY IDOCK:   -3.91 KCAL/MOL
REMARK 922        TOTAL FREE ENERGY PREDICTED BY IDOCK:   -5.33 KCAL/MOL
REMARK 923 INTER-LIGAND FREE ENERGY PREDICTED BY IDOCK:   -5.68 KCAL/MOL
REMARK 924 INTRA-LIGAND FREE ENERGY PREDICTED BY IDOCK:    0.35 KCAL/MOL
REMARK 927      BINDING AFFINITY PREDICTED BY RF-SCORE:    0.00 PKD
ROOT
HETATM    1  C   UNL     1     -12.058   6.999  72.074  1.00  0.00    -0.329 C  
HETATM    2  C   UNL     1     -11.504   7.674  70.863  1.00  0.00    -0.299 C  
HETATM    3  C   UNL     1     -11.549   8.993  70.643  1.00  0.00    -0.224 C  
HETATM    4  N   UNL     1     -11.038   9.580  69.497  1.00  0.00    -0.191 N  
HETATM    5  C   UNL     1     -10.370   8.823  68.542  1.00  0.00    -0.199 C  
HETATM    6  O   UNL     1     -10.814   5.600  69.948  1.00  0.00    -0.331 OA 
HETATM    7  O   UNL     1      -9.851   9.290  67.528  1.00  0.00    -0.158 OA 
HETATM    8  H   UNL     1      -9.825   6.909  68.086  1.00  0.00     0.000 HD 
HETATM    9  N   UNL     1     -10.318   7.477  68.776  1.00  0.00    -0.198 N  
HETATM   10  C   UNL     1     -10.860   6.819  69.840  1.00  0.00    -0.266 C  
ENDROOT
BRANCH   4  11
HETATM   11  C   UNL     1     -11.090  11.028  69.285  1.00  0.00    -0.254 C  
HETATM   12  C   UNL     1      -9.778  11.628  68.790  1.00  0.00    -0.107 C  
HETATM   13  O   UNL     1     -12.075  11.368  68.289  1.00  0.00    -0.606 OA 
HETATM   14  C   UNL     1     -10.232  12.893  68.099  1.00  0.00    -0.239 C  
HETATM   15  C   UNL     1     -11.600  12.503  67.531  1.00  0.00    -0.361 C  
BRANCH  14  16
HETATM   16  N   UNL     1     -10.419  13.958  69.106  1.00  0.00    -0.415 NA 
HETATM   17  H   UNL     1      -9.752  14.111  69.862  1.00  0.00     0.000 HD 
BRANCH  16  18
HETATM   18  N   UNL     1     -11.441  14.658  68.975  1.00  0.00    -0.274 NA 
HETATM   19  N   UNL     1     -12.374  15.299  68.850  1.00  0.00    -0.604 NA 
HETATM   20  H1  UNL     1     -13.211  15.872  68.743  1.00  0.00     0.000 HD 
HETATM   21  H2  UNL     1     -12.078  15.537  67.903  1.00  0.00     0.000 HD 
ENDBRANCH  16  18
ENDBRANCH  14  16
BRANCH  15  22
HETATM   22  C   UNL     1     -11.546  12.104  66.053  1.00  0.00    -0.358 C  
HETATM   23  H   UNL     1     -10.406  12.463  64.474  1.00  0.00     0.000 HD 
HETATM   24  O   UNL     1     -10.439  12.710  65.391  1.00  0.00    -0.273 OA 
ENDBRANCH  15  22
ENDBRANCH   4  11
TORSDOF 4
ENDMDL
MODEL      106
REMARK 921   NORMALIZED FREE ENERGY PREDICTED BY IDOCK:   -3.90 KCAL/MOL
REMARK 922        TOTAL FREE ENERGY PREDICTED BY IDOCK:   -5.33 KCAL/MOL
REMARK 923 INTER-LIGAND FREE ENERGY PREDICTED BY IDOCK:   -5.19 KCAL/MOL
REMARK 924 INTRA-LIGAND FREE ENERGY PREDICTED BY IDOCK:   -0.14 KCAL/MOL
REMARK 927      BINDING AFFINITY PREDICTED BY RF-SCORE:    0.00 PKD
ROOT
HETATM    1  C   UNL     1      -7.232  10.341  69.563  1.00  0.00    -0.122 C  
HETATM    2  C   UNL     1      -8.177  10.688  68.461  1.00  0.00    -0.128 C  
HETATM    3  C   UNL     1      -8.341  11.919  67.962  1.00  0.00    -0.160 C  
HETATM    4  N   UNL     1      -9.241  12.205  66.949  1.00  0.00    -0.197 N  
HETATM    5  C   UNL     1      -9.972  11.194  66.336  1.00  0.00    -0.217 C  
HETATM    6  O   UNL     1      -8.922   8.443  68.309  1.00  0.00    -0.139 OA 
HETATM    7  O   UNL     1     -10.750  11.373  65.399  1.00  0.00    -0.277 OA 
HETATM    8  H   UNL     1     -10.319   9.182  66.397  1.00  0.00     0.000 HD 
HETATM    9  N   UNL     1      -9.794   9.936  66.841  1.00  0.00    -0.189 N  
HETATM   10  C   UNL     1      -8.984   9.590  67.882  1.00  0.00    -0.123 C  
ENDROOT
BRANCH   4  11
HETATM   11  C   UNL     1      -9.395  13.558  66.414  1.00  0.00    -0.176 C  
HETATM   12  C   UNL     1     -10.753  14.188  66.703  1.00  0.00    -0.289 C  
HETATM   13  O   UNL     1      -8.419  14.453  66.985  1.00  0.00    -0.213 OA 
HETATM   14  C   UNL     1     -10.457  15.668  66.621  1.00  0.00    -0.301 C  
HETATM   15  C   UNL     1      -9.018  15.760  67.137  1.00  0.00    -0.214 C  
BRANCH  14  16
HETATM   16  N   UNL     1     -10.484  16.093  65.206  1.00  0.00    -0.572 NA 
HETATM   17  H   UNL     1      -9.786  16.728  64.819  1.00  0.00     0.000 HD 
BRANCH  16  18
HETATM   18  N   UNL     1     -11.410  15.629  64.515  1.00  0.00    -0.387 NA 
HETATM   19  N   UNL     1     -12.255  15.200  63.883  1.00  0.00    -0.989 NA 
HETATM   20  H1  UNL     1     -13.014  14.820  63.317  1.00  0.00     0.000 HD 
HETATM   21  H2  UNL     1     -11.780  14.297  63.869  1.00  0.00     0.000 HD 
ENDBRANCH  16  18
ENDBRANCH  14  16
BRANCH  15  22
HETATM   22  C   UNL     1      -8.932  16.158  68.613  1.00  0.00    -0.221 C  
HETATM   23  H   UNL     1     -10.129  16.891  70.011  1.00  0.00     0.000 HD 
HETATM   24  O   UNL     1     -10.182  16.644  69.095  1.00  0.00    -0.278 OA 
ENDBRANCH  15  22
ENDBRANCH   4  11
TORSDOF 4
ENDMDL
MODEL      107
REMARK 921   NORMALIZED FREE ENERGY PREDICTED BY IDOCK:   -3.90 KCAL/MOL
REMARK 922        TOTAL FREE ENERGY PREDICTED BY IDOCK:   -5.32 KCAL/MOL
REMARK 923 INTER-LIGAND FREE ENERGY PREDICTED BY IDOCK:   -5.44 KCAL/MOL
REMARK 924 INTRA-LIGAND FREE ENERGY PREDICTED BY IDOCK:    0.12 KCAL/MOL
REMARK 927      BINDING AFFINITY PREDICTED BY RF-SCORE:    0.00 PKD
ROOT
HETATM    1  C   UNL     1      -9.112   7.216  70.881  1.00  0.00    -0.152 C  
HETATM    2  C   UNL     1      -9.937   8.443  70.672  1.00  0.00    -0.212 C  
HETATM    3  C   UNL     1      -9.875   9.224  69.587  1.00  0.00    -0.186 C  
HETATM    4  N   UNL     1     -10.645  10.364  69.438  1.00  0.00    -0.224 N  
HETATM    5  C   UNL     1     -11.596  10.715  70.389  1.00  0.00    -0.351 C  
HETATM    6  O   UNL     1     -10.979   8.175  72.784  1.00  0.00    -0.369 OA 
HETATM    7  O   UNL     1     -12.347  11.685  70.293  1.00  0.00    -0.301 OA 
HETATM    8  H   UNL     1     -12.362  10.149  72.196  1.00  0.00     0.000 HD 
HETATM    9  N   UNL     1     -11.664   9.909  71.492  1.00  0.00    -0.372 N  
HETATM   10  C   UNL     1     -10.890   8.814  71.742  1.00  0.00    -0.345 C  
ENDROOT
BRANCH   4  11
HETATM   11  C   UNL     1     -10.566  11.196  68.236  1.00  0.00    -0.190 C  
HETATM   12  C   UNL     1     -11.888  11.331  67.489  1.00  0.00    -0.030 C  
HETATM   13  O   UNL     1     -10.164  12.541  68.564  1.00  0.00    -0.228 OA 
HETATM   14  C   UNL     1     -11.712  12.627  66.732  1.00  0.00    -0.392 C  
HETATM   15  C   UNL     1     -10.839  13.460  67.675  1.00  0.00    -0.259 C  
BRANCH  14  16
HETATM   16  N   UNL     1     -10.956  12.367  65.489  1.00  0.00    -0.284 NA 
HETATM   17  H   UNL     1     -10.791  11.421  65.144  1.00  0.00     0.000 HD 
BRANCH  16  18
HETATM   18  N   UNL     1     -10.534  13.372  64.887  1.00  0.00    -0.372 NA 
HETATM   19  N   UNL     1     -10.148  14.288  64.332  1.00  0.00    -0.610 NA 
HETATM   20  H1  UNL     1      -9.802  15.112  63.839  1.00  0.00     0.000 HD 
HETATM   21  H2  UNL     1     -10.091  13.738  63.474  1.00  0.00     0.000 HD 
ENDBRANCH  16  18
ENDBRANCH  14  16
BRANCH  15  22
HETATM   22  C   UNL     1     -11.644  14.446  68.526  1.00  0.00    -0.314 C  
HETATM   23  H   UNL     1     -11.370  15.557  70.144  1.00  0.00     0.000 HD 
HETATM   24  O   UNL     1     -10.870  14.945  69.615  1.00  0.00    -0.255 OA 
ENDBRANCH  15  22
ENDBRANCH   4  11
TORSDOF 4
ENDMDL
MODEL      108
REMARK 921   NORMALIZED FREE ENERGY PREDICTED BY IDOCK:   -3.90 KCAL/MOL
REMARK 922        TOTAL FREE ENERGY PREDICTED BY IDOCK:   -5.32 KCAL/MOL
REMARK 923 INTER-LIGAND FREE ENERGY PREDICTED BY IDOCK:   -5.50 KCAL/MOL
REMARK 924 INTRA-LIGAND FREE ENERGY PREDICTED BY IDOCK:    0.18 KCAL/MOL
REMARK 927      BINDING AFFINITY PREDICTED BY RF-SCORE:    0.00 PKD
ROOT
HETATM    1  C   UNL     1     -10.558  16.659  65.133  1.00  0.00    -0.181 C  
HETATM    2  C   UNL     1     -10.776  15.197  65.338  1.00  0.00    -0.396 C  
HETATM    3  C   UNL     1     -10.017  14.418  66.119  1.00  0.00    -0.311 C  
HETATM    4  N   UNL     1     -10.241  13.060  66.270  1.00  0.00    -0.281 N  
HETATM    5  C   UNL     1     -11.334  12.445  65.671  1.00  0.00    -0.347 C  
HETATM    6  O   UNL     1     -12.631  15.204  63.863  1.00  0.00    -0.794 OA 
HETATM    7  O   UNL     1     -11.618  11.255  65.806  1.00  0.00    -0.078 OA 
HETATM    8  H   UNL     1     -12.923  12.809  64.440  1.00  0.00     0.000 HD 
HETATM    9  N   UNL     1     -12.113  13.245  64.882  1.00  0.00    -0.375 N  
HETATM   10  C   UNL     1     -11.913  14.570  64.627  1.00  0.00    -0.468 C  
ENDROOT
BRANCH   4  11
HETATM   11  C   UNL     1      -9.403  12.233  67.139  1.00  0.00    -0.196 C  
HETATM   12  C   UNL     1     -10.163  11.570  68.283  1.00  0.00    -0.205 C  
HETATM   13  O   UNL     1      -8.796  11.157  66.397  1.00  0.00    -0.167 OA 
HETATM   14  C   UNL     1      -9.293  10.379  68.613  1.00  0.00    -0.167 C  
HETATM   15  C   UNL     1      -8.706   9.994  67.252  1.00  0.00    -0.125 C  
BRANCH  14  16
HETATM   16  N   UNL     1      -8.194  10.809  69.502  1.00  0.00    -0.383 NA 
HETATM   17  H   UNL     1      -7.718  11.703  69.379  1.00  0.00     0.000 HD 
BRANCH  16  18
HETATM   18  N   UNL     1      -7.884  10.015  70.409  1.00  0.00    -0.215 NA 
HETATM   19  N   UNL     1      -7.596   9.286  71.236  1.00  0.00    -0.338 NA 
HETATM   20  H1  UNL     1      -7.343   8.636  71.979  1.00  0.00     0.000 HD 
HETATM   21  H2  UNL     1      -6.901   8.867  70.618  1.00  0.00     0.000 HD 
ENDBRANCH  16  18
ENDBRANCH  14  16
BRANCH  15  22
HETATM   22  C   UNL     1      -9.458   8.844  66.575  1.00  0.00    -0.211 C  
HETATM   23  H   UNL     1     -10.976   7.639  66.983  1.00  0.00     0.000 HD 
HETATM   24  O   UNL     1     -10.510   8.352  67.402  1.00  0.00    -0.263 OA 
ENDBRANCH  15  22
ENDBRANCH   4  11
TORSDOF 4
ENDMDL
MODEL      109
REMARK 921   NORMALIZED FREE ENERGY PREDICTED BY IDOCK:   -3.88 KCAL/MOL
REMARK 922        TOTAL FREE ENERGY PREDICTED BY IDOCK:   -5.30 KCAL/MOL
REMARK 923 INTER-LIGAND FREE ENERGY PREDICTED BY IDOCK:   -5.65 KCAL/MOL
REMARK 924 INTRA-LIGAND FREE ENERGY PREDICTED BY IDOCK:    0.34 KCAL/MOL
REMARK 927      BINDING AFFINITY PREDICTED BY RF-SCORE:    0.00 PKD
ROOT
HETATM    1  C   UNL     1      -7.962   8.273  65.256  1.00  0.00    -0.128 C  
HETATM    2  C   UNL     1      -8.970   9.097  65.987  1.00  0.00    -0.221 C  
HETATM    3  C   UNL     1      -9.209  10.392  65.746  1.00  0.00    -0.174 C  
HETATM    4  N   UNL     1     -10.142  11.128  66.457  1.00  0.00    -0.216 N  
HETATM    5  C   UNL     1     -10.947  10.526  67.418  1.00  0.00    -0.288 C  
HETATM    6  O   UNL     1      -9.572   7.259  67.356  1.00  0.00    -0.134 OA 
HETATM    7  O   UNL     1     -11.827  11.110  68.048  1.00  0.00    -0.582 OA 
HETATM    8  H   UNL     1     -11.293   8.743  68.351  1.00  0.00     0.000 HD 
HETATM    9  N   UNL     1     -10.706   9.200  67.654  1.00  0.00    -0.242 N  
HETATM   10  C   UNL     1      -9.758   8.430  67.047  1.00  0.00    -0.206 C  
ENDROOT
BRANCH   4  11
HETATM   11  C   UNL     1     -10.393  12.540  66.167  1.00  0.00    -0.253 C  
HETATM   12  C   UNL     1     -11.869  12.923  66.187  1.00  0.00    -0.487 C  
HETATM   13  O   UNL     1      -9.756  13.389  67.143  1.00  0.00    -0.225 OA 
HETATM   14  C   UNL     1     -11.823  14.407  66.472  1.00  0.00    -0.390 C  
HETATM   15  C   UNL     1     -10.591  14.547  67.370  1.00  0.00    -0.271 C  
BRANCH  14  16
HETATM   16  N   UNL     1     -11.579  15.138  65.211  1.00  0.00    -0.262 NA 
HETATM   17  H   UNL     1     -11.870  14.768  64.307  1.00  0.00     0.000 HD 
BRANCH  16  18
HETATM   18  N   UNL     1     -10.997  16.233  65.320  1.00  0.00    -0.320 NA 
HETATM   19  N   UNL     1     -10.460  17.234  65.417  1.00  0.00    -0.646 NA 
HETATM   20  H1  UNL     1      -9.983  18.131  65.507  1.00  0.00     0.000 HD 
HETATM   21  H2  UNL     1      -9.748  16.909  64.763  1.00  0.00     0.000 HD 
ENDBRANCH  16  18
ENDBRANCH  14  16
BRANCH  15  22
HETATM   22  C   UNL     1     -10.936  14.603  68.862  1.00  0.00    -0.253 C  
HETATM   23  H   UNL     1     -12.163  15.608  70.050  1.00  0.00     0.000 HD 
HETATM   24  O   UNL     1     -11.948  15.572  69.125  1.00  0.00    -0.348 OA 
ENDBRANCH  15  22
ENDBRANCH   4  11
TORSDOF 4
ENDMDL
MODEL      110
REMARK 921   NORMALIZED FREE ENERGY PREDICTED BY IDOCK:   -3.88 KCAL/MOL
REMARK 922        TOTAL FREE ENERGY PREDICTED BY IDOCK:   -5.30 KCAL/MOL
REMARK 923 INTER-LIGAND FREE ENERGY PREDICTED BY IDOCK:   -5.70 KCAL/MOL
REMARK 924 INTRA-LIGAND FREE ENERGY PREDICTED BY IDOCK:    0.40 KCAL/MOL
REMARK 927      BINDING AFFINITY PREDICTED BY RF-SCORE:    0.00 PKD
ROOT
HETATM    1  C   UNL     1      -9.879  13.389  67.626  1.00  0.00    -0.226 C  
HETATM    2  C   UNL     1     -10.743  12.858  68.721  1.00  0.00    -0.249 C  
HETATM    3  C   UNL     1     -10.830  11.566  69.060  1.00  0.00    -0.212 C  
HETATM    4  N   UNL     1     -11.657  11.109  70.072  1.00  0.00    -0.321 N  
HETATM    5  C   UNL     1     -12.390  11.996  70.852  1.00  0.00    -0.285 C  
HETATM    6  O   UNL     1     -11.565  15.026  69.209  1.00  0.00    -0.281 OA 
HETATM    7  O   UNL     1     -13.104  11.660  71.797  1.00  0.00    -0.465 OA 
HETATM    8  H   UNL     1     -12.818  13.980  71.077  1.00  0.00     0.000 HD 
HETATM    9  N   UNL     1     -12.291  13.316  70.509  1.00  0.00    -0.339 N  
HETATM   10  C   UNL     1     -11.557  13.832  69.482  1.00  0.00    -0.297 C  
ENDROOT
BRANCH   4  11
HETATM   11  C   UNL     1     -11.726   9.692  70.431  1.00  0.00    -0.202 C  
HETATM   12  C   UNL     1     -10.772   8.806  69.637  1.00  0.00    -0.212 C  
HETATM   13  O   UNL     1     -11.383   9.493  71.817  1.00  0.00    -0.370 OA 
HETATM   14  C   UNL     1     -10.587   7.616  70.550  1.00  0.00    -0.226 C  
HETATM   15  C   UNL     1     -10.680   8.236  71.947  1.00  0.00    -0.283 C  
BRANCH  14  16
HETATM   16  N   UNL     1     -11.716   6.681  70.368  1.00  0.00    -0.452 NA 
HETATM   17  H   UNL     1     -11.737   5.999  69.609  1.00  0.00     0.000 HD 
BRANCH  16  18
HETATM   18  N   UNL     1     -12.641   6.775  71.196  1.00  0.00    -0.320 NA 
HETATM   19  N   UNL     1     -13.483   6.860  71.958  1.00  0.00    -0.539 NA 
HETATM   20  H1  UNL     1     -14.241   6.937  72.637  1.00  0.00     0.000 HD 
HETATM   21  H2  UNL     1     -12.798   6.815  72.713  1.00  0.00     0.000 HD 
ENDBRANCH  16  18
ENDBRANCH  14  16
BRANCH  15  22
HETATM   22  C   UNL     1      -9.311   8.517  72.575  1.00  0.00    -0.246 C  
HETATM   23  H   UNL     1      -8.077   7.649  73.858  1.00  0.00     0.000 HD 
HETATM   24  O   UNL     1      -8.926   7.475  73.468  1.00  0.00    -0.174 OA 
ENDBRANCH  15  22
ENDBRANCH   4  11
TORSDOF 4
ENDMDL
MODEL      111
REMARK 921   NORMALIZED FREE ENERGY PREDICTED BY IDOCK:   -3.87 KCAL/MOL
REMARK 922        TOTAL FREE ENERGY PREDICTED BY IDOCK:   -5.29 KCAL/MOL
REMARK 923 INTER-LIGAND FREE ENERGY PREDICTED BY IDOCK:   -4.75 KCAL/MOL
REMARK 924 INTRA-LIGAND FREE ENERGY PREDICTED BY IDOCK:   -0.54 KCAL/MOL
REMARK 927      BINDING AFFINITY PREDICTED BY RF-SCORE:    0.00 PKD
ROOT
HETATM    1  C   UNL     1      -9.829   4.655  72.253  1.00  0.00    -0.222 C  
HETATM    2  C   UNL     1     -10.182   6.059  71.888  1.00  0.00    -0.237 C  
HETATM    3  C   UNL     1     -10.191   6.538  70.639  1.00  0.00    -0.187 C  
HETATM    4  N   UNL     1     -10.508   7.853  70.342  1.00  0.00    -0.214 N  
HETATM    5  C   UNL     1     -10.917   8.733  71.338  1.00  0.00    -0.289 C  
HETATM    6  O   UNL     1     -10.525   6.629  74.163  1.00  0.00    -0.353 OA 
HETATM    7  O   UNL     1     -11.259   9.897  71.134  1.00  0.00    -0.354 OA 
HETATM    8  H   UNL     1     -11.220   8.868  73.353  1.00  0.00     0.000 HD 
HETATM    9  N   UNL     1     -10.916   8.236  72.612  1.00  0.00    -0.353 N  
HETATM   10  C   UNL     1     -10.548   6.978  72.989  1.00  0.00    -0.292 C  
ENDROOT
BRANCH   4  11
HETATM   11  C   UNL     1     -10.521   8.351  68.966  1.00  0.00    -0.201 C  
HETATM   12  C   UNL     1      -9.177   8.891  68.490  1.00  0.00    -0.137 C  
HETATM   13  O   UNL     1     -10.870   7.302  68.041  1.00  0.00    -0.178 OA 
HETATM   14  C   UNL     1      -9.278   8.757  66.988  1.00  0.00    -0.142 C  
HETATM   15  C   UNL     1     -10.134   7.499  66.812  1.00  0.00    -0.243 C  
BRANCH  14  16
HETATM   16  N   UNL     1     -10.014   9.915  66.442  1.00  0.00    -0.230 NA 
HETATM   17  H   UNL     1     -10.482  10.591  67.046  1.00  0.00     0.000 HD 
BRANCH  16  18
HETATM   18  N   UNL     1     -10.029  10.017  65.202  1.00  0.00    -0.325 NA 
HETATM   19  N   UNL     1     -10.039  10.105  64.066  1.00  0.00    -0.474 NA 
HETATM   20  H1  UNL     1     -10.051  10.188  63.049  1.00  0.00     0.000 HD 
HETATM   21  H2  UNL     1      -9.405   9.308  64.003  1.00  0.00     0.000 HD 
ENDBRANCH  16  18
ENDBRANCH  14  16
BRANCH  15  22
HETATM   22  C   UNL     1      -9.306   6.239  66.542  1.00  0.00    -0.151 C  
HETATM   23  H   UNL     1      -9.444   4.291  66.871  1.00  0.00     0.000 HD 
HETATM   24  O   UNL     1      -9.957   5.073  67.039  1.00  0.00    -0.167 OA 
ENDBRANCH  15  22
ENDBRANCH   4  11
TORSDOF 4
ENDMDL
MODEL      112
REMARK 921   NORMALIZED FREE ENERGY PREDICTED BY IDOCK:   -3.87 KCAL/MOL
REMARK 922        TOTAL FREE ENERGY PREDICTED BY IDOCK:   -5.29 KCAL/MOL
REMARK 923 INTER-LIGAND FREE ENERGY PREDICTED BY IDOCK:   -4.98 KCAL/MOL
REMARK 924 INTRA-LIGAND FREE ENERGY PREDICTED BY IDOCK:   -0.30 KCAL/MOL
REMARK 927      BINDING AFFINITY PREDICTED BY RF-SCORE:    0.00 PKD
ROOT
HETATM    1  C   UNL     1     -11.585  12.350  63.423  1.00  0.00    -0.541 C  
HETATM    2  C   UNL     1     -11.582  12.428  64.914  1.00  0.00    -0.392 C  
HETATM    3  C   UNL     1     -10.937  11.573  65.717  1.00  0.00    -0.246 C  
HETATM    4  N   UNL     1     -10.973  11.668  67.098  1.00  0.00    -0.264 N  
HETATM    5  C   UNL     1     -11.625  12.724  67.726  1.00  0.00    -0.353 C  
HETATM    6  O   UNL     1     -12.994  14.330  64.879  1.00  0.00    -0.682 OA 
HETATM    7  O   UNL     1     -11.652  12.894  68.944  1.00  0.00    -0.273 OA 
HETATM    8  H   UNL     1     -12.752  14.384  67.347  1.00  0.00     0.000 HD 
HETATM    9  N   UNL     1     -12.274  13.601  66.901  1.00  0.00    -0.384 N  
HETATM   10  C   UNL     1     -12.345  13.530  65.541  1.00  0.00    -0.481 C  
ENDROOT
BRANCH   4  11
HETATM   11  C   UNL     1     -10.250  10.727  67.954  1.00  0.00    -0.176 C  
HETATM   12  C   UNL     1      -9.585   9.585  67.195  1.00  0.00    -0.206 C  
HETATM   13  O   UNL     1      -9.189  11.390  68.671  1.00  0.00    -0.183 OA 
HETATM   14  C   UNL     1      -8.478   9.162  68.133  1.00  0.00    -0.125 C  
HETATM   15  C   UNL     1      -8.077  10.478  68.806  1.00  0.00    -0.131 C  
BRANCH  14  16
HETATM   16  N   UNL     1      -9.029   8.251  69.158  1.00  0.00    -0.147 NA 
HETATM   17  H   UNL     1      -9.074   8.510  70.143  1.00  0.00     0.000 HD 
BRANCH  16  18
HETATM   18  N   UNL     1      -9.434   7.148  68.746  1.00  0.00    -0.142 NA 
HETATM   19  N   UNL     1      -9.800   6.139  68.365  1.00  0.00    -0.122 NA 
HETATM   20  H1  UNL     1     -10.133   5.236  68.027  1.00  0.00     0.000 HD 
HETATM   21  H2  UNL     1      -8.967   6.062  67.781  1.00  0.00     0.000 HD 
ENDBRANCH  16  18
ENDBRANCH  14  16
BRANCH  15  22
HETATM   22  C   UNL     1      -6.844  11.128  68.170  1.00  0.00    -0.067 C  
HETATM   23  H   UNL     1      -6.089  12.946  67.952  1.00  0.00     0.000 HD 
HETATM   24  O   UNL     1      -6.853  12.542  68.346  1.00  0.00    -0.072 OA 
ENDBRANCH  15  22
ENDBRANCH   4  11
TORSDOF 4
ENDMDL
MODEL      113
REMARK 921   NORMALIZED FREE ENERGY PREDICTED BY IDOCK:   -3.87 KCAL/MOL
REMARK 922        TOTAL FREE ENERGY PREDICTED BY IDOCK:   -5.28 KCAL/MOL
REMARK 923 INTER-LIGAND FREE ENERGY PREDICTED BY IDOCK:   -5.46 KCAL/MOL
REMARK 924 INTRA-LIGAND FREE ENERGY PREDICTED BY IDOCK:    0.18 KCAL/MOL
REMARK 927      BINDING AFFINITY PREDICTED BY RF-SCORE:    0.00 PKD
ROOT
HETATM    1  C   UNL     1     -10.976  13.140  66.410  1.00  0.00    -0.305 C  
HETATM    2  C   UNL     1     -10.773  14.478  67.039  1.00  0.00    -0.291 C  
HETATM    3  C   UNL     1      -9.943  15.419  66.570  1.00  0.00    -0.268 C  
HETATM    4  N   UNL     1      -9.769  16.643  67.192  1.00  0.00    -0.245 N  
HETATM    5  C   UNL     1     -10.522  16.993  68.307  1.00  0.00    -0.363 C  
HETATM    6  O   UNL     1     -12.297  13.962  68.778  1.00  0.00    -0.288 OA 
HETATM    7  O   UNL     1     -10.452  18.082  68.875  1.00  0.00    -0.302 OA 
HETATM    8  H   UNL     1     -11.940  16.278  69.591  1.00  0.00     0.000 HD 
HETATM    9  N   UNL     1     -11.376  16.034  68.777  1.00  0.00    -0.365 N  
HETATM   10  C   UNL     1     -11.547  14.782  68.263  1.00  0.00    -0.323 C  
ENDROOT
BRANCH   4  11
HETATM   11  C   UNL     1      -8.864  17.659  66.653  1.00  0.00    -0.263 C  
HETATM   12  C   UNL     1      -9.454  19.065  66.628  1.00  0.00    -0.375 C  
HETATM   13  O   UNL     1      -7.664  17.754  67.446  1.00  0.00    -0.198 OA 
HETATM   14  C   UNL     1      -8.224  19.942  66.636  1.00  0.00    -0.323 C  
HETATM   15  C   UNL     1      -7.229  19.132  67.472  1.00  0.00    -0.217 C  
BRANCH  14  16
HETATM   16  N   UNL     1      -7.702  20.063  65.259  1.00  0.00    -0.406 NA 
HETATM   17  H   UNL     1      -8.234  19.743  64.450  1.00  0.00     0.000 HD 
BRANCH  16  18
HETATM   18  N   UNL     1      -6.576  20.581  65.147  1.00  0.00    -0.276 NA 
HETATM   19  N   UNL     1      -5.544  21.056  65.050  1.00  0.00    -0.228 NA 
HETATM   20  H1  UNL     1      -4.621  21.480  64.958  1.00  0.00     0.000 HD 
HETATM   21  H2  UNL     1      -5.525  21.208  66.058  1.00  0.00     0.000 HD 
ENDBRANCH  16  18
ENDBRANCH  14  16
BRANCH  15  22
HETATM   22  C   UNL     1      -7.161  19.585  68.934  1.00  0.00    -0.362 C  
HETATM   23  H   UNL     1      -6.838  18.773  70.711  1.00  0.00     0.000 HD 
HETATM   24  O   UNL     1      -6.880  18.492  69.805  1.00  0.00    -0.064 OA 
ENDBRANCH  15  22
ENDBRANCH   4  11
TORSDOF 4
ENDMDL
MODEL      114
REMARK 921   NORMALIZED FREE ENERGY PREDICTED BY IDOCK:   -3.85 KCAL/MOL
REMARK 922        TOTAL FREE ENERGY PREDICTED BY IDOCK:   -5.27 KCAL/MOL
REMARK 923 INTER-LIGAND FREE ENERGY PREDICTED BY IDOCK:   -5.86 KCAL/MOL
REMARK 924 INTRA-LIGAND FREE ENERGY PREDICTED BY IDOCK:    0.60 KCAL/MOL
REMARK 927      BINDING AFFINITY PREDICTED BY RF-SCORE:    0.00 PKD
ROOT
HETATM    1  C   UNL     1     -10.345  15.757  66.031  1.00  0.00    -0.356 C  
HETATM    2  C   UNL     1     -10.816  14.735  67.013  1.00  0.00    -0.315 C  
HETATM    3  C   UNL     1     -10.724  13.412  66.834  1.00  0.00    -0.273 C  
HETATM    4  N   UNL     1     -11.189  12.496  67.762  1.00  0.00    -0.252 N  
HETATM    5  C   UNL     1     -11.708  12.913  68.982  1.00  0.00    -0.327 C  
HETATM    6  O   UNL     1     -11.581  16.421  68.493  1.00  0.00    -0.302 OA 
HETATM    7  O   UNL     1     -12.091  12.150  69.869  1.00  0.00    -0.298 OA 
HETATM    8  H   UNL     1     -12.165  14.588  70.058  1.00  0.00     0.000 HD 
HETATM    9  N   UNL     1     -11.791  14.266  69.165  1.00  0.00    -0.312 N  
HETATM   10  C   UNL     1     -11.424  15.227  68.270  1.00  0.00    -0.347 C  
ENDROOT
BRANCH   4  11
HETATM   11  C   UNL     1     -11.067  11.053  67.548  1.00  0.00    -0.302 C  
HETATM   12  C   UNL     1      -9.692  10.615  67.055  1.00  0.00    -0.207 C  
HETATM   13  O   UNL     1     -11.291  10.328  68.774  1.00  0.00    -0.230 OA 
HETATM   14  C   UNL     1      -9.629   9.168  67.489  1.00  0.00    -0.150 C  
HETATM   15  C   UNL     1     -10.433   9.165  68.792  1.00  0.00    -0.212 C  
BRANCH  14  16
HETATM   16  N   UNL     1     -10.330   8.330  66.494  1.00  0.00    -0.423 NA 
HETATM   17  H   UNL     1     -10.359   8.575  65.505  1.00  0.00     0.000 HD 
BRANCH  16  18
HETATM   18  N   UNL     1     -10.881   7.305  66.937  1.00  0.00    -0.314 NA 
HETATM   19  N   UNL     1     -11.381   6.364  67.341  1.00  0.00    -0.718 NA 
HETATM   20  H1  UNL     1     -11.833   5.525  67.704  1.00  0.00     0.000 HD 
HETATM   21  H2  UNL     1     -10.522   5.841  67.172  1.00  0.00     0.000 HD 
ENDBRANCH  16  18
ENDBRANCH  14  16
BRANCH  15  22
HETATM   22  C   UNL     1      -9.553   9.238  70.043  1.00  0.00    -0.209 C  
HETATM   23  H   UNL     1      -9.792   9.429  72.000  1.00  0.00     0.000 HD 
HETATM   24  O   UNL     1     -10.338   9.384  71.224  1.00  0.00    -0.317 OA 
ENDBRANCH  15  22
ENDBRANCH   4  11
TORSDOF 4
ENDMDL
MODEL      115
REMARK 921   NORMALIZED FREE ENERGY PREDICTED BY IDOCK:   -3.85 KCAL/MOL
REMARK 922        TOTAL FREE ENERGY PREDICTED BY IDOCK:   -5.26 KCAL/MOL
REMARK 923 INTER-LIGAND FREE ENERGY PREDICTED BY IDOCK:   -5.52 KCAL/MOL
REMARK 924 INTRA-LIGAND FREE ENERGY PREDICTED BY IDOCK:    0.25 KCAL/MOL
REMARK 927      BINDING AFFINITY PREDICTED BY RF-SCORE:    0.00 PKD
ROOT
HETATM    1  C   UNL     1      -9.836  11.100  62.641  1.00  0.00    -0.166 C  
HETATM    2  C   UNL     1     -10.365  11.311  64.021  1.00  0.00    -0.430 C  
HETATM    3  C   UNL     1      -9.915  10.678  65.111  1.00  0.00    -0.303 C  
HETATM    4  N   UNL     1     -10.444  10.889  66.373  1.00  0.00    -0.255 N  
HETATM    5  C   UNL     1     -11.430  11.846  66.585  1.00  0.00    -0.314 C  
HETATM    6  O   UNL     1     -11.955  12.883  63.237  1.00  0.00    -0.555 OA 
HETATM    7  O   UNL     1     -11.906  12.117  67.687  1.00  0.00    -0.478 OA 
HETATM    8  H   UNL     1     -12.599  13.208  65.611  1.00  0.00     0.000 HD 
HETATM    9  N   UNL     1     -11.880  12.498  65.470  1.00  0.00    -0.420 N  
HETATM   10  C   UNL     1     -11.461  12.292  64.189  1.00  0.00    -0.383 C  
ENDROOT
BRANCH   4  11
HETATM   11  C   UNL     1      -9.927  10.192  67.552  1.00  0.00    -0.191 C  
HETATM   12  C   UNL     1      -9.252  11.109  68.566  1.00  0.00    -0.183 C  
HETATM   13  O   UNL     1     -10.989   9.532  68.268  1.00  0.00    -0.182 OA 
HETATM   14  C   UNL     1      -9.370  10.325  69.853  1.00  0.00     0.004 C  
HETATM   15  C   UNL     1     -10.701   9.586  69.684  1.00  0.00    -0.238 C  
BRANCH  14  16
HETATM   16  N   UNL     1      -8.279   9.331  69.921  1.00  0.00    -0.128 NA 
HETATM   17  H   UNL     1      -8.285   8.482  69.356  1.00  0.00     0.000 HD 
BRANCH  16  18
HETATM   18  N   UNL     1      -7.352   9.592  70.710  1.00  0.00    -0.295 NA 
HETATM   19  N   UNL     1      -6.501   9.833  71.428  1.00  0.00    -0.311 NA 
HETATM   20  H1  UNL     1      -5.741  10.047  72.074  1.00  0.00     0.000 HD 
HETATM   21  H2  UNL     1      -5.868   9.937  70.634  1.00  0.00     0.000 HD 
ENDBRANCH  16  18
ENDBRANCH  14  16
BRANCH  15  22
HETATM   22  C   UNL     1     -11.871  10.284  70.384  1.00  0.00    -0.309 C  
HETATM   23  H   UNL     1     -12.793  10.207  72.136  1.00  0.00     0.000 HD 
HETATM   24  O   UNL     1     -12.068   9.774  71.701  1.00  0.00    -0.378 OA 
ENDBRANCH  15  22
ENDBRANCH   4  11
TORSDOF 4
ENDMDL
MODEL      116
REMARK 921   NORMALIZED FREE ENERGY PREDICTED BY IDOCK:   -3.84 KCAL/MOL
REMARK 922        TOTAL FREE ENERGY PREDICTED BY IDOCK:   -5.25 KCAL/MOL
REMARK 923 INTER-LIGAND FREE ENERGY PREDICTED BY IDOCK:   -4.73 KCAL/MOL
REMARK 924 INTRA-LIGAND FREE ENERGY PREDICTED BY IDOCK:   -0.51 KCAL/MOL
REMARK 927      BINDING AFFINITY PREDICTED BY RF-SCORE:    0.00 PKD
ROOT
HETATM    1  C   UNL     1     -12.062  10.190  70.812  1.00  0.00    -0.438 C  
HETATM    2  C   UNL     1     -11.612   8.767  70.793  1.00  0.00    -0.288 C  
HETATM    3  C   UNL     1     -11.027   8.169  69.748  1.00  0.00    -0.132 C  
HETATM    4  N   UNL     1     -10.639   6.840  69.764  1.00  0.00    -0.215 N  
HETATM    5  C   UNL     1     -10.766   6.071  70.915  1.00  0.00    -0.267 C  
HETATM    6  O   UNL     1     -12.393   8.427  73.005  1.00  0.00    -0.220 OA 
HETATM    7  O   UNL     1     -10.395   4.902  71.010  1.00  0.00    -0.208 OA 
HETATM    8  H   UNL     1     -11.450   6.138  72.838  1.00  0.00     0.000 HD 
HETATM    9  N   UNL     1     -11.355   6.688  71.984  1.00  0.00    -0.267 N  
HETATM   10  C   UNL     1     -11.828   7.967  72.020  1.00  0.00    -0.318 C  
ENDROOT
BRANCH   4  11
HETATM   11  C   UNL     1      -9.991   6.213  68.611  1.00  0.00    -0.148 C  
HETATM   12  C   UNL     1     -10.593   6.614  67.269  1.00  0.00    -0.387 C  
HETATM   13  O   UNL     1      -8.598   6.579  68.539  1.00  0.00    -0.123 OA 
HETATM   14  C   UNL     1      -9.454   6.368  66.307  1.00  0.00    -0.095 C  
HETATM   15  C   UNL     1      -8.217   6.691  67.149  1.00  0.00    -0.113 C  
BRANCH  14  16
HETATM   16  N   UNL     1      -9.423   4.936  65.943  1.00  0.00    -0.157 NA 
HETATM   17  H   UNL     1      -8.625   4.340  66.163  1.00  0.00     0.000 HD 
BRANCH  16  18
HETATM   18  N   UNL     1     -10.429   4.502  65.353  1.00  0.00    -0.236 NA 
HETATM   19  N   UNL     1     -11.353   4.108  64.815  1.00  0.00    -0.962 NA 
HETATM   20  H1  UNL     1     -12.177   3.752  64.331  1.00  0.00     0.000 HD 
HETATM   21  H2  UNL     1     -11.927   4.790  65.312  1.00  0.00     0.000 HD 
ENDBRANCH  16  18
ENDBRANCH  14  16
BRANCH  15  22
HETATM   22  C   UNL     1      -7.679   8.106  66.912  1.00  0.00    -0.096 C  
HETATM   23  H   UNL     1      -6.364   9.336  67.737  1.00  0.00     0.000 HD 
HETATM   24  O   UNL     1      -6.698   8.458  67.884  1.00  0.00    -0.063 OA 
ENDBRANCH  15  22
ENDBRANCH   4  11
TORSDOF 4
ENDMDL
MODEL      117
REMARK 921   NORMALIZED FREE ENERGY PREDICTED BY IDOCK:   -3.83 KCAL/MOL
REMARK 922        TOTAL FREE ENERGY PREDICTED BY IDOCK:   -5.23 KCAL/MOL
REMARK 923 INTER-LIGAND FREE ENERGY PREDICTED BY IDOCK:   -5.23 KCAL/MOL
REMARK 924 INTRA-LIGAND FREE ENERGY PREDICTED BY IDOCK:   -0.01 KCAL/MOL
REMARK 927      BINDING AFFINITY PREDICTED BY RF-SCORE:    0.00 PKD
ROOT
HETATM    1  C   UNL     1     -12.103  12.900  63.093  1.00  0.00    -0.351 C  
HETATM    2  C   UNL     1     -11.099  12.690  64.178  1.00  0.00    -0.428 C  
HETATM    3  C   UNL     1     -10.870  13.552  65.176  1.00  0.00    -0.330 C  
HETATM    4  N   UNL     1      -9.917  13.329  66.156  1.00  0.00    -0.289 N  
HETATM    5  C   UNL     1      -9.197  12.141  66.196  1.00  0.00    -0.155 C  
HETATM    6  O   UNL     1     -10.429  10.619  63.242  1.00  0.00    -0.129 OA 
HETATM    7  O   UNL     1      -8.374  11.860  67.067  1.00  0.00    -0.167 OA 
HETATM    8  H   UNL     1      -8.925  10.379  65.200  1.00  0.00     0.000 HD 
HETATM    9  N   UNL     1      -9.441  11.258  65.180  1.00  0.00    -0.222 N  
HETATM   10  C   UNL     1     -10.308  11.440  64.143  1.00  0.00    -0.344 C  
ENDROOT
BRANCH   4  11
HETATM   11  C   UNL     1      -9.693  14.282  67.243  1.00  0.00    -0.234 C  
HETATM   12  C   UNL     1      -8.306  14.914  67.236  1.00  0.00    -0.233 C  
HETATM   13  O   UNL     1     -10.623  15.381  67.167  1.00  0.00    -0.292 OA 
HETATM   14  C   UNL     1      -8.525  16.206  67.989  1.00  0.00    -0.168 C  
HETATM   15  C   UNL     1      -9.959  16.586  67.610  1.00  0.00    -0.254 C  
BRANCH  14  16
HETATM   16  N   UNL     1      -8.471  15.939  69.441  1.00  0.00    -0.242 NA 
HETATM   17  H   UNL     1      -9.102  16.397  70.099  1.00  0.00     0.000 HD 
BRANCH  16  18
HETATM   18  N   UNL     1      -7.608  15.123  69.813  1.00  0.00    -0.169 NA 
HETATM   19  N   UNL     1      -6.815  14.378  70.152  1.00  0.00    -0.388 NA 
HETATM   20  H1  UNL     1      -6.108  13.709  70.456  1.00  0.00     0.000 HD 
HETATM   21  H2  UNL     1      -6.095  14.956  69.718  1.00  0.00     0.000 HD 
ENDBRANCH  16  18
ENDBRANCH  14  16
BRANCH  15  22
HETATM   22  C   UNL     1     -10.031  17.615  66.478  1.00  0.00    -0.332 C  
HETATM   23  H   UNL     1      -8.773  18.618  65.321  1.00  0.00     0.000 HD 
HETATM   24  O   UNL     1      -8.729  17.979  66.023  1.00  0.00    -0.498 OA 
ENDBRANCH  15  22
ENDBRANCH   4  11
TORSDOF 4
ENDMDL
MODEL      118
REMARK 921   NORMALIZED FREE ENERGY PREDICTED BY IDOCK:   -3.82 KCAL/MOL
REMARK 922        TOTAL FREE ENERGY PREDICTED BY IDOCK:   -5.22 KCAL/MOL
REMARK 923 INTER-LIGAND FREE ENERGY PREDICTED BY IDOCK:   -4.72 KCAL/MOL
REMARK 924 INTRA-LIGAND FREE ENERGY PREDICTED BY IDOCK:   -0.50 KCAL/MOL
REMARK 927      BINDING AFFINITY PREDICTED BY RF-SCORE:    0.00 PKD
ROOT
HETATM    1  C   UNL     1     -11.974  12.589  70.120  1.00  0.00    -0.377 C  
HETATM    2  C   UNL     1     -11.650  12.344  68.684  1.00  0.00    -0.365 C  
HETATM    3  C   UNL     1     -11.178  11.190  68.198  1.00  0.00    -0.292 C  
HETATM    4  N   UNL     1     -10.873  11.007  66.860  1.00  0.00    -0.276 N  
HETATM    5  C   UNL     1     -11.124  12.006  65.926  1.00  0.00    -0.324 C  
HETATM    6  O   UNL     1     -12.264  14.559  68.105  1.00  0.00    -0.234 OA 
HETATM    7  O   UNL     1     -10.923  11.889  64.717  1.00  0.00    -0.295 OA 
HETATM    8  H   UNL     1     -11.813  13.920  65.750  1.00  0.00     0.000 HD 
HETATM    9  N   UNL     1     -11.617  13.180  66.424  1.00  0.00    -0.332 N  
HETATM   10  C   UNL     1     -11.872  13.458  67.735  1.00  0.00    -0.358 C  
ENDROOT
BRANCH   4  11
HETATM   11  C   UNL     1     -10.367   9.731  66.352  1.00  0.00    -0.177 C  
HETATM   12  C   UNL     1      -8.878   9.514  66.598  1.00  0.00    -0.150 C  
HETATM   13  O   UNL     1     -11.033   8.622  66.987  1.00  0.00    -0.085 OA 
HETATM   14  C   UNL     1      -8.752   8.008  66.566  1.00  0.00    -0.146 C  
HETATM   15  C   UNL     1     -10.090   7.539  67.145  1.00  0.00    -0.247 C  
BRANCH  14  16
HETATM   16  N   UNL     1      -8.656   7.557  65.162  1.00  0.00    -0.346 NA 
HETATM   17  H   UNL     1      -8.519   8.212  64.392  1.00  0.00     0.000 HD 
BRANCH  16  18
HETATM   18  N   UNL     1      -8.750   6.330  64.977  1.00  0.00     0.019 NA 
HETATM   19  N   UNL     1      -8.843   5.207  64.806  1.00  0.00    -0.253 NA 
HETATM   20  H1  UNL     1      -8.921   4.201  64.654  1.00  0.00     0.000 HD 
HETATM   21  H2  UNL     1      -9.836   5.324  64.603  1.00  0.00     0.000 HD 
ENDBRANCH  16  18
ENDBRANCH  14  16
BRANCH  15  22
HETATM   22  C   UNL     1     -10.011   7.186  68.634  1.00  0.00    -0.159 C  
HETATM   23  H   UNL     1     -11.084   6.190  69.968  1.00  0.00     0.000 HD 
HETATM   24  O   UNL     1     -11.133   6.409  69.044  1.00  0.00    -0.327 OA 
ENDBRANCH  15  22
ENDBRANCH   4  11
TORSDOF 4
ENDMDL
MODEL      119
REMARK 921   NORMALIZED FREE ENERGY PREDICTED BY IDOCK:   -3.81 KCAL/MOL
REMARK 922        TOTAL FREE ENERGY PREDICTED BY IDOCK:   -5.21 KCAL/MOL
REMARK 923 INTER-LIGAND FREE ENERGY PREDICTED BY IDOCK:   -4.82 KCAL/MOL
REMARK 924 INTRA-LIGAND FREE ENERGY PREDICTED BY IDOCK:   -0.39 KCAL/MOL
REMARK 927      BINDING AFFINITY PREDICTED BY RF-SCORE:    0.00 PKD
ROOT
HETATM    1  C   UNL     1      -8.277  10.298  63.527  1.00  0.00    -0.159 C  
HETATM    2  C   UNL     1      -8.849   9.595  64.713  1.00  0.00    -0.242 C  
HETATM    3  C   UNL     1      -9.671  10.159  65.606  1.00  0.00    -0.259 C  
HETATM    4  N   UNL     1     -10.168   9.477  66.704  1.00  0.00    -0.247 N  
HETATM    5  C   UNL     1      -9.897   8.126  66.891  1.00  0.00    -0.247 C  
HETATM    6  O   UNL     1      -7.701   7.597  64.159  1.00  0.00    -0.115 OA 
HETATM    7  O   UNL     1     -10.347   7.452  67.816  1.00  0.00    -0.186 OA 
HETATM    8  H   UNL     1      -8.861   6.559  66.091  1.00  0.00     0.000 HD 
HETATM    9  N   UNL     1      -9.064   7.551  65.971  1.00  0.00    -0.137 N  
HETATM   10  C   UNL     1      -8.479   8.174  64.908  1.00  0.00    -0.075 C  
ENDROOT
BRANCH   4  11
HETATM   11  C   UNL     1     -11.075  10.114  67.661  1.00  0.00    -0.206 C  
HETATM   12  C   UNL     1     -10.390  10.598  68.934  1.00  0.00    -0.225 C  
HETATM   13  O   UNL     1     -11.697  11.279  67.085  1.00  0.00    -0.533 OA 
HETATM   14  C   UNL     1     -11.322  11.683  69.421  1.00  0.00    -0.278 C  
HETATM   15  C   UNL     1     -11.870  12.275  68.118  1.00  0.00    -0.311 C  
BRANCH  14  16
HETATM   16  N   UNL     1     -12.437  11.069  70.171  1.00  0.00    -0.294 NA 
HETATM   17  H   UNL     1     -13.409  11.323  69.999  1.00  0.00     0.000 HD 
BRANCH  16  18
HETATM   18  N   UNL     1     -12.117  10.222  71.026  1.00  0.00    -0.353 NA 
HETATM   19  N   UNL     1     -11.826   9.450  71.812  1.00  0.00    -0.384 NA 
HETATM   20  H1  UNL     1     -11.563   8.756  72.512  1.00  0.00     0.000 HD 
HETATM   21  H2  UNL     1     -12.092  10.106  72.547  1.00  0.00     0.000 HD 
ENDBRANCH  16  18
ENDBRANCH  14  16
BRANCH  15  22
HETATM   22  C   UNL     1     -11.142  13.549  67.683  1.00  0.00    -0.269 C  
HETATM   23  H   UNL     1     -10.621  14.440  65.991  1.00  0.00     0.000 HD 
HETATM   24  O   UNL     1     -11.074  13.650  66.262  1.00  0.00    -0.298 OA 
ENDBRANCH  15  22
ENDBRANCH   4  11
TORSDOF 4
ENDMDL
MODEL      120
REMARK 921   NORMALIZED FREE ENERGY PREDICTED BY IDOCK:   -3.80 KCAL/MOL
REMARK 922        TOTAL FREE ENERGY PREDICTED BY IDOCK:   -5.20 KCAL/MOL
REMARK 923 INTER-LIGAND FREE ENERGY PREDICTED BY IDOCK:   -5.27 KCAL/MOL
REMARK 924 INTRA-LIGAND FREE ENERGY PREDICTED BY IDOCK:    0.07 KCAL/MOL
REMARK 927      BINDING AFFINITY PREDICTED BY RF-SCORE:    0.00 PKD
ROOT
HETATM    1  C   UNL     1      -5.259  17.925  68.803  1.00  0.00    -0.161 C  
HETATM    2  C   UNL     1      -6.717  18.123  68.552  1.00  0.00    -0.230 C  
HETATM    3  C   UNL     1      -7.615  17.134  68.468  1.00  0.00    -0.245 C  
HETATM    4  N   UNL     1      -8.958  17.357  68.217  1.00  0.00    -0.261 N  
HETATM    5  C   UNL     1      -9.462  18.649  68.118  1.00  0.00    -0.325 C  
HETATM    6  O   UNL     1      -6.436  20.472  68.411  1.00  0.00    -0.299 OA 
HETATM    7  O   UNL     1     -10.650  18.917  67.946  1.00  0.00    -0.395 OA 
HETATM    8  H   UNL     1      -8.900  20.612  68.151  1.00  0.00     0.000 HD 
HETATM    9  N   UNL     1      -8.544  19.658  68.214  1.00  0.00    -0.329 N  
HETATM   10  C   UNL     1      -7.199  19.514  68.388  1.00  0.00    -0.319 C  
ENDROOT
BRANCH   4  11
HETATM   11  C   UNL     1      -9.921  16.258  68.140  1.00  0.00    -0.239 C  
HETATM   12  C   UNL     1     -10.291  15.858  66.717  1.00  0.00    -0.298 C  
HETATM   13  O   UNL     1      -9.394  15.066  68.757  1.00  0.00    -0.187 OA 
HETATM   14  C   UNL     1     -10.749  14.427  66.882  1.00  0.00    -0.292 C  
HETATM   15  C   UNL     1      -9.867  13.914  68.024  1.00  0.00    -0.234 C  
BRANCH  14  16
HETATM   16  N   UNL     1     -12.159  14.414  67.326  1.00  0.00    -0.573 NA 
HETATM   17  H   UNL     1     -12.931  14.563  66.676  1.00  0.00     0.000 HD 
BRANCH  16  18
HETATM   18  N   UNL     1     -12.346  14.211  68.540  1.00  0.00    -0.146 NA 
HETATM   19  N   UNL     1     -12.522  14.029  69.650  1.00  0.00    -0.418 NA 
HETATM   20  H1  UNL     1     -12.676  13.862  70.645  1.00  0.00     0.000 HD 
HETATM   21  H2  UNL     1     -13.366  14.601  69.605  1.00  0.00     0.000 HD 
ENDBRANCH  16  18
ENDBRANCH  14  16
BRANCH  15  22
HETATM   22  C   UNL     1      -8.650  13.123  67.536  1.00  0.00    -0.196 C  
HETATM   23  H   UNL     1      -6.892  12.544  68.243  1.00  0.00     0.000 HD 
HETATM   24  O   UNL     1      -7.648  13.035  68.546  1.00  0.00    -0.125 OA 
ENDBRANCH  15  22
ENDBRANCH   4  11
TORSDOF 4
ENDMDL
MODEL      121
REMARK 921   NORMALIZED FREE ENERGY PREDICTED BY IDOCK:   -3.80 KCAL/MOL
REMARK 922        TOTAL FREE ENERGY PREDICTED BY IDOCK:   -5.20 KCAL/MOL
REMARK 923 INTER-LIGAND FREE ENERGY PREDICTED BY IDOCK:   -4.61 KCAL/MOL
REMARK 924 INTRA-LIGAND FREE ENERGY PREDICTED BY IDOCK:   -0.59 KCAL/MOL
REMARK 927      BINDING AFFINITY PREDICTED BY RF-SCORE:    0.00 PKD
ROOT
HETATM    1  C   UNL     1      -9.650   4.051  66.345  1.00  0.00    -0.217 C  
HETATM    2  C   UNL     1      -9.510   5.382  67.007  1.00  0.00    -0.133 C  
HETATM    3  C   UNL     1      -9.906   5.653  68.257  1.00  0.00    -0.141 C  
HETATM    4  N   UNL     1      -9.775   6.907  68.830  1.00  0.00    -0.137 N  
HETATM    5  C   UNL     1      -9.140   7.941  68.152  1.00  0.00    -0.133 C  
HETATM    6  O   UNL     1      -8.535   6.317  65.060  1.00  0.00    -0.128 OA 
HETATM    7  O   UNL     1      -8.946   9.061  68.623  1.00  0.00    -0.136 OA 
HETATM    8  H   UNL     1      -8.254   8.404  66.371  1.00  0.00     0.000 HD 
HETATM    9  N   UNL     1      -8.727   7.657  66.879  1.00  0.00    -0.125 N  
HETATM   10  C   UNL     1      -8.888   6.472  66.223  1.00  0.00    -0.146 C  
ENDROOT
BRANCH   4  11
HETATM   11  C   UNL     1     -10.206   7.175  70.203  1.00  0.00    -0.195 C  
HETATM   12  C   UNL     1     -11.677   6.870  70.460  1.00  0.00    -0.401 C  
HETATM   13  O   UNL     1      -9.469   6.367  71.142  1.00  0.00    -0.166 OA 
HETATM   14  C   UNL     1     -11.712   6.637  71.953  1.00  0.00    -0.313 C  
HETATM   15  C   UNL     1     -10.345   6.006  72.234  1.00  0.00    -0.192 C  
BRANCH  14  16
HETATM   16  N   UNL     1     -11.790   7.938  72.648  1.00  0.00    -0.562 NA 
HETATM   17  H   UNL     1     -10.958   8.414  72.998  1.00  0.00     0.000 HD 
BRANCH  16  18
HETATM   18  N   UNL     1     -12.930   8.418  72.781  1.00  0.00    -0.111 NA 
HETATM   19  N   UNL     1     -13.973   8.862  72.899  1.00  0.00    -1.052 NA 
HETATM   20  H1  UNL     1     -14.908   9.256  73.008  1.00  0.00     0.000 HD 
HETATM   21  H2  UNL     1     -13.662   9.708  72.421  1.00  0.00     0.000 HD 
ENDBRANCH  16  18
ENDBRANCH  14  16
BRANCH  15  22
HETATM   22  C   UNL     1     -10.394   4.478  72.324  1.00  0.00    -0.176 C  
HETATM   23  H   UNL     1      -9.656   2.924  71.343  1.00  0.00     0.000 HD 
HETATM   24  O   UNL     1      -9.626   3.872  71.288  1.00  0.00    -0.148 OA 
ENDBRANCH  15  22
ENDBRANCH   4  11
TORSDOF 4
ENDMDL
MODEL      122
REMARK 921   NORMALIZED FREE ENERGY PREDICTED BY IDOCK:   -3.78 KCAL/MOL
REMARK 922        TOTAL FREE ENERGY PREDICTED BY IDOCK:   -5.18 KCAL/MOL
REMARK 923 INTER-LIGAND FREE ENERGY PREDICTED BY IDOCK:   -5.22 KCAL/MOL
REMARK 924 INTRA-LIGAND FREE ENERGY PREDICTED BY IDOCK:    0.05 KCAL/MOL
REMARK 927      BINDING AFFINITY PREDICTED BY RF-SCORE:    0.00 PKD
ROOT
HETATM    1  C   UNL     1      -6.945   9.144  65.179  1.00  0.00    -0.087 C  
HETATM    2  C   UNL     1      -8.171   9.982  65.029  1.00  0.00    -0.148 C  
HETATM    3  C   UNL     1      -8.640  10.815  65.965  1.00  0.00    -0.178 C  
HETATM    4  N   UNL     1      -9.792  11.564  65.795  1.00  0.00    -0.225 N  
HETATM    5  C   UNL     1     -10.485  11.548  64.590  1.00  0.00    -0.301 C  
HETATM    6  O   UNL     1      -8.574   9.115  62.860  1.00  0.00    -0.205 OA 
HETATM    7  O   UNL     1     -11.485  12.226  64.357  1.00  0.00    -0.324 OA 
HETATM    8  H   UNL     1     -10.490  10.685  62.739  1.00  0.00     0.000 HD 
HETATM    9  N   UNL     1      -9.997  10.703  63.631  1.00  0.00    -0.328 N  
HETATM   10  C   UNL     1      -8.914   9.883  63.752  1.00  0.00    -0.250 C  
ENDROOT
BRANCH   4  11
HETATM   11  C   UNL     1     -10.279  12.476  66.831  1.00  0.00    -0.226 C  
HETATM   12  C   UNL     1      -9.315  12.657  67.998  1.00  0.00    -0.209 C  
HETATM   13  O   UNL     1     -10.497  13.797  66.296  1.00  0.00    -0.282 OA 
HETATM   14  C   UNL     1      -9.718  14.003  68.557  1.00  0.00    -0.215 C  
HETATM   15  C   UNL     1     -10.166  14.772  67.310  1.00  0.00    -0.241 C  
BRANCH  14  16
HETATM   16  N   UNL     1     -10.879  13.831  69.454  1.00  0.00    -0.436 NA 
HETATM   17  H   UNL     1     -11.033  12.970  69.980  1.00  0.00     0.000 HD 
BRANCH  16  18
HETATM   18  N   UNL     1     -11.658  14.799  69.529  1.00  0.00    -0.286 NA 
HETATM   19  N   UNL     1     -12.376  15.681  69.598  1.00  0.00    -0.538 NA 
HETATM   20  H1  UNL     1     -13.014  16.475  69.659  1.00  0.00     0.000 HD 
HETATM   21  H2  UNL     1     -13.159  15.032  69.673  1.00  0.00     0.000 HD 
ENDBRANCH  16  18
ENDBRANCH  14  16
BRANCH  15  22
HETATM   22  C   UNL     1      -9.080  15.696  66.750  1.00  0.00    -0.254 C  
HETATM   23  H   UNL     1      -8.944  17.186  65.452  1.00  0.00     0.000 HD 
HETATM   24  O   UNL     1      -9.617  16.613  65.800  1.00  0.00    -0.492 OA 
ENDBRANCH  15  22
ENDBRANCH   4  11
TORSDOF 4
ENDMDL
MODEL      123
REMARK 921   NORMALIZED FREE ENERGY PREDICTED BY IDOCK:   -3.76 KCAL/MOL
REMARK 922        TOTAL FREE ENERGY PREDICTED BY IDOCK:   -5.15 KCAL/MOL
REMARK 923 INTER-LIGAND FREE ENERGY PREDICTED BY IDOCK:   -4.90 KCAL/MOL
REMARK 924 INTRA-LIGAND FREE ENERGY PREDICTED BY IDOCK:   -0.25 KCAL/MOL
REMARK 927      BINDING AFFINITY PREDICTED BY RF-SCORE:    0.00 PKD
ROOT
HETATM    1  C   UNL     1      -6.557  10.354  69.215  1.00  0.00    -0.056 C  
HETATM    2  C   UNL     1      -7.908  10.577  68.621  1.00  0.00    -0.116 C  
HETATM    3  C   UNL     1      -9.064  10.331  69.250  1.00  0.00    -0.194 C  
HETATM    4  N   UNL     1     -10.299  10.534  68.658  1.00  0.00    -0.175 N  
HETATM    5  C   UNL     1     -10.401  11.091  67.389  1.00  0.00    -0.207 C  
HETATM    6  O   UNL     1      -6.957  11.324  66.583  1.00  0.00    -0.138 OA 
HETATM    7  O   UNL     1     -11.467  11.344  66.828  1.00  0.00    -0.427 OA 
HETATM    8  H   UNL     1      -9.277  11.766  65.823  1.00  0.00     0.000 HD 
HETATM    9  N   UNL     1      -9.218  11.351  66.753  1.00  0.00    -0.172 N  
HETATM   10  C   UNL     1      -7.968  11.110  67.241  1.00  0.00    -0.137 C  
ENDROOT
BRANCH   4  11
HETATM   11  C   UNL     1     -11.548  10.267  69.372  1.00  0.00    -0.146 C  
HETATM   12  C   UNL     1     -11.352   9.672  70.762  1.00  0.00    -0.409 C  
HETATM   13  O   UNL     1     -12.300  11.481  69.569  1.00  0.00    -0.237 OA 
HETATM   14  C   UNL     1     -12.631  10.055  71.471  1.00  0.00    -0.425 C  
HETATM   15  C   UNL     1     -12.981  11.407  70.842  1.00  0.00    -0.121 C  
BRANCH  14  16
HETATM   16  N   UNL     1     -13.688   9.082  71.129  1.00  0.00    -0.582 NA 
HETATM   17  H   UNL     1     -14.499   9.340  70.566  1.00  0.00     0.000 HD 
BRANCH  16  18
HETATM   18  N   UNL     1     -13.530   7.928  71.568  1.00  0.00    -0.330 NA 
HETATM   19  N   UNL     1     -13.390   6.871  71.972  1.00  0.00    -0.540 NA 
HETATM   20  H1  UNL     1     -13.260   5.926  72.332  1.00  0.00     0.000 HD 
HETATM   21  H2  UNL     1     -14.353   6.878  72.309  1.00  0.00     0.000 HD 
ENDBRANCH  16  18
ENDBRANCH  14  16
BRANCH  15  22
HETATM   22  C   UNL     1     -12.538  12.600  71.693  1.00  0.00    -0.081 C  
HETATM   23  H   UNL     1     -13.153  13.561  73.313  1.00  0.00     0.000 HD 
HETATM   24  O   UNL     1     -13.428  12.820  72.785  1.00  0.00    -0.408 OA 
ENDBRANCH  15  22
ENDBRANCH   4  11
TORSDOF 4
ENDMDL
MODEL      124
REMARK 921   NORMALIZED FREE ENERGY PREDICTED BY IDOCK:   -3.76 KCAL/MOL
REMARK 922        TOTAL FREE ENERGY PREDICTED BY IDOCK:   -5.15 KCAL/MOL
REMARK 923 INTER-LIGAND FREE ENERGY PREDICTED BY IDOCK:   -5.07 KCAL/MOL
REMARK 924 INTRA-LIGAND FREE ENERGY PREDICTED BY IDOCK:   -0.07 KCAL/MOL
REMARK 927      BINDING AFFINITY PREDICTED BY RF-SCORE:    0.00 PKD
ROOT
HETATM    1  C   UNL     1     -12.610  12.598  70.693  1.00  0.00    -0.241 C  
HETATM    2  C   UNL     1     -11.847  12.641  69.410  1.00  0.00    -0.356 C  
HETATM    3  C   UNL     1     -11.267  13.738  68.909  1.00  0.00    -0.272 C  
HETATM    4  N   UNL     1     -10.582  13.741  67.706  1.00  0.00    -0.244 N  
HETATM    5  C   UNL     1     -10.392  12.566  66.987  1.00  0.00    -0.224 C  
HETATM    6  O   UNL     1     -12.263  10.341  69.015  1.00  0.00    -0.056 OA 
HETATM    7  O   UNL     1      -9.752  12.492  65.939  1.00  0.00    -0.256 OA 
HETATM    8  H   UNL     1     -10.842  10.574  66.995  1.00  0.00     0.000 HD 
HETATM    9  N   UNL     1     -10.978  11.446  67.508  1.00  0.00    -0.242 N  
HETATM   10  C   UNL     1     -11.727  11.379  68.645  1.00  0.00    -0.329 C  
ENDROOT
BRANCH   4  11
HETATM   11  C   UNL     1      -9.946  14.952  67.185  1.00  0.00    -0.231 C  
HETATM   12  C   UNL     1     -10.905  15.893  66.463  1.00  0.00    -0.198 C  
HETATM   13  O   UNL     1      -9.364  15.729  68.250  1.00  0.00    -0.189 OA 
HETATM   14  C   UNL     1     -10.208  17.229  66.577  1.00  0.00    -0.325 C  
HETATM   15  C   UNL     1      -9.500  17.133  67.932  1.00  0.00    -0.257 C  
BRANCH  14  16
HETATM   16  N   UNL     1      -9.189  17.340  65.513  1.00  0.00    -0.145 NA 
HETATM   17  H   UNL     1      -9.442  17.392  64.526  1.00  0.00     0.000 HD 
BRANCH  16  18
HETATM   18  N   UNL     1      -8.004  17.368  65.894  1.00  0.00    -0.542 NA 
HETATM   19  N   UNL     1      -6.921  17.399  66.244  1.00  0.00    -0.274 NA 
HETATM   20  H1  UNL     1      -5.950  17.422  66.556  1.00  0.00     0.000 HD 
HETATM   21  H2  UNL     1      -7.039  18.377  66.509  1.00  0.00     0.000 HD 
ENDBRANCH  16  18
ENDBRANCH  14  16
BRANCH  15  22
HETATM   22  C   UNL     1     -10.276  17.809  69.066  1.00  0.00    -0.290 C  
HETATM   23  H   UNL     1     -10.482  19.626  69.827  1.00  0.00     0.000 HD 
HETATM   24  O   UNL     1     -10.002  19.206  69.123  1.00  0.00    -0.400 OA 
ENDBRANCH  15  22
ENDBRANCH   4  11
TORSDOF 4
ENDMDL
MODEL      125
REMARK 921   NORMALIZED FREE ENERGY PREDICTED BY IDOCK:   -3.75 KCAL/MOL
REMARK 922        TOTAL FREE ENERGY PREDICTED BY IDOCK:   -5.13 KCAL/MOL
REMARK 923 INTER-LIGAND FREE ENERGY PREDICTED BY IDOCK:   -4.96 KCAL/MOL
REMARK 924 INTRA-LIGAND FREE ENERGY PREDICTED BY IDOCK:   -0.17 KCAL/MOL
REMARK 927      BINDING AFFINITY PREDICTED BY RF-SCORE:    0.00 PKD
ROOT
HETATM    1  C   UNL     1      -8.047   8.931  65.171  1.00  0.00    -0.133 C  
HETATM    2  C   UNL     1      -9.160   9.566  65.937  1.00  0.00    -0.230 C  
HETATM    3  C   UNL     1      -9.664   9.087  67.081  1.00  0.00    -0.181 C  
HETATM    4  N   UNL     1     -10.709   9.696  67.753  1.00  0.00    -0.267 N  
HETATM    5  C   UNL     1     -11.241  10.901  67.308  1.00  0.00    -0.233 C  
HETATM    6  O   UNL     1      -9.363  11.294  64.328  1.00  0.00    -0.196 OA 
HETATM    7  O   UNL     1     -12.135  11.518  67.886  1.00  0.00    -0.630 OA 
HETATM    8  H   UNL     1     -11.093  12.279  65.809  1.00  0.00     0.000 HD 
HETATM    9  N   UNL     1     -10.717  11.392  66.145  1.00  0.00    -0.270 N  
HETATM   10  C   UNL     1      -9.741  10.813  65.390  1.00  0.00    -0.245 C  
ENDROOT
BRANCH   4  11
HETATM   11  C   UNL     1     -11.236   9.158  69.009  1.00  0.00     0.216 C  
HETATM   12  C   UNL     1     -10.914   7.685  69.233  1.00  0.00    -0.030 C  
HETATM   13  O   UNL     1     -10.681   9.856  70.142  1.00  0.00    -0.263 OA 
HETATM   14  C   UNL     1     -10.996   7.552  70.736  1.00  0.00    -0.252 C  
HETATM   15  C   UNL     1     -10.511   8.918  71.229  1.00  0.00    -0.287 C  
BRANCH  14  16
HETATM   16  N   UNL     1     -12.408   7.376  71.134  1.00  0.00    -0.415 NA 
HETATM   17  H   UNL     1     -12.994   6.641  70.738  1.00  0.00     0.000 HD 
BRANCH  16  18
HETATM   18  N   UNL     1     -12.839   8.178  71.983  1.00  0.00    -0.328 NA 
HETATM   19  N   UNL     1     -13.239   8.912  72.757  1.00  0.00    -0.688 NA 
HETATM   20  H1  UNL     1     -13.592   9.570  73.452  1.00  0.00     0.000 HD 
HETATM   21  H2  UNL     1     -14.123   8.959  72.249  1.00  0.00     0.000 HD 
ENDBRANCH  16  18
ENDBRANCH  14  16
BRANCH  15  22
HETATM   22  C   UNL     1      -9.035   8.922  71.637  1.00  0.00    -0.173 C  
HETATM   23  H   UNL     1      -7.965   8.678  73.287  1.00  0.00     0.000 HD 
HETATM   24  O   UNL     1      -8.881   8.676  73.033  1.00  0.00    -0.355 OA 
ENDBRANCH  15  22
ENDBRANCH   4  11
TORSDOF 4
ENDMDL
MODEL      126
REMARK 921   NORMALIZED FREE ENERGY PREDICTED BY IDOCK:   -3.72 KCAL/MOL
REMARK 922        TOTAL FREE ENERGY PREDICTED BY IDOCK:   -5.11 KCAL/MOL
REMARK 923 INTER-LIGAND FREE ENERGY PREDICTED BY IDOCK:   -4.58 KCAL/MOL
REMARK 924 INTRA-LIGAND FREE ENERGY PREDICTED BY IDOCK:   -0.53 KCAL/MOL
REMARK 927      BINDING AFFINITY PREDICTED BY RF-SCORE:    0.00 PKD
ROOT
HETATM    1  C   UNL     1      -6.984   7.453  64.339  1.00  0.00    -0.059 C  
HETATM    2  C   UNL     1      -8.045   8.223  65.052  1.00  0.00    -0.148 C  
HETATM    3  C   UNL     1      -8.669   7.807  66.161  1.00  0.00    -0.156 C  
HETATM    4  N   UNL     1      -9.662   8.543  66.785  1.00  0.00    -0.213 N  
HETATM    5  C   UNL     1     -10.008   9.809  66.328  1.00  0.00    -0.262 C  
HETATM    6  O   UNL     1      -7.934   9.973  63.458  1.00  0.00    -0.147 OA 
HETATM    7  O   UNL     1     -10.844  10.534  66.866  1.00  0.00    -0.250 OA 
HETATM    8  H   UNL     1      -9.600  11.166  64.857  1.00  0.00     0.000 HD 
HETATM    9  N   UNL     1      -9.361  10.235  65.201  1.00  0.00    -0.205 N  
HETATM   10  C   UNL     1      -8.428   9.538  64.492  1.00  0.00    -0.181 C  
ENDROOT
BRANCH   4  11
HETATM   11  C   UNL     1     -10.322   8.070  68.003  1.00  0.00    -0.206 C  
HETATM   12  C   UNL     1     -10.993   6.709  67.855  1.00  0.00    -0.342 C  
HETATM   13  O   UNL     1      -9.374   7.924  69.080  1.00  0.00    -0.151 OA 
HETATM   14  C   UNL     1     -11.036   6.203  69.279  1.00  0.00    -0.393 C  
HETATM   15  C   UNL     1      -9.762   6.792  69.891  1.00  0.00    -0.158 C  
BRANCH  14  16
HETATM   16  N   UNL     1     -12.208   6.783  69.967  1.00  0.00    -0.589 NA 
HETATM   17  H   UNL     1     -12.964   7.238  69.456  1.00  0.00     0.000 HD 
BRANCH  16  18
HETATM   18  N   UNL     1     -12.216   6.683  71.208  1.00  0.00    -0.351 NA 
HETATM   19  N   UNL     1     -12.220   6.587  72.343  1.00  0.00    -0.531 NA 
HETATM   20  H1  UNL     1     -12.226   6.504  73.360  1.00  0.00     0.000 HD 
HETATM   21  H2  UNL     1     -11.507   5.859  72.278  1.00  0.00     0.000 HD 
ENDBRANCH  16  18
ENDBRANCH  14  16
BRANCH  15  22
HETATM   22  C   UNL     1      -8.594   5.801  69.921  1.00  0.00    -0.127 C  
HETATM   23  H   UNL     1      -8.153   4.075  70.787  1.00  0.00     0.000 HD 
HETATM   24  O   UNL     1      -8.877   4.690  70.768  1.00  0.00    -0.113 OA 
ENDBRANCH  15  22
ENDBRANCH   4  11
TORSDOF 4
ENDMDL
MODEL      127
REMARK 921   NORMALIZED FREE ENERGY PREDICTED BY IDOCK:   -3.72 KCAL/MOL
REMARK 922        TOTAL FREE ENERGY PREDICTED BY IDOCK:   -5.11 KCAL/MOL
REMARK 923 INTER-LIGAND FREE ENERGY PREDICTED BY IDOCK:   -4.77 KCAL/MOL
REMARK 924 INTRA-LIGAND FREE ENERGY PREDICTED BY IDOCK:   -0.34 KCAL/MOL
REMARK 927      BINDING AFFINITY PREDICTED BY RF-SCORE:    0.00 PKD
ROOT
HETATM    1  C   UNL     1     -10.484   8.601  72.338  1.00  0.00    -0.307 C  
HETATM    2  C   UNL     1      -9.983   8.791  70.945  1.00  0.00    -0.279 C  
HETATM    3  C   UNL     1     -10.272   9.844  70.171  1.00  0.00    -0.273 C  
HETATM    4  N   UNL     1      -9.801   9.976  68.876  1.00  0.00    -0.175 N  
HETATM    5  C   UNL     1      -8.923   9.043  68.335  1.00  0.00    -0.133 C  
HETATM    6  O   UNL     1      -8.822   6.726  71.015  1.00  0.00    -0.140 OA 
HETATM    7  O   UNL     1      -8.429   9.128  67.211  1.00  0.00    -0.120 OA 
HETATM    8  H   UNL     1      -7.972   7.285  68.752  1.00  0.00     0.000 HD 
HETATM    9  N   UNL     1      -8.621   7.974  69.133  1.00  0.00    -0.136 N  
HETATM   10  C   UNL     1      -9.103   7.739  70.387  1.00  0.00    -0.155 C  
ENDROOT
BRANCH   4  11
HETATM   11  C   UNL     1     -10.124  11.143  68.053  1.00  0.00    -0.174 C  
HETATM   12  C   UNL     1     -11.582  11.206  67.614  1.00  0.00    -0.266 C  
HETATM   13  O   UNL     1      -9.880  12.366  68.775  1.00  0.00    -0.129 OA 
HETATM   14  C   UNL     1     -11.787  12.680  67.353  1.00  0.00    -0.328 C  
HETATM   15  C   UNL     1     -10.872  13.343  68.387  1.00  0.00    -0.264 C  
BRANCH  14  16
HETATM   16  N   UNL     1     -11.293  13.009  65.999  1.00  0.00    -0.300 NA 
HETATM   17  H   UNL     1     -10.442  12.596  65.620  1.00  0.00     0.000 HD 
BRANCH  16  18
HETATM   18  N   UNL     1     -11.980  13.820  65.351  1.00  0.00    -0.358 NA 
HETATM   19  N   UNL     1     -12.613  14.562  64.761  1.00  0.00    -0.583 NA 
HETATM   20  H1  UNL     1     -13.175  15.227  64.230  1.00  0.00     0.000 HD 
HETATM   21  H2  UNL     1     -13.365  14.454  65.442  1.00  0.00     0.000 HD 
ENDBRANCH  16  18
ENDBRANCH  14  16
BRANCH  15  22
HETATM   22  C   UNL     1     -11.617  13.797  69.646  1.00  0.00    -0.281 C  
HETATM   23  H   UNL     1     -12.574  12.965  71.168  1.00  0.00     0.000 HD 
HETATM   24  O   UNL     1     -12.112  12.684  70.387  1.00  0.00    -0.364 OA 
ENDBRANCH  15  22
ENDBRANCH   4  11
TORSDOF 4
ENDMDL
MODEL      128
REMARK 921   NORMALIZED FREE ENERGY PREDICTED BY IDOCK:   -3.71 KCAL/MOL
REMARK 922        TOTAL FREE ENERGY PREDICTED BY IDOCK:   -5.09 KCAL/MOL
REMARK 923 INTER-LIGAND FREE ENERGY PREDICTED BY IDOCK:   -4.87 KCAL/MOL
REMARK 924 INTRA-LIGAND FREE ENERGY PREDICTED BY IDOCK:   -0.23 KCAL/MOL
REMARK 927      BINDING AFFINITY PREDICTED BY RF-SCORE:    0.00 PKD
ROOT
HETATM    1  C   UNL     1      -7.171  16.785  66.842  1.00  0.00    -0.258 C  
HETATM    2  C   UNL     1      -8.461  16.039  66.748  1.00  0.00    -0.295 C  
HETATM    3  C   UNL     1      -8.602  14.732  66.999  1.00  0.00    -0.234 C  
HETATM    4  N   UNL     1      -9.814  14.073  66.885  1.00  0.00    -0.259 N  
HETATM    5  C   UNL     1     -10.979  14.765  66.578  1.00  0.00    -0.325 C  
HETATM    6  O   UNL     1      -9.613  17.996  66.069  1.00  0.00    -0.499 OA 
HETATM    7  O   UNL     1     -12.094  14.248  66.510  1.00  0.00    -0.431 OA 
HETATM    8  H   UNL     1     -11.681  16.626  66.112  1.00  0.00     0.000 HD 
HETATM    9  N   UNL     1     -10.833  16.103  66.332  1.00  0.00    -0.200 N  
HETATM   10  C   UNL     1      -9.664  16.805  66.353  1.00  0.00    -0.290 C  
ENDROOT
BRANCH   4  11
HETATM   11  C   UNL     1      -9.944  12.644  67.175  1.00  0.00    -0.217 C  
HETATM   12  C   UNL     1      -9.222  11.742  66.179  1.00  0.00    -0.218 C  
HETATM   13  O   UNL     1      -9.387  12.326  68.466  1.00  0.00    -0.183 OA 
HETATM   14  C   UNL     1      -8.988  10.483  66.981  1.00  0.00    -0.140 C  
HETATM   15  C   UNL     1      -8.785  11.013  68.404  1.00  0.00    -0.150 C  
BRANCH  14  16
HETATM   16  N   UNL     1     -10.209   9.652  66.952  1.00  0.00    -0.230 NA 
HETATM   17  H   UNL     1     -10.656   9.378  66.077  1.00  0.00     0.000 HD 
BRANCH  16  18
HETATM   18  N   UNL     1     -10.660   9.307  68.060  1.00  0.00    -0.227 NA 
HETATM   19  N   UNL     1     -11.069   8.987  69.075  1.00  0.00    -0.436 NA 
HETATM   20  H1  UNL     1     -11.439   8.704  69.982  1.00  0.00     0.000 HD 
HETATM   21  H2  UNL     1     -10.409   8.209  69.090  1.00  0.00     0.000 HD 
ENDBRANCH  16  18
ENDBRANCH  14  16
BRANCH  15  22
HETATM   22  C   UNL     1      -7.309  11.144  68.793  1.00  0.00    -0.114 C  
HETATM   23  H   UNL     1      -6.194  10.945  70.418  1.00  0.00     0.000 HD 
HETATM   24  O   UNL     1      -7.109  10.864  70.176  1.00  0.00    -0.158 OA 
ENDBRANCH  15  22
ENDBRANCH   4  11
TORSDOF 4
ENDMDL
MODEL      129
REMARK 921   NORMALIZED FREE ENERGY PREDICTED BY IDOCK:   -3.71 KCAL/MOL
REMARK 922        TOTAL FREE ENERGY PREDICTED BY IDOCK:   -5.08 KCAL/MOL
REMARK 923 INTER-LIGAND FREE ENERGY PREDICTED BY IDOCK:   -5.26 KCAL/MOL
REMARK 924 INTRA-LIGAND FREE ENERGY PREDICTED BY IDOCK:    0.18 KCAL/MOL
REMARK 927      BINDING AFFINITY PREDICTED BY RF-SCORE:    0.00 PKD
ROOT
HETATM    1  C   UNL     1      -5.420  18.495  69.400  1.00  0.00    -0.214 C  
HETATM    2  C   UNL     1      -6.701  18.043  68.780  1.00  0.00    -0.248 C  
HETATM    3  C   UNL     1      -7.509  17.112  69.302  1.00  0.00    -0.061 C  
HETATM    4  N   UNL     1      -8.682  16.707  68.687  1.00  0.00    -0.241 N  
HETATM    5  C   UNL     1      -9.125  17.317  67.519  1.00  0.00    -0.223 C  
HETATM    6  O   UNL     1      -6.397  19.504  66.939  1.00  0.00    -0.185 OA 
HETATM    7  O   UNL     1     -10.181  17.040  66.952  1.00  0.00    -0.291 OA 
HETATM    8  H   UNL     1      -8.617  18.736  66.141  1.00  0.00     0.000 HD 
HETATM    9  N   UNL     1      -8.302  18.275  66.995  1.00  0.00    -0.242 N  
HETATM   10  C   UNL     1      -7.100  18.674  67.502  1.00  0.00    -0.207 C  
ENDROOT
BRANCH   4  11
HETATM   11  C   UNL     1      -9.555  15.695  69.283  1.00  0.00    -0.268 C  
HETATM   12  C   UNL     1     -10.917  16.227  69.713  1.00  0.00    -0.354 C  
HETATM   13  O   UNL     1      -9.827  14.633  68.348  1.00  0.00    -0.208 OA 
HETATM   14  C   UNL     1     -11.778  14.985  69.701  1.00  0.00    -0.321 C  
HETATM   15  C   UNL     1     -11.178  14.162  68.557  1.00  0.00    -0.260 C  
BRANCH  14  16
HETATM   16  N   UNL     1     -11.590  14.249  70.968  1.00  0.00    -0.516 NA 
HETATM   17  H   UNL     1     -11.092  13.360  71.007  1.00  0.00     0.000 HD 
BRANCH  16  18
HETATM   18  N   UNL     1     -12.076  14.779  71.984  1.00  0.00    -0.348 NA 
HETATM   19  N   UNL     1     -12.517  15.262  72.917  1.00  0.00    -0.370 NA 
HETATM   20  H1  UNL     1     -12.915  15.697  73.749  1.00  0.00     0.000 HD 
HETATM   21  H2  UNL     1     -11.765  14.857  73.475  1.00  0.00     0.000 HD 
ENDBRANCH  16  18
ENDBRANCH  14  16
BRANCH  15  22
HETATM   22  C   UNL     1     -11.946  14.311  67.240  1.00  0.00    -0.405 C  
HETATM   23  H   UNL     1     -11.878  13.567  65.406  1.00  0.00     0.000 HD 
HETATM   24  O   UNL     1     -11.402  13.474  66.223  1.00  0.00    -0.299 OA 
ENDBRANCH  15  22
ENDBRANCH   4  11
TORSDOF 4
ENDMDL
MODEL      130
REMARK 921   NORMALIZED FREE ENERGY PREDICTED BY IDOCK:   -3.69 KCAL/MOL
REMARK 922        TOTAL FREE ENERGY PREDICTED BY IDOCK:   -5.07 KCAL/MOL
REMARK 923 INTER-LIGAND FREE ENERGY PREDICTED BY IDOCK:   -4.49 KCAL/MOL
REMARK 924 INTRA-LIGAND FREE ENERGY PREDICTED BY IDOCK:   -0.58 KCAL/MOL
REMARK 927      BINDING AFFINITY PREDICTED BY RF-SCORE:    0.00 PKD
ROOT
HETATM    1  C   UNL     1     -10.474  15.153  65.432  1.00  0.00    -0.416 C  
HETATM    2  C   UNL     1     -10.795  14.190  66.526  1.00  0.00    -0.298 C  
HETATM    3  C   UNL     1     -10.527  12.879  66.486  1.00  0.00    -0.265 C  
HETATM    4  N   UNL     1     -10.856  12.014  67.516  1.00  0.00    -0.231 N  
HETATM    5  C   UNL     1     -11.416  12.487  68.696  1.00  0.00    -0.306 C  
HETATM    6  O   UNL     1     -11.767  15.908  67.838  1.00  0.00    -0.192 OA 
HETATM    7  O   UNL     1     -11.685  11.779  69.667  1.00  0.00    -0.297 OA 
HETATM    8  H   UNL     1     -12.085  14.191  69.601  1.00  0.00     0.000 HD 
HETATM    9  N   UNL     1     -11.679  13.828  68.738  1.00  0.00    -0.333 N  
HETATM   10  C   UNL     1     -11.452  14.728  67.738  1.00  0.00    -0.345 C  
ENDROOT
BRANCH   4  11
HETATM   11  C   UNL     1     -10.542  10.585  67.452  1.00  0.00    -0.263 C  
HETATM   12  C   UNL     1     -10.600  10.001  66.045  1.00  0.00    -0.045 C  
HETATM   13  O   UNL     1      -9.205  10.329  67.926  1.00  0.00    -0.137 OA 
HETATM   14  C   UNL     1      -9.698   8.793  66.148  1.00  0.00    -0.250 C  
HETATM   15  C   UNL     1      -8.639   9.241  67.160  1.00  0.00    -0.128 C  
BRANCH  14  16
HETATM   16  N   UNL     1     -10.459   7.664  66.723  1.00  0.00    -0.471 NA 
HETATM   17  H   UNL     1     -11.345   7.801  67.208  1.00  0.00     0.000 HD 
BRANCH  16  18
HETATM   18  N   UNL     1      -9.952   6.536  66.579  1.00  0.00    -0.134 NA 
HETATM   19  N   UNL     1      -9.486   5.504  66.452  1.00  0.00    -0.151 NA 
HETATM   20  H1  UNL     1      -9.070   4.580  66.333  1.00  0.00     0.000 HD 
HETATM   21  H2  UNL     1      -9.086   5.576  67.387  1.00  0.00     0.000 HD 
ENDBRANCH  16  18
ENDBRANCH  14  16
BRANCH  15  22
HETATM   22  C   UNL     1      -7.350   9.740  66.501  1.00  0.00    -0.095 C  
HETATM   23  H   UNL     1      -6.462  11.472  66.132  1.00  0.00     0.000 HD 
HETATM   24  O   UNL     1      -7.262  11.162  66.541  1.00  0.00    -0.138 OA 
ENDBRANCH  15  22
ENDBRANCH   4  11
TORSDOF 4
ENDMDL
MODEL      131
REMARK 921   NORMALIZED FREE ENERGY PREDICTED BY IDOCK:   -3.65 KCAL/MOL
REMARK 922        TOTAL FREE ENERGY PREDICTED BY IDOCK:   -5.02 KCAL/MOL
REMARK 923 INTER-LIGAND FREE ENERGY PREDICTED BY IDOCK:   -4.55 KCAL/MOL
REMARK 924 INTRA-LIGAND FREE ENERGY PREDICTED BY IDOCK:   -0.47 KCAL/MOL
REMARK 927      BINDING AFFINITY PREDICTED BY RF-SCORE:    0.00 PKD
ROOT
HETATM    1  C   UNL     1     -10.680  15.431  64.996  1.00  0.00    -0.460 C  
HETATM    2  C   UNL     1      -9.689  15.978  65.969  1.00  0.00    -0.376 C  
HETATM    3  C   UNL     1      -8.755  15.249  66.592  1.00  0.00    -0.291 C  
HETATM    4  N   UNL     1      -7.863  15.791  67.502  1.00  0.00    -0.145 N  
HETATM    5  C   UNL     1      -7.842  17.157  67.756  1.00  0.00    -0.182 C  
HETATM    6  O   UNL     1     -10.596  18.158  65.762  1.00  0.00    -0.541 OA 
HETATM    7  O   UNL     1      -7.043  17.708  68.514  1.00  0.00    -0.219 OA 
HETATM    8  H   UNL     1      -8.783  18.906  67.282  1.00  0.00     0.000 HD 
HETATM    9  N   UNL     1      -8.791  17.901  67.110  1.00  0.00    -0.242 N  
HETATM   10  C   UNL     1      -9.746  17.429  66.259  1.00  0.00    -0.261 C  
ENDROOT
BRANCH   4  11
HETATM   11  C   UNL     1      -6.843  14.974  68.162  1.00  0.00    -0.131 C  
HETATM   12  C   UNL     1      -7.402  14.004  69.197  1.00  0.00    -0.037 C  
HETATM   13  O   UNL     1      -6.136  14.159  67.205  1.00  0.00    -0.304 OA 
HETATM   14  C   UNL     1      -6.337  12.934  69.259  1.00  0.00    -0.108 C  
HETATM   15  C   UNL     1      -5.804  12.896  67.824  1.00  0.00    -0.139 C  
BRANCH  14  16
HETATM   16  N   UNL     1      -5.252  13.378  70.159  1.00  0.00    -0.092 NA 
HETATM   17  H   UNL     1      -4.283  13.443  69.846  1.00  0.00     0.000 HD 
BRANCH  16  18
HETATM   18  N   UNL     1      -5.591  13.667  71.321  1.00  0.00    -0.210 NA 
HETATM   19  N   UNL     1      -5.902  13.926  72.386  1.00  0.00    -0.446 NA 
HETATM   20  H1  UNL     1      -6.180  14.163  73.339  1.00  0.00     0.000 HD 
HETATM   21  H2  UNL     1      -5.764  12.953  72.658  1.00  0.00     0.000 HD 
ENDBRANCH  16  18
ENDBRANCH  14  16
BRANCH  15  22
HETATM   22  C   UNL     1      -6.419  11.774  66.983  1.00  0.00    -0.147 C  
HETATM   23  H   UNL     1      -5.925  10.673  65.412  1.00  0.00     0.000 HD 
HETATM   24  O   UNL     1      -5.543  11.369  65.934  1.00  0.00    -0.213 OA 
ENDBRANCH  15  22
ENDBRANCH   4  11
TORSDOF 4
ENDMDL
MODEL      132
REMARK 921   NORMALIZED FREE ENERGY PREDICTED BY IDOCK:   -3.65 KCAL/MOL
REMARK 922        TOTAL FREE ENERGY PREDICTED BY IDOCK:   -5.02 KCAL/MOL
REMARK 923 INTER-LIGAND FREE ENERGY PREDICTED BY IDOCK:   -5.28 KCAL/MOL
REMARK 924 INTRA-LIGAND FREE ENERGY PREDICTED BY IDOCK:    0.26 KCAL/MOL
REMARK 927      BINDING AFFINITY PREDICTED BY RF-SCORE:    0.00 PKD
ROOT
HETATM    1  C   UNL     1      -9.144  16.579  65.791  1.00  0.00    -0.040 C  
HETATM    2  C   UNL     1     -10.079  15.456  65.483  1.00  0.00    -0.405 C  
HETATM    3  C   UNL     1      -9.914  14.196  65.901  1.00  0.00    -0.311 C  
HETATM    4  N   UNL     1     -10.796  13.177  65.579  1.00  0.00    -0.280 N  
HETATM    5  C   UNL     1     -11.958  13.437  64.863  1.00  0.00    -0.378 C  
HETATM    6  O   UNL     1     -11.473  16.886  64.206  1.00  0.00    -1.142 OA 
HETATM    7  O   UNL     1     -12.806  12.588  64.588  1.00  0.00    -0.716 OA 
HETATM    8  H   UNL     1     -12.980  14.936  63.925  1.00  0.00     0.000 HD 
HETATM    9  N   UNL     1     -12.128  14.729  64.447  1.00  0.00    -0.476 N  
HETATM   10  C   UNL     1     -11.270  15.766  64.660  1.00  0.00    -0.363 C  
ENDROOT
BRANCH   4  11
HETATM   11  C   UNL     1     -10.599  11.808  66.058  1.00  0.00    -0.260 C  
HETATM   12  C   UNL     1     -10.765  10.745  64.977  1.00  0.00    -0.160 C  
HETATM   13  O   UNL     1      -9.267  11.630  66.579  1.00  0.00    -0.187 OA 
HETATM   14  C   UNL     1      -9.957   9.590  65.521  1.00  0.00    -0.139 C  
HETATM   15  C   UNL     1      -8.823  10.288  66.276  1.00  0.00    -0.146 C  
BRANCH  14  16
HETATM   16  N   UNL     1     -10.778   8.833  66.488  1.00  0.00    -0.075 NA 
HETATM   17  H   UNL     1     -11.734   9.107  66.717  1.00  0.00     0.000 HD 
BRANCH  16  18
HETATM   18  N   UNL     1     -10.234   7.840  67.006  1.00  0.00    -0.277 NA 
HETATM   19  N   UNL     1      -9.730   6.933  67.478  1.00  0.00    -0.130 NA 
HETATM   20  H1  UNL     1      -9.284   6.120  67.902  1.00  0.00     0.000 HD 
HETATM   21  H2  UNL     1      -8.856   7.185  67.017  1.00  0.00     0.000 HD 
ENDBRANCH  16  18
ENDBRANCH  14  16
BRANCH  15  22
HETATM   22  C   UNL     1      -7.528  10.385  65.463  1.00  0.00    -0.142 C  
HETATM   23  H   UNL     1      -6.953  11.049  63.688  1.00  0.00     0.000 HD 
HETATM   24  O   UNL     1      -7.756  10.989  64.192  1.00  0.00     0.350 OA 
ENDBRANCH  15  22
ENDBRANCH   4  11
TORSDOF 4
ENDMDL
MODEL      133
REMARK 921   NORMALIZED FREE ENERGY PREDICTED BY IDOCK:   -3.63 KCAL/MOL
REMARK 922        TOTAL FREE ENERGY PREDICTED BY IDOCK:   -4.99 KCAL/MOL
REMARK 923 INTER-LIGAND FREE ENERGY PREDICTED BY IDOCK:   -4.44 KCAL/MOL
REMARK 924 INTRA-LIGAND FREE ENERGY PREDICTED BY IDOCK:   -0.55 KCAL/MOL
REMARK 927      BINDING AFFINITY PREDICTED BY RF-SCORE:    0.00 PKD
ROOT
HETATM    1  C   UNL     1     -11.691  14.822  67.802  1.00  0.00    -0.368 C  
HETATM    2  C   UNL     1     -11.297  13.650  66.965  1.00  0.00    -0.344 C  
HETATM    3  C   UNL     1     -10.754  12.524  67.444  1.00  0.00    -0.229 C  
HETATM    4  N   UNL     1     -10.386  11.464  66.633  1.00  0.00    -0.225 N  
HETATM    5  C   UNL     1     -10.642  11.487  65.266  1.00  0.00    -0.283 C  
HETATM    6  O   UNL     1     -11.983  14.756  64.984  1.00  0.00    -0.366 OA 
HETATM    7  O   UNL     1     -10.385  10.559  64.499  1.00  0.00    -0.348 OA 
HETATM    8  H   UNL     1     -11.406  12.663  63.782  1.00  0.00     0.000 HD 
HETATM    9  N   UNL     1     -11.206  12.635  64.782  1.00  0.00    -0.292 N  
HETATM   10  C   UNL     1     -11.527  13.745  65.506  1.00  0.00    -0.311 C  
ENDROOT
BRANCH   4  11
HETATM   11  C   UNL     1      -9.803  10.239  67.182  1.00  0.00    -0.185 C  
HETATM   12  C   UNL     1      -8.683  10.483  68.187  1.00  0.00    -0.130 C  
HETATM   13  O   UNL     1     -10.797   9.466  67.885  1.00  0.00    -0.236 OA 
HETATM   14  C   UNL     1      -8.690   9.214  69.008  1.00  0.00    -0.135 C  
HETATM   15  C   UNL     1     -10.170   8.818  69.015  1.00  0.00    -0.207 C  
BRANCH  14  16
HETATM   16  N   UNL     1      -7.921   8.171  68.299  1.00  0.00    -0.121 NA 
HETATM   17  H   UNL     1      -8.367   7.338  67.914  1.00  0.00     0.000 HD 
BRANCH  16  18
HETATM   18  N   UNL     1      -6.696   8.369  68.201  1.00  0.00    -0.064 NA 
HETATM   19  N   UNL     1      -5.575   8.554  68.107  1.00  0.00    -0.035 NA 
HETATM   20  H1  UNL     1      -4.572   8.716  68.027  1.00  0.00     0.000 HD 
HETATM   21  H2  UNL     1      -5.753   9.210  67.347  1.00  0.00     0.000 HD 
ENDBRANCH  16  18
ENDBRANCH  14  16
BRANCH  15  22
HETATM   22  C   UNL     1     -10.904   9.256  70.286  1.00  0.00    -0.246 C  
HETATM   23  H   UNL     1     -10.498   9.497  72.209  1.00  0.00     0.000 HD 
HETATM   24  O   UNL     1     -10.043   9.225  71.421  1.00  0.00    -0.314 OA 
ENDBRANCH  15  22
ENDBRANCH   4  11
TORSDOF 4
ENDMDL
MODEL      134
REMARK 921   NORMALIZED FREE ENERGY PREDICTED BY IDOCK:   -3.63 KCAL/MOL
REMARK 922        TOTAL FREE ENERGY PREDICTED BY IDOCK:   -4.99 KCAL/MOL
REMARK 923 INTER-LIGAND FREE ENERGY PREDICTED BY IDOCK:   -4.49 KCAL/MOL
REMARK 924 INTRA-LIGAND FREE ENERGY PREDICTED BY IDOCK:   -0.50 KCAL/MOL
REMARK 927      BINDING AFFINITY PREDICTED BY RF-SCORE:    0.00 PKD
ROOT
HETATM    1  C   UNL     1      -5.622  16.372  70.154  1.00  0.00    -0.189 C  
HETATM    2  C   UNL     1      -6.427  17.115  69.140  1.00  0.00    -0.223 C  
HETATM    3  C   UNL     1      -7.331  16.553  68.328  1.00  0.00    -0.169 C  
HETATM    4  N   UNL     1      -8.046  17.274  67.387  1.00  0.00    -0.188 N  
HETATM    5  C   UNL     1      -7.917  18.655  67.295  1.00  0.00    -0.237 C  
HETATM    6  O   UNL     1      -5.371  19.159  69.709  1.00  0.00    -0.194 OA 
HETATM    7  O   UNL     1      -8.559  19.360  66.517  1.00  0.00    -0.311 OA 
HETATM    8  H   UNL     1      -6.899  20.241  68.081  1.00  0.00     0.000 HD 
HETATM    9  N   UNL     1      -7.000  19.227  68.133  1.00  0.00    -0.250 N  
HETATM   10  C   UNL     1      -6.208  18.575  69.031  1.00  0.00    -0.239 C  
ENDROOT
BRANCH   4  11
HETATM   11  C   UNL     1      -9.037  16.637  66.518  1.00  0.00    -0.272 C  
HETATM   12  C   UNL     1      -8.766  15.161  66.249  1.00  0.00    -0.125 C  
HETATM   13  O   UNL     1     -10.351  16.692  67.108  1.00  0.00    -0.293 OA 
HETATM   14  C   UNL     1     -10.137  14.630  65.898  1.00  0.00    -0.320 C  
HETATM   15  C   UNL     1     -11.068  15.485  66.762  1.00  0.00    -0.206 C  
BRANCH  14  16
HETATM   16  N   UNL     1     -10.417  14.909  64.474  1.00  0.00    -0.491 NA 
HETATM   17  H   UNL     1      -9.722  15.332  63.859  1.00  0.00     0.000 HD 
BRANCH  16  18
HETATM   18  N   UNL     1     -11.553  14.597  64.071  1.00  0.00    -0.067 NA 
HETATM   19  N   UNL     1     -12.592  14.315  63.698  1.00  0.00    -0.997 NA 
HETATM   20  H1  UNL     1     -13.523  14.059  63.368  1.00  0.00     0.000 HD 
HETATM   21  H2  UNL     1     -12.461  14.923  62.889  1.00  0.00     0.000 HD 
ENDBRANCH  16  18
ENDBRANCH  14  16
BRANCH  15  22
HETATM   22  C   UNL     1     -11.492  14.791  68.060  1.00  0.00    -0.331 C  
HETATM   23  H   UNL     1     -13.089  13.865  68.778  1.00  0.00     0.000 HD 
HETATM   24  O   UNL     1     -12.826  14.296  67.973  1.00  0.00     0.606 OA 
ENDBRANCH  15  22
ENDBRANCH   4  11
TORSDOF 4
ENDMDL
MODEL      135
REMARK 921   NORMALIZED FREE ENERGY PREDICTED BY IDOCK:   -3.62 KCAL/MOL
REMARK 922        TOTAL FREE ENERGY PREDICTED BY IDOCK:   -4.98 KCAL/MOL
REMARK 923 INTER-LIGAND FREE ENERGY PREDICTED BY IDOCK:   -5.32 KCAL/MOL
REMARK 924 INTRA-LIGAND FREE ENERGY PREDICTED BY IDOCK:    0.33 KCAL/MOL
REMARK 927      BINDING AFFINITY PREDICTED BY RF-SCORE:    0.00 PKD
ROOT
HETATM    1  C   UNL     1     -11.185   2.063  73.870  1.00  0.00    -0.260 C  
HETATM    2  C   UNL     1     -10.555   3.356  73.469  1.00  0.00    -0.286 C  
HETATM    3  C   UNL     1     -11.203   4.363  72.871  1.00  0.00    -0.066 C  
HETATM    4  N   UNL     1     -10.579   5.542  72.499  1.00  0.00    -0.215 N  
HETATM    5  C   UNL     1      -9.244   5.772  72.808  1.00  0.00    -0.136 C  
HETATM    6  O   UNL     1      -8.441   2.644  74.268  1.00  0.00    -0.067 OA 
HETATM    7  O   UNL     1      -8.644   6.816  72.551  1.00  0.00    -0.123 OA 
HETATM    8  H   UNL     1      -7.608   4.902  73.668  1.00  0.00     0.000 HD 
HETATM    9  N   UNL     1      -8.587   4.745  73.429  1.00  0.00    -0.102 N  
HETATM   10  C   UNL     1      -9.114   3.532  73.759  1.00  0.00    -0.090 C  
ENDROOT
BRANCH   4  11
HETATM   11  C   UNL     1     -11.313   6.632  71.856  1.00  0.00    -0.279 C  
HETATM   12  C   UNL     1     -11.197   7.969  72.580  1.00  0.00    -0.462 C  
HETATM   13  O   UNL     1     -10.822   6.868  70.521  1.00  0.00    -0.234 OA 
HETATM   14  C   UNL     1     -11.475   8.968  71.481  1.00  0.00    -0.337 C  
HETATM   15  C   UNL     1     -10.895   8.284  70.240  1.00  0.00    -0.240 C  
BRANCH  14  16
HETATM   16  N   UNL     1     -12.935   9.110  71.309  1.00  0.00    -0.464 NA 
HETATM   17  H   UNL     1     -13.360   9.256  70.394  1.00  0.00     0.000 HD 
BRANCH  16  18
HETATM   18  N   UNL     1     -13.616   9.041  72.350  1.00  0.00    -0.470 NA 
HETATM   19  N   UNL     1     -14.234   8.981  73.305  1.00  0.00    -1.188 NA 
HETATM   20  H1  UNL     1     -14.792   8.924  74.157  1.00  0.00     0.000 HD 
HETATM   21  H2  UNL     1     -13.450   9.367  73.831  1.00  0.00     0.000 HD 
ENDBRANCH  16  18
ENDBRANCH  14  16
BRANCH  15  22
HETATM   22  C   UNL     1      -9.489   8.775  69.883  1.00  0.00    -0.169 C  
HETATM   23  H   UNL     1      -8.471  10.474  69.922  1.00  0.00     0.000 HD 
HETATM   24  O   UNL     1      -9.343  10.169  70.143  1.00  0.00    -0.127 OA 
ENDBRANCH  15  22
ENDBRANCH   4  11
TORSDOF 4
ENDMDL
MODEL      136
REMARK 921   NORMALIZED FREE ENERGY PREDICTED BY IDOCK:   -3.60 KCAL/MOL
REMARK 922        TOTAL FREE ENERGY PREDICTED BY IDOCK:   -4.95 KCAL/MOL
REMARK 923 INTER-LIGAND FREE ENERGY PREDICTED BY IDOCK:   -4.46 KCAL/MOL
REMARK 924 INTRA-LIGAND FREE ENERGY PREDICTED BY IDOCK:   -0.49 KCAL/MOL
REMARK 927      BINDING AFFINITY PREDICTED BY RF-SCORE:    0.00 PKD
ROOT
HETATM    1  C   UNL     1      -9.734  14.665  66.280  1.00  0.00    -0.329 C  
HETATM    2  C   UNL     1     -10.412  13.973  67.415  1.00  0.00    -0.263 C  
HETATM    3  C   UNL     1     -10.109  12.742  67.844  1.00  0.00    -0.231 C  
HETATM    4  N   UNL     1     -10.774  12.127  68.891  1.00  0.00    -0.206 N  
HETATM    5  C   UNL     1     -11.751  12.802  69.614  1.00  0.00    -0.302 C  
HETATM    6  O   UNL     1     -11.857  15.820  67.759  1.00  0.00    -0.102 OA 
HETATM    7  O   UNL     1     -12.342  12.331  70.585  1.00  0.00    -0.354 OA 
HETATM    8  H   UNL     1     -12.761  14.575  69.704  1.00  0.00     0.000 HD 
HETATM    9  N   UNL     1     -12.050  14.064  69.180  1.00  0.00    -0.355 N  
HETATM   10  C   UNL     1     -11.492  14.706  68.114  1.00  0.00    -0.323 C  
ENDROOT
BRANCH   4  11
HETATM   11  C   UNL     1     -10.416  10.783  69.347  1.00  0.00    -0.200 C  
HETATM   12  C   UNL     1     -11.218   9.670  68.681  1.00  0.00    -0.007 C  
HETATM   13  O   UNL     1      -9.033  10.492  69.063  1.00  0.00    -0.166 OA 
HETATM   14  C   UNL     1     -10.308   8.472  68.827  1.00  0.00    -0.213 C  
HETATM   15  C   UNL     1      -8.909   9.090  68.735  1.00  0.00    -0.137 C  
BRANCH  14  16
HETATM   16  N   UNL     1     -10.483   7.887  70.173  1.00  0.00    -0.226 NA 
HETATM   17  H   UNL     1      -9.725   7.865  70.855  1.00  0.00     0.000 HD 
BRANCH  16  18
HETATM   18  N   UNL     1     -11.611   7.423  70.423  1.00  0.00    -0.230 NA 
HETATM   19  N   UNL     1     -12.641   6.994  70.653  1.00  0.00    -0.593 NA 
HETATM   20  H1  UNL     1     -13.565   6.614  70.858  1.00  0.00     0.000 HD 
HETATM   21  H2  UNL     1     -12.220   6.076  70.797  1.00  0.00     0.000 HD 
ENDBRANCH  16  18
ENDBRANCH  14  16
BRANCH  15  22
HETATM   22  C   UNL     1      -8.293   8.977  67.337  1.00  0.00    -0.112 C  
HETATM   23  H   UNL     1      -7.895   7.556  66.015  1.00  0.00     0.000 HD 
HETATM   24  O   UNL     1      -8.278   7.626  66.882  1.00  0.00    -0.116 OA 
ENDBRANCH  15  22
ENDBRANCH   4  11
TORSDOF 4
ENDMDL
MODEL      137
REMARK 921   NORMALIZED FREE ENERGY PREDICTED BY IDOCK:   -3.55 KCAL/MOL
REMARK 922        TOTAL FREE ENERGY PREDICTED BY IDOCK:   -4.89 KCAL/MOL
REMARK 923 INTER-LIGAND FREE ENERGY PREDICTED BY IDOCK:   -4.49 KCAL/MOL
REMARK 924 INTRA-LIGAND FREE ENERGY PREDICTED BY IDOCK:   -0.40 KCAL/MOL
REMARK 927      BINDING AFFINITY PREDICTED BY RF-SCORE:    0.00 PKD
ROOT
HETATM    1  C   UNL     1     -11.600  12.812  68.869  1.00  0.00    -0.362 C  
HETATM    2  C   UNL     1     -11.189  12.744  67.435  1.00  0.00    -0.337 C  
HETATM    3  C   UNL     1     -10.351  11.832  66.929  1.00  0.00    -0.217 C  
HETATM    4  N   UNL     1      -9.980  11.812  65.595  1.00  0.00    -0.233 N  
HETATM    5  C   UNL     1     -10.533  12.706  64.685  1.00  0.00    -0.337 C  
HETATM    6  O   UNL     1     -12.494  14.650  66.907  1.00  0.00    -0.135 OA 
HETATM    7  O   UNL     1     -10.285  12.709  63.480  1.00  0.00    -0.387 OA 
HETATM    8  H   UNL     1     -11.816  14.289  64.548  1.00  0.00     0.000 HD 
HETATM    9  N   UNL     1     -11.397  13.630  65.205  1.00  0.00    -0.302 N  
HETATM   10  C   UNL     1     -11.752  13.758  66.515  1.00  0.00    -0.385 C  
ENDROOT
BRANCH   4  11
HETATM   11  C   UNL     1      -9.070  10.797  65.063  1.00  0.00    -0.203 C  
HETATM   12  C   UNL     1      -7.750  10.692  65.819  1.00  0.00    -0.130 C  
HETATM   13  O   UNL     1      -9.664   9.485  65.130  1.00  0.00    -0.277 OA 
HETATM   14  C   UNL     1      -7.304   9.281  65.514  1.00  0.00    -0.090 C  
HETATM   15  C   UNL     1      -8.627   8.517  65.408  1.00  0.00    -0.176 C  
BRANCH  14  16
HETATM   16  N   UNL     1      -6.631   9.255  64.198  1.00  0.00    -0.089 NA 
HETATM   17  H   UNL     1      -6.795   8.509  63.522  1.00  0.00     0.000 HD 
BRANCH  16  18
HETATM   18  N   UNL     1      -5.854  10.199  63.965  1.00  0.00    -0.130 NA 
HETATM   19  N   UNL     1      -5.143  11.062  63.746  1.00  0.00    -0.444 NA 
HETATM   20  H1  UNL     1      -4.505  11.835  63.555  1.00  0.00     0.000 HD 
HETATM   21  H2  UNL     1      -5.320  10.948  62.748  1.00  0.00     0.000 HD 
ENDBRANCH  16  18
ENDBRANCH  14  16
BRANCH  15  22
HETATM   22  C   UNL     1      -8.998   7.773  66.694  1.00  0.00    -0.149 C  
HETATM   23  H   UNL     1      -8.066   6.874  68.193  1.00  0.00     0.000 HD 
HETATM   24  O   UNL     1      -7.836   7.336  67.395  1.00  0.00    -0.108 OA 
ENDBRANCH  15  22
ENDBRANCH   4  11
TORSDOF 4
ENDMDL
MODEL      138
REMARK 921   NORMALIZED FREE ENERGY PREDICTED BY IDOCK:   -3.55 KCAL/MOL
REMARK 922        TOTAL FREE ENERGY PREDICTED BY IDOCK:   -4.89 KCAL/MOL
REMARK 923 INTER-LIGAND FREE ENERGY PREDICTED BY IDOCK:   -4.35 KCAL/MOL
REMARK 924 INTRA-LIGAND FREE ENERGY PREDICTED BY IDOCK:   -0.55 KCAL/MOL
REMARK 927      BINDING AFFINITY PREDICTED BY RF-SCORE:    0.00 PKD
ROOT
HETATM    1  C   UNL     1     -11.284   2.768  73.500  1.00  0.00    -0.300 C  
HETATM    2  C   UNL     1     -10.332   3.886  73.230  1.00  0.00    -0.239 C  
HETATM    3  C   UNL     1     -10.669   5.049  72.661  1.00  0.00    -0.222 C  
HETATM    4  N   UNL     1      -9.753   6.056  72.412  1.00  0.00    -0.159 N  
HETATM    5  C   UNL     1      -8.430   5.938  72.822  1.00  0.00    -0.122 C  
HETATM    6  O   UNL     1      -8.521   2.638  74.114  1.00  0.00    -0.070 OA 
HETATM    7  O   UNL     1      -7.579   6.814  72.676  1.00  0.00    -0.091 OA 
HETATM    8  H   UNL     1      -7.125   4.652  73.725  1.00  0.00     0.000 HD 
HETATM    9  N   UNL     1      -8.091   4.751  73.412  1.00  0.00    -0.099 N  
HETATM   10  C   UNL     1      -8.919   3.689  73.624  1.00  0.00    -0.087 C  
ENDROOT
BRANCH   4  11
HETATM   11  C   UNL     1     -10.149   7.324  71.797  1.00  0.00    -0.179 C  
HETATM   12  C   UNL     1     -11.019   7.165  70.555  1.00  0.00    -0.287 C  
HETATM   13  O   UNL     1     -10.922   8.123  72.715  1.00  0.00    -0.369 OA 
HETATM   14  C   UNL     1     -11.755   8.483  70.493  1.00  0.00    -0.072 C  
HETATM   15  C   UNL     1     -11.923   8.853  71.970  1.00  0.00    -0.369 C  
BRANCH  14  16
HETATM   16  N   UNL     1     -10.893   9.493  69.845  1.00  0.00    -0.236 NA 
HETATM   17  H   UNL     1     -10.055   9.234  69.324  1.00  0.00     0.000 HD 
BRANCH  16  18
HETATM   18  N   UNL     1     -11.252  10.678  69.971  1.00  0.00    -0.297 NA 
HETATM   19  N   UNL     1     -11.580  11.763  70.092  1.00  0.00    -0.508 NA 
HETATM   20  H1  UNL     1     -11.875  12.734  70.196  1.00  0.00     0.000 HD 
HETATM   21  H2  UNL     1     -11.348  11.717  71.085  1.00  0.00     0.000 HD 
ENDBRANCH  16  18
ENDBRANCH  14  16
BRANCH  15  22
HETATM   22  C   UNL     1     -13.300   8.484  72.530  1.00  0.00    -0.217 C  
HETATM   23  H   UNL     1     -15.161   8.326  71.871  1.00  0.00     0.000 HD 
HETATM   24  O   UNL     1     -14.307   8.555  71.524  1.00  0.00    -0.424 OA 
ENDBRANCH  15  22
ENDBRANCH   4  11
TORSDOF 4
ENDMDL
MODEL      139
REMARK 921   NORMALIZED FREE ENERGY PREDICTED BY IDOCK:   -3.54 KCAL/MOL
REMARK 922        TOTAL FREE ENERGY PREDICTED BY IDOCK:   -4.88 KCAL/MOL
REMARK 923 INTER-LIGAND FREE ENERGY PREDICTED BY IDOCK:   -5.47 KCAL/MOL
REMARK 924 INTRA-LIGAND FREE ENERGY PREDICTED BY IDOCK:    0.59 KCAL/MOL
REMARK 927      BINDING AFFINITY PREDICTED BY RF-SCORE:    0.00 PKD
ROOT
HETATM    1  C   UNL     1      -8.236   9.218  64.305  1.00  0.00    -0.153 C  
HETATM    2  C   UNL     1      -9.300   9.881  65.117  1.00  0.00    -0.317 C  
HETATM    3  C   UNL     1      -9.706   9.462  66.321  1.00  0.00    -0.264 C  
HETATM    4  N   UNL     1     -10.709  10.095  67.036  1.00  0.00    -0.227 N  
HETATM    5  C   UNL     1     -11.295  11.264  66.565  1.00  0.00    -0.047 C  
HETATM    6  O   UNL     1      -9.656  11.509  63.432  1.00  0.00    -0.311 OA 
HETATM    7  O   UNL     1     -12.154  11.902  67.174  1.00  0.00    -0.590 OA 
HETATM    8  H   UNL     1     -11.286  12.555  64.983  1.00  0.00     0.000 HD 
HETATM    9  N   UNL     1     -10.870  11.694  65.339  1.00  0.00    -0.289 N  
HETATM   10  C   UNL     1      -9.943  11.085  64.545  1.00  0.00    -0.310 C  
ENDROOT
BRANCH   4  11
HETATM   11  C   UNL     1     -11.128   9.624  68.357  1.00  0.00    -0.037 C  
HETATM   12  C   UNL     1     -10.057   9.762  69.433  1.00  0.00    -0.221 C  
HETATM   13  O   UNL     1     -12.262  10.373  68.837  1.00  0.00    -0.176 OA 
HETATM   14  C   UNL     1     -10.868   9.808  70.707  1.00  0.00    -0.333 C  
HETATM   15  C   UNL     1     -12.153  10.519  70.271  1.00  0.00    -0.318 C  
BRANCH  14  16
HETATM   16  N   UNL     1     -11.204   8.429  71.121  1.00  0.00    -0.255 NA 
HETATM   17  H   UNL     1     -10.868   7.614  70.608  1.00  0.00     0.000 HD 
BRANCH  16  18
HETATM   18  N   UNL     1     -11.920   8.324  72.134  1.00  0.00    -0.345 NA 
HETATM   19  N   UNL     1     -12.578   8.222  73.059  1.00  0.00    -0.592 NA 
HETATM   20  H1  UNL     1     -13.165   8.136  73.888  1.00  0.00     0.000 HD 
HETATM   21  H2  UNL     1     -12.949   7.346  72.692  1.00  0.00     0.000 HD 
ENDBRANCH  16  18
ENDBRANCH  14  16
BRANCH  15  22
HETATM   22  C   UNL     1     -12.155  12.014  70.602  1.00  0.00    -0.274 C  
HETATM   23  H   UNL     1     -13.059  13.237  71.872  1.00  0.00     0.000 HD 
HETATM   24  O   UNL     1     -13.057  12.309  71.666  1.00  0.00    -0.409 OA 
ENDBRANCH  15  22
ENDBRANCH   4  11
TORSDOF 4
ENDMDL
MODEL      140
REMARK 921   NORMALIZED FREE ENERGY PREDICTED BY IDOCK:   -3.53 KCAL/MOL
REMARK 922        TOTAL FREE ENERGY PREDICTED BY IDOCK:   -4.86 KCAL/MOL
REMARK 923 INTER-LIGAND FREE ENERGY PREDICTED BY IDOCK:   -4.54 KCAL/MOL
REMARK 924 INTRA-LIGAND FREE ENERGY PREDICTED BY IDOCK:   -0.33 KCAL/MOL
REMARK 927      BINDING AFFINITY PREDICTED BY RF-SCORE:    0.00 PKD
ROOT
HETATM    1  C   UNL     1     -10.416   8.070  72.624  1.00  0.00    -0.408 C  
HETATM    2  C   UNL     1     -10.964   8.993  71.586  1.00  0.00    -0.435 C  
HETATM    3  C   UNL     1     -10.248   9.522  70.587  1.00  0.00    -0.297 C  
HETATM    4  N   UNL     1     -10.790  10.389  69.653  1.00  0.00    -0.259 N  
HETATM    5  C   UNL     1     -12.147  10.692  69.660  1.00  0.00    -0.240 C  
HETATM    6  O   UNL     1     -13.115   8.930  72.579  1.00  0.00    -0.422 OA 
HETATM    7  O   UNL     1     -12.699  11.414  68.830  1.00  0.00    -0.095 OA 
HETATM    8  H   UNL     1     -13.875  10.349  70.692  1.00  0.00     0.000 HD 
HETATM    9  N   UNL     1     -12.877  10.141  70.677  1.00  0.00    -0.283 N  
HETATM   10  C   UNL     1     -12.400   9.341  71.673  1.00  0.00    -0.372 C  
ENDROOT
BRANCH   4  11
HETATM   11  C   UNL     1      -9.988  10.946  68.563  1.00  0.00    -0.182 C  
HETATM   12  C   UNL     1      -9.713  12.440  68.698  1.00  0.00    -0.064 C  
HETATM   13  O   UNL     1      -8.693  10.315  68.499  1.00  0.00    -0.120 OA 
HETATM   14  C   UNL     1      -8.455  12.621  67.880  1.00  0.00    -0.173 C  
HETATM   15  C   UNL     1      -7.715  11.297  68.088  1.00  0.00    -0.112 C  
BRANCH  14  16
HETATM   16  N   UNL     1      -8.815  12.747  66.452  1.00  0.00    -0.430 NA 
HETATM   17  H   UNL     1      -8.697  11.975  65.796  1.00  0.00     0.000 HD 
BRANCH  16  18
HETATM   18  N   UNL     1      -9.271  13.850  66.100  1.00  0.00    -0.092 NA 
HETATM   19  N   UNL     1      -9.687  14.863  65.783  1.00  0.00    -0.392 NA 
HETATM   20  H1  UNL     1     -10.060  15.767  65.494  1.00  0.00     0.000 HD 
HETATM   21  H2  UNL     1      -9.444  15.243  66.698  1.00  0.00     0.000 HD 
ENDBRANCH  16  18
ENDBRANCH  14  16
BRANCH  15  22
HETATM   22  C   UNL     1      -6.633  11.375  69.169  1.00  0.00    -0.095 C  
HETATM   23  H   UNL     1      -5.196  12.621  69.723  1.00  0.00     0.000 HD 
HETATM   24  O   UNL     1      -5.868  12.572  69.053  1.00  0.00    -0.064 OA 
ENDBRANCH  15  22
ENDBRANCH   4  11
TORSDOF 4
ENDMDL
MODEL      141
REMARK 921   NORMALIZED FREE ENERGY PREDICTED BY IDOCK:   -3.52 KCAL/MOL
REMARK 922        TOTAL FREE ENERGY PREDICTED BY IDOCK:   -4.86 KCAL/MOL
REMARK 923 INTER-LIGAND FREE ENERGY PREDICTED BY IDOCK:   -4.27 KCAL/MOL
REMARK 924 INTRA-LIGAND FREE ENERGY PREDICTED BY IDOCK:   -0.59 KCAL/MOL
REMARK 927      BINDING AFFINITY PREDICTED BY RF-SCORE:    0.00 PKD
ROOT
HETATM    1  C   UNL     1      -8.753   5.008  66.464  1.00  0.00    -0.109 C  
HETATM    2  C   UNL     1      -9.415   5.680  67.621  1.00  0.00    -0.119 C  
HETATM    3  C   UNL     1      -9.703   6.986  67.677  1.00  0.00    -0.136 C  
HETATM    4  N   UNL     1     -10.304   7.575  68.776  1.00  0.00    -0.198 N  
HETATM    5  C   UNL     1     -10.719   6.811  69.861  1.00  0.00    -0.250 C  
HETATM    6  O   UNL     1      -9.517   3.641  68.825  1.00  0.00    -0.161 OA 
HETATM    7  O   UNL     1     -11.303   7.265  70.844  1.00  0.00    -0.264 OA 
HETATM    8  H   UNL     1     -10.738   4.900  70.580  1.00  0.00     0.000 HD 
HETATM    9  N   UNL     1     -10.433   5.475  69.795  1.00  0.00    -0.297 N  
HETATM   10  C   UNL     1      -9.781   4.837  68.782  1.00  0.00    -0.167 C  
ENDROOT
BRANCH   4  11
HETATM   11  C   UNL     1     -10.617   9.005  68.809  1.00  0.00    -0.169 C  
HETATM   12  C   UNL     1      -9.454   9.883  69.259  1.00  0.00    -0.218 C  
HETATM   13  O   UNL     1     -10.984   9.483  67.500  1.00  0.00    -0.241 OA 
HETATM   14  C   UNL     1      -9.794  11.223  68.648  1.00  0.00    -0.202 C  
HETATM   15  C   UNL     1     -10.502  10.837  67.345  1.00  0.00    -0.225 C  
BRANCH  14  16
HETATM   16  N   UNL     1     -10.755  11.928  69.522  1.00  0.00    -0.439 NA 
HETATM   17  H   UNL     1     -11.012  11.570  70.441  1.00  0.00     0.000 HD 
BRANCH  16  18
HETATM   18  N   UNL     1     -11.231  12.985  69.067  1.00  0.00    -0.264 NA 
HETATM   19  N   UNL     1     -11.665  13.954  68.655  1.00  0.00    -0.339 NA 
HETATM   20  H1  UNL     1     -12.055  14.820  68.283  1.00  0.00     0.000 HD 
HETATM   21  H2  UNL     1     -11.406  14.431  69.520  1.00  0.00     0.000 HD 
ENDBRANCH  16  18
ENDBRANCH  14  16
BRANCH  15  22
HETATM   22  C   UNL     1      -9.579  10.881  66.123  1.00  0.00    -0.202 C  
HETATM   23  H   UNL     1      -9.037   9.677  64.647  1.00  0.00     0.000 HD 
HETATM   24  O   UNL     1      -9.609   9.650  65.405  1.00  0.00    -0.267 OA 
ENDBRANCH  15  22
ENDBRANCH   4  11
TORSDOF 4
ENDMDL
MODEL      142
REMARK 921   NORMALIZED FREE ENERGY PREDICTED BY IDOCK:   -3.51 KCAL/MOL
REMARK 922        TOTAL FREE ENERGY PREDICTED BY IDOCK:   -4.85 KCAL/MOL
REMARK 923 INTER-LIGAND FREE ENERGY PREDICTED BY IDOCK:   -4.96 KCAL/MOL
REMARK 924 INTRA-LIGAND FREE ENERGY PREDICTED BY IDOCK:    0.12 KCAL/MOL
REMARK 927      BINDING AFFINITY PREDICTED BY RF-SCORE:    0.00 PKD
ROOT
HETATM    1  C   UNL     1     -10.334   8.251  72.688  1.00  0.00    -0.374 C  
HETATM    2  C   UNL     1      -9.805   8.737  71.379  1.00  0.00    -0.353 C  
HETATM    3  C   UNL     1     -10.433   9.612  70.585  1.00  0.00    -0.312 C  
HETATM    4  N   UNL     1      -9.917  10.027  69.369  1.00  0.00    -0.210 N  
HETATM    5  C   UNL     1      -8.661   9.609  68.945  1.00  0.00    -0.132 C  
HETATM    6  O   UNL     1      -7.873   7.381  71.586  1.00  0.00    -0.085 OA 
HETATM    7  O   UNL     1      -8.125   9.979  67.900  1.00  0.00    -0.108 OA 
HETATM    8  H   UNL     1      -7.092   8.412  69.469  1.00  0.00     0.000 HD 
HETATM    9  N   UNL     1      -8.018   8.723  69.764  1.00  0.00    -0.092 N  
HETATM   10  C   UNL     1      -8.493   8.214  70.936  1.00  0.00    -0.130 C  
ENDROOT
BRANCH   4  11
HETATM   11  C   UNL     1     -10.620  10.993  68.523  1.00  0.00    -0.190 C  
HETATM   12  C   UNL     1      -9.764  12.183  68.101  1.00  0.00    -0.208 C  
HETATM   13  O   UNL     1     -11.066  10.379  67.298  1.00  0.00    -0.278 OA 
HETATM   14  C   UNL     1     -10.447  12.652  66.837  1.00  0.00    -0.233 C  
HETATM   15  C   UNL     1     -10.979  11.350  66.230  1.00  0.00    -0.247 C  
BRANCH  14  16
HETATM   16  N   UNL     1     -11.593  13.514  67.193  1.00  0.00    -0.337 NA 
HETATM   17  H   UNL     1     -11.752  13.834  68.148  1.00  0.00     0.000 HD 
BRANCH  16  18
HETATM   18  N   UNL     1     -12.351  13.827  66.256  1.00  0.00    -0.447 NA 
HETATM   19  N   UNL     1     -13.046  14.118  65.401  1.00  0.00    -0.705 NA 
HETATM   20  H1  UNL     1     -13.667  14.374  64.634  1.00  0.00     0.000 HD 
HETATM   21  H2  UNL     1     -13.158  15.044  65.815  1.00  0.00     0.000 HD 
ENDBRANCH  16  18
ENDBRANCH  14  16
BRANCH  15  22
HETATM   22  C   UNL     1     -10.069  10.779  65.138  1.00  0.00    -0.299 C  
HETATM   23  H   UNL     1      -9.134  11.428  63.516  1.00  0.00     0.000 HD 
HETATM   24  O   UNL     1      -9.698  11.781  64.195  1.00  0.00    -0.223 OA 
ENDBRANCH  15  22
ENDBRANCH   4  11
TORSDOF 4
ENDMDL
MODEL      143
REMARK 921   NORMALIZED FREE ENERGY PREDICTED BY IDOCK:   -3.51 KCAL/MOL
REMARK 922        TOTAL FREE ENERGY PREDICTED BY IDOCK:   -4.84 KCAL/MOL
REMARK 923 INTER-LIGAND FREE ENERGY PREDICTED BY IDOCK:   -5.12 KCAL/MOL
REMARK 924 INTRA-LIGAND FREE ENERGY PREDICTED BY IDOCK:    0.29 KCAL/MOL
REMARK 927      BINDING AFFINITY PREDICTED BY RF-SCORE:    0.00 PKD
ROOT
HETATM    1  C   UNL     1     -12.770  13.880  71.046  1.00  0.00    -0.428 C  
HETATM    2  C   UNL     1     -11.898  13.938  69.836  1.00  0.00    -0.394 C  
HETATM    3  C   UNL     1     -11.781  12.954  68.936  1.00  0.00    -0.327 C  
HETATM    4  N   UNL     1     -10.947  13.039  67.835  1.00  0.00    -0.234 N  
HETATM    5  C   UNL     1     -10.239  14.204  67.561  1.00  0.00    -0.241 C  
HETATM    6  O   UNL     1     -11.131  16.104  70.416  1.00  0.00    -0.353 OA 
HETATM    7  O   UNL     1      -9.521  14.361  66.574  1.00  0.00    -0.268 OA 
HETATM    8  H   UNL     1      -9.861  16.075  68.285  1.00  0.00     0.000 HD 
HETATM    9  N   UNL     1     -10.369  15.211  68.476  1.00  0.00    -0.225 N  
HETATM   10  C   UNL     1     -11.111  15.174  69.620  1.00  0.00    -0.270 C  
ENDROOT
BRANCH   4  11
HETATM   11  C   UNL     1     -10.845  11.952  66.860  1.00  0.00    -0.263 C  
HETATM   12  C   UNL     1      -9.412  11.548  66.531  1.00  0.00    -0.220 C  
HETATM   13  O   UNL     1     -11.485  10.757  67.350  1.00  0.00    -0.467 OA 
HETATM   14  C   UNL     1      -9.571  10.124  66.048  1.00  0.00    -0.210 C  
HETATM   15  C   UNL     1     -10.744   9.606  66.885  1.00  0.00    -0.115 C  
BRANCH  14  16
HETATM   16  N   UNL     1      -9.968  10.133  64.625  1.00  0.00    -0.355 NA 
HETATM   17  H   UNL     1     -10.871  10.495  64.318  1.00  0.00     0.000 HD 
BRANCH  16  18
HETATM   18  N   UNL     1      -9.134   9.673  63.823  1.00  0.00    -0.226 NA 
HETATM   19  N   UNL     1      -8.371   9.246  63.092  1.00  0.00    -0.183 NA 
HETATM   20  H1  UNL     1      -7.688   8.869  62.436  1.00  0.00     0.000 HD 
HETATM   21  H2  UNL     1      -8.506   8.321  63.499  1.00  0.00     0.000 HD 
ENDBRANCH  16  18
ENDBRANCH  14  16
BRANCH  15  22
HETATM   22  C   UNL     1     -10.300   8.796  68.107  1.00  0.00    -0.216 C  
HETATM   23  H   UNL     1      -8.877   8.871  69.483  1.00  0.00     0.000 HD 
HETATM   24  O   UNL     1      -9.153   9.373  68.724  1.00  0.00    -0.131 OA 
ENDBRANCH  15  22
ENDBRANCH   4  11
TORSDOF 4
ENDMDL
MODEL      144
REMARK 921   NORMALIZED FREE ENERGY PREDICTED BY IDOCK:   -3.50 KCAL/MOL
REMARK 922        TOTAL FREE ENERGY PREDICTED BY IDOCK:   -4.83 KCAL/MOL
REMARK 923 INTER-LIGAND FREE ENERGY PREDICTED BY IDOCK:   -4.59 KCAL/MOL
REMARK 924 INTRA-LIGAND FREE ENERGY PREDICTED BY IDOCK:   -0.24 KCAL/MOL
REMARK 927      BINDING AFFINITY PREDICTED BY RF-SCORE:    0.00 PKD
ROOT
HETATM    1  C   UNL     1     -11.021   6.190  68.816  1.00  0.00    -0.421 C  
HETATM    2  C   UNL     1     -10.346   7.521  68.834  1.00  0.00    -0.220 C  
HETATM    3  C   UNL     1     -10.082   8.253  67.745  1.00  0.00    -0.206 C  
HETATM    4  N   UNL     1      -9.438   9.478  67.801  1.00  0.00    -0.131 N  
HETATM    5  C   UNL     1      -9.101  10.053  69.021  1.00  0.00    -0.171 C  
HETATM    6  O   UNL     1     -10.115   7.441  71.191  1.00  0.00    -0.187 OA 
HETATM    7  O   UNL     1      -8.573  11.158  69.143  1.00  0.00    -0.080 OA 
HETATM    8  H   UNL     1      -9.146   9.719  71.035  1.00  0.00     0.000 HD 
HETATM    9  N   UNL     1      -9.381   9.307  70.132  1.00  0.00    -0.209 N  
HETATM   10  C   UNL     1      -9.945   8.065  70.151  1.00  0.00    -0.191 C  
ENDROOT
BRANCH   4  11
HETATM   11  C   UNL     1      -9.170  10.264  66.596  1.00  0.00    -0.155 C  
HETATM   12  C   UNL     1      -9.653   9.606  65.308  1.00  0.00    -0.347 C  
HETATM   13  O   UNL     1      -9.834  11.542  66.655  1.00  0.00    -0.196 OA 
HETATM   14  C   UNL     1      -9.826  10.784  64.378  1.00  0.00    -0.315 C  
HETATM   15  C   UNL     1     -10.260  11.908  65.324  1.00  0.00    -0.272 C  
BRANCH  14  16
HETATM   16  N   UNL     1      -8.517  11.136  63.789  1.00  0.00    -0.355 NA 
HETATM   17  H   UNL     1      -8.057  12.025  63.985  1.00  0.00     0.000 HD 
BRANCH  16  18
HETATM   18  N   UNL     1      -8.011  10.282  63.038  1.00  0.00    -0.149 NA 
HETATM   19  N   UNL     1      -7.546   9.497  62.355  1.00  0.00    -0.104 NA 
HETATM   20  H1  UNL     1      -7.131   8.798  61.739  1.00  0.00     0.000 HD 
HETATM   21  H2  UNL     1      -7.493   8.851  63.142  1.00  0.00     0.000 HD 
ENDBRANCH  16  18
ENDBRANCH  14  16
BRANCH  15  22
HETATM   22  C   UNL     1     -11.776  12.123  65.347  1.00  0.00    -0.321 C  
HETATM   23  H   UNL     1     -13.186  12.503  66.686  1.00  0.00     0.000 HD 
HETATM   24  O   UNL     1     -12.246  12.370  66.671  1.00  0.00    -0.562 OA 
ENDBRANCH  15  22
ENDBRANCH   4  11
TORSDOF 4
ENDMDL
MODEL      145
REMARK 921   NORMALIZED FREE ENERGY PREDICTED BY IDOCK:   -3.49 KCAL/MOL
REMARK 922        TOTAL FREE ENERGY PREDICTED BY IDOCK:   -4.82 KCAL/MOL
REMARK 923 INTER-LIGAND FREE ENERGY PREDICTED BY IDOCK:   -4.37 KCAL/MOL
REMARK 924 INTRA-LIGAND FREE ENERGY PREDICTED BY IDOCK:   -0.45 KCAL/MOL
REMARK 927      BINDING AFFINITY PREDICTED BY RF-SCORE:    0.00 PKD
ROOT
HETATM    1  C   UNL     1     -10.269   7.834  72.956  1.00  0.00    -0.393 C  
HETATM    2  C   UNL     1     -10.737   8.717  71.847  1.00  0.00    -0.414 C  
HETATM    3  C   UNL     1      -9.982   9.094  70.807  1.00  0.00    -0.269 C  
HETATM    4  N   UNL     1     -10.447   9.929  69.806  1.00  0.00    -0.242 N  
HETATM    5  C   UNL     1     -11.770  10.358  69.789  1.00  0.00    -0.237 C  
HETATM    6  O   UNL     1     -12.876   8.937  72.841  1.00  0.00    -0.321 OA 
HETATM    7  O   UNL     1     -12.258  11.059  68.903  1.00  0.00    -0.519 OA 
HETATM    8  H   UNL     1     -13.515  10.264  70.845  1.00  0.00     0.000 HD 
HETATM    9  N   UNL     1     -12.540   9.962  70.847  1.00  0.00    -0.316 N  
HETATM   10  C   UNL     1     -12.134   9.204  71.904  1.00  0.00    -0.378 C  
ENDROOT
BRANCH   4  11
HETATM   11  C   UNL     1      -9.605  10.319  68.674  1.00  0.00    -0.168 C  
HETATM   12  C   UNL     1      -8.199  10.754  69.070  1.00  0.00    -0.139 C  
HETATM   13  O   UNL     1      -9.431   9.219  67.758  1.00  0.00    -0.138 OA 
HETATM   14  C   UNL     1      -7.406  10.508  67.807  1.00  0.00    -0.086 C  
HETATM   15  C   UNL     1      -8.099   9.284  67.199  1.00  0.00    -0.109 C  
BRANCH  14  16
HETATM   16  N   UNL     1      -7.578  11.656  66.892  1.00  0.00    -0.202 NA 
HETATM   17  H   UNL     1      -8.042  11.562  65.989  1.00  0.00     0.000 HD 
BRANCH  16  18
HETATM   18  N   UNL     1      -7.123  12.744  67.292  1.00  0.00    -0.126 NA 
HETATM   19  N   UNL     1      -6.704  13.737  67.662  1.00  0.00    -0.177 NA 
HETATM   20  H1  UNL     1      -6.332  14.628  67.990  1.00  0.00     0.000 HD 
HETATM   21  H2  UNL     1      -6.268  13.254  68.448  1.00  0.00     0.000 HD 
ENDBRANCH  16  18
ENDBRANCH  14  16
BRANCH  15  22
HETATM   22  C   UNL     1      -7.382   7.968  67.515  1.00  0.00    -0.089 C  
HETATM   23  H   UNL     1      -5.904   7.340  68.674  1.00  0.00     0.000 HD 
HETATM   24  O   UNL     1      -6.349   8.157  68.479  1.00  0.00    -0.050 OA 
ENDBRANCH  15  22
ENDBRANCH   4  11
TORSDOF 4
ENDMDL
MODEL      146
REMARK 921   NORMALIZED FREE ENERGY PREDICTED BY IDOCK:   -3.48 KCAL/MOL
REMARK 922        TOTAL FREE ENERGY PREDICTED BY IDOCK:   -4.80 KCAL/MOL
REMARK 923 INTER-LIGAND FREE ENERGY PREDICTED BY IDOCK:   -4.50 KCAL/MOL
REMARK 924 INTRA-LIGAND FREE ENERGY PREDICTED BY IDOCK:   -0.30 KCAL/MOL
REMARK 927      BINDING AFFINITY PREDICTED BY RF-SCORE:    0.00 PKD
ROOT
HETATM    1  C   UNL     1     -10.581  10.561  66.339  1.00  0.00    -0.218 C  
HETATM    2  C   UNL     1      -9.727   9.841  67.330  1.00  0.00    -0.213 C  
HETATM    3  C   UNL     1     -10.187   9.246  68.437  1.00  0.00    -0.202 C  
HETATM    4  N   UNL     1      -9.360   8.602  69.341  1.00  0.00    -0.150 N  
HETATM    5  C   UNL     1      -7.998   8.470  69.098  1.00  0.00    -0.112 C  
HETATM    6  O   UNL     1      -7.767  10.336  66.093  1.00  0.00    -0.112 OA 
HETATM    7  O   UNL     1      -7.218   7.868  69.835  1.00  0.00    -0.063 OA 
HETATM    8  H   UNL     1      -6.536   8.977  67.764  1.00  0.00     0.000 HD 
HETATM    9  N   UNL     1      -7.533   9.071  67.960  1.00  0.00    -0.084 N  
HETATM   10  C   UNL     1      -8.272   9.783  67.063  1.00  0.00    -0.117 C  
ENDROOT
BRANCH   4  11
HETATM   11  C   UNL     1      -9.889   7.949  70.540  1.00  0.00    -0.186 C  
HETATM   12  C   UNL     1      -9.912   8.844  71.774  1.00  0.00    -0.397 C  
HETATM   13  O   UNL     1     -11.253   7.527  70.338  1.00  0.00    -0.266 OA 
HETATM   14  C   UNL     1     -10.990   8.212  72.623  1.00  0.00    -0.370 C  
HETATM   15  C   UNL     1     -11.974   7.670  71.583  1.00  0.00    -0.299 C  
BRANCH  14  16
HETATM   16  N   UNL     1     -10.416   7.076  73.374  1.00  0.00    -0.313 NA 
HETATM   17  H   UNL     1      -9.552   7.163  73.908  1.00  0.00     0.000 HD 
BRANCH  16  18
HETATM   18  N   UNL     1     -11.052   6.007  73.315  1.00  0.00    -0.213 NA 
HETATM   19  N   UNL     1     -11.630   5.027  73.258  1.00  0.00    -0.495 NA 
HETATM   20  H1  UNL     1     -12.151   4.151  73.210  1.00  0.00     0.000 HD 
HETATM   21  H2  UNL     1     -10.860   4.610  72.734  1.00  0.00     0.000 HD 
ENDBRANCH  16  18
ENDBRANCH  14  16
BRANCH  15  22
HETATM   22  C   UNL     1     -13.167   8.600  71.340  1.00  0.00    -0.236 C  
HETATM   23  H   UNL     1     -14.196   9.963  72.344  1.00  0.00     0.000 HD 
HETATM   24  O   UNL     1     -13.456   9.386  72.494  1.00  0.00    -0.455 OA 
ENDBRANCH  15  22
ENDBRANCH   4  11
TORSDOF 4
ENDMDL
MODEL      147
REMARK 921   NORMALIZED FREE ENERGY PREDICTED BY IDOCK:   -3.47 KCAL/MOL
REMARK 922        TOTAL FREE ENERGY PREDICTED BY IDOCK:   -4.79 KCAL/MOL
REMARK 923 INTER-LIGAND FREE ENERGY PREDICTED BY IDOCK:   -4.58 KCAL/MOL
REMARK 924 INTRA-LIGAND FREE ENERGY PREDICTED BY IDOCK:   -0.22 KCAL/MOL
REMARK 927      BINDING AFFINITY PREDICTED BY RF-SCORE:    0.00 PKD
ROOT
HETATM    1  C   UNL     1      -8.891  10.802  65.635  1.00  0.00    -0.202 C  
HETATM    2  C   UNL     1      -9.597  11.604  66.677  1.00  0.00    -0.220 C  
HETATM    3  C   UNL     1      -9.279  12.860  67.013  1.00  0.00    -0.226 C  
HETATM    4  N   UNL     1      -9.948  13.566  67.998  1.00  0.00    -0.241 N  
HETATM    5  C   UNL     1     -11.055  13.023  68.641  1.00  0.00    -0.269 C  
HETATM    6  O   UNL     1     -11.057   9.802  67.164  1.00  0.00    -0.139 OA 
HETATM    7  O   UNL     1     -11.722  13.616  69.488  1.00  0.00    -0.284 OA 
HETATM    8  H   UNL     1     -12.196  11.334  68.748  1.00  0.00     0.000 HD 
HETATM    9  N   UNL     1     -11.383  11.743  68.289  1.00  0.00    -0.257 N  
HETATM   10  C   UNL     1     -10.728  10.961  67.384  1.00  0.00    -0.257 C  
ENDROOT
BRANCH   4  11
HETATM   11  C   UNL     1      -9.588  14.943  68.339  1.00  0.00    -0.209 C  
HETATM   12  C   UNL     1      -8.358  15.461  67.602  1.00  0.00    -0.174 C  
HETATM   13  O   UNL     1     -10.655  15.854  68.006  1.00  0.00    -0.269 OA 
HETATM   14  C   UNL     1      -8.557  16.959  67.634  1.00  0.00    -0.208 C  
HETATM   15  C   UNL     1     -10.080  17.105  67.565  1.00  0.00    -0.301 C  
BRANCH  14  16
HETATM   16  N   UNL     1      -8.087  17.486  68.932  1.00  0.00    -0.220 NA 
HETATM   17  H   UNL     1      -8.657  18.112  69.500  1.00  0.00     0.000 HD 
BRANCH  16  18
HETATM   18  N   UNL     1      -6.952  17.120  69.290  1.00  0.00    -0.222 NA 
HETATM   19  N   UNL     1      -5.916  16.782  69.622  1.00  0.00    -0.208 NA 
HETATM   20  H1  UNL     1      -4.986  16.482  69.915  1.00  0.00     0.000 HD 
HETATM   21  H2  UNL     1      -6.328  16.344  70.446  1.00  0.00     0.000 HD 
ENDBRANCH  16  18
ENDBRANCH  14  16
BRANCH  15  22
HETATM   22  C   UNL     1     -10.594  17.396  66.151  1.00  0.00    -0.208 C  
HETATM   23  H   UNL     1     -10.329  18.763  64.744  1.00  0.00     0.000 HD 
HETATM   24  O   UNL     1     -10.010  18.582  65.620  1.00  0.00    -0.462 OA 
ENDBRANCH  15  22
ENDBRANCH   4  11
TORSDOF 4
ENDMDL
MODEL      148
REMARK 921   NORMALIZED FREE ENERGY PREDICTED BY IDOCK:   -3.45 KCAL/MOL
REMARK 922        TOTAL FREE ENERGY PREDICTED BY IDOCK:   -4.77 KCAL/MOL
REMARK 923 INTER-LIGAND FREE ENERGY PREDICTED BY IDOCK:   -4.78 KCAL/MOL
REMARK 924 INTRA-LIGAND FREE ENERGY PREDICTED BY IDOCK:    0.01 KCAL/MOL
REMARK 927      BINDING AFFINITY PREDICTED BY RF-SCORE:    0.00 PKD
ROOT
HETATM    1  C   UNL     1      -6.787   9.622  64.889  1.00  0.00    -0.109 C  
HETATM    2  C   UNL     1      -7.959  10.509  64.628  1.00  0.00    -0.037 C  
HETATM    3  C   UNL     1      -8.576  11.245  65.560  1.00  0.00     0.021 C  
HETATM    4  N   UNL     1      -9.673  12.043  65.282  1.00  0.00    -0.208 N  
HETATM    5  C   UNL     1     -10.144  12.184  63.981  1.00  0.00    -0.331 C  
HETATM    6  O   UNL     1      -7.986   9.903  62.337  1.00  0.00    -0.113 OA 
HETATM    7  O   UNL     1     -11.081  12.914  63.660  1.00  0.00    -0.419 OA 
HETATM    8  H   UNL     1      -9.835  11.535  62.070  1.00  0.00     0.000 HD 
HETATM    9  N   UNL     1      -9.505  11.437  63.030  1.00  0.00    -0.368 N  
HETATM   10  C   UNL     1      -8.469  10.576  63.240  1.00  0.00    -0.157 C  
ENDROOT
BRANCH   4  11
HETATM   11  C   UNL     1     -10.323  12.848  66.317  1.00  0.00    -0.268 C  
HETATM   12  C   UNL     1     -11.818  12.582  66.459  1.00  0.00    -0.434 C  
HETATM   13  O   UNL     1      -9.753  12.578  67.614  1.00  0.00    -0.188 OA 
HETATM   14  C   UNL     1     -12.098  13.015  67.880  1.00  0.00    -0.186 C  
HETATM   15  C   UNL     1     -10.798  12.665  68.609  1.00  0.00    -0.249 C  
BRANCH  14  16
HETATM   16  N   UNL     1     -12.285  14.480  67.916  1.00  0.00    -0.622 NA 
HETATM   17  H   UNL     1     -12.647  14.999  67.116  1.00  0.00     0.000 HD 
BRANCH  16  18
HETATM   18  N   UNL     1     -11.974  15.043  68.982  1.00  0.00    -0.291 NA 
HETATM   19  N   UNL     1     -11.688  15.563  69.955  1.00  0.00    -0.327 NA 
HETATM   20  H1  UNL     1     -11.433  16.024  70.828  1.00  0.00     0.000 HD 
HETATM   21  H2  UNL     1     -11.346  16.363  69.421  1.00  0.00     0.000 HD 
ENDBRANCH  16  18
ENDBRANCH  14  16
BRANCH  15  22
HETATM   22  C   UNL     1     -10.865  11.326  69.350  1.00  0.00    -0.189 C  
HETATM   23  H   UNL     1     -12.231   9.966  69.809  1.00  0.00     0.000 HD 
HETATM   24  O   UNL     1     -12.189  10.797  69.349  1.00  0.00    -0.303 OA 
ENDBRANCH  15  22
ENDBRANCH   4  11
TORSDOF 4
ENDMDL
MODEL      149
REMARK 921   NORMALIZED FREE ENERGY PREDICTED BY IDOCK:   -3.44 KCAL/MOL
REMARK 922        TOTAL FREE ENERGY PREDICTED BY IDOCK:   -4.76 KCAL/MOL
REMARK 923 INTER-LIGAND FREE ENERGY PREDICTED BY IDOCK:   -4.30 KCAL/MOL
REMARK 924 INTRA-LIGAND FREE ENERGY PREDICTED BY IDOCK:   -0.46 KCAL/MOL
REMARK 927      BINDING AFFINITY PREDICTED BY RF-SCORE:    0.00 PKD
ROOT
HETATM    1  C   UNL     1     -10.078   6.744  67.987  1.00  0.00    -0.183 C  
HETATM    2  C   UNL     1      -9.616   7.673  66.914  1.00  0.00    -0.249 C  
HETATM    3  C   UNL     1      -9.891   8.983  66.874  1.00  0.00    -0.224 C  
HETATM    4  N   UNL     1      -9.457   9.810  65.852  1.00  0.00    -0.206 N  
HETATM    5  C   UNL     1      -8.633   9.327  64.842  1.00  0.00    -0.181 C  
HETATM    6  O   UNL     1      -8.533   5.907  65.765  1.00  0.00    -0.136 OA 
HETATM    7  O   UNL     1      -8.174  10.019  63.934  1.00  0.00    -0.144 OA 
HETATM    8  H   UNL     1      -7.737   7.623  64.161  1.00  0.00     0.000 HD 
HETATM    9  N   UNL     1      -8.346   7.991  64.892  1.00  0.00    -0.134 N  
HETATM   10  C   UNL     1      -8.795   7.102  65.823  1.00  0.00    -0.064 C  
ENDROOT
BRANCH   4  11
HETATM   11  C   UNL     1      -9.763  11.241  65.837  1.00  0.00    -0.224 C  
HETATM   12  C   UNL     1     -10.999  11.619  66.644  1.00  0.00    -0.349 C  
HETATM   13  O   UNL     1      -8.679  12.006  66.401  1.00  0.00    -0.176 OA 
HETATM   14  C   UNL     1     -10.751  13.073  66.971  1.00  0.00    -0.258 C  
HETATM   15  C   UNL     1      -9.228  13.139  67.111  1.00  0.00    -0.227 C  
BRANCH  14  16
HETATM   16  N   UNL     1     -11.162  13.908  65.823  1.00  0.00    -0.300 NA 
HETATM   17  H   UNL     1     -10.481  14.352  65.207  1.00  0.00     0.000 HD 
BRANCH  16  18
HETATM   18  N   UNL     1     -12.388  14.036  65.653  1.00  0.00    -0.454 NA 
HETATM   19  N   UNL     1     -13.511  14.149  65.493  1.00  0.00    -0.616 NA 
HETATM   20  H1  UNL     1     -14.516  14.254  65.354  1.00  0.00     0.000 HD 
HETATM   21  H2  UNL     1     -13.455  13.521  64.691  1.00  0.00     0.000 HD 
ENDBRANCH  16  18
ENDBRANCH  14  16
BRANCH  15  22
HETATM   22  C   UNL     1      -8.752  13.070  68.565  1.00  0.00    -0.042 C  
HETATM   23  H   UNL     1      -7.324  13.864  69.684  1.00  0.00     0.000 HD 
HETATM   24  O   UNL     1      -7.619  13.907  68.782  1.00  0.00    -0.129 OA 
ENDBRANCH  15  22
ENDBRANCH   4  11
TORSDOF 4
ENDMDL
MODEL      150
REMARK 921   NORMALIZED FREE ENERGY PREDICTED BY IDOCK:   -3.44 KCAL/MOL
REMARK 922        TOTAL FREE ENERGY PREDICTED BY IDOCK:   -4.75 KCAL/MOL
REMARK 923 INTER-LIGAND FREE ENERGY PREDICTED BY IDOCK:   -4.28 KCAL/MOL
REMARK 924 INTRA-LIGAND FREE ENERGY PREDICTED BY IDOCK:   -0.47 KCAL/MOL
REMARK 927      BINDING AFFINITY PREDICTED BY RF-SCORE:    0.00 PKD
ROOT
HETATM    1  C   UNL     1     -12.083  13.348  69.211  1.00  0.00    -0.312 C  
HETATM    2  C   UNL     1     -11.061  12.267  69.080  1.00  0.00    -0.289 C  
HETATM    3  C   UNL     1     -11.127  11.082  69.698  1.00  0.00    -0.256 C  
HETATM    4  N   UNL     1     -10.150  10.110  69.565  1.00  0.00    -0.224 N  
HETATM    5  C   UNL     1      -9.075  10.291  68.702  1.00  0.00    -0.152 C  
HETATM    6  O   UNL     1      -9.744  13.603  67.631  1.00  0.00    -0.218 OA 
HETATM    7  O   UNL     1      -8.201   9.448  68.500  1.00  0.00    -0.111 OA 
HETATM    8  H   UNL     1      -8.236  11.644  67.422  1.00  0.00     0.000 HD 
HETATM    9  N   UNL     1      -9.016  11.499  68.064  1.00  0.00    -0.163 N  
HETATM   10  C   UNL     1      -9.899  12.529  68.201  1.00  0.00    -0.221 C  
ENDROOT
BRANCH   4  11
HETATM   11  C   UNL     1     -10.250   8.818  70.244  1.00  0.00    -0.196 C  
HETATM   12  C   UNL     1      -9.810   8.849  71.703  1.00  0.00    -0.387 C  
HETATM   13  O   UNL     1     -11.613   8.346  70.257  1.00  0.00    -0.148 OA 
HETATM   14  C   UNL     1     -10.546   7.671  72.298  1.00  0.00    -0.246 C  
HETATM   15  C   UNL     1     -11.849   7.638  71.494  1.00  0.00    -0.295 C  
BRANCH  14  16
HETATM   16  N   UNL     1      -9.786   6.433  72.024  1.00  0.00    -0.157 NA 
HETATM   17  H   UNL     1      -9.882   5.923  71.146  1.00  0.00     0.000 HD 
BRANCH  16  18
HETATM   18  N   UNL     1      -9.022   6.051  72.929  1.00  0.00    -0.126 NA 
HETATM   19  N   UNL     1      -8.324   5.706  73.761  1.00  0.00    -0.114 NA 
HETATM   20  H1  UNL     1      -7.698   5.393  74.503  1.00  0.00     0.000 HD 
HETATM   21  H2  UNL     1      -8.725   6.409  74.382  1.00  0.00     0.000 HD 
ENDBRANCH  16  18
ENDBRANCH  14  16
BRANCH  15  22
HETATM   22  C   UNL     1     -13.019   8.314  72.217  1.00  0.00    -0.257 C  
HETATM   23  H   UNL     1     -14.973   8.524  71.974  1.00  0.00     0.000 HD 
HETATM   24  O   UNL     1     -14.248   8.104  71.526  1.00  0.00    -0.411 OA 
ENDBRANCH  15  22
ENDBRANCH   4  11
TORSDOF 4
ENDMDL
MODEL      151
REMARK 921   NORMALIZED FREE ENERGY PREDICTED BY IDOCK:   -3.43 KCAL/MOL
REMARK 922        TOTAL FREE ENERGY PREDICTED BY IDOCK:   -4.74 KCAL/MOL
REMARK 923 INTER-LIGAND FREE ENERGY PREDICTED BY IDOCK:   -4.54 KCAL/MOL
REMARK 924 INTRA-LIGAND FREE ENERGY PREDICTED BY IDOCK:   -0.20 KCAL/MOL
REMARK 927      BINDING AFFINITY PREDICTED BY RF-SCORE:    0.00 PKD
ROOT
HETATM    1  C   UNL     1      -9.759  12.806  67.237  1.00  0.00    -0.206 C  
HETATM    2  C   UNL     1     -10.481  12.169  68.378  1.00  0.00    -0.242 C  
HETATM    3  C   UNL     1     -10.065  11.071  69.021  1.00  0.00    -0.180 C  
HETATM    4  N   UNL     1     -10.772  10.499  70.065  1.00  0.00    -0.262 N  
HETATM    5  C   UNL     1     -11.926  11.096  70.559  1.00  0.00    -0.380 C  
HETATM    6  O   UNL     1     -12.211  13.785  68.267  1.00  0.00    -0.335 OA 
HETATM    7  O   UNL     1     -12.572  10.668  71.514  1.00  0.00    -0.388 OA 
HETATM    8  H   UNL     1     -13.185  12.676  70.261  1.00  0.00     0.000 HD 
HETATM    9  N   UNL     1     -12.343  12.223  69.906  1.00  0.00    -0.120 N  
HETATM   10  C   UNL     1     -11.741  12.802  68.827  1.00  0.00    -0.323 C  
ENDROOT
BRANCH   4  11
HETATM   11  C   UNL     1     -10.290   9.304  70.759  1.00  0.00    -0.281 C  
HETATM   12  C   UNL     1     -10.795   7.996  70.161  1.00  0.00    -0.242 C  
HETATM   13  O   UNL     1      -8.851   9.225  70.712  1.00  0.00    -0.222 OA 
HETATM   14  C   UNL     1      -9.747   7.001  70.604  1.00  0.00    -0.172 C  
HETATM   15  C   UNL     1      -8.463   7.836  70.614  1.00  0.00    -0.126 C  
BRANCH  14  16
HETATM   16  N   UNL     1     -10.043   6.564  71.985  1.00  0.00    -0.184 NA 
HETATM   17  H   UNL     1      -9.307   6.279  72.630  1.00  0.00     0.000 HD 
BRANCH  16  18
HETATM   18  N   UNL     1     -11.244   6.566  72.312  1.00  0.00    -0.261 NA 
HETATM   19  N   UNL     1     -12.344   6.563  72.609  1.00  0.00    -0.431 NA 
HETATM   20  H1  UNL     1     -13.328   6.565  72.876  1.00  0.00     0.000 HD 
HETATM   21  H2  UNL     1     -12.461   5.661  72.146  1.00  0.00     0.000 HD 
ENDBRANCH  16  18
ENDBRANCH  14  16
BRANCH  15  22
HETATM   22  C   UNL     1      -7.622   7.662  69.346  1.00  0.00    -0.095 C  
HETATM   23  H   UNL     1      -7.093   8.743  67.773  1.00  0.00     0.000 HD 
HETATM   24  O   UNL     1      -7.615   8.850  68.560  1.00  0.00    -0.094 OA 
ENDBRANCH  15  22
ENDBRANCH   4  11
TORSDOF 4
ENDMDL
MODEL      152
REMARK 921   NORMALIZED FREE ENERGY PREDICTED BY IDOCK:   -3.39 KCAL/MOL
REMARK 922        TOTAL FREE ENERGY PREDICTED BY IDOCK:   -4.70 KCAL/MOL
REMARK 923 INTER-LIGAND FREE ENERGY PREDICTED BY IDOCK:   -4.36 KCAL/MOL
REMARK 924 INTRA-LIGAND FREE ENERGY PREDICTED BY IDOCK:   -0.34 KCAL/MOL
REMARK 927      BINDING AFFINITY PREDICTED BY RF-SCORE:    0.00 PKD
ROOT
HETATM    1  C   UNL     1      -7.108   9.273  70.792  1.00  0.00    -0.121 C  
HETATM    2  C   UNL     1      -6.923  10.492  69.951  1.00  0.00    -0.151 C  
HETATM    3  C   UNL     1      -7.618  10.759  68.838  1.00  0.00    -0.121 C  
HETATM    4  N   UNL     1      -7.405  11.894  68.074  1.00  0.00    -0.092 N  
HETATM    5  C   UNL     1      -6.499  12.868  68.477  1.00  0.00    -0.083 C  
HETATM    6  O   UNL     1      -5.196  11.283  71.367  1.00  0.00    -0.225 OA 
HETATM    7  O   UNL     1      -6.300  13.921  67.872  1.00  0.00    -0.133 OA 
HETATM    8  H   UNL     1      -5.135  13.306  69.933  1.00  0.00     0.000 HD 
HETATM    9  N   UNL     1      -5.799  12.597  69.620  1.00  0.00    -0.104 N  
HETATM   10  C   UNL     1      -5.901  11.472  70.383  1.00  0.00    -0.155 C  
ENDROOT
BRANCH   4  11
HETATM   11  C   UNL     1      -8.185  12.167  66.866  1.00  0.00    -0.134 C  
HETATM   12  C   UNL     1      -8.985  10.971  66.362  1.00  0.00    -0.190 C  
HETATM   13  O   UNL     1      -9.150  13.212  67.101  1.00  0.00    -0.213 OA 
HETATM   14  C   UNL     1     -10.095  11.624  65.570  1.00  0.00    -0.246 C  
HETATM   15  C   UNL     1     -10.342  12.928  66.333  1.00  0.00    -0.268 C  
BRANCH  14  16
HETATM   16  N   UNL     1      -9.600  11.950  64.216  1.00  0.00    -0.462 NA 
HETATM   17  H   UNL     1      -9.145  12.839  64.007  1.00  0.00     0.000 HD 
BRANCH  16  18
HETATM   18  N   UNL     1      -9.771  11.075  63.348  1.00  0.00    -0.312 NA 
HETATM   19  N   UNL     1      -9.931  10.272  62.556  1.00  0.00    -0.690 NA 
HETATM   20  H1  UNL     1     -10.071   9.554  61.844  1.00  0.00     0.000 HD 
HETATM   21  H2  UNL     1     -10.675   9.867  63.125  1.00  0.00     0.000 HD 
ENDBRANCH  16  18
ENDBRANCH  14  16
BRANCH  15  22
HETATM   22  C   UNL     1     -11.526  12.845  67.301  1.00  0.00    -0.336 C  
HETATM   23  H   UNL     1     -13.230  13.802  67.625  1.00  0.00     0.000 HD 
HETATM   24  O   UNL     1     -12.495  13.854  67.025  1.00  0.00    -0.323 OA 
ENDBRANCH  15  22
ENDBRANCH   4  11
TORSDOF 4
ENDMDL
MODEL      153
REMARK 921   NORMALIZED FREE ENERGY PREDICTED BY IDOCK:   -3.39 KCAL/MOL
REMARK 922        TOTAL FREE ENERGY PREDICTED BY IDOCK:   -4.69 KCAL/MOL
REMARK 923 INTER-LIGAND FREE ENERGY PREDICTED BY IDOCK:   -4.49 KCAL/MOL
REMARK 924 INTRA-LIGAND FREE ENERGY PREDICTED BY IDOCK:   -0.20 KCAL/MOL
REMARK 927      BINDING AFFINITY PREDICTED BY RF-SCORE:    0.00 PKD
ROOT
HETATM    1  C   UNL     1      -7.256  14.526  69.161  1.00  0.00    -0.138 C  
HETATM    2  C   UNL     1      -8.556  14.110  68.557  1.00  0.00    -0.163 C  
HETATM    3  C   UNL     1      -8.702  13.099  67.692  1.00  0.00    -0.192 C  
HETATM    4  N   UNL     1      -9.924  12.754  67.140  1.00  0.00    -0.215 N  
HETATM    5  C   UNL     1     -11.092  13.402  67.526  1.00  0.00    -0.274 C  
HETATM    6  O   UNL     1      -9.710  15.834  69.702  1.00  0.00    -0.271 OA 
HETATM    7  O   UNL     1     -12.214  13.111  67.112  1.00  0.00    -0.326 OA 
HETATM    8  H   UNL     1     -11.789  14.908  68.716  1.00  0.00     0.000 HD 
HETATM    9  N   UNL     1     -10.940  14.427  68.418  1.00  0.00    -0.241 N  
HETATM   10  C   UNL     1      -9.764  14.871  68.947  1.00  0.00    -0.223 C  
ENDROOT
BRANCH   4  11
HETATM   11  C   UNL     1     -10.059  11.637  66.204  1.00  0.00    -0.224 C  
HETATM   12  C   UNL     1      -8.730  11.099  65.687  1.00  0.00    -0.126 C  
HETATM   13  O   UNL     1     -10.717  10.517  66.829  1.00  0.00    -0.240 OA 
HETATM   14  C   UNL     1      -9.076   9.683  65.289  1.00  0.00    -0.218 C  
HETATM   15  C   UNL     1     -10.152   9.293  66.307  1.00  0.00    -0.252 C  
BRANCH  14  16
HETATM   16  N   UNL     1      -9.678   9.689  63.939  1.00  0.00    -0.417 NA 
HETATM   17  H   UNL     1     -10.477   9.102  63.701  1.00  0.00     0.000 HD 
BRANCH  16  18
HETATM   18  N   UNL     1      -9.150  10.454  63.111  1.00  0.00    -0.231 NA 
HETATM   19  N   UNL     1      -8.669  11.151  62.349  1.00  0.00    -0.395 NA 
HETATM   20  H1  UNL     1      -8.237  11.778  61.670  1.00  0.00     0.000 HD 
HETATM   21  H2  UNL     1      -9.134  10.642  61.597  1.00  0.00     0.000 HD 
ENDBRANCH  16  18
ENDBRANCH  14  16
BRANCH  15  22
HETATM   22  C   UNL     1      -9.602   8.480  67.483  1.00  0.00    -0.154 C  
HETATM   23  H   UNL     1     -10.308   7.528  69.070  1.00  0.00     0.000 HD 
HETATM   24  O   UNL     1     -10.649   8.032  68.340  1.00  0.00    -0.186 OA 
ENDBRANCH  15  22
ENDBRANCH   4  11
TORSDOF 4
ENDMDL
MODEL      154
REMARK 921   NORMALIZED FREE ENERGY PREDICTED BY IDOCK:   -3.37 KCAL/MOL
REMARK 922        TOTAL FREE ENERGY PREDICTED BY IDOCK:   -4.67 KCAL/MOL
REMARK 923 INTER-LIGAND FREE ENERGY PREDICTED BY IDOCK:   -4.23 KCAL/MOL
REMARK 924 INTRA-LIGAND FREE ENERGY PREDICTED BY IDOCK:   -0.44 KCAL/MOL
REMARK 927      BINDING AFFINITY PREDICTED BY RF-SCORE:    0.00 PKD
ROOT
HETATM    1  C   UNL     1      -8.545   8.213  73.525  1.00  0.00    -0.313 C  
HETATM    2  C   UNL     1      -9.348   7.729  72.363  1.00  0.00    -0.224 C  
HETATM    3  C   UNL     1      -9.178   8.138  71.100  1.00  0.00    -0.154 C  
HETATM    4  N   UNL     1      -9.955   7.677  70.051  1.00  0.00    -0.188 N  
HETATM    5  C   UNL     1     -10.913   6.689  70.250  1.00  0.00    -0.303 C  
HETATM    6  O   UNL     1     -10.647   6.329  73.766  1.00  0.00    -0.272 OA 
HETATM    7  O   UNL     1     -11.600   6.202  69.353  1.00  0.00    -0.372 OA 
HETATM    8  H   UNL     1     -11.771   5.537  71.701  1.00  0.00     0.000 HD 
HETATM    9  N   UNL     1     -11.076   6.267  71.540  1.00  0.00    -0.270 N  
HETATM   10  C   UNL     1     -10.402   6.725  72.633  1.00  0.00    -0.201 C  
ENDROOT
BRANCH   4  11
HETATM   11  C   UNL     1      -9.742   8.132  68.676  1.00  0.00    -0.153 C  
HETATM   12  C   UNL     1     -10.631   9.301  68.266  1.00  0.00    -0.237 C  
HETATM   13  O   UNL     1      -8.387   8.587  68.487  1.00  0.00    -0.121 OA 
HETATM   14  C   UNL     1      -9.846   9.938  67.143  1.00  0.00    -0.186 C  
HETATM   15  C   UNL     1      -8.392   9.695  67.558  1.00  0.00    -0.118 C  
BRANCH  14  16
HETATM   16  N   UNL     1     -10.112   9.206  65.887  1.00  0.00    -0.387 NA 
HETATM   17  H   UNL     1     -10.524   8.274  65.881  1.00  0.00     0.000 HD 
BRANCH  16  18
HETATM   18  N   UNL     1      -9.801   9.797  64.836  1.00  0.00    -0.222 NA 
HETATM   19  N   UNL     1      -9.518  10.343  63.877  1.00  0.00    -0.282 NA 
HETATM   20  H1  UNL     1      -9.263  10.828  63.016  1.00  0.00     0.000 HD 
HETATM   21  H2  UNL     1      -9.685  11.236  64.341  1.00  0.00     0.000 HD 
ENDBRANCH  16  18
ENDBRANCH  14  16
BRANCH  15  22
HETATM   22  C   UNL     1      -7.754  10.903  68.251  1.00  0.00    -0.111 C  
HETATM   23  H   UNL     1      -6.667  12.481  67.748  1.00  0.00     0.000 HD 
HETATM   24  O   UNL     1      -7.063  11.731  67.319  1.00  0.00    -0.119 OA 
ENDBRANCH  15  22
ENDBRANCH   4  11
TORSDOF 4
ENDMDL
MODEL      155
REMARK 921   NORMALIZED FREE ENERGY PREDICTED BY IDOCK:   -3.37 KCAL/MOL
REMARK 922        TOTAL FREE ENERGY PREDICTED BY IDOCK:   -4.67 KCAL/MOL
REMARK 923 INTER-LIGAND FREE ENERGY PREDICTED BY IDOCK:   -4.10 KCAL/MOL
REMARK 924 INTRA-LIGAND FREE ENERGY PREDICTED BY IDOCK:   -0.58 KCAL/MOL
REMARK 927      BINDING AFFINITY PREDICTED BY RF-SCORE:    0.00 PKD
ROOT
HETATM    1  C   UNL     1     -12.216  11.450  70.411  1.00  0.00    -0.450 C  
HETATM    2  C   UNL     1     -11.769  10.122  70.925  1.00  0.00    -0.468 C  
HETATM    3  C   UNL     1     -10.661   9.487  70.523  1.00  0.00    -0.298 C  
HETATM    4  N   UNL     1     -10.289   8.246  71.012  1.00  0.00    -0.188 N  
HETATM    5  C   UNL     1     -11.018   7.625  72.020  1.00  0.00    -0.246 C  
HETATM    6  O   UNL     1     -13.662   9.964  72.342  1.00  0.00    -0.338 OA 
HETATM    7  O   UNL     1     -10.713   6.548  72.532  1.00  0.00    -0.210 OA 
HETATM    8  H   UNL     1     -12.685   7.842  73.179  1.00  0.00     0.000 HD 
HETATM    9  N   UNL     1     -12.143   8.282  72.435  1.00  0.00    -0.377 N  
HETATM   10  C   UNL     1     -12.612   9.468  71.951  1.00  0.00    -0.396 C  
ENDROOT
BRANCH   4  11
HETATM   11  C   UNL     1      -9.066   7.576  70.564  1.00  0.00    -0.156 C  
HETATM   12  C   UNL     1      -8.924   7.497  69.048  1.00  0.00    -0.131 C  
HETATM   13  O   UNL     1      -7.895   8.275  71.031  1.00  0.00    -0.082 OA 
HETATM   14  C   UNL     1      -7.430   7.359  68.862  1.00  0.00    -0.101 C  
HETATM   15  C   UNL     1      -6.861   8.177  70.025  1.00  0.00    -0.040 C  
BRANCH  14  16
HETATM   16  N   UNL     1      -7.045   5.944  69.041  1.00  0.00    -0.067 NA 
HETATM   17  H   UNL     1      -6.469   5.635  69.824  1.00  0.00     0.000 HD 
BRANCH  16  18
HETATM   18  N   UNL     1      -7.468   5.151  68.179  1.00  0.00    -0.075 NA 
HETATM   19  N   UNL     1      -7.856   4.421  67.394  1.00  0.00    -0.095 NA 
HETATM   20  H1  UNL     1      -8.202   3.772  66.688  1.00  0.00     0.000 HD 
HETATM   21  H2  UNL     1      -8.064   3.747  68.131  1.00  0.00     0.000 HD 
ENDBRANCH  16  18
ENDBRANCH  14  16
BRANCH  15  22
HETATM   22  C   UNL     1      -6.451   9.596  69.620  1.00  0.00    -0.046 C  
HETATM   23  H   UNL     1      -6.587  11.431  70.352  1.00  0.00     0.000 HD 
HETATM   24  O   UNL     1      -6.841  10.551  70.603  1.00  0.00    -0.330 OA 
ENDBRANCH  15  22
ENDBRANCH   4  11
TORSDOF 4
ENDMDL
MODEL      156
REMARK 921   NORMALIZED FREE ENERGY PREDICTED BY IDOCK:   -3.37 KCAL/MOL
REMARK 922        TOTAL FREE ENERGY PREDICTED BY IDOCK:   -4.66 KCAL/MOL
REMARK 923 INTER-LIGAND FREE ENERGY PREDICTED BY IDOCK:   -5.33 KCAL/MOL
REMARK 924 INTRA-LIGAND FREE ENERGY PREDICTED BY IDOCK:    0.67 KCAL/MOL
REMARK 927      BINDING AFFINITY PREDICTED BY RF-SCORE:    0.00 PKD
ROOT
HETATM    1  C   UNL     1     -10.775  19.949  67.080  1.00  0.00    -0.469 C  
HETATM    2  C   UNL     1      -9.995  18.676  67.051  1.00  0.00    -0.368 C  
HETATM    3  C   UNL     1     -10.474  17.485  67.431  1.00  0.00    -0.342 C  
HETATM    4  N   UNL     1      -9.713  16.328  67.405  1.00  0.00    -0.232 N  
HETATM    5  C   UNL     1      -8.419  16.333  66.898  1.00  0.00    -0.224 C  
HETATM    6  O   UNL     1      -8.074  19.798  66.237  1.00  0.00    -0.314 OA 
HETATM    7  O   UNL     1      -7.709  15.333  66.801  1.00  0.00    -0.147 OA 
HETATM    8  H   UNL     1      -6.991  17.569  66.121  1.00  0.00     0.000 HD 
HETATM    9  N   UNL     1      -7.937  17.550  66.502  1.00  0.00    -0.252 N  
HETATM   10  C   UNL     1      -8.599  18.741  66.565  1.00  0.00    -0.305 C  
ENDROOT
BRANCH   4  11
HETATM   11  C   UNL     1     -10.263  15.035  67.816  1.00  0.00    -0.236 C  
HETATM   12  C   UNL     1     -10.944  14.266  66.689  1.00  0.00    -0.310 C  
HETATM   13  O   UNL     1      -9.225  14.166  68.311  1.00  0.00    -0.188 OA 
HETATM   14  C   UNL     1     -10.861  12.834  67.167  1.00  0.00    -0.256 C  
HETATM   15  C   UNL     1      -9.539  12.805  67.938  1.00  0.00    -0.211 C  
BRANCH  14  16
HETATM   16  N   UNL     1     -11.969  12.570  68.108  1.00  0.00    -0.318 NA 
HETATM   17  H   UNL     1     -12.935  12.810  67.887  1.00  0.00     0.000 HD 
BRANCH  16  18
HETATM   18  N   UNL     1     -11.651  12.036  69.187  1.00  0.00    -0.288 NA 
HETATM   19  N   UNL     1     -11.365  11.544  70.174  1.00  0.00    -0.498 NA 
HETATM   20  H1  UNL     1     -11.104  11.107  71.058  1.00  0.00     0.000 HD 
HETATM   21  H2  UNL     1     -12.135  10.885  70.063  1.00  0.00     0.000 HD 
ENDBRANCH  16  18
ENDBRANCH  14  16
BRANCH  15  22
HETATM   22  C   UNL     1      -8.372  12.253  67.114  1.00  0.00    -0.183 C  
HETATM   23  H   UNL     1      -8.107  11.026  65.581  1.00  0.00     0.000 HD 
HETATM   24  O   UNL     1      -8.830  11.369  66.093  1.00  0.00    -0.193 OA 
ENDBRANCH  15  22
ENDBRANCH   4  11
TORSDOF 4
ENDMDL
MODEL      157
REMARK 921   NORMALIZED FREE ENERGY PREDICTED BY IDOCK:   -3.36 KCAL/MOL
REMARK 922        TOTAL FREE ENERGY PREDICTED BY IDOCK:   -4.65 KCAL/MOL
REMARK 923 INTER-LIGAND FREE ENERGY PREDICTED BY IDOCK:   -5.18 KCAL/MOL
REMARK 924 INTRA-LIGAND FREE ENERGY PREDICTED BY IDOCK:    0.53 KCAL/MOL
REMARK 927      BINDING AFFINITY PREDICTED BY RF-SCORE:    0.00 PKD
ROOT
HETATM    1  C   UNL     1     -10.638   8.056  72.194  1.00  0.00    -0.335 C  
HETATM    2  C   UNL     1     -10.982   9.125  71.209  1.00  0.00    -0.400 C  
HETATM    3  C   UNL     1     -10.121   9.653  70.332  1.00  0.00    -0.276 C  
HETATM    4  N   UNL     1     -10.474  10.656  69.445  1.00  0.00    -0.228 N  
HETATM    5  C   UNL     1     -11.784  11.113  69.366  1.00  0.00    -0.332 C  
HETATM    6  O   UNL     1     -13.212   9.225  72.004  1.00  0.00    -0.380 OA 
HETATM    7  O   UNL     1     -12.173  11.964  68.567  1.00  0.00    -0.391 OA 
HETATM    8  H   UNL     1     -13.631  10.884  70.207  1.00  0.00     0.000 HD 
HETATM    9  N   UNL     1     -12.664  10.563  70.257  1.00  0.00    -0.265 N  
HETATM   10  C   UNL     1     -12.374   9.628  71.206  1.00  0.00    -0.360 C  
ENDROOT
BRANCH   4  11
HETATM   11  C   UNL     1      -9.515  11.210  68.487  1.00  0.00    -0.193 C  
HETATM   12  C   UNL     1      -9.343  10.370  67.227  1.00  0.00    -0.164 C  
HETATM   13  O   UNL     1      -9.933  12.513  68.034  1.00  0.00    -0.206 OA 
HETATM   14  C   UNL     1      -8.846  11.380  66.219  1.00  0.00    -0.195 C  
HETATM   15  C   UNL     1      -9.551  12.670  66.649  1.00  0.00    -0.249 C  
BRANCH  14  16
HETATM   16  N   UNL     1      -7.388  11.557  66.383  1.00  0.00    -0.354 NA 
HETATM   17  H   UNL     1      -6.981  12.444  66.679  1.00  0.00     0.000 HD 
BRANCH  16  18
HETATM   18  N   UNL     1      -6.687  10.557  66.140  1.00  0.00    -0.119 NA 
HETATM   19  N   UNL     1      -6.050   9.639  65.915  1.00  0.00    -0.066 NA 
HETATM   20  H1  UNL     1      -5.476   8.820  65.716  1.00  0.00     0.000 HD 
HETATM   21  H2  UNL     1      -6.876   9.161  65.554  1.00  0.00     0.000 HD 
ENDBRANCH  16  18
ENDBRANCH  14  16
BRANCH  15  22
HETATM   22  C   UNL     1     -10.814  12.966  65.834  1.00  0.00    -0.272 C  
HETATM   23  H   UNL     1     -11.301  13.283  63.940  1.00  0.00     0.000 HD 
HETATM   24  O   UNL     1     -10.518  13.099  64.446  1.00  0.00    -0.393 OA 
ENDBRANCH  15  22
ENDBRANCH   4  11
TORSDOF 4
ENDMDL
MODEL      158
REMARK 921   NORMALIZED FREE ENERGY PREDICTED BY IDOCK:   -3.34 KCAL/MOL
REMARK 922        TOTAL FREE ENERGY PREDICTED BY IDOCK:   -4.63 KCAL/MOL
REMARK 923 INTER-LIGAND FREE ENERGY PREDICTED BY IDOCK:   -4.08 KCAL/MOL
REMARK 924 INTRA-LIGAND FREE ENERGY PREDICTED BY IDOCK:   -0.55 KCAL/MOL
REMARK 927      BINDING AFFINITY PREDICTED BY RF-SCORE:    0.00 PKD
ROOT
HETATM    1  C   UNL     1      -6.836  10.555  69.452  1.00  0.00    -0.088 C  
HETATM    2  C   UNL     1      -7.736  10.345  68.280  1.00  0.00    -0.096 C  
HETATM    3  C   UNL     1      -8.468   9.243  68.072  1.00  0.00    -0.120 C  
HETATM    4  N   UNL     1      -9.278   9.079  66.962  1.00  0.00    -0.132 N  
HETATM    5  C   UNL     1      -9.438  10.102  66.034  1.00  0.00    -0.197 C  
HETATM    6  O   UNL     1      -7.157  12.458  67.378  1.00  0.00    -0.135 OA 
HETATM    7  O   UNL     1     -10.180  10.038  65.055  1.00  0.00    -0.280 OA 
HETATM    8  H   UNL     1      -8.808  11.992  65.586  1.00  0.00     0.000 HD 
HETATM    9  N   UNL     1      -8.697  11.230  66.255  1.00  0.00    -0.183 N  
HETATM   10  C   UNL     1      -7.824  11.435  67.282  1.00  0.00    -0.149 C  
ENDROOT
BRANCH   4  11
HETATM   11  C   UNL     1     -10.077   7.868  66.763  1.00  0.00    -0.281 C  
HETATM   12  C   UNL     1      -9.250   6.590  66.670  1.00  0.00    -0.172 C  
HETATM   13  O   UNL     1     -10.988   7.664  67.861  1.00  0.00    -0.076 OA 
HETATM   14  C   UNL     1     -10.241   5.523  67.076  1.00  0.00    -0.224 C  
HETATM   15  C   UNL     1     -11.123   6.245  68.098  1.00  0.00    -0.266 C  
BRANCH  14  16
HETATM   16  N   UNL     1     -11.068   5.155  65.908  1.00  0.00    -0.803 NA 
HETATM   17  H   UNL     1     -12.073   5.327  65.881  1.00  0.00     0.000 HD 
BRANCH  16  18
HETATM   18  N   UNL     1     -10.463   4.624  64.958  1.00  0.00    -0.032 NA 
HETATM   19  N   UNL     1      -9.907   4.134  64.092  1.00  0.00    -0.266 NA 
HETATM   20  H1  UNL     1      -9.412   3.699  63.314  1.00  0.00     0.000 HD 
HETATM   21  H2  UNL     1      -9.300   3.657  64.759  1.00  0.00     0.000 HD 
ENDBRANCH  16  18
ENDBRANCH  14  16
BRANCH  15  22
HETATM   22  C   UNL     1     -10.720   5.961  69.548  1.00  0.00    -0.343 C  
HETATM   23  H   UNL     1      -9.798   4.533  70.565  1.00  0.00     0.000 HD 
HETATM   24  O   UNL     1     -10.048   4.710  69.666  1.00  0.00    -0.233 OA 
ENDBRANCH  15  22
ENDBRANCH   4  11
TORSDOF 4
ENDMDL
MODEL      159
REMARK 921   NORMALIZED FREE ENERGY PREDICTED BY IDOCK:   -3.33 KCAL/MOL
REMARK 922        TOTAL FREE ENERGY PREDICTED BY IDOCK:   -4.62 KCAL/MOL
REMARK 923 INTER-LIGAND FREE ENERGY PREDICTED BY IDOCK:   -4.17 KCAL/MOL
REMARK 924 INTRA-LIGAND FREE ENERGY PREDICTED BY IDOCK:   -0.45 KCAL/MOL
REMARK 927      BINDING AFFINITY PREDICTED BY RF-SCORE:    0.00 PKD
ROOT
HETATM    1  C   UNL     1      -8.119  10.228  67.870  1.00  0.00    -0.102 C  
HETATM    2  C   UNL     1      -7.515  11.588  67.755  1.00  0.00    -0.101 C  
HETATM    3  C   UNL     1      -8.215  12.727  67.691  1.00  0.00    -0.175 C  
HETATM    4  N   UNL     1      -7.617  13.970  67.567  1.00  0.00    -0.178 N  
HETATM    5  C   UNL     1      -6.234  14.103  67.587  1.00  0.00    -0.085 C  
HETATM    6  O   UNL     1      -5.326  10.680  67.728  1.00  0.00    -0.040 OA 
HETATM    7  O   UNL     1      -5.642  15.181  67.531  1.00  0.00    -0.318 OA 
HETATM    8  H   UNL     1      -4.505  13.021  67.685  1.00  0.00     0.000 HD 
HETATM    9  N   UNL     1      -5.521  12.938  67.663  1.00  0.00    -0.123 N  
HETATM   10  C   UNL     1      -6.038  11.677  67.713  1.00  0.00    -0.052 C  
ENDROOT
BRANCH   4  11
HETATM   11  C   UNL     1      -8.405  15.201  67.509  1.00  0.00    -0.172 C  
HETATM   12  C   UNL     1      -8.791  15.623  66.095  1.00  0.00    -0.311 C  
HETATM   13  O   UNL     1      -9.648  15.054  68.225  1.00  0.00    -0.202 OA 
HETATM   14  C   UNL     1     -10.019  16.473  66.325  1.00  0.00    -0.329 C  
HETATM   15  C   UNL     1     -10.673  15.810  67.541  1.00  0.00    -0.317 C  
BRANCH  14  16
HETATM   16  N   UNL     1      -9.604  17.842  66.694  1.00  0.00    -0.296 NA 
HETATM   17  H   UNL     1      -8.912  18.019  67.422  1.00  0.00     0.000 HD 
BRANCH  16  18
HETATM   18  N   UNL     1     -10.149  18.766  66.063  1.00  0.00    -0.535 NA 
HETATM   19  N   UNL     1     -10.643  19.612  65.482  1.00  0.00    -0.454 NA 
HETATM   20  H1  UNL     1     -11.090  20.369  64.965  1.00  0.00     0.000 HD 
HETATM   21  H2  UNL     1      -9.754  19.810  65.023  1.00  0.00     0.000 HD 
ENDBRANCH  16  18
ENDBRANCH  14  16
BRANCH  15  22
HETATM   22  C   UNL     1     -11.807  14.851  67.167  1.00  0.00    -0.211 C  
HETATM   23  H   UNL     1     -12.832  14.345  65.549  1.00  0.00     0.000 HD 
HETATM   24  O   UNL     1     -12.128  14.940  65.781  1.00  0.00    -0.169 OA 
ENDBRANCH  15  22
ENDBRANCH   4  11
TORSDOF 4
ENDMDL
MODEL      160
REMARK 921   NORMALIZED FREE ENERGY PREDICTED BY IDOCK:   -3.32 KCAL/MOL
REMARK 922        TOTAL FREE ENERGY PREDICTED BY IDOCK:   -4.61 KCAL/MOL
REMARK 923 INTER-LIGAND FREE ENERGY PREDICTED BY IDOCK:   -4.07 KCAL/MOL
REMARK 924 INTRA-LIGAND FREE ENERGY PREDICTED BY IDOCK:   -0.54 KCAL/MOL
REMARK 927      BINDING AFFINITY PREDICTED BY RF-SCORE:    0.00 PKD
ROOT
HETATM    1  C   UNL     1     -11.516   5.719  72.350  1.00  0.00    -0.343 C  
HETATM    2  C   UNL     1     -11.347   6.877  71.423  1.00  0.00    -0.308 C  
HETATM    3  C   UNL     1     -10.999   6.773  70.134  1.00  0.00    -0.292 C  
HETATM    4  N   UNL     1     -10.835   7.874  69.310  1.00  0.00    -0.130 N  
HETATM    5  C   UNL     1     -11.110   9.157  69.768  1.00  0.00    -0.125 C  
HETATM    6  O   UNL     1     -11.870   8.414  73.149  1.00  0.00    -0.130 OA 
HETATM    7  O   UNL     1     -11.033  10.170  69.073  1.00  0.00    -0.218 OA 
HETATM    8  H   UNL     1     -11.687  10.194  71.430  1.00  0.00     0.000 HD 
HETATM    9  N   UNL     1     -11.476   9.258  71.081  1.00  0.00    -0.304 N  
HETATM   10  C   UNL     1     -11.586   8.231  71.971  1.00  0.00    -0.340 C  
ENDROOT
BRANCH   4  11
HETATM   11  C   UNL     1     -10.463   7.733  67.902  1.00  0.00    -0.201 C  
HETATM   12  C   UNL     1      -8.968   7.545  67.672  1.00  0.00    -0.127 C  
HETATM   13  O   UNL     1     -11.097   6.579  67.313  1.00  0.00    -0.378 OA 
HETATM   14  C   UNL     1      -8.922   6.845  66.333  1.00  0.00    -0.153 C  
HETATM   15  C   UNL     1     -10.196   5.994  66.346  1.00  0.00    -0.076 C  
BRANCH  14  16
HETATM   16  N   UNL     1      -9.031   7.849  65.255  1.00  0.00    -0.386 NA 
HETATM   17  H   UNL     1      -9.830   7.878  64.622  1.00  0.00     0.000 HD 
BRANCH  16  18
HETATM   18  N   UNL     1      -8.088   8.657  65.165  1.00  0.00    -0.134 NA 
HETATM   19  N   UNL     1      -7.229   9.401  65.082  1.00  0.00    -0.098 NA 
HETATM   20  H1  UNL     1      -6.457  10.063  65.009  1.00  0.00     0.000 HD 
HETATM   21  H2  UNL     1      -7.887  10.118  64.774  1.00  0.00     0.000 HD 
ENDBRANCH  16  18
ENDBRANCH  14  16
BRANCH  15  22
HETATM   22  C   UNL     1      -9.943   4.538  66.748  1.00  0.00    -0.215 C  
HETATM   23  H   UNL     1      -8.490   3.201  66.590  1.00  0.00     0.000 HD 
HETATM   24  O   UNL     1      -8.647   4.104  66.342  1.00  0.00    -0.111 OA 
ENDBRANCH  15  22
ENDBRANCH   4  11
TORSDOF 4
ENDMDL
MODEL      161
REMARK 921   NORMALIZED FREE ENERGY PREDICTED BY IDOCK:   -3.31 KCAL/MOL
REMARK 922        TOTAL FREE ENERGY PREDICTED BY IDOCK:   -4.60 KCAL/MOL
REMARK 923 INTER-LIGAND FREE ENERGY PREDICTED BY IDOCK:   -4.18 KCAL/MOL
REMARK 924 INTRA-LIGAND FREE ENERGY PREDICTED BY IDOCK:   -0.42 KCAL/MOL
REMARK 927      BINDING AFFINITY PREDICTED BY RF-SCORE:    0.00 PKD
ROOT
HETATM    1  C   UNL     1      -8.176   8.664  63.689  1.00  0.00    -0.148 C  
HETATM    2  C   UNL     1      -8.022   9.109  65.106  1.00  0.00    -0.117 C  
HETATM    3  C   UNL     1      -8.888   9.901  65.750  1.00  0.00    -0.147 C  
HETATM    4  N   UNL     1      -8.702  10.307  67.061  1.00  0.00    -0.129 N  
HETATM    5  C   UNL     1      -7.629   9.837  67.810  1.00  0.00    -0.090 C  
HETATM    6  O   UNL     1      -5.970   7.944  65.315  1.00  0.00    -0.038 OA 
HETATM    7  O   UNL     1      -7.435  10.119  68.992  1.00  0.00    -0.078 OA 
HETATM    8  H   UNL     1      -5.963   8.662  67.690  1.00  0.00     0.000 HD 
HETATM    9  N   UNL     1      -6.752   9.020  67.151  1.00  0.00    -0.065 N  
HETATM   10  C   UNL     1      -6.830   8.638  65.844  1.00  0.00    -0.068 C  
ENDROOT
BRANCH   4  11
HETATM   11  C   UNL     1      -9.670  11.165  67.746  1.00  0.00    -0.171 C  
HETATM   12  C   UNL     1      -9.317  12.648  67.710  1.00  0.00    -0.198 C  
HETATM   13  O   UNL     1     -10.974  11.058  67.142  1.00  0.00    -0.268 OA 
HETATM   14  C   UNL     1     -10.661  13.313  67.900  1.00  0.00    -0.238 C  
HETATM   15  C   UNL     1     -11.625  12.347  67.206  1.00  0.00    -0.365 C  
BRANCH  14  16
HETATM   16  N   UNL     1     -10.984  13.356  69.341  1.00  0.00    -0.440 NA 
HETATM   17  H   UNL     1     -10.539  12.731  70.014  1.00  0.00     0.000 HD 
BRANCH  16  18
HETATM   18  N   UNL     1     -11.832  14.199  69.685  1.00  0.00    -0.303 NA 
HETATM   19  N   UNL     1     -12.606  14.976  69.997  1.00  0.00    -0.558 NA 
HETATM   20  H1  UNL     1     -13.301  15.667  70.278  1.00  0.00     0.000 HD 
HETATM   21  H2  UNL     1     -12.093  15.688  69.477  1.00  0.00     0.000 HD 
ENDBRANCH  16  18
ENDBRANCH  14  16
BRANCH  15  22
HETATM   22  C   UNL     1     -11.982  12.775  65.779  1.00  0.00    -0.449 C  
HETATM   23  H   UNL     1     -11.558  14.261  64.540  1.00  0.00     0.000 HD 
HETATM   24  O   UNL     1     -11.337  13.995  65.425  1.00  0.00    -0.304 OA 
ENDBRANCH  15  22
ENDBRANCH   4  11
TORSDOF 4
ENDMDL
MODEL      162
REMARK 921   NORMALIZED FREE ENERGY PREDICTED BY IDOCK:   -3.25 KCAL/MOL
REMARK 922        TOTAL FREE ENERGY PREDICTED BY IDOCK:   -4.52 KCAL/MOL
REMARK 923 INTER-LIGAND FREE ENERGY PREDICTED BY IDOCK:   -4.67 KCAL/MOL
REMARK 924 INTRA-LIGAND FREE ENERGY PREDICTED BY IDOCK:    0.14 KCAL/MOL
REMARK 927      BINDING AFFINITY PREDICTED BY RF-SCORE:    0.00 PKD
ROOT
HETATM    1  C   UNL     1     -11.433  15.205  67.462  1.00  0.00    -0.306 C  
HETATM    2  C   UNL     1     -10.891  14.136  66.572  1.00  0.00    -0.298 C  
HETATM    3  C   UNL     1     -10.427  12.955  67.000  1.00  0.00    -0.238 C  
HETATM    4  N   UNL     1      -9.916  11.995  66.145  1.00  0.00    -0.225 N  
HETATM    5  C   UNL     1      -9.934  12.181  64.767  1.00  0.00    -0.200 C  
HETATM    6  O   UNL     1     -11.238  15.475  64.648  1.00  0.00    -0.423 OA 
HETATM    7  O   UNL     1      -9.542  11.347  63.951  1.00  0.00    -0.237 OA 
HETATM    8  H   UNL     1     -10.444  13.532  63.324  1.00  0.00     0.000 HD 
HETATM    9  N   UNL     1     -10.418  13.384  64.333  1.00  0.00    -0.432 N  
HETATM   10  C   UNL     1     -10.869  14.404  65.117  1.00  0.00    -0.386 C  
ENDROOT
BRANCH   4  11
HETATM   11  C   UNL     1      -9.424  10.707  66.637  1.00  0.00    -0.167 C  
HETATM   12  C   UNL     1     -10.132   9.501  66.029  1.00  0.00    -0.319 C  
HETATM   13  O   UNL     1      -8.026  10.536  66.330  1.00  0.00    -0.131 OA 
HETATM   14  C   UNL     1      -9.111   8.399  66.193  1.00  0.00    -0.189 C  
HETATM   15  C   UNL     1      -7.779   9.140  66.046  1.00  0.00    -0.095 C  
BRANCH  14  16
HETATM   16  N   UNL     1      -9.202   7.849  67.561  1.00  0.00    -0.135 NA 
HETATM   17  H   UNL     1      -8.450   7.962  68.240  1.00  0.00     0.000 HD 
BRANCH  16  18
HETATM   18  N   UNL     1     -10.253   7.239  67.834  1.00  0.00    -0.180 NA 
HETATM   19  N   UNL     1     -11.212   6.676  68.081  1.00  0.00    -0.554 NA 
HETATM   20  H1  UNL     1     -12.073   6.177  68.305  1.00  0.00     0.000 HD 
HETATM   21  H2  UNL     1     -10.860   5.864  67.574  1.00  0.00     0.000 HD 
ENDBRANCH  16  18
ENDBRANCH  14  16
BRANCH  15  22
HETATM   22  C   UNL     1      -7.183   9.036  64.639  1.00  0.00    -0.097 C  
HETATM   23  H   UNL     1      -6.446   7.629  63.455  1.00  0.00     0.000 HD 
HETATM   24  O   UNL     1      -6.816   7.694  64.328  1.00  0.00    -0.054 OA 
ENDBRANCH  15  22
ENDBRANCH   4  11
TORSDOF 4
ENDMDL
MODEL      163
REMARK 921   NORMALIZED FREE ENERGY PREDICTED BY IDOCK:   -3.25 KCAL/MOL
REMARK 922        TOTAL FREE ENERGY PREDICTED BY IDOCK:   -4.52 KCAL/MOL
REMARK 923 INTER-LIGAND FREE ENERGY PREDICTED BY IDOCK:   -4.68 KCAL/MOL
REMARK 924 INTRA-LIGAND FREE ENERGY PREDICTED BY IDOCK:    0.16 KCAL/MOL
REMARK 927      BINDING AFFINITY PREDICTED BY RF-SCORE:    0.00 PKD
ROOT
HETATM    1  C   UNL     1     -11.336  14.397  69.395  1.00  0.00    -0.319 C  
HETATM    2  C   UNL     1     -10.035  14.720  68.739  1.00  0.00    -0.234 C  
HETATM    3  C   UNL     1      -9.638  15.955  68.408  1.00  0.00    -0.208 C  
HETATM    4  N   UNL     1      -8.429  16.213  67.784  1.00  0.00    -0.158 N  
HETATM    5  C   UNL     1      -7.517  15.192  67.542  1.00  0.00    -0.198 C  
HETATM    6  O   UNL     1      -9.428  12.431  68.674  1.00  0.00    -0.136 OA 
HETATM    7  O   UNL     1      -6.407  15.361  67.038  1.00  0.00    -0.267 OA 
HETATM    8  H   UNL     1      -7.260  13.175  67.725  1.00  0.00     0.000 HD 
HETATM    9  N   UNL     1      -7.921  13.933  67.891  1.00  0.00    -0.144 N  
HETATM   10  C   UNL     1      -9.123  13.594  68.439  1.00  0.00    -0.165 C  
ENDROOT
BRANCH   4  11
HETATM   11  C   UNL     1      -8.013  17.574  67.441  1.00  0.00    -0.204 C  
HETATM   12  C   UNL     1      -8.556  18.069  66.105  1.00  0.00    -0.127 C  
HETATM   13  O   UNL     1      -8.478  18.519  68.426  1.00  0.00    -0.312 OA 
HETATM   14  C   UNL     1      -8.524  19.571  66.269  1.00  0.00    -0.352 C  
HETATM   15  C   UNL     1      -8.808  19.760  67.762  1.00  0.00    -0.325 C  
BRANCH  14  16
HETATM   16  N   UNL     1      -7.162  20.064  65.977  1.00  0.00    -0.289 NA 
HETATM   17  H   UNL     1      -6.837  20.221  65.023  1.00  0.00     0.000 HD 
BRANCH  16  18
HETATM   18  N   UNL     1      -6.435  20.276  66.965  1.00  0.00    -0.200 NA 
HETATM   19  N   UNL     1      -5.774  20.474  67.872  1.00  0.00    -0.221 NA 
HETATM   20  H1  UNL     1      -5.179  20.648  68.682  1.00  0.00     0.000 HD 
HETATM   21  H2  UNL     1      -6.460  21.144  68.219  1.00  0.00     0.000 HD 
ENDBRANCH  16  18
ENDBRANCH  14  16
BRANCH  15  22
HETATM   22  C   UNL     1     -10.275  20.087  68.059  1.00  0.00    -0.398 C  
HETATM   23  H   UNL     1     -12.065  19.411  67.546  1.00  0.00     0.000 HD 
HETATM   24  O   UNL     1     -11.155  19.208  67.363  1.00  0.00    -0.426 OA 
ENDBRANCH  15  22
ENDBRANCH   4  11
TORSDOF 4
ENDMDL
MODEL      164
REMARK 921   NORMALIZED FREE ENERGY PREDICTED BY IDOCK:   -3.24 KCAL/MOL
REMARK 922        TOTAL FREE ENERGY PREDICTED BY IDOCK:   -4.51 KCAL/MOL
REMARK 923 INTER-LIGAND FREE ENERGY PREDICTED BY IDOCK:   -4.06 KCAL/MOL
REMARK 924 INTRA-LIGAND FREE ENERGY PREDICTED BY IDOCK:   -0.45 KCAL/MOL
REMARK 927      BINDING AFFINITY PREDICTED BY RF-SCORE:    0.00 PKD
ROOT
HETATM    1  C   UNL     1      -9.955   4.728  68.699  1.00  0.00    -0.170 C  
HETATM    2  C   UNL     1      -9.795   5.843  69.679  1.00  0.00    -0.215 C  
HETATM    3  C   UNL     1      -9.532   7.113  69.347  1.00  0.00    -0.153 C  
HETATM    4  N   UNL     1      -9.373   8.117  70.288  1.00  0.00    -0.155 N  
HETATM    5  C   UNL     1      -9.563   7.865  71.642  1.00  0.00    -0.163 C  
HETATM    6  O   UNL     1     -10.142   4.371  71.504  1.00  0.00    -0.188 OA 
HETATM    7  O   UNL     1      -9.486   8.722  72.522  1.00  0.00    -0.290 OA 
HETATM    8  H   UNL     1      -9.990   6.370  72.966  1.00  0.00     0.000 HD 
HETATM    9  N   UNL     1      -9.841   6.569  71.976  1.00  0.00    -0.160 N  
HETATM   10  C   UNL     1      -9.940   5.516  71.116  1.00  0.00    -0.195 C  
ENDROOT
BRANCH   4  11
HETATM   11  C   UNL     1      -9.096   9.500  69.899  1.00  0.00    -0.216 C  
HETATM   12  C   UNL     1      -8.207   9.630  68.666  1.00  0.00    -0.105 C  
HETATM   13  O   UNL     1     -10.314  10.200  69.577  1.00  0.00    -0.210 OA 
HETATM   14  C   UNL     1      -8.567  11.001  68.141  1.00  0.00    -0.140 C  
HETATM   15  C   UNL     1     -10.049  11.131  68.504  1.00  0.00    -0.201 C  
BRANCH  14  16
HETATM   16  N   UNL     1      -7.802  12.024  68.885  1.00  0.00    -0.327 NA 
HETATM   17  H   UNL     1      -7.936  12.178  69.884  1.00  0.00     0.000 HD 
BRANCH  16  18
HETATM   18  N   UNL     1      -6.985  12.685  68.218  1.00  0.00    -0.086 NA 
HETATM   19  N   UNL     1      -6.241  13.293  67.604  1.00  0.00    -0.191 NA 
HETATM   20  H1  UNL     1      -5.571  13.834  67.058  1.00  0.00     0.000 HD 
HETATM   21  H2  UNL     1      -7.013  13.678  67.060  1.00  0.00     0.000 HD 
ENDBRANCH  16  18
ENDBRANCH  14  16
BRANCH  15  22
HETATM   22  C   UNL     1     -10.985  10.798  67.339  1.00  0.00    -0.300 C  
HETATM   23  H   UNL     1     -12.651  11.515  66.540  1.00  0.00     0.000 HD 
HETATM   24  O   UNL     1     -12.069  11.721  67.263  1.00  0.00    -0.595 OA 
ENDBRANCH  15  22
ENDBRANCH   4  11
TORSDOF 4
ENDMDL
MODEL      165
REMARK 921   NORMALIZED FREE ENERGY PREDICTED BY IDOCK:   -3.24 KCAL/MOL
REMARK 922        TOTAL FREE ENERGY PREDICTED BY IDOCK:   -4.50 KCAL/MOL
REMARK 923 INTER-LIGAND FREE ENERGY PREDICTED BY IDOCK:   -5.32 KCAL/MOL
REMARK 924 INTRA-LIGAND FREE ENERGY PREDICTED BY IDOCK:    0.81 KCAL/MOL
REMARK 927      BINDING AFFINITY PREDICTED BY RF-SCORE:    0.00 PKD
ROOT
HETATM    1  C   UNL     1      -5.855  17.452  70.668  1.00  0.00     0.203 C  
HETATM    2  C   UNL     1      -6.690  17.594  69.439  1.00  0.00    -0.176 C  
HETATM    3  C   UNL     1      -7.109  16.571  68.684  1.00  0.00    -0.175 C  
HETATM    4  N   UNL     1      -7.869  16.745  67.539  1.00  0.00    -0.165 N  
HETATM    5  C   UNL     1      -8.309  18.007  67.157  1.00  0.00    -0.233 C  
HETATM    6  O   UNL     1      -6.704  19.955  69.646  1.00  0.00    -0.346 OA 
HETATM    7  O   UNL     1      -9.026  18.224  66.182  1.00  0.00    -0.469 OA 
HETATM    8  H   UNL     1      -8.207  19.981  67.673  1.00  0.00     0.000 HD 
HETATM    9  N   UNL     1      -7.887  19.049  67.937  1.00  0.00    -0.265 N  
HETATM   10  C   UNL     1      -7.080  18.963  69.033  1.00  0.00    -0.306 C  
ENDROOT
BRANCH   4  11
HETATM   11  C   UNL     1      -8.324  15.609  66.737  1.00  0.00    -0.278 C  
HETATM   12  C   UNL     1      -9.338  14.718  67.445  1.00  0.00    -0.199 C  
HETATM   13  O   UNL     1      -8.973  16.056  65.530  1.00  0.00    -0.270 OA 
HETATM   14  C   UNL     1     -10.063  14.060  66.294  1.00  0.00    -0.300 C  
HETATM   15  C   UNL     1     -10.049  15.145  65.213  1.00  0.00    -0.330 C  
BRANCH  14  16
HETATM   16  N   UNL     1      -9.276  12.903  65.819  1.00  0.00    -0.436 NA 
HETATM   17  H   UNL     1      -8.674  12.960  64.998  1.00  0.00     0.000 HD 
BRANCH  16  18
HETATM   18  N   UNL     1      -9.393  11.855  66.480  1.00  0.00    -0.211 NA 
HETATM   19  N   UNL     1      -9.495  10.895  67.085  1.00  0.00    -0.160 NA 
HETATM   20  H1  UNL     1      -9.591  10.036  67.627  1.00  0.00     0.000 HD 
HETATM   21  H2  UNL     1      -8.531  10.654  66.854  1.00  0.00     0.000 HD 
ENDBRANCH  16  18
ENDBRANCH  14  16
BRANCH  15  22
HETATM   22  C   UNL     1     -11.352  15.947  65.148  1.00  0.00    -0.118 C  
HETATM   23  H   UNL     1     -11.951  17.731  64.530  1.00  0.00     0.000 HD 
HETATM   24  O   UNL     1     -11.143  17.233  64.571  1.00  0.00    -1.082 OA 
ENDBRANCH  15  22
ENDBRANCH   4  11
TORSDOF 4
ENDMDL
MODEL      166
REMARK 921   NORMALIZED FREE ENERGY PREDICTED BY IDOCK:   -3.21 KCAL/MOL
REMARK 922        TOTAL FREE ENERGY PREDICTED BY IDOCK:   -4.47 KCAL/MOL
REMARK 923 INTER-LIGAND FREE ENERGY PREDICTED BY IDOCK:   -4.02 KCAL/MOL
REMARK 924 INTRA-LIGAND FREE ENERGY PREDICTED BY IDOCK:   -0.45 KCAL/MOL
REMARK 927      BINDING AFFINITY PREDICTED BY RF-SCORE:    0.00 PKD
ROOT
HETATM    1  C   UNL     1     -10.467  10.726  64.239  1.00  0.00    -0.330 C  
HETATM    2  C   UNL     1      -9.688  11.233  65.407  1.00  0.00    -0.271 C  
HETATM    3  C   UNL     1      -9.752  12.486  65.876  1.00  0.00    -0.219 C  
HETATM    4  N   UNL     1      -9.000  12.923  66.953  1.00  0.00    -0.220 N  
HETATM    5  C   UNL     1      -8.189  12.045  67.663  1.00  0.00    -0.155 C  
HETATM    6  O   UNL     1      -8.642   9.128  65.702  1.00  0.00    -0.139 OA 
HETATM    7  O   UNL     1      -7.535  12.358  68.658  1.00  0.00    -0.111 OA 
HETATM    8  H   UNL     1      -7.549  10.106  67.702  1.00  0.00     0.000 HD 
HETATM    9  N   UNL     1      -8.135  10.764  67.187  1.00  0.00    -0.121 N  
HETATM   10  C   UNL     1      -8.787  10.280  66.092  1.00  0.00    -0.151 C  
ENDROOT
BRANCH   4  11
HETATM   11  C   UNL     1      -9.095  14.295  67.453  1.00  0.00    -0.196 C  
HETATM   12  C   UNL     1      -8.325  15.313  66.619  1.00  0.00    -0.216 C  
HETATM   13  O   UNL     1     -10.463  14.749  67.457  1.00  0.00    -0.242 OA 
HETATM   14  C   UNL     1      -9.038  16.608  66.931  1.00  0.00    -0.228 C  
HETATM   15  C   UNL     1     -10.488  16.159  67.140  1.00  0.00    -0.305 C  
BRANCH  14  16
HETATM   16  N   UNL     1      -8.521  17.155  68.203  1.00  0.00    -0.220 NA 
HETATM   17  H   UNL     1      -7.985  16.586  68.857  1.00  0.00     0.000 HD 
BRANCH  16  18
HETATM   18  N   UNL     1      -8.779  18.352  68.425  1.00  0.00    -0.312 NA 
HETATM   19  N   UNL     1      -9.017  19.449  68.624  1.00  0.00    -0.373 NA 
HETATM   20  H1  UNL     1      -9.228  20.430  68.806  1.00  0.00     0.000 HD 
HETATM   21  H2  UNL     1      -9.349  19.545  67.664  1.00  0.00     0.000 HD 
ENDBRANCH  16  18
ENDBRANCH  14  16
BRANCH  15  22
HETATM   22  C   UNL     1     -11.364  16.357  65.899  1.00  0.00     0.464 C  
HETATM   23  H   UNL     1     -11.141  16.941  64.020  1.00  0.00     0.000 HD 
HETATM   24  O   UNL     1     -10.597  16.818  64.790  1.00  0.00    -0.674 OA 
ENDBRANCH  15  22
ENDBRANCH   4  11
TORSDOF 4
ENDMDL
MODEL      167
REMARK 921   NORMALIZED FREE ENERGY PREDICTED BY IDOCK:   -3.21 KCAL/MOL
REMARK 922        TOTAL FREE ENERGY PREDICTED BY IDOCK:   -4.47 KCAL/MOL
REMARK 923 INTER-LIGAND FREE ENERGY PREDICTED BY IDOCK:   -3.98 KCAL/MOL
REMARK 924 INTRA-LIGAND FREE ENERGY PREDICTED BY IDOCK:   -0.48 KCAL/MOL
REMARK 927      BINDING AFFINITY PREDICTED BY RF-SCORE:    0.00 PKD
ROOT
HETATM    1  C   UNL     1     -12.337  10.041  71.405  1.00  0.00    -0.512 C  
HETATM    2  C   UNL     1     -11.164   9.351  70.792  1.00  0.00    -0.367 C  
HETATM    3  C   UNL     1     -10.619   9.681  69.615  1.00  0.00    -0.233 C  
HETATM    4  N   UNL     1      -9.541   9.005  69.070  1.00  0.00    -0.158 N  
HETATM    5  C   UNL     1      -8.909   7.984  69.771  1.00  0.00    -0.144 C  
HETATM    6  O   UNL     1     -11.027   7.836  72.609  1.00  0.00    -0.303 OA 
HETATM    7  O   UNL     1      -7.917   7.378  69.367  1.00  0.00    -0.119 OA 
HETATM    8  H   UNL     1      -9.005   6.913  71.507  1.00  0.00     0.000 HD 
HETATM    9  N   UNL     1      -9.462   7.656  70.978  1.00  0.00    -0.159 N  
HETATM   10  C   UNL     1     -10.564   8.226  71.544  1.00  0.00    -0.235 C  
ENDROOT
BRANCH   4  11
HETATM   11  C   UNL     1      -8.957   9.392  67.786  1.00  0.00    -0.122 C  
HETATM   12  C   UNL     1      -9.565   8.672  66.587  1.00  0.00    -0.285 C  
HETATM   13  O   UNL     1      -9.148  10.799  67.535  1.00  0.00    -0.139 OA 
HETATM   14  C   UNL     1      -9.276   9.622  65.447  1.00  0.00    -0.238 C  
HETATM   15  C   UNL     1      -9.351  10.997  66.118  1.00  0.00    -0.191 C  
BRANCH  14  16
HETATM   16  N   UNL     1      -7.896   9.400  64.967  1.00  0.00    -0.111 NA 
HETATM   17  H   UNL     1      -7.084   9.751  65.475  1.00  0.00     0.000 HD 
BRANCH  16  18
HETATM   18  N   UNL     1      -7.785   8.760  63.905  1.00  0.00    -0.125 NA 
HETATM   19  N   UNL     1      -7.689   8.172  62.933  1.00  0.00    -0.127 NA 
HETATM   20  H1  UNL     1      -7.598   7.648  62.063  1.00  0.00     0.000 HD 
HETATM   21  H2  UNL     1      -8.633   7.809  63.065  1.00  0.00     0.000 HD 
ENDBRANCH  16  18
ENDBRANCH  14  16
BRANCH  15  22
HETATM   22  C   UNL     1     -10.702  11.690  65.919  1.00  0.00    -0.278 C  
HETATM   23  H   UNL     1     -12.168  11.701  64.587  1.00  0.00     0.000 HD 
HETATM   24  O   UNL     1     -11.330  11.271  64.710  1.00  0.00    -0.138 OA 
ENDBRANCH  15  22
ENDBRANCH   4  11
TORSDOF 4
ENDMDL
MODEL      168
REMARK 921   NORMALIZED FREE ENERGY PREDICTED BY IDOCK:   -3.19 KCAL/MOL
REMARK 922        TOTAL FREE ENERGY PREDICTED BY IDOCK:   -4.45 KCAL/MOL
REMARK 923 INTER-LIGAND FREE ENERGY PREDICTED BY IDOCK:   -4.55 KCAL/MOL
REMARK 924 INTRA-LIGAND FREE ENERGY PREDICTED BY IDOCK:    0.10 KCAL/MOL
REMARK 927      BINDING AFFINITY PREDICTED BY RF-SCORE:    0.00 PKD
ROOT
HETATM    1  C   UNL     1     -11.230  16.378  68.530  1.00  0.00    -0.334 C  
HETATM    2  C   UNL     1     -10.811  15.078  67.928  1.00  0.00    -0.280 C  
HETATM    3  C   UNL     1     -10.776  13.913  68.586  1.00  0.00    -0.260 C  
HETATM    4  N   UNL     1     -10.365  12.729  67.997  1.00  0.00    -0.223 N  
HETATM    5  C   UNL     1     -10.041  12.678  66.646  1.00  0.00    -0.241 C  
HETATM    6  O   UNL     1     -10.377  16.113  65.840  1.00  0.00    -0.330 OA 
HETATM    7  O   UNL     1      -9.717  11.650  66.051  1.00  0.00    -0.219 OA 
HETATM    8  H   UNL     1      -9.859  13.845  64.980  1.00  0.00     0.000 HD 
HETATM    9  N   UNL     1     -10.088  13.868  65.974  1.00  0.00    -0.304 N  
HETATM   10  C   UNL     1     -10.411  15.083  66.502  1.00  0.00    -0.284 C  
ENDROOT
BRANCH   4  11
HETATM   11  C   UNL     1     -10.345  11.466  68.736  1.00  0.00    -0.204 C  
HETATM   12  C   UNL     1     -11.100  10.334  68.047  1.00  0.00    -0.336 C  
HETATM   13  O   UNL     1      -8.996  10.989  68.907  1.00  0.00    -0.168 OA 
HETATM   14  C   UNL     1     -10.450   9.100  68.628  1.00  0.00    -0.207 C  
HETATM   15  C   UNL     1      -9.000   9.545  68.847  1.00  0.00    -0.141 C  
BRANCH  14  16
HETATM   16  N   UNL     1     -11.059   8.800  69.941  1.00  0.00    -0.401 NA 
HETATM   17  H   UNL     1     -11.718   9.437  70.389  1.00  0.00     0.000 HD 
BRANCH  16  18
HETATM   18  N   UNL     1     -10.720   7.723  70.465  1.00  0.00    -0.232 NA 
HETATM   19  N   UNL     1     -10.407   6.740  70.949  1.00  0.00    -0.199 NA 
HETATM   20  H1  UNL     1     -10.129   5.857  71.378  1.00  0.00     0.000 HD 
HETATM   21  H2  UNL     1      -9.795   7.253  71.584  1.00  0.00     0.000 HD 
ENDBRANCH  16  18
ENDBRANCH  14  16
BRANCH  15  22
HETATM   22  C   UNL     1      -8.060   9.109  67.719  1.00  0.00    -0.105 C  
HETATM   23  H   UNL     1      -6.337   9.692  66.934  1.00  0.00     0.000 HD 
HETATM   24  O   UNL     1      -6.921   9.961  67.634  1.00  0.00    -0.084 OA 
ENDBRANCH  15  22
ENDBRANCH   4  11
TORSDOF 4
ENDMDL
MODEL      169
REMARK 921   NORMALIZED FREE ENERGY PREDICTED BY IDOCK:   -3.18 KCAL/MOL
REMARK 922        TOTAL FREE ENERGY PREDICTED BY IDOCK:   -4.43 KCAL/MOL
REMARK 923 INTER-LIGAND FREE ENERGY PREDICTED BY IDOCK:   -3.91 KCAL/MOL
REMARK 924 INTRA-LIGAND FREE ENERGY PREDICTED BY IDOCK:   -0.52 KCAL/MOL
REMARK 927      BINDING AFFINITY PREDICTED BY RF-SCORE:    0.00 PKD
ROOT
HETATM    1  C   UNL     1      -6.116  11.301  69.742  1.00  0.00    -0.112 C  
HETATM    2  C   UNL     1      -7.435  11.307  69.041  1.00  0.00    -0.116 C  
HETATM    3  C   UNL     1      -8.244  10.246  68.938  1.00  0.00    -0.130 C  
HETATM    4  N   UNL     1      -9.453  10.287  68.264  1.00  0.00    -0.140 N  
HETATM    5  C   UNL     1      -9.931  11.475  67.723  1.00  0.00    -0.183 C  
HETATM    6  O   UNL     1      -7.174  13.584  68.439  1.00  0.00    -0.092 OA 
HETATM    7  O   UNL     1     -11.017  11.590  67.157  1.00  0.00    -0.255 OA 
HETATM    8  H   UNL     1      -9.446  13.441  67.454  1.00  0.00     0.000 HD 
HETATM    9  N   UNL     1      -9.106  12.560  67.840  1.00  0.00    -0.191 N  
HETATM   10  C   UNL     1      -7.873  12.579  68.423  1.00  0.00    -0.141 C  
ENDROOT
BRANCH   4  11
HETATM   11  C   UNL     1     -10.324   9.115  68.173  1.00  0.00    -0.216 C  
HETATM   12  C   UNL     1      -9.574   7.793  68.055  1.00  0.00    -0.166 C  
HETATM   13  O   UNL     1     -11.148   8.992  69.350  1.00  0.00    -0.132 OA 
HETATM   14  C   UNL     1     -10.578   6.792  68.578  1.00  0.00    -0.225 C  
HETATM   15  C   UNL     1     -11.334   7.589  69.645  1.00  0.00     0.089 C  
BRANCH  14  16
HETATM   16  N   UNL     1     -11.519   6.434  67.496  1.00  0.00    -0.675 NA 
HETATM   17  H   UNL     1     -12.463   6.818  67.452  1.00  0.00     0.000 HD 
BRANCH  16  18
HETATM   18  N   UNL     1     -11.089   5.637  66.642  1.00  0.00    -0.098 NA 
HETATM   19  N   UNL     1     -10.690   4.908  65.862  1.00  0.00    -0.613 NA 
HETATM   20  H1  UNL     1     -10.338   4.255  65.162  1.00  0.00     0.000 HD 
HETATM   21  H2  UNL     1      -9.738   5.114  66.164  1.00  0.00     0.000 HD 
ENDBRANCH  16  18
ENDBRANCH  14  16
BRANCH  15  22
HETATM   22  C   UNL     1     -10.823   7.327  71.066  1.00  0.00    -0.239 C  
HETATM   23  H   UNL     1     -10.948   8.174  72.852  1.00  0.00     0.000 HD 
HETATM   24  O   UNL     1     -11.265   8.336  71.971  1.00  0.00    -0.278 OA 
ENDBRANCH  15  22
ENDBRANCH   4  11
TORSDOF 4
ENDMDL
MODEL      170
REMARK 921   NORMALIZED FREE ENERGY PREDICTED BY IDOCK:   -3.16 KCAL/MOL
REMARK 922        TOTAL FREE ENERGY PREDICTED BY IDOCK:   -4.41 KCAL/MOL
REMARK 923 INTER-LIGAND FREE ENERGY PREDICTED BY IDOCK:   -3.87 KCAL/MOL
REMARK 924 INTRA-LIGAND FREE ENERGY PREDICTED BY IDOCK:   -0.54 KCAL/MOL
REMARK 927      BINDING AFFINITY PREDICTED BY RF-SCORE:    0.00 PKD
ROOT
HETATM    1  C   UNL     1      -7.277  13.324  68.403  1.00  0.00    -0.110 C  
HETATM    2  C   UNL     1      -8.247  12.767  67.415  1.00  0.00    -0.186 C  
HETATM    3  C   UNL     1      -8.330  11.474  67.079  1.00  0.00    -0.165 C  
HETATM    4  N   UNL     1      -9.234  10.998  66.144  1.00  0.00    -0.183 N  
HETATM    5  C   UNL     1     -10.170  11.843  65.559  1.00  0.00    -0.254 C  
HETATM    6  O   UNL     1      -9.144  14.919  66.990  1.00  0.00    -0.211 OA 
HETATM    7  O   UNL     1     -11.031  11.474  64.761  1.00  0.00    -0.310 OA 
HETATM    8  H   UNL     1     -10.774  13.793  65.497  1.00  0.00     0.000 HD 
HETATM    9  N   UNL     1     -10.089  13.162  65.913  1.00  0.00    -0.288 N  
HETATM   10  C   UNL     1      -9.182  13.715  66.767  1.00  0.00    -0.241 C  
ENDROOT
BRANCH   4  11
HETATM   11  C   UNL     1      -9.312   9.577  65.802  1.00  0.00    -0.233 C  
HETATM   12  C   UNL     1      -8.003   8.820  66.002  1.00  0.00    -0.107 C  
HETATM   13  O   UNL     1     -10.284   8.901  66.623  1.00  0.00    -0.275 OA 
HETATM   14  C   UNL     1      -8.469   7.394  66.182  1.00  0.00    -0.145 C  
HETATM   15  C   UNL     1      -9.817   7.559  66.889  1.00  0.00    -0.226 C  
BRANCH  14  16
HETATM   16  N   UNL     1      -8.699   6.784  64.855  1.00  0.00    -0.347 NA 
HETATM   17  H   UNL     1      -8.979   7.340  64.047  1.00  0.00     0.000 HD 
BRANCH  16  18
HETATM   18  N   UNL     1      -8.529   5.553  64.784  1.00  0.00    -0.143 NA 
HETATM   19  N   UNL     1      -8.377   4.426  64.724  1.00  0.00    -0.105 NA 
HETATM   20  H1  UNL     1      -8.237   3.417  64.666  1.00  0.00     0.000 HD 
HETATM   21  H2  UNL     1      -8.897   4.314  65.594  1.00  0.00     0.000 HD 
ENDBRANCH  16  18
ENDBRANCH  14  16
BRANCH  15  22
HETATM   22  C   UNL     1      -9.727   7.375  68.407  1.00  0.00    -0.153 C  
HETATM   23  H   UNL     1      -9.992   8.468  70.039  1.00  0.00     0.000 HD 
HETATM   24  O   UNL     1     -10.048   8.581  69.097  1.00  0.00    -0.192 OA 
ENDBRANCH  15  22
ENDBRANCH   4  11
TORSDOF 4
ENDMDL
MODEL      171
REMARK 921   NORMALIZED FREE ENERGY PREDICTED BY IDOCK:   -3.14 KCAL/MOL
REMARK 922        TOTAL FREE ENERGY PREDICTED BY IDOCK:   -4.39 KCAL/MOL
REMARK 923 INTER-LIGAND FREE ENERGY PREDICTED BY IDOCK:   -4.63 KCAL/MOL
REMARK 924 INTRA-LIGAND FREE ENERGY PREDICTED BY IDOCK:    0.24 KCAL/MOL
REMARK 927      BINDING AFFINITY PREDICTED BY RF-SCORE:    0.00 PKD
ROOT
HETATM    1  C   UNL     1     -11.116  12.379  68.528  1.00  0.00    -0.296 C  
HETATM    2  C   UNL     1     -11.366  11.322  69.552  1.00  0.00    -0.362 C  
HETATM    3  C   UNL     1     -10.857  10.085  69.505  1.00  0.00    -0.253 C  
HETATM    4  N   UNL     1     -11.126   9.126  70.466  1.00  0.00    -0.251 N  
HETATM    5  C   UNL     1     -11.884   9.432  71.590  1.00  0.00    -0.394 C  
HETATM    6  O   UNL     1     -12.769  12.771  70.796  1.00  0.00    -0.244 OA 
HETATM    7  O   UNL     1     -12.118   8.642  72.504  1.00  0.00    -0.374 OA 
HETATM    8  H   UNL     1     -12.946  10.943  72.463  1.00  0.00     0.000 HD 
HETATM    9  N   UNL     1     -12.393  10.701  71.640  1.00  0.00    -0.305 N  
HETATM   10  C   UNL     1     -12.233  11.674  70.699  1.00  0.00    -0.366 C  
ENDROOT
BRANCH   4  11
HETATM   11  C   UNL     1     -10.549   7.782  70.397  1.00  0.00    -0.227 C  
HETATM   12  C   UNL     1      -9.426   7.539  71.398  1.00  0.00    -0.159 C  
HETATM   13  O   UNL     1     -11.545   6.778  70.676  1.00  0.00    -0.326 OA 
HETATM   14  C   UNL     1      -9.439   6.036  71.553  1.00  0.00    -0.149 C  
HETATM   15  C   UNL     1     -10.920   5.685  71.386  1.00  0.00    -0.190 C  
BRANCH  14  16
HETATM   16  N   UNL     1      -8.676   5.424  70.445  1.00  0.00    -0.127 NA 
HETATM   17  H   UNL     1      -9.134   4.908  69.694  1.00  0.00     0.000 HD 
BRANCH  16  18
HETATM   18  N   UNL     1      -7.441   5.578  70.483  1.00  0.00    -0.078 NA 
HETATM   19  N   UNL     1      -6.311   5.716  70.523  1.00  0.00    -0.030 NA 
HETATM   20  H1  UNL     1      -5.299   5.842  70.555  1.00  0.00     0.000 HD 
HETATM   21  H2  UNL     1      -6.300   5.315  71.462  1.00  0.00     0.000 HD 
ENDBRANCH  16  18
ENDBRANCH  14  16
BRANCH  15  22
HETATM   22  C   UNL     1     -11.650   5.501  72.720  1.00  0.00    -0.235 C  
HETATM   23  H   UNL     1     -11.222   4.904  74.560  1.00  0.00     0.000 HD 
HETATM   24  O   UNL     1     -10.769   5.019  73.732  1.00  0.00    -0.259 OA 
ENDBRANCH  15  22
ENDBRANCH   4  11
TORSDOF 4
ENDMDL
MODEL      172
REMARK 921   NORMALIZED FREE ENERGY PREDICTED BY IDOCK:   -3.12 KCAL/MOL
REMARK 922        TOTAL FREE ENERGY PREDICTED BY IDOCK:   -4.35 KCAL/MOL
REMARK 923 INTER-LIGAND FREE ENERGY PREDICTED BY IDOCK:   -4.81 KCAL/MOL
REMARK 924 INTRA-LIGAND FREE ENERGY PREDICTED BY IDOCK:    0.46 KCAL/MOL
REMARK 927      BINDING AFFINITY PREDICTED BY RF-SCORE:    0.00 PKD
ROOT
HETATM    1  C   UNL     1     -11.547  13.793  68.696  1.00  0.00    -0.369 C  
HETATM    2  C   UNL     1     -10.187  14.211  68.242  1.00  0.00    -0.243 C  
HETATM    3  C   UNL     1      -9.798  15.482  68.085  1.00  0.00    -0.216 C  
HETATM    4  N   UNL     1      -8.532  15.829  67.644  1.00  0.00    -0.156 N  
HETATM    5  C   UNL     1      -7.562  14.860  67.418  1.00  0.00    -0.204 C  
HETATM    6  O   UNL     1      -9.497  11.954  68.029  1.00  0.00    -0.184 OA 
HETATM    7  O   UNL     1      -6.406  15.105  67.074  1.00  0.00    -0.214 OA 
HETATM    8  H   UNL     1      -7.258  12.841  67.433  1.00  0.00     0.000 HD 
HETATM    9  N   UNL     1      -7.961  13.563  67.589  1.00  0.00    -0.161 N  
HETATM   10  C   UNL     1      -9.207  13.142  67.949  1.00  0.00    -0.207 C  
ENDROOT
BRANCH   4  11
HETATM   11  C   UNL     1      -8.126  17.227  67.490  1.00  0.00    -0.186 C  
HETATM   12  C   UNL     1      -8.991  18.212  68.271  1.00  0.00    -0.306 C  
HETATM   13  O   UNL     1      -6.780  17.429  67.963  1.00  0.00    -0.171 OA 
HETATM   14  C   UNL     1      -8.068  19.395  68.449  1.00  0.00    -0.343 C  
HETATM   15  C   UNL     1      -6.688  18.741  68.563  1.00  0.00    -0.259 C  
BRANCH  14  16
HETATM   16  N   UNL     1      -8.101  20.228  67.228  1.00  0.00    -0.329 NA 
HETATM   17  H   UNL     1      -7.294  20.771  66.922  1.00  0.00     0.000 HD 
BRANCH  16  18
HETATM   18  N   UNL     1      -9.174  20.226  66.596  1.00  0.00    -0.331 NA 
HETATM   19  N   UNL     1     -10.158  20.222  66.023  1.00  0.00    -0.585 NA 
HETATM   20  H1  UNL     1     -11.037  20.220  65.505  1.00  0.00     0.000 HD 
HETATM   21  H2  UNL     1     -10.651  19.966  66.879  1.00  0.00     0.000 HD 
ENDBRANCH  16  18
ENDBRANCH  14  16
BRANCH  15  22
HETATM   22  C   UNL     1      -6.219  18.574  70.011  1.00  0.00    -0.084 C  
HETATM   23  H   UNL     1      -5.579  19.725  71.492  1.00  0.00     0.000 HD 
HETATM   24  O   UNL     1      -5.870  19.828  70.593  1.00  0.00    -0.264 OA 
ENDBRANCH  15  22
ENDBRANCH   4  11
TORSDOF 4
ENDMDL
MODEL      173
REMARK 921   NORMALIZED FREE ENERGY PREDICTED BY IDOCK:   -3.11 KCAL/MOL
REMARK 922        TOTAL FREE ENERGY PREDICTED BY IDOCK:   -4.35 KCAL/MOL
REMARK 923 INTER-LIGAND FREE ENERGY PREDICTED BY IDOCK:   -3.77 KCAL/MOL
REMARK 924 INTRA-LIGAND FREE ENERGY PREDICTED BY IDOCK:   -0.58 KCAL/MOL
REMARK 927      BINDING AFFINITY PREDICTED BY RF-SCORE:    0.00 PKD
ROOT
HETATM    1  C   UNL     1     -11.993  12.306  70.180  1.00  0.00    -0.377 C  
HETATM    2  C   UNL     1     -11.297  11.734  68.989  1.00  0.00    -0.338 C  
HETATM    3  C   UNL     1     -10.673  10.550  68.972  1.00  0.00    -0.225 C  
HETATM    4  N   UNL     1     -10.023  10.060  67.852  1.00  0.00    -0.150 N  
HETATM    5  C   UNL     1     -10.058  10.750  66.646  1.00  0.00    -0.218 C  
HETATM    6  O   UNL     1     -11.818  13.644  67.688  1.00  0.00    -0.340 OA 
HETATM    7  O   UNL     1      -9.545  10.347  65.602  1.00  0.00    -0.196 OA 
HETATM    8  H   UNL     1     -10.746  12.470  65.785  1.00  0.00     0.000 HD 
HETATM    9  N   UNL     1     -10.706  11.955  66.664  1.00  0.00    -0.245 N  
HETATM   10  C   UNL     1     -11.304  12.534  67.744  1.00  0.00    -0.296 C  
ENDROOT
BRANCH   4  11
HETATM   11  C   UNL     1      -9.356   8.757  67.856  1.00  0.00    -0.142 C  
HETATM   12  C   UNL     1      -8.193   8.660  68.837  1.00  0.00    -0.123 C  
HETATM   13  O   UNL     1     -10.272   7.709  68.231  1.00  0.00    -0.184 OA 
HETATM   14  C   UNL     1      -8.097   7.174  69.093  1.00  0.00    -0.121 C  
HETATM   15  C   UNL     1      -9.555   6.713  68.994  1.00  0.00    -0.133 C  
BRANCH  14  16
HETATM   16  N   UNL     1      -7.323   6.540  68.005  1.00  0.00    -0.087 NA 
HETATM   17  H   UNL     1      -6.822   7.090  67.307  1.00  0.00     0.000 HD 
BRANCH  16  18
HETATM   18  N   UNL     1      -7.319   5.295  67.993  1.00  0.00    -0.071 NA 
HETATM   19  N   UNL     1      -7.319   4.156  67.977  1.00  0.00    -0.063 NA 
HETATM   20  H1  UNL     1      -7.316   3.136  67.967  1.00  0.00     0.000 HD 
HETATM   21  H2  UNL     1      -8.083   4.170  67.301  1.00  0.00     0.000 HD 
ENDBRANCH  16  18
ENDBRANCH  14  16
BRANCH  15  22
HETATM   22  C   UNL     1     -10.236   6.573  70.359  1.00  0.00    -0.193 C  
HETATM   23  H   UNL     1     -11.691   7.455  71.373  1.00  0.00     0.000 HD 
HETATM   24  O   UNL     1     -11.268   7.541  70.527  1.00  0.00    -0.267 OA 
ENDBRANCH  15  22
ENDBRANCH   4  11
TORSDOF 4
ENDMDL
MODEL      174
REMARK 921   NORMALIZED FREE ENERGY PREDICTED BY IDOCK:   -3.10 KCAL/MOL
REMARK 922        TOTAL FREE ENERGY PREDICTED BY IDOCK:   -4.34 KCAL/MOL
REMARK 923 INTER-LIGAND FREE ENERGY PREDICTED BY IDOCK:   -5.08 KCAL/MOL
REMARK 924 INTRA-LIGAND FREE ENERGY PREDICTED BY IDOCK:    0.74 KCAL/MOL
REMARK 927      BINDING AFFINITY PREDICTED BY RF-SCORE:    0.00 PKD
ROOT
HETATM    1  C   UNL     1     -10.526  11.722  64.544  1.00  0.00    -0.352 C  
HETATM    2  C   UNL     1      -9.870  12.590  65.567  1.00  0.00    -0.197 C  
HETATM    3  C   UNL     1     -10.068  13.908  65.684  1.00  0.00    -0.313 C  
HETATM    4  N   UNL     1      -9.427  14.682  66.636  1.00  0.00    -0.265 N  
HETATM    5  C   UNL     1      -8.593  14.103  67.586  1.00  0.00    -0.189 C  
HETATM    6  O   UNL     1      -8.672  10.746  66.451  1.00  0.00    -0.148 OA 
HETATM    7  O   UNL     1      -8.034  14.727  68.487  1.00  0.00    -0.123 OA 
HETATM    8  H   UNL     1      -7.796  12.314  68.163  1.00  0.00     0.000 HD 
HETATM    9  N   UNL     1      -8.401  12.754  67.469  1.00  0.00    -0.167 N  
HETATM   10  C   UNL     1      -8.938  11.940  66.516  1.00  0.00    -0.199 C  
ENDROOT
BRANCH   4  11
HETATM   11  C   UNL     1      -9.670  16.121  66.750  1.00  0.00    -0.242 C  
HETATM   12  C   UNL     1      -9.809  16.613  68.186  1.00  0.00    -0.250 C  
HETATM   13  O   UNL     1      -8.579  16.875  66.183  1.00  0.00    -0.381 OA 
HETATM   14  C   UNL     1      -9.442  18.075  68.074  1.00  0.00    -0.284 C  
HETATM   15  C   UNL     1      -8.394  18.082  66.957  1.00  0.00    -0.236 C  
BRANCH  14  16
HETATM   16  N   UNL     1     -10.623  18.841  67.624  1.00  0.00    -0.428 NA 
HETATM   17  H   UNL     1     -11.395  19.063  68.253  1.00  0.00     0.000 HD 
BRANCH  16  18
HETATM   18  N   UNL     1     -10.618  19.200  66.432  1.00  0.00    -0.439 NA 
HETATM   19  N   UNL     1     -10.618  19.531  65.342  1.00  0.00    -0.414 NA 
HETATM   20  H1  UNL     1     -10.614  19.825  64.365  1.00  0.00     0.000 HD 
HETATM   21  H2  UNL     1     -11.490  20.037  65.501  1.00  0.00     0.000 HD 
ENDBRANCH  16  18
ENDBRANCH  14  16
BRANCH  15  22
HETATM   22  C   UNL     1      -6.955  18.098  67.481  1.00  0.00    -0.198 C  
HETATM   23  H   UNL     1      -5.924  18.988  68.920  1.00  0.00     0.000 HD 
HETATM   24  O   UNL     1      -6.817  18.978  68.594  1.00  0.00    -0.258 OA 
ENDBRANCH  15  22
ENDBRANCH   4  11
TORSDOF 4
ENDMDL
MODEL      175
REMARK 921   NORMALIZED FREE ENERGY PREDICTED BY IDOCK:   -3.07 KCAL/MOL
REMARK 922        TOTAL FREE ENERGY PREDICTED BY IDOCK:   -4.29 KCAL/MOL
REMARK 923 INTER-LIGAND FREE ENERGY PREDICTED BY IDOCK:   -3.70 KCAL/MOL
REMARK 924 INTRA-LIGAND FREE ENERGY PREDICTED BY IDOCK:   -0.60 KCAL/MOL
REMARK 927      BINDING AFFINITY PREDICTED BY RF-SCORE:    0.00 PKD
ROOT
HETATM    1  C   UNL     1      -8.549  15.600  68.520  1.00  0.00    -0.180 C  
HETATM    2  C   UNL     1      -9.385  14.397  68.234  1.00  0.00    -0.206 C  
HETATM    3  C   UNL     1      -8.980  13.133  68.406  1.00  0.00    -0.128 C  
HETATM    4  N   UNL     1      -9.780  12.041  68.112  1.00  0.00    -0.194 N  
HETATM    5  C   UNL     1     -11.095  12.210  67.694  1.00  0.00    -0.268 C  
HETATM    6  O   UNL     1     -11.189  15.748  67.504  1.00  0.00    -0.308 OA 
HETATM    7  O   UNL     1     -11.872  11.284  67.465  1.00  0.00    -0.613 OA 
HETATM    8  H   UNL     1     -12.473  13.643  67.228  1.00  0.00     0.000 HD 
HETATM    9  N   UNL     1     -11.508  13.503  67.529  1.00  0.00    -0.311 N  
HETATM   10  C   UNL     1     -10.757  14.624  67.727  1.00  0.00    -0.265 C  
ENDROOT
BRANCH   4  11
HETATM   11  C   UNL     1      -9.317  10.668  68.320  1.00  0.00    -0.156 C  
HETATM   12  C   UNL     1      -8.351  10.173  67.249  1.00  0.00    -0.121 C  
HETATM   13  O   UNL     1      -8.611  10.545  69.571  1.00  0.00    -0.131 OA 
HETATM   14  C   UNL     1      -7.594   9.078  67.966  1.00  0.00    -0.092 C  
HETATM   15  C   UNL     1      -7.542   9.585  69.410  1.00  0.00    -0.091 C  
BRANCH  14  16
HETATM   16  N   UNL     1      -8.386   7.831  67.926  1.00  0.00    -0.122 NA 
HETATM   17  H   UNL     1      -9.238   7.749  67.372  1.00  0.00     0.000 HD 
BRANCH  16  18
HETATM   18  N   UNL     1      -7.950   6.887  68.611  1.00  0.00    -0.118 NA 
HETATM   19  N   UNL     1      -7.552   6.026  69.242  1.00  0.00    -0.092 NA 
HETATM   20  H1  UNL     1      -7.195   5.253  69.803  1.00  0.00     0.000 HD 
HETATM   21  H2  UNL     1      -7.732   6.569  70.087  1.00  0.00     0.000 HD 
ENDBRANCH  16  18
ENDBRANCH  14  16
BRANCH  15  22
HETATM   22  C   UNL     1      -6.221  10.277  69.759  1.00  0.00    -0.060 C  
HETATM   23  H   UNL     1      -5.624  11.952  70.631  1.00  0.00     0.000 HD 
HETATM   24  O   UNL     1      -6.443  11.522  70.415  1.00  0.00    -0.239 OA 
ENDBRANCH  15  22
ENDBRANCH   4  11
TORSDOF 4
ENDMDL
MODEL      176
REMARK 921   NORMALIZED FREE ENERGY PREDICTED BY IDOCK:   -3.00 KCAL/MOL
REMARK 922        TOTAL FREE ENERGY PREDICTED BY IDOCK:   -4.22 KCAL/MOL
REMARK 923 INTER-LIGAND FREE ENERGY PREDICTED BY IDOCK:   -3.76 KCAL/MOL
REMARK 924 INTRA-LIGAND FREE ENERGY PREDICTED BY IDOCK:   -0.45 KCAL/MOL
REMARK 927      BINDING AFFINITY PREDICTED BY RF-SCORE:    0.00 PKD
ROOT
HETATM    1  C   UNL     1      -8.556   9.214  63.588  1.00  0.00    -0.180 C  
HETATM    2  C   UNL     1      -8.052   9.679  64.914  1.00  0.00    -0.133 C  
HETATM    3  C   UNL     1      -8.736   9.585  66.061  1.00  0.00    -0.147 C  
HETATM    4  N   UNL     1      -8.241  10.044  67.269  1.00  0.00    -0.117 N  
HETATM    5  C   UNL     1      -6.953  10.560  67.366  1.00  0.00    -0.085 C  
HETATM    6  O   UNL     1      -6.027  10.441  63.947  1.00  0.00    -0.142 OA 
HETATM    7  O   UNL     1      -6.436  10.937  68.417  1.00  0.00    -0.056 OA 
HETATM    8  H   UNL     1      -5.305  11.015  66.250  1.00  0.00     0.000 HD 
HETATM    9  N   UNL     1      -6.254  10.645  66.194  1.00  0.00    -0.114 N  
HETATM   10  C   UNL     1      -6.701  10.282  64.957  1.00  0.00    -0.108 C  
ENDROOT
BRANCH   4  11
HETATM   11  C   UNL     1      -9.004   9.920  68.512  1.00  0.00    -0.122 C  
HETATM   12  C   UNL     1     -10.504  10.137  68.341  1.00  0.00    -0.237 C  
HETATM   13  O   UNL     1      -8.863   8.601  69.075  1.00  0.00    -0.136 OA 
HETATM   14  C   UNL     1     -11.084   9.392  69.521  1.00  0.00    -0.112 C  
HETATM   15  C   UNL     1     -10.109   8.225  69.704  1.00  0.00    -0.199 C  
BRANCH  14  16
HETATM   16  N   UNL     1     -11.026  10.255  70.719  1.00  0.00    -0.389 NA 
HETATM   17  H   UNL     1     -10.168  10.727  71.004  1.00  0.00     0.000 HD 
BRANCH  16  18
HETATM   18  N   UNL     1     -12.088  10.371  71.359  1.00  0.00    -0.355 NA 
HETATM   19  N   UNL     1     -13.056  10.479  71.949  1.00  0.00    -0.479 NA 
HETATM   20  H1  UNL     1     -13.926  10.574  72.474  1.00  0.00     0.000 HD 
HETATM   21  H2  UNL     1     -12.526  10.832  72.746  1.00  0.00     0.000 HD 
ENDBRANCH  16  18
ENDBRANCH  14  16
BRANCH  15  22
HETATM   22  C   UNL     1     -10.598   6.925  69.059  1.00  0.00    -0.217 C  
HETATM   23  H   UNL     1     -11.860   5.458  69.483  1.00  0.00     0.000 HD 
HETATM   24  O   UNL     1     -11.557   6.265  69.883  1.00  0.00    -0.435 OA 
ENDBRANCH  15  22
ENDBRANCH   4  11
TORSDOF 4
ENDMDL
MODEL      177
REMARK 921   NORMALIZED FREE ENERGY PREDICTED BY IDOCK:   -3.00 KCAL/MOL
REMARK 922        TOTAL FREE ENERGY PREDICTED BY IDOCK:   -4.22 KCAL/MOL
REMARK 923 INTER-LIGAND FREE ENERGY PREDICTED BY IDOCK:   -4.87 KCAL/MOL
REMARK 924 INTRA-LIGAND FREE ENERGY PREDICTED BY IDOCK:    0.66 KCAL/MOL
REMARK 927      BINDING AFFINITY PREDICTED BY RF-SCORE:    0.00 PKD
ROOT
HETATM    1  C   UNL     1      -8.357  18.192  68.671  1.00  0.00    -0.289 C  
HETATM    2  C   UNL     1      -8.172  16.711  68.620  1.00  0.00    -0.245 C  
HETATM    3  C   UNL     1      -9.042  15.857  68.067  1.00  0.00    -0.184 C  
HETATM    4  N   UNL     1      -8.844  14.487  68.054  1.00  0.00    -0.168 N  
HETATM    5  C   UNL     1      -7.671  13.929  68.550  1.00  0.00    -0.139 C  
HETATM    6  O   UNL     1      -6.111  16.865  69.779  1.00  0.00    -0.223 OA 
HETATM    7  O   UNL     1      -7.411  12.726  68.523  1.00  0.00    -0.107 OA 
HETATM    8  H   UNL     1      -5.911  14.412  69.467  1.00  0.00     0.000 HD 
HETATM    9  N   UNL     1      -6.780  14.806  69.104  1.00  0.00    -0.114 N  
HETATM   10  C   UNL     1      -6.938  16.155  69.219  1.00  0.00    -0.210 C  
ENDROOT
BRANCH   4  11
HETATM   11  C   UNL     1      -9.806  13.574  67.434  1.00  0.00    -0.227 C  
HETATM   12  C   UNL     1     -10.013  13.814  65.943  1.00  0.00    -0.308 C  
HETATM   13  O   UNL     1      -9.370  12.206  67.553  1.00  0.00    -0.173 OA 
HETATM   14  C   UNL     1     -10.507  12.471  65.456  1.00  0.00    -0.279 C  
HETATM   15  C   UNL     1      -9.770  11.484  66.366  1.00  0.00    -0.207 C  
BRANCH  14  16
HETATM   16  N   UNL     1     -11.958  12.363  65.711  1.00  0.00    -0.557 NA 
HETATM   17  H   UNL     1     -12.372  11.531  66.131  1.00  0.00     0.000 HD 
BRANCH  16  18
HETATM   18  N   UNL     1     -12.644  13.348  65.381  1.00  0.00    -0.522 NA 
HETATM   19  N   UNL     1     -13.268  14.253  65.080  1.00  0.00    -0.579 NA 
HETATM   20  H1  UNL     1     -13.830  15.060  64.811  1.00  0.00     0.000 HD 
HETATM   21  H2  UNL     1     -12.441  14.845  65.167  1.00  0.00     0.000 HD 
ENDBRANCH  16  18
ENDBRANCH  14  16
BRANCH  15  22
HETATM   22  C   UNL     1      -8.515  10.890  65.720  1.00  0.00    -0.155 C  
HETATM   23  H   UNL     1      -7.997  10.074  63.991  1.00  0.00     0.000 HD 
HETATM   24  O   UNL     1      -8.776  10.442  64.392  1.00  0.00    -0.183 OA 
ENDBRANCH  15  22
ENDBRANCH   4  11
TORSDOF 4
ENDMDL
MODEL      178
REMARK 921   NORMALIZED FREE ENERGY PREDICTED BY IDOCK:   -3.00 KCAL/MOL
REMARK 922        TOTAL FREE ENERGY PREDICTED BY IDOCK:   -4.21 KCAL/MOL
REMARK 923 INTER-LIGAND FREE ENERGY PREDICTED BY IDOCK:   -3.86 KCAL/MOL
REMARK 924 INTRA-LIGAND FREE ENERGY PREDICTED BY IDOCK:   -0.35 KCAL/MOL
REMARK 927      BINDING AFFINITY PREDICTED BY RF-SCORE:    0.00 PKD
ROOT
HETATM    1  C   UNL     1      -9.428   3.170  65.233  1.00  0.00    -0.107 C  
HETATM    2  C   UNL     1      -9.248   4.607  65.593  1.00  0.00    -0.151 C  
HETATM    3  C   UNL     1      -9.708   5.172  66.716  1.00  0.00    -0.165 C  
HETATM    4  N   UNL     1      -9.535   6.515  67.006  1.00  0.00    -0.133 N  
HETATM    5  C   UNL     1      -8.791   7.338  66.168  1.00  0.00    -0.158 C  
HETATM    6  O   UNL     1      -8.087   5.031  63.571  1.00  0.00    -0.091 OA 
HETATM    7  O   UNL     1      -8.559   8.525  66.393  1.00  0.00    -0.115 OA 
HETATM    8  H   UNL     1      -7.761   7.345  64.405  1.00  0.00     0.000 HD 
HETATM    9  N   UNL     1      -8.314   6.755  65.027  1.00  0.00    -0.095 N  
HETATM   10  C   UNL     1      -8.506   5.462  64.639  1.00  0.00    -0.126 C  
ENDROOT
BRANCH   4  11
HETATM   11  C   UNL     1     -10.039   7.106  68.247  1.00  0.00    -0.167 C  
HETATM   12  C   UNL     1     -11.088   6.257  68.956  1.00  0.00    -0.446 C  
HETATM   13  O   UNL     1      -8.974   7.288  69.201  1.00  0.00    -0.136 OA 
HETATM   14  C   UNL     1     -10.982   6.725  70.388  1.00  0.00    -0.283 C  
HETATM   15  C   UNL     1      -9.495   7.064  70.531  1.00  0.00    -0.166 C  
BRANCH  14  16
HETATM   16  N   UNL     1     -11.771   7.963  70.556  1.00  0.00    -0.458 NA 
HETATM   17  H   UNL     1     -11.643   8.773  69.949  1.00  0.00     0.000 HD 
BRANCH  16  18
HETATM   18  N   UNL     1     -12.603   7.958  71.482  1.00  0.00    -0.318 NA 
HETATM   19  N   UNL     1     -13.365   7.959  72.330  1.00  0.00    -0.519 NA 
HETATM   20  H1  UNL     1     -14.046   7.954  73.089  1.00  0.00     0.000 HD 
HETATM   21  H2  UNL     1     -13.477   8.967  72.221  1.00  0.00     0.000 HD 
ENDBRANCH  16  18
ENDBRANCH  14  16
BRANCH  15  22
HETATM   22  C   UNL     1      -8.681   5.942  71.182  1.00  0.00    -0.132 C  
HETATM   23  H   UNL     1      -7.298   5.754  72.587  1.00  0.00     0.000 HD 
HETATM   24  O   UNL     1      -7.804   6.450  72.183  1.00  0.00    -0.098 OA 
ENDBRANCH  15  22
ENDBRANCH   4  11
TORSDOF 4
ENDMDL
MODEL      179
REMARK 921   NORMALIZED FREE ENERGY PREDICTED BY IDOCK:   -2.99 KCAL/MOL
REMARK 922        TOTAL FREE ENERGY PREDICTED BY IDOCK:   -4.20 KCAL/MOL
REMARK 923 INTER-LIGAND FREE ENERGY PREDICTED BY IDOCK:   -3.79 KCAL/MOL
REMARK 924 INTRA-LIGAND FREE ENERGY PREDICTED BY IDOCK:   -0.41 KCAL/MOL
REMARK 927      BINDING AFFINITY PREDICTED BY RF-SCORE:    0.00 PKD
ROOT
HETATM    1  C   UNL     1      -5.757  10.464  70.730  1.00  0.00    -0.099 C  
HETATM    2  C   UNL     1      -6.470  11.363  69.774  1.00  0.00    -0.133 C  
HETATM    3  C   UNL     1      -7.360  10.950  68.864  1.00  0.00    -0.111 C  
HETATM    4  N   UNL     1      -7.988  11.814  67.983  1.00  0.00    -0.132 N  
HETATM    5  C   UNL     1      -7.781  13.187  68.057  1.00  0.00    -0.146 C  
HETATM    6  O   UNL     1      -5.336  13.264  70.622  1.00  0.00    -0.117 OA 
HETATM    7  O   UNL     1      -8.345  14.011  67.338  1.00  0.00    -0.175 OA 
HETATM    8  H   UNL     1      -6.720  14.611  69.065  1.00  0.00     0.000 HD 
HETATM    9  N   UNL     1      -6.878  13.605  68.995  1.00  0.00    -0.110 N  
HETATM   10  C   UNL     1      -6.168  12.810  69.845  1.00  0.00    -0.084 C  
ENDROOT
BRANCH   4  11
HETATM   11  C   UNL     1      -8.967  11.339  67.004  1.00  0.00    -0.154 C  
HETATM   12  C   UNL     1      -8.376  10.435  65.927  1.00  0.00    -0.152 C  
HETATM   13  O   UNL     1     -10.000  10.563  67.642  1.00  0.00    -0.166 OA 
HETATM   14  C   UNL     1      -9.575   9.638  65.468  1.00  0.00    -0.283 C  
HETATM   15  C   UNL     1     -10.409   9.504  66.746  1.00  0.00    -0.228 C  
BRANCH  14  16
HETATM   16  N   UNL     1     -10.339  10.429  64.482  1.00  0.00    -0.284 NA 
HETATM   17  H   UNL     1     -11.351  10.536  64.542  1.00  0.00     0.000 HD 
BRANCH  16  18
HETATM   18  N   UNL     1      -9.672  10.957  63.573  1.00  0.00    -0.309 NA 
HETATM   19  N   UNL     1      -9.063  11.437  62.738  1.00  0.00    -0.500 NA 
HETATM   20  H1  UNL     1      -8.516  11.869  61.993  1.00  0.00     0.000 HD 
HETATM   21  H2  UNL     1      -9.306  10.660  62.122  1.00  0.00     0.000 HD 
ENDBRANCH  16  18
ENDBRANCH  14  16
BRANCH  15  22
HETATM   22  C   UNL     1     -10.203   8.165  67.462  1.00  0.00    -0.243 C  
HETATM   23  H   UNL     1     -10.843   6.298  67.300  1.00  0.00     0.000 HD 
HETATM   24  O   UNL     1     -10.971   7.128  66.856  1.00  0.00    -0.363 OA 
ENDBRANCH  15  22
ENDBRANCH   4  11
TORSDOF 4
ENDMDL
MODEL      180
REMARK 921   NORMALIZED FREE ENERGY PREDICTED BY IDOCK:   -2.98 KCAL/MOL
REMARK 922        TOTAL FREE ENERGY PREDICTED BY IDOCK:   -4.19 KCAL/MOL
REMARK 923 INTER-LIGAND FREE ENERGY PREDICTED BY IDOCK:   -4.47 KCAL/MOL
REMARK 924 INTRA-LIGAND FREE ENERGY PREDICTED BY IDOCK:    0.28 KCAL/MOL
REMARK 927      BINDING AFFINITY PREDICTED BY RF-SCORE:    0.00 PKD
ROOT
HETATM    1  C   UNL     1     -11.929  14.725  66.580  1.00  0.00    -0.199 C  
HETATM    2  C   UNL     1     -10.832  13.765  66.899  1.00  0.00    -0.286 C  
HETATM    3  C   UNL     1     -11.002  12.605  67.546  1.00  0.00    -0.246 C  
HETATM    4  N   UNL     1      -9.955  11.748  67.838  1.00  0.00    -0.177 N  
HETATM    5  C   UNL     1      -8.665  12.018  67.396  1.00  0.00    -0.170 C  
HETATM    6  O   UNL     1      -9.216  15.186  65.905  1.00  0.00    -0.296 OA 
HETATM    7  O   UNL     1      -7.701  11.275  67.579  1.00  0.00    -0.113 OA 
HETATM    8  H   UNL     1      -7.556  13.407  66.390  1.00  0.00     0.000 HD 
HETATM    9  N   UNL     1      -8.496  13.199  66.727  1.00  0.00    -0.062 N  
HETATM   10  C   UNL     1      -9.463  14.125  66.466  1.00  0.00    -0.285 C  
ENDROOT
BRANCH   4  11
HETATM   11  C   UNL     1     -10.169  10.480  68.537  1.00  0.00    -0.174 C  
HETATM   12  C   UNL     1      -9.356  10.335  69.819  1.00  0.00    -0.116 C  
HETATM   13  O   UNL     1     -11.548  10.334  68.931  1.00  0.00    -0.180 OA 
HETATM   14  C   UNL     1     -10.159   9.328  70.609  1.00  0.00    -0.276 C  
HETATM   15  C   UNL     1     -11.601   9.637  70.196  1.00  0.00    -0.141 C  
BRANCH  14  16
HETATM   16  N   UNL     1      -9.815   7.965  70.155  1.00  0.00    -0.184 NA 
HETATM   17  H   UNL     1      -8.905   7.545  70.346  1.00  0.00     0.000 HD 
BRANCH  16  18
HETATM   18  N   UNL     1     -10.703   7.360  69.526  1.00  0.00    -0.237 NA 
HETATM   19  N   UNL     1     -11.512   6.801  68.951  1.00  0.00    -0.578 NA 
HETATM   20  H1  UNL     1     -12.239   6.305  68.435  1.00  0.00     0.000 HD 
HETATM   21  H2  UNL     1     -10.954   5.949  69.003  1.00  0.00     0.000 HD 
ENDBRANCH  16  18
ENDBRANCH  14  16
BRANCH  15  22
HETATM   22  C   UNL     1     -12.339  10.526  71.202  1.00  0.00    -0.405 C  
HETATM   23  H   UNL     1     -12.913  12.416  71.349  1.00  0.00     0.000 HD 
HETATM   24  O   UNL     1     -12.456  11.864  70.725  1.00  0.00    -0.349 OA 
ENDBRANCH  15  22
ENDBRANCH   4  11
TORSDOF 4
ENDMDL
MODEL      181
REMARK 921   NORMALIZED FREE ENERGY PREDICTED BY IDOCK:   -2.98 KCAL/MOL
REMARK 922        TOTAL FREE ENERGY PREDICTED BY IDOCK:   -4.18 KCAL/MOL
REMARK 923 INTER-LIGAND FREE ENERGY PREDICTED BY IDOCK:   -3.60 KCAL/MOL
REMARK 924 INTRA-LIGAND FREE ENERGY PREDICTED BY IDOCK:   -0.59 KCAL/MOL
REMARK 927      BINDING AFFINITY PREDICTED BY RF-SCORE:    0.00 PKD
ROOT
HETATM    1  C   UNL     1      -5.795  11.311  69.913  1.00  0.00    -0.104 C  
HETATM    2  C   UNL     1      -7.185  10.815  69.693  1.00  0.00    -0.127 C  
HETATM    3  C   UNL     1      -7.730   9.773  70.332  1.00  0.00    -0.137 C  
HETATM    4  N   UNL     1      -9.019   9.332  70.087  1.00  0.00    -0.194 N  
HETATM    5  C   UNL     1      -9.853  10.014  69.208  1.00  0.00    -0.214 C  
HETATM    6  O   UNL     1      -7.579  12.471  68.044  1.00  0.00    -0.105 OA 
HETATM    7  O   UNL     1     -11.023   9.705  68.984  1.00  0.00    -0.208 OA 
HETATM    8  H   UNL     1      -9.899  11.600  67.922  1.00  0.00     0.000 HD 
HETATM    9  N   UNL     1      -9.297  11.085  68.565  1.00  0.00    -0.182 N  
HETATM   10  C   UNL     1      -8.016  11.532  68.699  1.00  0.00    -0.135 C  
ENDROOT
BRANCH   4  11
HETATM   11  C   UNL     1      -9.595   8.195  70.807  1.00  0.00    -0.166 C  
HETATM   12  C   UNL     1      -8.700   6.962  70.833  1.00  0.00    -0.141 C  
HETATM   13  O   UNL     1      -9.841   8.530  72.187  1.00  0.00    -0.268 OA 
HETATM   14  C   UNL     1      -9.186   6.224  72.059  1.00  0.00    -0.145 C  
HETATM   15  C   UNL     1      -9.602   7.359  73.000  1.00  0.00    -0.194 C  
BRANCH  14  16
HETATM   16  N   UNL     1     -10.384   5.432  71.709  1.00  0.00    -0.206 NA 
HETATM   17  H   UNL     1     -10.765   5.418  70.763  1.00  0.00     0.000 HD 
BRANCH  16  18
HETATM   18  N   UNL     1     -10.898   4.783  72.638  1.00  0.00    -0.200 NA 
HETATM   19  N   UNL     1     -11.375   4.190  73.486  1.00  0.00    -0.256 NA 
HETATM   20  H1  UNL     1     -11.797   3.658  74.247  1.00  0.00     0.000 HD 
HETATM   21  H2  UNL     1     -12.298   4.388  73.099  1.00  0.00     0.000 HD 
ENDBRANCH  16  18
ENDBRANCH  14  16
BRANCH  15  22
HETATM   22  C   UNL     1      -8.529   7.705  74.037  1.00  0.00    -0.237 C  
HETATM   23  H   UNL     1      -7.159   9.108  74.322  1.00  0.00     0.000 HD 
HETATM   24  O   UNL     1      -7.825   8.892  73.679  1.00  0.00    -0.377 OA 
ENDBRANCH  15  22
ENDBRANCH   4  11
TORSDOF 4
ENDMDL
MODEL      182
REMARK 921   NORMALIZED FREE ENERGY PREDICTED BY IDOCK:   -2.97 KCAL/MOL
REMARK 922        TOTAL FREE ENERGY PREDICTED BY IDOCK:   -4.17 KCAL/MOL
REMARK 923 INTER-LIGAND FREE ENERGY PREDICTED BY IDOCK:   -3.91 KCAL/MOL
REMARK 924 INTRA-LIGAND FREE ENERGY PREDICTED BY IDOCK:   -0.26 KCAL/MOL
REMARK 927      BINDING AFFINITY PREDICTED BY RF-SCORE:    0.00 PKD
ROOT
HETATM    1  C   UNL     1      -9.192   7.929  73.579  1.00  0.00    -0.340 C  
HETATM    2  C   UNL     1      -8.400   8.070  72.321  1.00  0.00    -0.193 C  
HETATM    3  C   UNL     1      -8.847   7.746  71.102  1.00  0.00    -0.137 C  
HETATM    4  N   UNL     1      -8.075   7.876  69.960  1.00  0.00    -0.115 N  
HETATM    5  C   UNL     1      -6.804   8.436  70.016  1.00  0.00    -0.042 C  
HETATM    6  O   UNL     1      -6.528   8.892  73.520  1.00  0.00    -0.298 OA 
HETATM    7  O   UNL     1      -6.088   8.625  69.033  1.00  0.00    -0.042 OA 
HETATM    8  H   UNL     1      -5.425   9.193  71.318  1.00  0.00     0.000 HD 
HETATM    9  N   UNL     1      -6.354   8.775  71.262  1.00  0.00    -0.052 N  
HETATM   10  C   UNL     1      -7.026   8.609  72.437  1.00  0.00    -0.001 C  
ENDROOT
BRANCH   4  11
HETATM   11  C   UNL     1      -8.592   7.524  68.637  1.00  0.00    -0.129 C  
HETATM   12  C   UNL     1      -9.943   6.818  68.667  1.00  0.00    -0.147 C  
HETATM   13  O   UNL     1      -8.786   8.702  67.829  1.00  0.00    -0.135 OA 
HETATM   14  C   UNL     1     -10.504   7.114  67.296  1.00  0.00    -0.301 C  
HETATM   15  C   UNL     1      -9.946   8.507  66.989  1.00  0.00    -0.250 C  
BRANCH  14  16
HETATM   16  N   UNL     1      -9.945   6.152  66.322  1.00  0.00    -0.377 NA 
HETATM   17  H   UNL     1      -8.960   6.161  66.058  1.00  0.00     0.000 HD 
BRANCH  16  18
HETATM   18  N   UNL     1     -10.750   5.330  65.845  1.00  0.00    -0.095 NA 
HETATM   19  N   UNL     1     -11.488   4.582  65.405  1.00  0.00    -0.973 NA 
HETATM   20  H1  UNL     1     -12.147   3.909  65.014  1.00  0.00     0.000 HD 
HETATM   21  H2  UNL     1     -11.773   5.278  64.715  1.00  0.00     0.000 HD 
ENDBRANCH  16  18
ENDBRANCH  14  16
BRANCH  15  22
HETATM   22  C   UNL     1     -10.943   9.632  67.281  1.00  0.00    -0.037 C  
HETATM   23  H   UNL     1     -11.185  11.541  66.810  1.00  0.00     0.000 HD 
HETATM   24  O   UNL     1     -10.566  10.843  66.629  1.00  0.00    -0.246 OA 
ENDBRANCH  15  22
ENDBRANCH   4  11
TORSDOF 4
ENDMDL
MODEL      183
REMARK 921   NORMALIZED FREE ENERGY PREDICTED BY IDOCK:   -2.95 KCAL/MOL
REMARK 922        TOTAL FREE ENERGY PREDICTED BY IDOCK:   -4.15 KCAL/MOL
REMARK 923 INTER-LIGAND FREE ENERGY PREDICTED BY IDOCK:   -3.62 KCAL/MOL
REMARK 924 INTRA-LIGAND FREE ENERGY PREDICTED BY IDOCK:   -0.53 KCAL/MOL
REMARK 927      BINDING AFFINITY PREDICTED BY RF-SCORE:    0.00 PKD
ROOT
HETATM    1  C   UNL     1      -5.979   5.953  70.099  1.00  0.00    -0.025 C  
HETATM    2  C   UNL     1      -7.425   5.957  69.728  1.00  0.00    -0.080 C  
HETATM    3  C   UNL     1      -7.936   5.329  68.662  1.00  0.00    -0.087 C  
HETATM    4  N   UNL     1      -9.283   5.371  68.341  1.00  0.00    -0.109 N  
HETATM    5  C   UNL     1     -10.197   6.011  69.170  1.00  0.00    -0.204 C  
HETATM    6  O   UNL     1      -7.959   7.341  71.576  1.00  0.00    -0.098 OA 
HETATM    7  O   UNL     1     -11.410   6.041  68.969  1.00  0.00    -0.340 OA 
HETATM    8  H   UNL     1     -10.331   7.111  70.885  1.00  0.00     0.000 HD 
HETATM    9  N   UNL     1      -9.672   6.643  70.264  1.00  0.00    -0.171 N  
HETATM   10  C   UNL     1      -8.353   6.707  70.604  1.00  0.00    -0.129 C  
ENDROOT
BRANCH   4  11
HETATM   11  C   UNL     1      -9.819   4.666  67.175  1.00  0.00    -0.195 C  
HETATM   12  C   UNL     1      -9.466   5.317  65.843  1.00  0.00    -0.156 C  
HETATM   13  O   UNL     1      -9.304   3.322  67.102  1.00  0.00    -0.187 OA 
HETATM   14  C   UNL     1      -9.572   4.164  64.871  1.00  0.00    -0.178 C  
HETATM   15  C   UNL     1      -9.130   2.964  65.713  1.00  0.00    -0.137 C  
BRANCH  14  16
HETATM   16  N   UNL     1     -10.987   3.981  64.485  1.00  0.00    -0.730 NA 
HETATM   17  H   UNL     1     -11.710   4.649  64.751  1.00  0.00     0.000 HD 
BRANCH  16  18
HETATM   18  N   UNL     1     -11.241   2.963  63.816  1.00  0.00    -0.144 NA 
HETATM   19  N   UNL     1     -11.474   2.028  63.208  1.00  0.00    -0.519 NA 
HETATM   20  H1  UNL     1     -11.682   1.193  62.659  1.00  0.00     0.000 HD 
HETATM   21  H2  UNL     1     -11.296   1.454  64.032  1.00  0.00     0.000 HD 
ENDBRANCH  16  18
ENDBRANCH  14  16
BRANCH  15  22
HETATM   22  C   UNL     1      -7.663   2.583  65.496  1.00  0.00    -0.077 C  
HETATM   23  H   UNL     1      -6.269   1.514  66.412  1.00  0.00     0.000 HD 
HETATM   24  O   UNL     1      -7.180   1.750  66.547  1.00  0.00    -0.049 OA 
ENDBRANCH  15  22
ENDBRANCH   4  11
TORSDOF 4
ENDMDL
MODEL      184
REMARK 921   NORMALIZED FREE ENERGY PREDICTED BY IDOCK:   -2.91 KCAL/MOL
REMARK 922        TOTAL FREE ENERGY PREDICTED BY IDOCK:   -4.10 KCAL/MOL
REMARK 923 INTER-LIGAND FREE ENERGY PREDICTED BY IDOCK:   -4.04 KCAL/MOL
REMARK 924 INTRA-LIGAND FREE ENERGY PREDICTED BY IDOCK:   -0.05 KCAL/MOL
REMARK 927      BINDING AFFINITY PREDICTED BY RF-SCORE:    0.00 PKD
ROOT
HETATM    1  C   UNL     1     -11.608  12.175  70.127  1.00  0.00    -0.202 C  
HETATM    2  C   UNL     1     -11.872  10.800  70.644  1.00  0.00    -0.460 C  
HETATM    3  C   UNL     1     -11.145   9.720  70.333  1.00  0.00    -0.307 C  
HETATM    4  N   UNL     1     -11.433   8.456  70.820  1.00  0.00    -0.272 N  
HETATM    5  C   UNL     1     -12.460   8.259  71.737  1.00  0.00    -0.332 C  
HETATM    6  O   UNL     1     -13.755  11.555  71.869  1.00  0.00    -0.112 OA 
HETATM    7  O   UNL     1     -12.734   7.172  72.245  1.00  0.00    -0.135 OA 
HETATM    8  H   UNL     1     -13.946   9.239  72.737  1.00  0.00     0.000 HD 
HETATM    9  N   UNL     1     -13.193   9.367  72.060  1.00  0.00    -0.415 N  
HETATM   10  C   UNL     1     -13.017  10.625  71.566  1.00  0.00    -0.461 C  
ENDROOT
BRANCH   4  11
HETATM   11  C   UNL     1     -10.616   7.292  70.473  1.00  0.00    -0.222 C  
HETATM   12  C   UNL     1      -9.362   7.632  69.676  1.00  0.00    -0.156 C  
HETATM   13  O   UNL     1     -10.154   6.614  71.658  1.00  0.00    -0.185 OA 
HETATM   14  C   UNL     1      -8.452   6.462  69.973  1.00  0.00    -0.135 C  
HETATM   15  C   UNL     1      -8.831   6.088  71.409  1.00  0.00    -0.136 C  
BRANCH  14  16
HETATM   16  N   UNL     1      -8.798   5.337  69.080  1.00  0.00    -0.099 NA 
HETATM   17  H   UNL     1      -9.075   4.425  69.443  1.00  0.00     0.000 HD 
BRANCH  16  18
HETATM   18  N   UNL     1      -8.730   5.569  67.859  1.00  0.00    -0.107 NA 
HETATM   19  N   UNL     1      -8.673   5.779  66.740  1.00  0.00    -0.115 NA 
HETATM   20  H1  UNL     1      -8.618   5.969  65.740  1.00  0.00     0.000 HD 
HETATM   21  H2  UNL     1      -9.540   5.258  66.604  1.00  0.00     0.000 HD 
ENDBRANCH  16  18
ENDBRANCH  14  16
BRANCH  15  22
HETATM   22  C   UNL     1      -7.877   6.674  72.455  1.00  0.00    -0.099 C  
HETATM   23  H   UNL     1      -6.737   6.018  73.935  1.00  0.00     0.000 HD 
HETATM   24  O   UNL     1      -7.328   5.655  73.286  1.00  0.00    -0.092 OA 
ENDBRANCH  15  22
ENDBRANCH   4  11
TORSDOF 4
ENDMDL
MODEL      185
REMARK 921   NORMALIZED FREE ENERGY PREDICTED BY IDOCK:   -2.90 KCAL/MOL
REMARK 922        TOTAL FREE ENERGY PREDICTED BY IDOCK:   -4.09 KCAL/MOL
REMARK 923 INTER-LIGAND FREE ENERGY PREDICTED BY IDOCK:   -4.12 KCAL/MOL
REMARK 924 INTRA-LIGAND FREE ENERGY PREDICTED BY IDOCK:    0.03 KCAL/MOL
REMARK 927      BINDING AFFINITY PREDICTED BY RF-SCORE:    0.00 PKD
ROOT
HETATM    1  C   UNL     1      -9.341  12.464  66.430  1.00  0.00    -0.219 C  
HETATM    2  C   UNL     1      -8.382  13.334  67.173  1.00  0.00    -0.143 C  
HETATM    3  C   UNL     1      -8.653  14.576  67.594  1.00  0.00    -0.179 C  
HETATM    4  N   UNL     1      -7.729  15.359  68.266  1.00  0.00    -0.113 N  
HETATM    5  C   UNL     1      -6.482  14.854  68.614  1.00  0.00    -0.083 C  
HETATM    6  O   UNL     1      -6.701  11.666  67.080  1.00  0.00    -0.116 OA 
HETATM    7  O   UNL     1      -5.637  15.479  69.254  1.00  0.00    -0.100 OA 
HETATM    8  H   UNL     1      -5.304  13.195  68.446  1.00  0.00     0.000 HD 
HETATM    9  N   UNL     1      -6.213  13.581  68.192  1.00  0.00    -0.100 N  
HETATM   10  C   UNL     1      -7.041  12.779  67.465  1.00  0.00    -0.148 C  
ENDROOT
BRANCH   4  11
HETATM   11  C   UNL     1      -8.054  16.710  68.724  1.00  0.00    -0.247 C  
HETATM   12  C   UNL     1      -7.388  17.816  67.912  1.00  0.00    -0.215 C  
HETATM   13  O   UNL     1      -9.471  16.959  68.636  1.00  0.00    -0.252 OA 
HETATM   14  C   UNL     1      -8.300  18.997  68.149  1.00  0.00    -0.312 C  
HETATM   15  C   UNL     1      -9.680  18.345  68.283  1.00  0.00    -0.344 C  
BRANCH  14  16
HETATM   16  N   UNL     1      -7.948  19.635  69.435  1.00  0.00    -0.087 NA 
HETATM   17  H   UNL     1      -8.653  20.049  70.044  1.00  0.00     0.000 HD 
BRANCH  16  18
HETATM   18  N   UNL     1      -6.738  19.637  69.728  1.00  0.00    -0.306 NA 
HETATM   19  N   UNL     1      -5.632  19.635  70.001  1.00  0.00    -0.231 NA 
HETATM   20  H1  UNL     1      -4.641  19.637  70.241  1.00  0.00     0.000 HD 
HETATM   21  H2  UNL     1      -5.808  18.904  70.690  1.00  0.00     0.000 HD 
ENDBRANCH  16  18
ENDBRANCH  14  16
BRANCH  15  22
HETATM   22  C   UNL     1     -10.496  18.392  66.988  1.00  0.00    -0.399 C  
HETATM   23  H   UNL     1     -10.234  17.978  65.069  1.00  0.00     0.000 HD 
HETATM   24  O   UNL     1      -9.727  17.949  65.872  1.00  0.00    -0.530 OA 
ENDBRANCH  15  22
ENDBRANCH   4  11
TORSDOF 4
ENDMDL
MODEL      186
REMARK 921   NORMALIZED FREE ENERGY PREDICTED BY IDOCK:   -2.90 KCAL/MOL
REMARK 922        TOTAL FREE ENERGY PREDICTED BY IDOCK:   -4.09 KCAL/MOL
REMARK 923 INTER-LIGAND FREE ENERGY PREDICTED BY IDOCK:   -4.81 KCAL/MOL
REMARK 924 INTRA-LIGAND FREE ENERGY PREDICTED BY IDOCK:    0.71 KCAL/MOL
REMARK 927      BINDING AFFINITY PREDICTED BY RF-SCORE:    0.00 PKD
ROOT
HETATM    1  C   UNL     1      -9.197  17.558  67.175  1.00  0.00    -0.245 C  
HETATM    2  C   UNL     1      -9.775  16.358  66.501  1.00  0.00    -0.287 C  
HETATM    3  C   UNL     1      -9.424  15.095  66.770  1.00  0.00    -0.242 C  
HETATM    4  N   UNL     1      -9.971  14.007  66.110  1.00  0.00    -0.303 N  
HETATM    5  C   UNL     1     -10.988  14.173  65.177  1.00  0.00    -0.356 C  
HETATM    6  O   UNL     1     -11.156  17.713  65.133  1.00  0.00    -0.548 OA 
HETATM    7  O   UNL     1     -11.550  13.247  64.594  1.00  0.00    -0.324 OA 
HETATM    8  H   UNL     1     -12.101  15.603  64.235  1.00  0.00     0.000 HD 
HETATM    9  N   UNL     1     -11.351  15.465  64.912  1.00  0.00    -0.389 N  
HETATM   10  C   UNL     1     -10.808  16.587  65.466  1.00  0.00    -0.188 C  
ENDROOT
BRANCH   4  11
HETATM   11  C   UNL     1      -9.578  12.634  66.431  1.00  0.00    -0.248 C  
HETATM   12  C   UNL     1      -8.847  12.494  67.761  1.00  0.00    -0.178 C  
HETATM   13  O   UNL     1     -10.732  11.776  66.527  1.00  0.00    -0.244 OA 
HETATM   14  C   UNL     1      -9.099  11.050  68.129  1.00  0.00    -0.155 C  
HETATM   15  C   UNL     1     -10.494  10.788  67.555  1.00  0.00    -0.220 C  
BRANCH  14  16
HETATM   16  N   UNL     1      -8.125  10.190  67.425  1.00  0.00    -0.113 NA 
HETATM   17  H   UNL     1      -8.283   9.192  67.291  1.00  0.00     0.000 HD 
BRANCH  16  18
HETATM   18  N   UNL     1      -7.100  10.759  67.005  1.00  0.00    -0.098 NA 
HETATM   19  N   UNL     1      -6.161  11.275  66.617  1.00  0.00    -0.132 NA 
HETATM   20  H1  UNL     1      -5.321  11.741  66.273  1.00  0.00     0.000 HD 
HETATM   21  H2  UNL     1      -6.026  10.516  65.948  1.00  0.00     0.000 HD 
ENDBRANCH  16  18
ENDBRANCH  14  16
BRANCH  15  22
HETATM   22  C   UNL     1     -11.607  10.907  68.600  1.00  0.00    -0.303 C  
HETATM   23  H   UNL     1     -11.943  11.895  70.284  1.00  0.00     0.000 HD 
HETATM   24  O   UNL     1     -11.253  11.821  69.635  1.00  0.00    -0.232 OA 
ENDBRANCH  15  22
ENDBRANCH   4  11
TORSDOF 4
ENDMDL
MODEL      187
REMARK 921   NORMALIZED FREE ENERGY PREDICTED BY IDOCK:   -2.89 KCAL/MOL
REMARK 922        TOTAL FREE ENERGY PREDICTED BY IDOCK:   -4.07 KCAL/MOL
REMARK 923 INTER-LIGAND FREE ENERGY PREDICTED BY IDOCK:   -3.56 KCAL/MOL
REMARK 924 INTRA-LIGAND FREE ENERGY PREDICTED BY IDOCK:   -0.51 KCAL/MOL
REMARK 927      BINDING AFFINITY PREDICTED BY RF-SCORE:    0.00 PKD
ROOT
HETATM    1  C   UNL     1      -7.086   8.234  63.863  1.00  0.00    -0.087 C  
HETATM    2  C   UNL     1      -7.860   7.128  64.501  1.00  0.00    -0.121 C  
HETATM    3  C   UNL     1      -8.567   7.251  65.631  1.00  0.00    -0.109 C  
HETATM    4  N   UNL     1      -9.258   6.195  66.202  1.00  0.00    -0.155 N  
HETATM    5  C   UNL     1      -9.320   4.957  65.574  1.00  0.00    -0.157 C  
HETATM    6  O   UNL     1      -7.189   5.603  62.816  1.00  0.00    -0.043 OA 
HETATM    7  O   UNL     1      -9.957   3.995  66.001  1.00  0.00    -0.193 OA 
HETATM    8  H   UNL     1      -8.645   3.937  63.938  1.00  0.00     0.000 HD 
HETATM    9  N   UNL     1      -8.605   4.839  64.414  1.00  0.00    -0.141 N  
HETATM   10  C   UNL     1      -7.843   5.808  63.831  1.00  0.00    -0.117 C  
ENDROOT
BRANCH   4  11
HETATM   11  C   UNL     1     -10.033   6.358  67.433  1.00  0.00    -0.138 C  
HETATM   12  C   UNL     1      -9.205   6.224  68.707  1.00  0.00    -0.125 C  
HETATM   13  O   UNL     1     -10.636   7.666  67.495  1.00  0.00    -0.255 OA 
HETATM   14  C   UNL     1     -10.022   6.997  69.717  1.00  0.00    -0.173 C  
HETATM   15  C   UNL     1     -10.653   8.107  68.871  1.00  0.00    -0.140 C  
BRANCH  14  16
HETATM   16  N   UNL     1     -11.097   6.129  70.241  1.00  0.00    -0.347 NA 
HETATM   17  H   UNL     1     -11.029   5.111  70.219  1.00  0.00     0.000 HD 
BRANCH  16  18
HETATM   18  N   UNL     1     -12.089   6.714  70.714  1.00  0.00    -0.368 NA 
HETATM   19  N   UNL     1     -12.993   7.255  71.147  1.00  0.00    -0.558 NA 
HETATM   20  H1  UNL     1     -13.806   7.735  71.534  1.00  0.00     0.000 HD 
HETATM   21  H2  UNL     1     -12.406   8.064  71.349  1.00  0.00     0.000 HD 
ENDBRANCH  16  18
ENDBRANCH  14  16
BRANCH  15  22
HETATM   22  C   UNL     1      -9.894   9.435  68.958  1.00  0.00    -0.169 C  
HETATM   23  H   UNL     1      -9.418  10.937  67.758  1.00  0.00     0.000 HD 
HETATM   24  O   UNL     1      -9.889  10.114  67.704  1.00  0.00    -0.164 OA 
ENDBRANCH  15  22
ENDBRANCH   4  11
TORSDOF 4
ENDMDL
MODEL      188
REMARK 921   NORMALIZED FREE ENERGY PREDICTED BY IDOCK:   -2.88 KCAL/MOL
REMARK 922        TOTAL FREE ENERGY PREDICTED BY IDOCK:   -4.07 KCAL/MOL
REMARK 923 INTER-LIGAND FREE ENERGY PREDICTED BY IDOCK:   -3.59 KCAL/MOL
REMARK 924 INTRA-LIGAND FREE ENERGY PREDICTED BY IDOCK:   -0.48 KCAL/MOL
REMARK 927      BINDING AFFINITY PREDICTED BY RF-SCORE:    0.00 PKD
ROOT
HETATM    1  C   UNL     1      -9.981   8.566  72.440  1.00  0.00    -0.365 C  
HETATM    2  C   UNL     1      -9.427   7.377  71.727  1.00  0.00    -0.166 C  
HETATM    3  C   UNL     1      -9.492   7.187  70.404  1.00  0.00    -0.162 C  
HETATM    4  N   UNL     1      -8.981   6.061  69.781  1.00  0.00    -0.132 N  
HETATM    5  C   UNL     1      -8.290   5.095  70.504  1.00  0.00    -0.110 C  
HETATM    6  O   UNL     1      -8.691   6.420  73.767  1.00  0.00    -0.122 OA 
HETATM    7  O   UNL     1      -7.769   4.098  70.005  1.00  0.00    -0.052 OA 
HETATM    8  H   UNL     1      -7.707   4.600  72.398  1.00  0.00     0.000 HD 
HETATM    9  N   UNL     1      -8.216   5.298  71.855  1.00  0.00    -0.116 N  
HETATM   10  C   UNL     1      -8.757   6.341  72.546  1.00  0.00    -0.120 C  
ENDROOT
BRANCH   4  11
HETATM   11  C   UNL     1      -9.055   5.881  68.331  1.00  0.00    -0.115 C  
HETATM   12  C   UNL     1     -10.464   5.611  67.812  1.00  0.00    -0.275 C  
HETATM   13  O   UNL     1      -8.606   7.065  67.640  1.00  0.00    -0.122 OA 
HETATM   14  C   UNL     1     -10.380   6.063  66.373  1.00  0.00    -0.072 C  
HETATM   15  C   UNL     1      -9.386   7.226  66.434  1.00  0.00    -0.150 C  
BRANCH  14  16
HETATM   16  N   UNL     1      -9.797   4.979  65.554  1.00  0.00    -0.345 NA 
HETATM   17  H   UNL     1      -8.798   4.775  65.562  1.00  0.00     0.000 HD 
BRANCH  16  18
HETATM   18  N   UNL     1     -10.598   4.332  64.856  1.00  0.00    -0.204 NA 
HETATM   19  N   UNL     1     -11.336   3.739  64.221  1.00  0.00    -0.554 NA 
HETATM   20  H1  UNL     1     -11.992   3.208  63.649  1.00  0.00     0.000 HD 
HETATM   21  H2  UNL     1     -11.992   3.728  65.002  1.00  0.00     0.000 HD 
ENDBRANCH  16  18
ENDBRANCH  14  16
BRANCH  15  22
HETATM   22  C   UNL     1     -10.066   8.597  66.483  1.00  0.00    -0.269 C  
HETATM   23  H   UNL     1      -9.541  10.490  66.742  1.00  0.00     0.000 HD 
HETATM   24  O   UNL     1      -9.120   9.639  66.712  1.00  0.00    -0.142 OA 
ENDBRANCH  15  22
ENDBRANCH   4  11
TORSDOF 4
ENDMDL
MODEL      189
REMARK 921   NORMALIZED FREE ENERGY PREDICTED BY IDOCK:   -2.87 KCAL/MOL
REMARK 922        TOTAL FREE ENERGY PREDICTED BY IDOCK:   -4.05 KCAL/MOL
REMARK 923 INTER-LIGAND FREE ENERGY PREDICTED BY IDOCK:   -3.60 KCAL/MOL
REMARK 924 INTRA-LIGAND FREE ENERGY PREDICTED BY IDOCK:   -0.45 KCAL/MOL
REMARK 927      BINDING AFFINITY PREDICTED BY RF-SCORE:    0.00 PKD
ROOT
HETATM    1  C   UNL     1      -7.475   8.077  74.313  1.00  0.00    -0.228 C  
HETATM    2  C   UNL     1      -7.432   8.384  72.853  1.00  0.00    -0.117 C  
HETATM    3  C   UNL     1      -8.384   8.041  71.977  1.00  0.00    -0.139 C  
HETATM    4  N   UNL     1      -8.300   8.330  70.626  1.00  0.00    -0.116 N  
HETATM    5  C   UNL     1      -7.242   9.076  70.118  1.00  0.00    -0.062 C  
HETATM    6  O   UNL     1      -5.321   9.439  73.074  1.00  0.00    -0.121 OA 
HETATM    7  O   UNL     1      -7.134   9.409  68.938  1.00  0.00    -0.066 OA 
HETATM    8  H   UNL     1      -5.498   9.987  70.661  1.00  0.00     0.000 HD 
HETATM    9  N   UNL     1      -6.277   9.434  71.018  1.00  0.00    -0.074 N  
HETATM   10  C   UNL     1      -6.254   9.123  72.346  1.00  0.00     0.109 C  
ENDROOT
BRANCH   4  11
HETATM   11  C   UNL     1      -9.360   7.953  69.690  1.00  0.00    -0.153 C  
HETATM   12  C   UNL     1      -9.362   6.473  69.321  1.00  0.00    -0.141 C  
HETATM   13  O   UNL     1     -10.662   8.217  70.250  1.00  0.00    -0.228 OA 
HETATM   14  C   UNL     1     -10.794   6.238  68.899  1.00  0.00    -0.333 C  
HETATM   15  C   UNL     1     -11.580   7.195  69.801  1.00  0.00     0.005 C  
BRANCH  14  16
HETATM   16  N   UNL     1     -10.964   6.659  67.493  1.00  0.00    -0.459 NA 
HETATM   17  H   UNL     1     -10.990   7.642  67.223  1.00  0.00     0.000 HD 
BRANCH  16  18
HETATM   18  N   UNL     1     -11.074   5.742  66.659  1.00  0.00    -0.140 NA 
HETATM   19  N   UNL     1     -11.172   4.905  65.892  1.00  0.00    -0.815 NA 
HETATM   20  H1  UNL     1     -11.262   4.153  65.208  1.00  0.00     0.000 HD 
HETATM   21  H2  UNL     1     -10.696   5.488  65.203  1.00  0.00     0.000 HD 
ENDBRANCH  16  18
ENDBRANCH  14  16
BRANCH  15  22
HETATM   22  C   UNL     1     -12.174   6.510  71.034  1.00  0.00    -0.177 C  
HETATM   23  H   UNL     1     -13.826   6.617  72.123  1.00  0.00     0.000 HD 
HETATM   24  O   UNL     1     -13.456   7.042  71.358  1.00  0.00    -0.345 OA 
ENDBRANCH  15  22
ENDBRANCH   4  11
TORSDOF 4
ENDMDL
MODEL      190
REMARK 921   NORMALIZED FREE ENERGY PREDICTED BY IDOCK:   -2.86 KCAL/MOL
REMARK 922        TOTAL FREE ENERGY PREDICTED BY IDOCK:   -4.04 KCAL/MOL
REMARK 923 INTER-LIGAND FREE ENERGY PREDICTED BY IDOCK:   -3.53 KCAL/MOL
REMARK 924 INTRA-LIGAND FREE ENERGY PREDICTED BY IDOCK:   -0.51 KCAL/MOL
REMARK 927      BINDING AFFINITY PREDICTED BY RF-SCORE:    0.00 PKD
ROOT
HETATM    1  C   UNL     1     -10.576   8.012  67.174  1.00  0.00    -0.367 C  
HETATM    2  C   UNL     1     -10.247   8.179  68.621  1.00  0.00    -0.226 C  
HETATM    3  C   UNL     1     -10.061   7.168  69.479  1.00  0.00    -0.179 C  
HETATM    4  N   UNL     1      -9.774   7.364  70.819  1.00  0.00    -0.171 N  
HETATM    5  C   UNL     1      -9.580   8.643  71.329  1.00  0.00    -0.225 C  
HETATM    6  O   UNL     1     -10.310  10.540  68.426  1.00  0.00    -0.162 OA 
HETATM    7  O   UNL     1      -9.274   8.883  72.497  1.00  0.00    -0.334 OA 
HETATM    8  H   UNL     1      -9.616  10.617  70.806  1.00  0.00     0.000 HD 
HETATM    9  N   UNL     1      -9.761   9.673  70.448  1.00  0.00    -0.262 N  
HETATM   10  C   UNL     1     -10.116   9.561  69.136  1.00  0.00    -0.195 C  
ENDROOT
BRANCH   4  11
HETATM   11  C   UNL     1      -9.564   6.242  71.734  1.00  0.00    -0.153 C  
HETATM   12  C   UNL     1     -10.850   5.538  72.155  1.00  0.00    -0.293 C  
HETATM   13  O   UNL     1      -8.743   5.225  71.125  1.00  0.00    -0.124 OA 
HETATM   14  C   UNL     1     -10.363   4.160  72.540  1.00  0.00    -0.159 C  
HETATM   15  C   UNL     1      -9.191   3.929  71.582  1.00  0.00    -0.127 C  
BRANCH  14  16
HETATM   16  N   UNL     1      -9.848   4.194  73.924  1.00  0.00    -0.114 NA 
HETATM   17  H   UNL     1     -10.131   4.913  74.589  1.00  0.00     0.000 HD 
BRANCH  16  18
HETATM   18  N   UNL     1      -9.048   3.291  74.230  1.00  0.00    -0.085 NA 
HETATM   19  N   UNL     1      -8.312   2.467  74.513  1.00  0.00    -0.066 NA 
HETATM   20  H1  UNL     1      -7.656   1.728  74.763  1.00  0.00     0.000 HD 
HETATM   21  H2  UNL     1      -7.785   3.138  75.073  1.00  0.00     0.000 HD 
ENDBRANCH  16  18
ENDBRANCH  14  16
BRANCH  15  22
HETATM   22  C   UNL     1      -9.571   3.094  70.355  1.00  0.00    -0.122 C  
HETATM   23  H   UNL     1      -9.698   3.338  68.393  1.00  0.00     0.000 HD 
HETATM   24  O   UNL     1      -9.462   3.855  69.154  1.00  0.00    -0.162 OA 
ENDBRANCH  15  22
ENDBRANCH   4  11
TORSDOF 4
ENDMDL
MODEL      191
REMARK 921   NORMALIZED FREE ENERGY PREDICTED BY IDOCK:   -2.85 KCAL/MOL
REMARK 922        TOTAL FREE ENERGY PREDICTED BY IDOCK:   -4.03 KCAL/MOL
REMARK 923 INTER-LIGAND FREE ENERGY PREDICTED BY IDOCK:   -4.21 KCAL/MOL
REMARK 924 INTRA-LIGAND FREE ENERGY PREDICTED BY IDOCK:    0.18 KCAL/MOL
REMARK 927      BINDING AFFINITY PREDICTED BY RF-SCORE:    0.00 PKD
ROOT
HETATM    1  C   UNL     1      -9.885   3.583  71.206  1.00  0.00    -0.205 C  
HETATM    2  C   UNL     1      -9.417   4.735  70.379  1.00  0.00    -0.241 C  
HETATM    3  C   UNL     1     -10.181   5.774  70.023  1.00  0.00    -0.238 C  
HETATM    4  N   UNL     1      -9.714   6.816  69.240  1.00  0.00    -0.151 N  
HETATM    5  C   UNL     1      -8.382   6.874  68.847  1.00  0.00    -0.121 C  
HETATM    6  O   UNL     1      -7.254   3.788  70.176  1.00  0.00    -0.041 OA 
HETATM    7  O   UNL     1      -7.893   7.796  68.194  1.00  0.00    -0.116 OA 
HETATM    8  H   UNL     1      -6.620   5.847  68.945  1.00  0.00     0.000 HD 
HETATM    9  N   UNL     1      -7.602   5.815  69.221  1.00  0.00    -0.086 N  
HETATM   10  C   UNL     1      -8.008   4.721  69.927  1.00  0.00    -0.069 C  
ENDROOT
BRANCH   4  11
HETATM   11  C   UNL     1     -10.568   7.947  68.873  1.00  0.00    -0.145 C  
HETATM   12  C   UNL     1     -10.081   9.289  69.410  1.00  0.00    -0.200 C  
HETATM   13  O   UNL     1     -10.636   8.100  67.442  1.00  0.00    -0.279 OA 
HETATM   14  C   UNL     1     -10.706  10.276  68.451  1.00  0.00    -0.226 C  
HETATM   15  C   UNL     1     -10.719   9.508  67.126  1.00  0.00    -0.182 C  
BRANCH  14  16
HETATM   16  N   UNL     1     -12.101  10.540  68.863  1.00  0.00    -0.747 NA 
HETATM   17  H   UNL     1     -12.896  10.154  68.354  1.00  0.00     0.000 HD 
BRANCH  16  18
HETATM   18  N   UNL     1     -12.246  11.260  69.868  1.00  0.00    -0.300 NA 
HETATM   19  N   UNL     1     -12.384  11.920  70.786  1.00  0.00    -0.366 NA 
HETATM   20  H1  UNL     1     -12.502  12.510  71.610  1.00  0.00     0.000 HD 
HETATM   21  H2  UNL     1     -13.347  12.103  70.503  1.00  0.00     0.000 HD 
ENDBRANCH  16  18
ENDBRANCH  14  16
BRANCH  15  22
HETATM   22  C   UNL     1      -9.542   9.865  66.212  1.00  0.00    -0.209 C  
HETATM   23  H   UNL     1      -9.167   9.965  64.270  1.00  0.00     0.000 HD 
HETATM   24  O   UNL     1      -9.897   9.744  64.837  1.00  0.00    -0.284 OA 
ENDBRANCH  15  22
ENDBRANCH   4  11
TORSDOF 4
ENDMDL
MODEL      192
REMARK 921   NORMALIZED FREE ENERGY PREDICTED BY IDOCK:   -2.84 KCAL/MOL
REMARK 922        TOTAL FREE ENERGY PREDICTED BY IDOCK:   -4.02 KCAL/MOL
REMARK 923 INTER-LIGAND FREE ENERGY PREDICTED BY IDOCK:   -4.57 KCAL/MOL
REMARK 924 INTRA-LIGAND FREE ENERGY PREDICTED BY IDOCK:    0.55 KCAL/MOL
REMARK 927      BINDING AFFINITY PREDICTED BY RF-SCORE:    0.00 PKD
ROOT
HETATM    1  C   UNL     1     -10.919  16.812  71.008  1.00  0.00     0.544 C  
HETATM    2  C   UNL     1     -11.444  15.423  70.847  1.00  0.00    -0.396 C  
HETATM    3  C   UNL     1     -11.388  14.718  69.711  1.00  0.00    -0.283 C  
HETATM    4  N   UNL     1     -11.903  13.437  69.597  1.00  0.00    -0.316 N  
HETATM    5  C   UNL     1     -12.438  12.780  70.699  1.00  0.00    -0.246 C  
HETATM    6  O   UNL     1     -12.191  15.380  73.096  1.00  0.00    -0.382 OA 
HETATM    7  O   UNL     1     -12.865  11.626  70.677  1.00  0.00    -0.175 OA 
HETATM    8  H   UNL     1     -12.868  13.030  72.680  1.00  0.00     0.000 HD 
HETATM    9  N   UNL     1     -12.484  13.501  71.861  1.00  0.00    -0.094 N  
HETATM   10  C   UNL     1     -12.066  14.788  72.031  1.00  0.00    -0.325 C  
ENDROOT
BRANCH   4  11
HETATM   11  C   UNL     1     -11.820  12.682  68.346  1.00  0.00    -0.301 C  
HETATM   12  C   UNL     1     -10.483  12.822  67.626  1.00  0.00    -0.224 C  
HETATM   13  O   UNL     1     -11.990  11.271  68.583  1.00  0.00    -0.472 OA 
HETATM   14  C   UNL     1     -10.423  11.566  66.789  1.00  0.00    -0.239 C  
HETATM   15  C   UNL     1     -11.155  10.538  67.658  1.00  0.00    -0.309 C  
BRANCH  14  16
HETATM   16  N   UNL     1     -11.193  11.772  65.545  1.00  0.00    -0.292 NA 
HETATM   17  H   UNL     1     -12.106  12.226  65.543  1.00  0.00     0.000 HD 
BRANCH  16  18
HETATM   18  N   UNL     1     -10.659  11.358  64.499  1.00  0.00    -0.311 NA 
HETATM   19  N   UNL     1     -10.167  10.976  63.545  1.00  0.00    -0.412 NA 
HETATM   20  H1  UNL     1      -9.730  10.637  62.688  1.00  0.00     0.000 HD 
HETATM   21  H2  UNL     1      -9.469  10.488  64.106  1.00  0.00     0.000 HD 
ENDBRANCH  16  18
ENDBRANCH  14  16
BRANCH  15  22
HETATM   22  C   UNL     1     -10.206   9.651  68.469  1.00  0.00    -0.193 C  
HETATM   23  H   UNL     1     -10.292   7.957  69.492  1.00  0.00     0.000 HD 
HETATM   24  O   UNL     1     -10.880   8.508  68.989  1.00  0.00    -0.140 OA 
ENDBRANCH  15  22
ENDBRANCH   4  11
TORSDOF 4
ENDMDL
MODEL      193
REMARK 921   NORMALIZED FREE ENERGY PREDICTED BY IDOCK:   -2.84 KCAL/MOL
REMARK 922        TOTAL FREE ENERGY PREDICTED BY IDOCK:   -4.01 KCAL/MOL
REMARK 923 INTER-LIGAND FREE ENERGY PREDICTED BY IDOCK:   -3.62 KCAL/MOL
REMARK 924 INTRA-LIGAND FREE ENERGY PREDICTED BY IDOCK:   -0.40 KCAL/MOL
REMARK 927      BINDING AFFINITY PREDICTED BY RF-SCORE:    0.00 PKD
ROOT
HETATM    1  C   UNL     1      -8.071   8.709  64.078  1.00  0.00    -0.163 C  
HETATM    2  C   UNL     1      -7.431   9.685  65.009  1.00  0.00    -0.116 C  
HETATM    3  C   UNL     1      -8.100  10.574  65.753  1.00  0.00    -0.158 C  
HETATM    4  N   UNL     1      -7.468  11.475  66.594  1.00  0.00    -0.116 N  
HETATM    5  C   UNL     1      -6.090  11.444  66.770  1.00  0.00    -0.145 C  
HETATM    6  O   UNL     1      -5.268   8.904  64.440  1.00  0.00    -0.049 OA 
HETATM    7  O   UNL     1      -5.474  12.182  67.538  1.00  0.00    -0.084 OA 
HETATM    8  H   UNL     1      -4.399  10.488  66.140  1.00  0.00     0.000 HD 
HETATM    9  N   UNL     1      -5.411  10.527  66.016  1.00  0.00    -0.077 N  
HETATM   10  C   UNL     1      -5.955   9.660  65.115  1.00  0.00    -0.074 C  
ENDROOT
BRANCH   4  11
HETATM   11  C   UNL     1      -8.223  12.432  67.405  1.00  0.00    -0.180 C  
HETATM   12  C   UNL     1      -9.229  13.259  66.611  1.00  0.00    -0.222 C  
HETATM   13  O   UNL     1      -8.989  11.755  68.421  1.00  0.00    -0.178 OA 
HETATM   14  C   UNL     1     -10.231  13.665  67.667  1.00  0.00    -0.239 C  
HETATM   15  C   UNL     1     -10.232  12.466  68.620  1.00  0.00    -0.157 C  
BRANCH  14  16
HETATM   16  N   UNL     1      -9.725  14.849  68.390  1.00  0.00    -0.204 NA 
HETATM   17  H   UNL     1      -8.967  14.784  69.070  1.00  0.00     0.000 HD 
BRANCH  16  18
HETATM   18  N   UNL     1     -10.278  15.931  68.119  1.00  0.00    -0.229 NA 
HETATM   19  N   UNL     1     -10.784  16.920  67.866  1.00  0.00    -0.355 NA 
HETATM   20  H1  UNL     1     -11.237  17.807  67.644  1.00  0.00     0.000 HD 
HETATM   21  H2  UNL     1     -10.656  16.725  66.873  1.00  0.00     0.000 HD 
ENDBRANCH  16  18
ENDBRANCH  14  16
BRANCH  15  22
HETATM   22  C   UNL     1     -11.387  11.494  68.364  1.00  0.00    -0.279 C  
HETATM   23  H   UNL     1     -12.778  11.194  66.986  1.00  0.00     0.000 HD 
HETATM   24  O   UNL     1     -12.061  11.797  67.145  1.00  0.00    -0.592 OA 
ENDBRANCH  15  22
ENDBRANCH   4  11
TORSDOF 4
ENDMDL
MODEL      194
REMARK 921   NORMALIZED FREE ENERGY PREDICTED BY IDOCK:   -2.84 KCAL/MOL
REMARK 922        TOTAL FREE ENERGY PREDICTED BY IDOCK:   -4.01 KCAL/MOL
REMARK 923 INTER-LIGAND FREE ENERGY PREDICTED BY IDOCK:   -3.68 KCAL/MOL
REMARK 924 INTRA-LIGAND FREE ENERGY PREDICTED BY IDOCK:   -0.34 KCAL/MOL
REMARK 927      BINDING AFFINITY PREDICTED BY RF-SCORE:    0.00 PKD
ROOT
HETATM    1  C   UNL     1     -10.188   3.020  73.947  1.00  0.00    -0.199 C  
HETATM    2  C   UNL     1      -9.374   4.029  73.207  1.00  0.00    -0.127 C  
HETATM    3  C   UNL     1      -9.861   4.871  72.287  1.00  0.00    -0.169 C  
HETATM    4  N   UNL     1      -9.069   5.782  71.609  1.00  0.00    -0.143 N  
HETATM    5  C   UNL     1      -7.720   5.924  71.915  1.00  0.00    -0.102 C  
HETATM    6  O   UNL     1      -7.397   3.338  74.317  1.00  0.00    -0.050 OA 
HETATM    7  O   UNL     1      -6.974   6.747  71.385  1.00  0.00    -0.068 OA 
HETATM    8  H   UNL     1      -6.241   5.166  73.101  1.00  0.00     0.000 HD 
HETATM    9  N   UNL     1      -7.228   5.069  72.862  1.00  0.00    -0.083 N  
HETATM   10  C   UNL     1      -7.928   4.100  73.517  1.00  0.00    -0.089 C  
ENDROOT
BRANCH   4  11
HETATM   11  C   UNL     1      -9.628   6.699  70.615  1.00  0.00    -0.169 C  
HETATM   12  C   UNL     1     -10.774   6.107  69.802  1.00  0.00    -0.376 C  
HETATM   13  O   UNL     1     -10.166   7.878  71.246  1.00  0.00    -0.186 OA 
HETATM   14  C   UNL     1     -11.527   7.335  69.346  1.00  0.00     0.208 C  
HETATM   15  C   UNL     1     -11.333   8.310  70.511  1.00  0.00    -0.219 C  
BRANCH  14  16
HETATM   16  N   UNL     1     -10.871   7.891  68.144  1.00  0.00    -0.441 NA 
HETATM   17  H   UNL     1     -10.553   8.860  68.102  1.00  0.00     0.000 HD 
BRANCH  16  18
HETATM   18  N   UNL     1     -10.729   7.107  67.188  1.00  0.00    -0.340 NA 
HETATM   19  N   UNL     1     -10.598   6.385  66.317  1.00  0.00    -0.451 NA 
HETATM   20  H1  UNL     1     -10.482   5.742  65.533  1.00  0.00     0.000 HD 
HETATM   21  H2  UNL     1     -10.448   5.622  66.978  1.00  0.00     0.000 HD 
ENDBRANCH  16  18
ENDBRANCH  14  16
BRANCH  15  22
HETATM   22  C   UNL     1     -12.523   8.339  71.475  1.00  0.00    -0.312 C  
HETATM   23  H   UNL     1     -13.699   7.041  72.399  1.00  0.00     0.000 HD 
HETATM   24  O   UNL     1     -12.961   7.023  71.801  1.00  0.00    -0.359 OA 
ENDBRANCH  15  22
ENDBRANCH   4  11
TORSDOF 4
ENDMDL
MODEL      195
REMARK 921   NORMALIZED FREE ENERGY PREDICTED BY IDOCK:   -2.83 KCAL/MOL
REMARK 922        TOTAL FREE ENERGY PREDICTED BY IDOCK:   -4.01 KCAL/MOL
REMARK 923 INTER-LIGAND FREE ENERGY PREDICTED BY IDOCK:   -3.57 KCAL/MOL
REMARK 924 INTRA-LIGAND FREE ENERGY PREDICTED BY IDOCK:   -0.44 KCAL/MOL
REMARK 927      BINDING AFFINITY PREDICTED BY RF-SCORE:    0.00 PKD
ROOT
HETATM    1  C   UNL     1     -10.937  14.695  65.352  1.00  0.00    -0.358 C  
HETATM    2  C   UNL     1     -10.457  13.563  66.199  1.00  0.00    -0.296 C  
HETATM    3  C   UNL     1      -9.743  12.526  65.746  1.00  0.00    -0.187 C  
HETATM    4  N   UNL     1      -9.330  11.485  66.560  1.00  0.00    -0.192 N  
HETATM    5  C   UNL     1      -9.571  11.509  67.929  1.00  0.00    -0.177 C  
HETATM    6  O   UNL     1     -11.478  14.491  68.126  1.00  0.00    -0.282 OA 
HETATM    7  O   UNL     1      -9.188  10.643  68.715  1.00  0.00    -0.164 OA 
HETATM    8  H   UNL     1     -10.472  12.611  69.394  1.00  0.00     0.000 HD 
HETATM    9  N   UNL     1     -10.292  12.576  68.391  1.00  0.00    -0.228 N  
HETATM   10  C   UNL     1     -10.795  13.598  67.640  1.00  0.00    -0.256 C  
ENDROOT
BRANCH   4  11
HETATM   11  C   UNL     1      -8.541  10.367  66.042  1.00  0.00    -0.151 C  
HETATM   12  C   UNL     1      -9.380   9.201  65.531  1.00  0.00    -0.287 C  
HETATM   13  O   UNL     1      -7.728  10.782  64.926  1.00  0.00     0.003 OA 
HETATM   14  C   UNL     1      -8.447   8.523  64.555  1.00  0.00    -0.090 C  
HETATM   15  C   UNL     1      -7.640   9.691  63.982  1.00  0.00    -0.128 C  
BRANCH  14  16
HETATM   16  N   UNL     1      -7.533   7.629  65.295  1.00  0.00    -0.078 NA 
HETATM   17  H   UNL     1      -6.582   7.909  65.536  1.00  0.00     0.000 HD 
BRANCH  16  18
HETATM   18  N   UNL     1      -7.993   6.515  65.607  1.00  0.00    -0.108 NA 
HETATM   19  N   UNL     1      -8.411   5.493  65.888  1.00  0.00    -0.120 NA 
HETATM   20  H1  UNL     1      -8.788   4.580  66.143  1.00  0.00     0.000 HD 
HETATM   21  H2  UNL     1      -7.817   5.061  65.179  1.00  0.00     0.000 HD 
ENDBRANCH  16  18
ENDBRANCH  14  16
BRANCH  15  22
HETATM   22  C   UNL     1      -8.168  10.183  62.631  1.00  0.00    -0.152 C  
HETATM   23  H   UNL     1      -9.419  11.563  61.955  1.00  0.00     0.000 HD 
HETATM   24  O   UNL     1      -9.090  11.258  62.793  1.00  0.00    -0.319 OA 
ENDBRANCH  15  22
ENDBRANCH   4  11
TORSDOF 4
ENDMDL
MODEL      196
REMARK 921   NORMALIZED FREE ENERGY PREDICTED BY IDOCK:   -2.76 KCAL/MOL
REMARK 922        TOTAL FREE ENERGY PREDICTED BY IDOCK:   -3.91 KCAL/MOL
REMARK 923 INTER-LIGAND FREE ENERGY PREDICTED BY IDOCK:   -4.51 KCAL/MOL
REMARK 924 INTRA-LIGAND FREE ENERGY PREDICTED BY IDOCK:    0.60 KCAL/MOL
REMARK 927      BINDING AFFINITY PREDICTED BY RF-SCORE:    0.00 PKD
ROOT
HETATM    1  C   UNL     1     -12.085  13.453  69.440  1.00  0.00    -0.321 C  
HETATM    2  C   UNL     1     -11.535  12.236  68.772  1.00  0.00    -0.360 C  
HETATM    3  C   UNL     1     -11.597  10.999  69.279  1.00  0.00    -0.314 C  
HETATM    4  N   UNL     1     -11.059   9.897  68.635  1.00  0.00    -0.179 N  
HETATM    5  C   UNL     1     -10.491  10.012  67.372  1.00  0.00    -0.260 C  
HETATM    6  O   UNL     1     -10.747  13.521  66.944  1.00  0.00    -0.272 OA 
HETATM    7  O   UNL     1     -10.042   9.066  66.726  1.00  0.00    -0.232 OA 
HETATM    8  H   UNL     1     -10.031  11.376  65.923  1.00  0.00     0.000 HD 
HETATM    9  N   UNL     1     -10.439  11.276  66.853  1.00  0.00    -0.234 N  
HETATM   10  C   UNL     1     -10.880  12.417  67.457  1.00  0.00    -0.236 C  
ENDROOT
BRANCH   4  11
HETATM   11  C   UNL     1     -11.149   8.552  69.206  1.00  0.00     0.150 C  
HETATM   12  C   UNL     1      -9.798   7.875  69.411  1.00  0.00    -0.180 C  
HETATM   13  O   UNL     1     -11.772   8.583  70.506  1.00  0.00    -0.207 OA 
HETATM   14  C   UNL     1     -10.093   6.868  70.498  1.00  0.00    -0.187 C  
HETATM   15  C   UNL     1     -11.161   7.573  71.340  1.00  0.00    -0.238 C  
BRANCH  14  16
HETATM   16  N   UNL     1     -10.686   5.656  69.894  1.00  0.00    -0.331 NA 
HETATM   17  H   UNL     1     -11.056   4.894  70.462  1.00  0.00     0.000 HD 
BRANCH  16  18
HETATM   18  N   UNL     1     -10.707   5.623  68.650  1.00  0.00    -0.214 NA 
HETATM   19  N   UNL     1     -10.730   5.596  67.511  1.00  0.00    -0.228 NA 
HETATM   20  H1  UNL     1     -10.747   5.568  66.491  1.00  0.00     0.000 HD 
HETATM   21  H2  UNL     1     -11.475   6.292  67.514  1.00  0.00     0.000 HD 
ENDBRANCH  16  18
ENDBRANCH  14  16
BRANCH  15  22
HETATM   22  C   UNL     1     -10.590   8.260  72.584  1.00  0.00    -0.308 C  
HETATM   23  H   UNL     1     -10.172   7.789  74.462  1.00  0.00     0.000 HD 
HETATM   24  O   UNL     1     -10.526   7.363  73.690  1.00  0.00    -0.360 OA 
ENDBRANCH  15  22
ENDBRANCH   4  11
TORSDOF 4
ENDMDL
MODEL      197
REMARK 921   NORMALIZED FREE ENERGY PREDICTED BY IDOCK:   -2.67 KCAL/MOL
REMARK 922        TOTAL FREE ENERGY PREDICTED BY IDOCK:   -3.81 KCAL/MOL
REMARK 923 INTER-LIGAND FREE ENERGY PREDICTED BY IDOCK:   -4.01 KCAL/MOL
REMARK 924 INTRA-LIGAND FREE ENERGY PREDICTED BY IDOCK:    0.20 KCAL/MOL
REMARK 927      BINDING AFFINITY PREDICTED BY RF-SCORE:    0.00 PKD
ROOT
HETATM    1  C   UNL     1      -5.706  15.154  70.553  1.00  0.00    -0.125 C  
HETATM    2  C   UNL     1      -6.524  15.543  69.366  1.00  0.00    -0.151 C  
HETATM    3  C   UNL     1      -7.078  14.676  68.510  1.00  0.00    -0.112 C  
HETATM    4  N   UNL     1      -7.817  15.076  67.410  1.00  0.00    -0.186 N  
HETATM    5  C   UNL     1      -8.092  16.419  67.183  1.00  0.00    -0.181 C  
HETATM    6  O   UNL     1      -6.230  17.846  69.840  1.00  0.00    -0.213 OA 
HETATM    7  O   UNL     1      -8.783  16.837  66.254  1.00  0.00    -0.284 OA 
HETATM    8  H   UNL     1      -7.732  18.291  67.916  1.00  0.00     0.000 HD 
HETATM    9  N   UNL     1      -7.533  17.302  68.065  1.00  0.00    -0.189 N  
HETATM   10  C   UNL     1      -6.736  16.988  69.126  1.00  0.00    -0.241 C  
ENDROOT
BRANCH   4  11
HETATM   11  C   UNL     1      -8.422  14.107  66.494  1.00  0.00     0.286 C  
HETATM   12  C   UNL     1      -8.587  12.713  67.089  1.00  0.00    -0.199 C  
HETATM   13  O   UNL     1      -9.745  14.524  66.101  1.00  0.00    -0.294 OA 
HETATM   14  C   UNL     1      -9.709  12.130  66.261  1.00  0.00    -0.238 C  
HETATM   15  C   UNL     1     -10.577  13.352  65.947  1.00  0.00    -0.283 C  
BRANCH  14  16
HETATM   16  N   UNL     1      -9.157  11.600  64.996  1.00  0.00    -0.412 NA 
HETATM   17  H   UNL     1      -8.206  11.807  64.693  1.00  0.00     0.000 HD 
BRANCH  16  18
HETATM   18  N   UNL     1      -9.924  10.884  64.325  1.00  0.00    -0.304 NA 
HETATM   19  N   UNL     1     -10.621  10.227  63.709  1.00  0.00    -0.194 NA 
HETATM   20  H1  UNL     1     -11.249   9.641  63.159  1.00  0.00     0.000 HD 
HETATM   21  H2  UNL     1      -9.821   9.668  63.410  1.00  0.00     0.000 HD 
ENDBRANCH  16  18
ENDBRANCH  14  16
BRANCH  15  22
HETATM   22  C   UNL     1     -11.780  13.493  66.884  1.00  0.00    -0.384 C  
HETATM   23  H   UNL     1     -13.667  14.088  66.774  1.00  0.00     0.000 HD 
HETATM   24  O   UNL     1     -12.920  14.000  66.194  1.00  0.00    -0.302 OA 
ENDBRANCH  15  22
ENDBRANCH   4  11
TORSDOF 4
ENDMDL
MODEL      198
REMARK 921   NORMALIZED FREE ENERGY PREDICTED BY IDOCK:   -2.64 KCAL/MOL
REMARK 922        TOTAL FREE ENERGY PREDICTED BY IDOCK:   -3.77 KCAL/MOL
REMARK 923 INTER-LIGAND FREE ENERGY PREDICTED BY IDOCK:   -4.27 KCAL/MOL
REMARK 924 INTRA-LIGAND FREE ENERGY PREDICTED BY IDOCK:    0.50 KCAL/MOL
REMARK 927      BINDING AFFINITY PREDICTED BY RF-SCORE:    0.00 PKD
ROOT
HETATM    1  C   UNL     1     -11.573  14.859  68.980  1.00  0.00    -0.330 C  
HETATM    2  C   UNL     1     -11.593  13.481  69.553  1.00  0.00    -0.355 C  
HETATM    3  C   UNL     1     -10.884  12.450  69.077  1.00  0.00    -0.148 C  
HETATM    4  N   UNL     1     -10.942  11.181  69.626  1.00  0.00    -0.227 N  
HETATM    5  C   UNL     1     -11.692  10.930  70.770  1.00  0.00    -0.252 C  
HETATM    6  O   UNL     1     -13.167  14.123  71.204  1.00  0.00    -0.339 OA 
HETATM    7  O   UNL     1     -11.746   9.839  71.336  1.00  0.00    -0.365 OA 
HETATM    8  H   UNL     1     -12.956  11.821  72.103  1.00  0.00     0.000 HD 
HETATM    9  N   UNL     1     -12.407  11.988  71.260  1.00  0.00    -0.193 N  
HETATM   10  C   UNL     1     -12.457  13.244  70.732  1.00  0.00    -0.324 C  
ENDROOT
BRANCH   4  11
HETATM   11  C   UNL     1     -10.148  10.073  69.093  1.00  0.00    -0.208 C  
HETATM   12  C   UNL     1      -8.864   9.803  69.868  1.00  0.00    -0.248 C  
HETATM   13  O   UNL     1     -10.894   8.839  69.129  1.00  0.00    -0.173 OA 
HETATM   14  C   UNL     1      -8.581   8.353  69.547  1.00  0.00    -0.129 C  
HETATM   15  C   UNL     1      -9.982   7.752  69.407  1.00  0.00    -0.188 C  
BRANCH  14  16
HETATM   16  N   UNL     1      -7.893   8.267  68.242  1.00  0.00    -0.116 NA 
HETATM   17  H   UNL     1      -8.228   7.662  67.493  1.00  0.00     0.000 HD 
BRANCH  16  18
HETATM   18  N   UNL     1      -6.880   8.979  68.113  1.00  0.00    -0.068 NA 
HETATM   19  N   UNL     1      -5.955   9.634  67.996  1.00  0.00    -0.043 NA 
HETATM   20  H1  UNL     1      -5.125  10.217  67.889  1.00  0.00     0.000 HD 
HETATM   21  H2  UNL     1      -6.479  10.430  68.361  1.00  0.00     0.000 HD 
ENDBRANCH  16  18
ENDBRANCH  14  16
BRANCH  15  22
HETATM   22  C   UNL     1     -10.461   7.039  70.676  1.00  0.00    -0.210 C  
HETATM   23  H   UNL     1     -12.177   6.464  71.480  1.00  0.00     0.000 HD 
HETATM   24  O   UNL     1     -11.880   6.906  70.693  1.00  0.00    -0.358 OA 
ENDBRANCH  15  22
ENDBRANCH   4  11
TORSDOF 4
ENDMDL
MODEL      199
REMARK 921   NORMALIZED FREE ENERGY PREDICTED BY IDOCK:   -2.64 KCAL/MOL
REMARK 922        TOTAL FREE ENERGY PREDICTED BY IDOCK:   -3.77 KCAL/MOL
REMARK 923 INTER-LIGAND FREE ENERGY PREDICTED BY IDOCK:   -4.01 KCAL/MOL
REMARK 924 INTRA-LIGAND FREE ENERGY PREDICTED BY IDOCK:    0.24 KCAL/MOL
REMARK 927      BINDING AFFINITY PREDICTED BY RF-SCORE:    0.00 PKD
ROOT
HETATM    1  C   UNL     1     -10.710   2.587  63.334  1.00  0.00    -0.216 C  
HETATM    2  C   UNL     1     -10.103   3.696  64.128  1.00  0.00    -0.212 C  
HETATM    3  C   UNL     1     -10.703   4.312  65.153  1.00  0.00    -0.105 C  
HETATM    4  N   UNL     1     -10.113   5.349  65.855  1.00  0.00    -0.060 N  
HETATM    5  C   UNL     1      -8.813   5.753  65.576  1.00  0.00    -0.113 C  
HETATM    6  O   UNL     1      -8.140   3.653  62.802  1.00  0.00    -0.070 OA 
HETATM    7  O   UNL     1      -8.214   6.633  66.194  1.00  0.00    -0.113 OA 
HETATM    8  H   UNL     1      -7.241   5.396  64.322  1.00  0.00     0.000 HD 
HETATM    9  N   UNL     1      -8.199   5.114  64.535  1.00  0.00    -0.127 N  
HETATM   10  C   UNL     1      -8.741   4.138  63.752  1.00  0.00    -0.119 C  
ENDROOT
BRANCH   4  11
HETATM   11  C   UNL     1     -10.787   5.999  66.980  1.00  0.00    -0.331 C  
HETATM   12  C   UNL     1     -10.071   5.825  68.315  1.00  0.00    -0.208 C  
HETATM   13  O   UNL     1     -10.883   7.423  66.772  1.00  0.00    -0.303 OA 
HETATM   14  C   UNL     1     -10.565   7.009  69.114  1.00  0.00    -0.219 C  
HETATM   15  C   UNL     1     -10.750   8.091  68.046  1.00  0.00    -0.047 C  
BRANCH  14  16
HETATM   16  N   UNL     1     -11.882   6.687  69.700  1.00  0.00    -0.646 NA 
HETATM   17  H   UNL     1     -12.698   6.489  69.121  1.00  0.00     0.000 HD 
BRANCH  16  18
HETATM   18  N   UNL     1     -11.936   6.671  70.944  1.00  0.00    -0.378 NA 
HETATM   19  N   UNL     1     -11.986   6.652  72.082  1.00  0.00    -0.416 NA 
HETATM   20  H1  UNL     1     -12.030   6.639  73.101  1.00  0.00     0.000 HD 
HETATM   21  H2  UNL     1     -12.021   5.632  72.058  1.00  0.00     0.000 HD 
ENDBRANCH  16  18
ENDBRANCH  14  16
BRANCH  15  22
HETATM   22  C   UNL     1      -9.567   9.060  67.958  1.00  0.00    -0.148 C  
HETATM   23  H   UNL     1      -9.232  10.922  67.372  1.00  0.00     0.000 HD 
HETATM   24  O   UNL     1      -9.966  10.321  67.427  1.00  0.00    -0.176 OA 
ENDBRANCH  15  22
ENDBRANCH   4  11
TORSDOF 4
ENDMDL
MODEL      200
REMARK 921   NORMALIZED FREE ENERGY PREDICTED BY IDOCK:   -2.62 KCAL/MOL
REMARK 922        TOTAL FREE ENERGY PREDICTED BY IDOCK:   -3.75 KCAL/MOL
REMARK 923 INTER-LIGAND FREE ENERGY PREDICTED BY IDOCK:   -3.34 KCAL/MOL
REMARK 924 INTRA-LIGAND FREE ENERGY PREDICTED BY IDOCK:   -0.41 KCAL/MOL
REMARK 927      BINDING AFFINITY PREDICTED BY RF-SCORE:    0.00 PKD
ROOT
HETATM    1  C   UNL     1      -7.133   8.288  65.018  1.00  0.00    -0.075 C  
HETATM    2  C   UNL     1      -7.953   7.507  65.992  1.00  0.00    -0.113 C  
HETATM    3  C   UNL     1      -8.634   8.043  67.012  1.00  0.00    -0.127 C  
HETATM    4  N   UNL     1      -9.369   7.283  67.905  1.00  0.00    -0.130 N  
HETATM    5  C   UNL     1      -9.505   5.910  67.734  1.00  0.00    -0.113 C  
HETATM    6  O   UNL     1      -7.388   5.468  64.926  1.00  0.00    -0.064 OA 
HETATM    7  O   UNL     1     -10.184   5.185  68.461  1.00  0.00    -0.164 OA 
HETATM    8  H   UNL     1      -8.911   4.362  66.542  1.00  0.00     0.000 HD 
HETATM    9  N   UNL     1      -8.816   5.367  66.685  1.00  0.00    -0.114 N  
HETATM   10  C   UNL     1      -8.014   6.039  65.810  1.00  0.00    -0.113 C  
ENDROOT
BRANCH   4  11
HETATM   11  C   UNL     1     -10.115   7.894  69.007  1.00  0.00    -0.200 C  
HETATM   12  C   UNL     1      -9.244   8.305  70.189  1.00  0.00    -0.155 C  
HETATM   13  O   UNL     1     -10.780   9.098  68.575  1.00  0.00    -0.196 OA 
HETATM   14  C   UNL     1     -10.069   9.387  70.849  1.00  0.00    -0.296 C  
HETATM   15  C   UNL     1     -10.778  10.049  69.663  1.00  0.00    -0.255 C  
BRANCH  14  16
HETATM   16  N   UNL     1     -11.083   8.762  71.723  1.00  0.00    -0.322 NA 
HETATM   17  H   UNL     1     -12.078   8.791  71.502  1.00  0.00     0.000 HD 
BRANCH  16  18
HETATM   18  N   UNL     1     -10.649   8.200  72.746  1.00  0.00    -0.342 NA 
HETATM   19  N   UNL     1     -10.251   7.681  73.678  1.00  0.00    -0.340 NA 
HETATM   20  H1  UNL     1      -9.896   7.220  74.516  1.00  0.00     0.000 HD 
HETATM   21  H2  UNL     1     -10.033   6.856  73.120  1.00  0.00     0.000 HD 
ENDBRANCH  16  18
ENDBRANCH  14  16
BRANCH  15  22
HETATM   22  C   UNL     1     -10.083  11.326  69.183  1.00  0.00    -0.069 C  
HETATM   23  H   UNL     1      -8.606  11.826  67.960  1.00  0.00     0.000 HD 
HETATM   24  O   UNL     1      -9.038  11.033  68.259  1.00  0.00    -0.145 OA 
ENDBRANCH  15  22
ENDBRANCH   4  11
TORSDOF 4
ENDMDL
MODEL      201
REMARK 921   NORMALIZED FREE ENERGY PREDICTED BY IDOCK:   -2.59 KCAL/MOL
REMARK 922        TOTAL FREE ENERGY PREDICTED BY IDOCK:   -3.71 KCAL/MOL
REMARK 923 INTER-LIGAND FREE ENERGY PREDICTED BY IDOCK:   -4.85 KCAL/MOL
REMARK 924 INTRA-LIGAND FREE ENERGY PREDICTED BY IDOCK:    1.14 KCAL/MOL
REMARK 927      BINDING AFFINITY PREDICTED BY RF-SCORE:    0.00 PKD
ROOT
HETATM    1  C   UNL     1      -7.312  17.306  67.950  1.00  0.00    -0.189 C  
HETATM    2  C   UNL     1      -7.531  15.848  67.712  1.00  0.00    -0.157 C  
HETATM    3  C   UNL     1      -8.676  15.315  67.272  1.00  0.00    -0.197 C  
HETATM    4  N   UNL     1      -8.845  13.954  67.080  1.00  0.00    -0.227 N  
HETATM    5  C   UNL     1      -7.789  13.069  67.260  1.00  0.00    -0.127 C  
HETATM    6  O   UNL     1      -5.328  15.339  68.423  1.00  0.00    -0.093 OA 
HETATM    7  O   UNL     1      -7.859  11.857  67.058  1.00  0.00    -0.158 OA 
HETATM    8  H   UNL     1      -5.830  12.983  67.831  1.00  0.00     0.000 HD 
HETATM    9  N   UNL     1      -6.616  13.619  67.700  1.00  0.00    -0.169 N  
HETATM   10  C   UNL     1      -6.397  14.935  67.981  1.00  0.00    -0.152 C  
ENDROOT
BRANCH   4  11
HETATM   11  C   UNL     1     -10.106  13.396  66.587  1.00  0.00    -0.275 C  
HETATM   12  C   UNL     1      -9.931  12.211  65.643  1.00  0.00    -0.271 C  
HETATM   13  O   UNL     1     -10.916  12.911  67.676  1.00  0.00    -0.236 OA 
HETATM   14  C   UNL     1     -11.249  11.483  65.776  1.00  0.00    -0.164 C  
HETATM   15  C   UNL     1     -11.637  11.738  67.235  1.00  0.00    -0.269 C  
BRANCH  14  16
HETATM   16  N   UNL     1     -12.250  12.124  64.898  1.00  0.00    -0.392 NA 
HETATM   17  H   UNL     1     -12.514  11.724  63.997  1.00  0.00     0.000 HD 
BRANCH  16  18
HETATM   18  N   UNL     1     -12.753  13.179  65.325  1.00  0.00    -0.613 NA 
HETATM   19  N   UNL     1     -13.219  14.144  65.714  1.00  0.00    -0.625 NA 
HETATM   20  H1  UNL     1     -13.631  15.009  66.063  1.00  0.00     0.000 HD 
HETATM   21  H2  UNL     1     -14.142  13.796  65.456  1.00  0.00     0.000 HD 
ENDBRANCH  16  18
ENDBRANCH  14  16
BRANCH  15  22
HETATM   22  C   UNL     1     -11.275  10.576  68.166  1.00  0.00    -0.293 C  
HETATM   23  H   UNL     1     -10.805  10.310  70.072  1.00  0.00     0.000 HD 
HETATM   24  O   UNL     1     -11.029  11.031  69.494  1.00  0.00    -0.241 OA 
ENDBRANCH  15  22
ENDBRANCH   4  11
TORSDOF 4
ENDMDL
MODEL      202
REMARK 921   NORMALIZED FREE ENERGY PREDICTED BY IDOCK:   -2.57 KCAL/MOL
REMARK 922        TOTAL FREE ENERGY PREDICTED BY IDOCK:   -3.68 KCAL/MOL
REMARK 923 INTER-LIGAND FREE ENERGY PREDICTED BY IDOCK:   -3.44 KCAL/MOL
REMARK 924 INTRA-LIGAND FREE ENERGY PREDICTED BY IDOCK:   -0.23 KCAL/MOL
REMARK 927      BINDING AFFINITY PREDICTED BY RF-SCORE:    0.00 PKD
ROOT
HETATM    1  C   UNL     1      -8.332   8.193  72.473  1.00  0.00    -0.230 C  
HETATM    2  C   UNL     1      -7.701   9.038  71.416  1.00  0.00    -0.081 C  
HETATM    3  C   UNL     1      -8.270   9.333  70.240  1.00  0.00    -0.172 C  
HETATM    4  N   UNL     1      -7.645  10.107  69.277  1.00  0.00    -0.104 N  
HETATM    5  C   UNL     1      -6.408  10.692  69.522  1.00  0.00    -0.070 C  
HETATM    6  O   UNL     1      -5.750   9.331  72.728  1.00  0.00    -0.206 OA 
HETATM    7  O   UNL     1      -5.823  11.430  68.730  1.00  0.00    -0.043 OA 
HETATM    8  H   UNL     1      -4.930  10.825  70.925  1.00  0.00     0.000 HD 
HETATM    9  N   UNL     1      -5.835  10.397  70.728  1.00  0.00    -0.100 N  
HETATM   10  C   UNL     1      -6.355   9.586  71.694  1.00  0.00     0.126 C  
ENDROOT
BRANCH   4  11
HETATM   11  C   UNL     1      -8.293  10.424  68.004  1.00  0.00    -0.118 C  
HETATM   12  C   UNL     1      -9.322   9.391  67.559  1.00  0.00    -0.147 C  
HETATM   13  O   UNL     1      -9.004  11.675  68.084  1.00  0.00    -0.168 OA 
HETATM   14  C   UNL     1     -10.220  10.190  66.644  1.00  0.00    -0.224 C  
HETATM   15  C   UNL     1     -10.196  11.587  67.272  1.00  0.00    -0.202 C  
BRANCH  14  16
HETATM   16  N   UNL     1      -9.609  10.261  65.300  1.00  0.00    -0.241 NA 
HETATM   17  H   UNL     1      -9.065   9.490  64.913  1.00  0.00     0.000 HD 
BRANCH  16  18
HETATM   18  N   UNL     1      -9.799  11.318  64.670  1.00  0.00    -0.253 NA 
HETATM   19  N   UNL     1      -9.971  12.288  64.097  1.00  0.00    -0.520 NA 
HETATM   20  H1  UNL     1     -10.127  13.153  63.581  1.00  0.00     0.000 HD 
HETATM   21  H2  UNL     1      -9.481  12.801  64.831  1.00  0.00     0.000 HD 
ENDBRANCH  16  18
ENDBRANCH  14  16
BRANCH  15  22
HETATM   22  C   UNL     1     -11.408  11.865  68.166  1.00  0.00    -0.288 C  
HETATM   23  H   UNL     1     -12.733  10.828  69.212  1.00  0.00     0.000 HD 
HETATM   24  O   UNL     1     -11.981  10.656  68.657  1.00  0.00    -0.401 OA 
ENDBRANCH  15  22
ENDBRANCH   4  11
TORSDOF 4
ENDMDL
MODEL      203
REMARK 921   NORMALIZED FREE ENERGY PREDICTED BY IDOCK:   -2.54 KCAL/MOL
REMARK 922        TOTAL FREE ENERGY PREDICTED BY IDOCK:   -3.64 KCAL/MOL
REMARK 923 INTER-LIGAND FREE ENERGY PREDICTED BY IDOCK:   -3.51 KCAL/MOL
REMARK 924 INTRA-LIGAND FREE ENERGY PREDICTED BY IDOCK:   -0.13 KCAL/MOL
REMARK 927      BINDING AFFINITY PREDICTED BY RF-SCORE:    0.00 PKD
ROOT
HETATM    1  C   UNL     1      -7.876   6.831  68.778  1.00  0.00    -0.111 C  
HETATM    2  C   UNL     1      -8.810   7.931  69.164  1.00  0.00    -0.142 C  
HETATM    3  C   UNL     1      -8.678   9.207  68.783  1.00  0.00    -0.132 C  
HETATM    4  N   UNL     1      -9.556  10.202  69.176  1.00  0.00    -0.201 N  
HETATM    5  C   UNL     1     -10.683   9.904  69.933  1.00  0.00    -0.280 C  
HETATM    6  O   UNL     1     -10.130   6.441  70.450  1.00  0.00    -0.181 OA 
HETATM    7  O   UNL     1     -11.528  10.732  70.273  1.00  0.00    -0.293 OA 
HETATM    8  H   UNL     1     -11.646   8.361  70.862  1.00  0.00     0.000 HD 
HETATM    9  N   UNL     1     -10.820   8.597  70.312  1.00  0.00    -0.234 N  
HETATM   10  C   UNL     1      -9.960   7.578  70.026  1.00  0.00    -0.186 C  
ENDROOT
BRANCH   4  11
HETATM   11  C   UNL     1      -9.395  11.589  68.737  1.00  0.00    -0.079 C  
HETATM   12  C   UNL     1      -8.061  11.872  68.057  1.00  0.00    -0.151 C  
HETATM   13  O   UNL     1     -10.408  11.946  67.775  1.00  0.00    -0.192 OA 
HETATM   14  C   UNL     1      -8.371  13.082  67.205  1.00  0.00    -0.185 C  
HETATM   15  C   UNL     1      -9.834  12.858  66.810  1.00  0.00    -0.241 C  
BRANCH  14  16
HETATM   16  N   UNL     1      -8.284  14.300  68.038  1.00  0.00    -0.141 NA 
HETATM   17  H   UNL     1      -8.770  14.380  68.931  1.00  0.00     0.000 HD 
BRANCH  16  18
HETATM   18  N   UNL     1      -7.580  15.221  67.583  1.00  0.00    -0.155 NA 
HETATM   19  N   UNL     1      -6.940  16.068  67.170  1.00  0.00    -0.208 NA 
HETATM   20  H1  UNL     1      -6.364  16.822  66.797  1.00  0.00     0.000 HD 
HETATM   21  H2  UNL     1      -7.588  16.746  67.571  1.00  0.00     0.000 HD 
ENDBRANCH  16  18
ENDBRANCH  14  16
BRANCH  15  22
HETATM   22  C   UNL     1      -9.994  12.243  65.417  1.00  0.00    -0.244 C  
HETATM   23  H   UNL     1      -9.105  10.863  64.308  1.00  0.00     0.000 HD 
HETATM   24  O   UNL     1      -9.006  11.244  65.172  1.00  0.00    -0.152 OA 
ENDBRANCH  15  22
ENDBRANCH   4  11
TORSDOF 4
ENDMDL
MODEL      204
REMARK 921   NORMALIZED FREE ENERGY PREDICTED BY IDOCK:   -2.53 KCAL/MOL
REMARK 922        TOTAL FREE ENERGY PREDICTED BY IDOCK:   -3.63 KCAL/MOL
REMARK 923 INTER-LIGAND FREE ENERGY PREDICTED BY IDOCK:   -3.20 KCAL/MOL
REMARK 924 INTRA-LIGAND FREE ENERGY PREDICTED BY IDOCK:   -0.43 KCAL/MOL
REMARK 927      BINDING AFFINITY PREDICTED BY RF-SCORE:    0.00 PKD
ROOT
HETATM    1  C   UNL     1      -9.254   3.312  64.662  1.00  0.00    -0.141 C  
HETATM    2  C   UNL     1      -8.918   4.762  64.773  1.00  0.00    -0.146 C  
HETATM    3  C   UNL     1      -9.218   5.532  65.826  1.00  0.00    -0.120 C  
HETATM    4  N   UNL     1      -8.904   6.879  65.884  1.00  0.00    -0.139 N  
HETATM    5  C   UNL     1      -8.177   7.489  64.869  1.00  0.00    -0.083 C  
HETATM    6  O   UNL     1      -7.925   4.760  62.621  1.00  0.00    -0.065 OA 
HETATM    7  O   UNL     1      -7.823   8.668  64.883  1.00  0.00    -0.103 OA 
HETATM    8  H   UNL     1      -7.324   7.129  63.049  1.00  0.00     0.000 HD 
HETATM    9  N   UNL     1      -7.863   6.697  63.799  1.00  0.00    -0.117 N  
HETATM   10  C   UNL     1      -8.201   5.385  63.638  1.00  0.00    -0.121 C  
ENDROOT
BRANCH   4  11
HETATM   11  C   UNL     1      -9.234   7.697  67.052  1.00  0.00    -0.138 C  
HETATM   12  C   UNL     1     -10.607   8.356  66.978  1.00  0.00    -0.316 C  
HETATM   13  O   UNL     1      -9.247   6.901  68.254  1.00  0.00    -0.126 OA 
HETATM   14  C   UNL     1     -10.942   8.591  68.433  1.00  0.00     0.202 C  
HETATM   15  C   UNL     1     -10.277   7.402  69.135  1.00  0.00    -0.196 C  
BRANCH  14  16
HETATM   16  N   UNL     1     -10.292   9.837  68.889  1.00  0.00    -0.201 NA 
HETATM   17  H   UNL     1      -9.347  10.090  68.602  1.00  0.00     0.000 HD 
BRANCH  16  18
HETATM   18  N   UNL     1     -10.969  10.560  69.643  1.00  0.00    -0.264 NA 
HETATM   19  N   UNL     1     -11.589  11.226  70.329  1.00  0.00    -0.445 NA 
HETATM   20  H1  UNL     1     -12.144  11.818  70.947  1.00  0.00     0.000 HD 
HETATM   21  H2  UNL     1     -11.771  11.855  69.546  1.00  0.00     0.000 HD 
ENDBRANCH  16  18
ENDBRANCH  14  16
BRANCH  15  22
HETATM   22  C   UNL     1     -11.251   6.258  69.434  1.00  0.00    -0.420 C  
HETATM   23  H   UNL     1     -11.585   4.954  70.887  1.00  0.00     0.000 HD 
HETATM   24  O   UNL     1     -10.982   5.664  70.701  1.00  0.00    -0.262 OA 
ENDBRANCH  15  22
ENDBRANCH   4  11
TORSDOF 4
ENDMDL
MODEL      205
REMARK 921   NORMALIZED FREE ENERGY PREDICTED BY IDOCK:   -2.51 KCAL/MOL
REMARK 922        TOTAL FREE ENERGY PREDICTED BY IDOCK:   -3.61 KCAL/MOL
REMARK 923 INTER-LIGAND FREE ENERGY PREDICTED BY IDOCK:   -4.20 KCAL/MOL
REMARK 924 INTRA-LIGAND FREE ENERGY PREDICTED BY IDOCK:    0.59 KCAL/MOL
REMARK 927      BINDING AFFINITY PREDICTED BY RF-SCORE:    0.00 PKD
ROOT
HETATM    1  C   UNL     1      -9.287   3.436  70.361  1.00  0.00    -0.240 C  
HETATM    2  C   UNL     1      -9.774   4.724  70.937  1.00  0.00    -0.260 C  
HETATM    3  C   UNL     1      -9.685   5.911  70.325  1.00  0.00    -0.169 C  
HETATM    4  N   UNL     1     -10.134   7.088  70.901  1.00  0.00    -0.193 N  
HETATM    5  C   UNL     1     -10.783   7.081  72.130  1.00  0.00    -0.218 C  
HETATM    6  O   UNL     1     -10.484   3.639  72.921  1.00  0.00    -0.161 OA 
HETATM    7  O   UNL     1     -11.249   8.083  72.672  1.00  0.00    -0.358 OA 
HETATM    8  H   UNL     1     -11.362   5.843  73.647  1.00  0.00     0.000 HD 
HETATM    9  N   UNL     1     -10.881   5.865  72.747  1.00  0.00    -0.237 N  
HETATM   10  C   UNL     1     -10.400   4.679  72.278  1.00  0.00    -0.185 C  
ENDROOT
BRANCH   4  11
HETATM   11  C   UNL     1     -10.035   8.373  70.206  1.00  0.00    -0.186 C  
HETATM   12  C   UNL     1     -10.862   8.450  68.927  1.00  0.00     0.002 C  
HETATM   13  O   UNL     1     -10.505   9.449  71.041  1.00  0.00    -0.283 OA 
HETATM   14  C   UNL     1     -11.081   9.936  68.763  1.00  0.00    -0.135 C  
HETATM   15  C   UNL     1     -11.157  10.435  70.209  1.00  0.00    -0.307 C  
BRANCH  14  16
HETATM   16  N   UNL     1      -9.896  10.535  68.114  1.00  0.00    -0.150 NA 
HETATM   17  H   UNL     1      -9.141   9.964  67.735  1.00  0.00     0.000 HD 
BRANCH  16  18
HETATM   18  N   UNL     1      -9.876  11.779  68.058  1.00  0.00    -0.178 NA 
HETATM   19  N   UNL     1      -9.853  12.916  68.003  1.00  0.00    -0.218 NA 
HETATM   20  H1  UNL     1      -9.836  13.935  67.958  1.00  0.00     0.000 HD 
HETATM   21  H2  UNL     1      -9.123  12.862  67.292  1.00  0.00     0.000 HD 
ENDBRANCH  16  18
ENDBRANCH  14  16
BRANCH  15  22
HETATM   22  C   UNL     1     -12.594  10.610  70.710  1.00  0.00    -0.386 C  
HETATM   23  H   UNL     1     -13.572  11.749  72.002  1.00  0.00     0.000 HD 
HETATM   24  O   UNL     1     -12.681  11.640  71.691  1.00  0.00    -0.340 OA 
ENDBRANCH  15  22
ENDBRANCH   4  11
TORSDOF 4
ENDMDL
MODEL      206
REMARK 921   NORMALIZED FREE ENERGY PREDICTED BY IDOCK:   -2.49 KCAL/MOL
REMARK 922        TOTAL FREE ENERGY PREDICTED BY IDOCK:   -3.58 KCAL/MOL
REMARK 923 INTER-LIGAND FREE ENERGY PREDICTED BY IDOCK:   -3.75 KCAL/MOL
REMARK 924 INTRA-LIGAND FREE ENERGY PREDICTED BY IDOCK:    0.17 KCAL/MOL
REMARK 927      BINDING AFFINITY PREDICTED BY RF-SCORE:    0.00 PKD
ROOT
HETATM    1  C   UNL     1      -8.989   3.175  64.955  1.00  0.00    -0.139 C  
HETATM    2  C   UNL     1      -8.685   4.325  65.856  1.00  0.00    -0.115 C  
HETATM    3  C   UNL     1      -9.594   4.968  66.599  1.00  0.00    -0.158 C  
HETATM    4  N   UNL     1      -9.276   6.043  67.411  1.00  0.00    -0.110 N  
HETATM    5  C   UNL     1      -7.959   6.463  67.559  1.00  0.00    -0.116 C  
HETATM    6  O   UNL     1      -6.394   4.272  65.254  1.00  0.00    -0.033 OA 
HETATM    7  O   UNL     1      -7.603   7.378  68.301  1.00  0.00    -0.109 OA 
HETATM    8  H   UNL     1      -6.059   6.090  66.909  1.00  0.00     0.000 HD 
HETATM    9  N   UNL     1      -7.031   5.797  66.806  1.00  0.00    -0.063 N  
HETATM   10  C   UNL     1      -7.279   4.781  65.932  1.00  0.00    -0.076 C  
ENDROOT
BRANCH   4  11
HETATM   11  C   UNL     1     -10.287   6.723  68.222  1.00  0.00    -0.187 C  
HETATM   12  C   UNL     1     -10.011   6.678  69.721  1.00  0.00    -0.189 C  
HETATM   13  O   UNL     1     -10.368   8.121  67.882  1.00  0.00    -0.210 OA 
HETATM   14  C   UNL     1     -10.771   7.879  70.235  1.00  0.00    -0.236 C  
HETATM   15  C   UNL     1     -10.660   8.877  69.079  1.00  0.00    -0.183 C  
BRANCH  14  16
HETATM   16  N   UNL     1     -12.192   7.516  70.417  1.00  0.00    -0.507 NA 
HETATM   17  H   UNL     1     -12.911   7.797  69.750  1.00  0.00     0.000 HD 
BRANCH  16  18
HETATM   18  N   UNL     1     -12.458   6.846  71.432  1.00  0.00    -0.372 NA 
HETATM   19  N   UNL     1     -12.700   6.238  72.364  1.00  0.00    -0.516 NA 
HETATM   20  H1  UNL     1     -12.918   5.689  73.196  1.00  0.00     0.000 HD 
HETATM   21  H2  UNL     1     -12.522   7.060  72.941  1.00  0.00     0.000 HD 
ENDBRANCH  16  18
ENDBRANCH  14  16
BRANCH  15  22
HETATM   22  C   UNL     1      -9.544   9.908  69.278  1.00  0.00    -0.205 C  
HETATM   23  H   UNL     1      -8.106  10.283  70.588  1.00  0.00     0.000 HD 
HETATM   24  O   UNL     1      -8.798   9.644  70.464  1.00  0.00    -0.225 OA 
ENDBRANCH  15  22
ENDBRANCH   4  11
TORSDOF 4
ENDMDL
MODEL      207
REMARK 921   NORMALIZED FREE ENERGY PREDICTED BY IDOCK:   -2.47 KCAL/MOL
REMARK 922        TOTAL FREE ENERGY PREDICTED BY IDOCK:   -3.55 KCAL/MOL
REMARK 923 INTER-LIGAND FREE ENERGY PREDICTED BY IDOCK:   -3.07 KCAL/MOL
REMARK 924 INTRA-LIGAND FREE ENERGY PREDICTED BY IDOCK:   -0.49 KCAL/MOL
REMARK 927      BINDING AFFINITY PREDICTED BY RF-SCORE:    0.00 PKD
ROOT
HETATM    1  C   UNL     1     -10.055   9.991  65.500  1.00  0.00    -0.325 C  
HETATM    2  C   UNL     1      -9.051   9.090  66.139  1.00  0.00    -0.246 C  
HETATM    3  C   UNL     1      -9.330   8.210  67.108  1.00  0.00    -0.145 C  
HETATM    4  N   UNL     1      -8.367   7.402  67.688  1.00  0.00    -0.117 N  
HETATM    5  C   UNL     1      -7.055   7.409  67.228  1.00  0.00    -0.084 C  
HETATM    6  O   UNL     1      -7.308   9.986  64.807  1.00  0.00    -0.135 OA 
HETATM    7  O   UNL     1      -6.164   6.682  67.665  1.00  0.00    -0.032 OA 
HETATM    8  H   UNL     1      -5.819   8.315  65.878  1.00  0.00     0.000 HD 
HETATM    9  N   UNL     1      -6.776   8.303  66.231  1.00  0.00    -0.057 N  
HETATM   10  C   UNL     1      -7.653   9.179  65.662  1.00  0.00    -0.094 C  
ENDROOT
BRANCH   4  11
HETATM   11  C   UNL     1      -8.700   6.439  68.739  1.00  0.00    -0.122 C  
HETATM   12  C   UNL     1      -8.482   6.967  70.153  1.00  0.00    -0.140 C  
HETATM   13  O   UNL     1     -10.089   6.062  68.673  1.00  0.00    -0.146 OA 
HETATM   14  C   UNL     1      -9.415   6.108  70.976  1.00  0.00    -0.171 C  
HETATM   15  C   UNL     1     -10.580   5.850  70.016  1.00  0.00    -0.295 C  
BRANCH  14  16
HETATM   16  N   UNL     1      -8.753   4.822  71.280  1.00  0.00    -0.120 NA 
HETATM   17  H   UNL     1      -8.989   3.963  70.784  1.00  0.00     0.000 HD 
BRANCH  16  18
HETATM   18  N   UNL     1      -7.891   4.852  72.177  1.00  0.00    -0.106 NA 
HETATM   19  N   UNL     1      -7.098   4.883  72.995  1.00  0.00    -0.077 NA 
HETATM   20  H1  UNL     1      -6.392   4.907  73.730  1.00  0.00     0.000 HD 
HETATM   21  H2  UNL     1      -6.616   5.628  72.492  1.00  0.00     0.000 HD 
ENDBRANCH  16  18
ENDBRANCH  14  16
BRANCH  15  22
HETATM   22  C   UNL     1     -11.769   6.788  70.246  1.00  0.00    -0.341 C  
HETATM   23  H   UNL     1     -12.781   7.530  71.778  1.00  0.00     0.000 HD 
HETATM   24  O   UNL     1     -12.043   6.949  71.635  1.00  0.00    -0.315 OA 
ENDBRANCH  15  22
ENDBRANCH   4  11
TORSDOF 4
ENDMDL
MODEL      208
REMARK 921   NORMALIZED FREE ENERGY PREDICTED BY IDOCK:   -2.46 KCAL/MOL
REMARK 922        TOTAL FREE ENERGY PREDICTED BY IDOCK:   -3.55 KCAL/MOL
REMARK 923 INTER-LIGAND FREE ENERGY PREDICTED BY IDOCK:   -3.03 KCAL/MOL
REMARK 924 INTRA-LIGAND FREE ENERGY PREDICTED BY IDOCK:   -0.52 KCAL/MOL
REMARK 927      BINDING AFFINITY PREDICTED BY RF-SCORE:    0.00 PKD
ROOT
HETATM    1  C   UNL     1      -7.417  10.938  67.269  1.00  0.00    -0.104 C  
HETATM    2  C   UNL     1      -8.477  10.313  68.115  1.00  0.00    -0.123 C  
HETATM    3  C   UNL     1      -8.508   9.020  68.461  1.00  0.00    -0.128 C  
HETATM    4  N   UNL     1      -9.518   8.474  69.234  1.00  0.00    -0.157 N  
HETATM    5  C   UNL     1     -10.523   9.274  69.767  1.00  0.00    -0.222 C  
HETATM    6  O   UNL     1      -9.630  12.375  68.302  1.00  0.00    -0.212 OA 
HETATM    7  O   UNL     1     -11.420   8.860  70.501  1.00  0.00    -0.258 OA 
HETATM    8  H   UNL     1     -11.210  11.196  69.809  1.00  0.00     0.000 HD 
HETATM    9  N   UNL     1     -10.482  10.596  69.420  1.00  0.00    -0.228 N  
HETATM   10  C   UNL     1      -9.564  11.190  68.606  1.00  0.00    -0.196 C  
ENDROOT
BRANCH   4  11
HETATM   11  C   UNL     1      -9.523   7.059  69.607  1.00  0.00    -0.147 C  
HETATM   12  C   UNL     1      -8.667   6.178  68.704  1.00  0.00    -0.112 C  
HETATM   13  O   UNL     1      -9.005   6.874  70.940  1.00  0.00    -0.148 OA 
HETATM   14  C   UNL     1      -8.353   4.997  69.594  1.00  0.00    -0.088 C  
HETATM   15  C   UNL     1      -8.276   5.627  70.987  1.00  0.00    -0.121 C  
BRANCH  14  16
HETATM   16  N   UNL     1      -9.485   4.048  69.562  1.00  0.00    -0.175 NA 
HETATM   17  H   UNL     1     -10.149   3.972  70.332  1.00  0.00     0.000 HD 
BRANCH  16  18
HETATM   18  N   UNL     1      -9.580   3.346  68.538  1.00  0.00    -0.132 NA 
HETATM   19  N   UNL     1      -9.661   2.704  67.600  1.00  0.00    -0.372 NA 
HETATM   20  H1  UNL     1      -9.738   2.130  66.760  1.00  0.00     0.000 HD 
HETATM   21  H2  UNL     1      -8.645   2.730  67.501  1.00  0.00     0.000 HD 
ENDBRANCH  16  18
ENDBRANCH  14  16
BRANCH  15  22
HETATM   22  C   UNL     1      -6.841   5.927  71.434  1.00  0.00    -0.063 C  
HETATM   23  H   UNL     1      -5.641   7.497  71.565  1.00  0.00     0.000 HD 
HETATM   24  O   UNL     1      -6.531   7.310  71.289  1.00  0.00    -0.040 OA 
ENDBRANCH  15  22
ENDBRANCH   4  11
TORSDOF 4
ENDMDL
MODEL      209
REMARK 921   NORMALIZED FREE ENERGY PREDICTED BY IDOCK:   -2.46 KCAL/MOL
REMARK 922        TOTAL FREE ENERGY PREDICTED BY IDOCK:   -3.54 KCAL/MOL
REMARK 923 INTER-LIGAND FREE ENERGY PREDICTED BY IDOCK:   -3.18 KCAL/MOL
REMARK 924 INTRA-LIGAND FREE ENERGY PREDICTED BY IDOCK:   -0.37 KCAL/MOL
REMARK 927      BINDING AFFINITY PREDICTED BY RF-SCORE:    0.00 PKD
ROOT
HETATM    1  C   UNL     1      -8.992  18.548  65.803  1.00  0.00     0.450 C  
HETATM    2  C   UNL     1      -9.406  17.675  66.941  1.00  0.00    -0.268 C  
HETATM    3  C   UNL     1      -8.838  16.500  67.241  1.00  0.00    -0.192 C  
HETATM    4  N   UNL     1      -9.262  15.710  68.296  1.00  0.00    -0.186 N  
HETATM    5  C   UNL     1     -10.261  16.145  69.159  1.00  0.00    -0.255 C  
HETATM    6  O   UNL     1     -11.116  19.192  67.563  1.00  0.00    -0.405 OA 
HETATM    7  O   UNL     1     -10.649  15.515  70.143  1.00  0.00    -0.299 OA 
HETATM    8  H   UNL     1     -11.562  17.686  69.484  1.00  0.00     0.000 HD 
HETATM    9  N   UNL     1     -10.831  17.350  68.855  1.00  0.00    -0.130 N  
HETATM   10  C   UNL     1     -10.519  18.148  67.794  1.00  0.00    -0.404 C  
ENDROOT
BRANCH   4  11
HETATM   11  C   UNL     1      -8.618  14.434  68.610  1.00  0.00    -0.161 C  
HETATM   12  C   UNL     1      -8.077  13.697  67.390  1.00  0.00    -0.184 C  
HETATM   13  O   UNL     1      -7.488  14.627  69.484  1.00  0.00    -0.146 OA 
HETATM   14  C   UNL     1      -7.000  12.818  67.984  1.00  0.00    -0.107 C  
HETATM   15  C   UNL     1      -6.465  13.665  69.142  1.00  0.00    -0.107 C  
BRANCH  14  16
HETATM   16  N   UNL     1      -7.618  11.594  68.534  1.00  0.00    -0.121 NA 
HETATM   17  H   UNL     1      -7.590  11.375  69.530  1.00  0.00     0.000 HD 
BRANCH  16  18
HETATM   18  N   UNL     1      -8.174  10.846  67.709  1.00  0.00    -0.115 NA 
HETATM   19  N   UNL     1      -8.679  10.162  66.950  1.00  0.00    -0.129 NA 
HETATM   20  H1  UNL     1      -9.135   9.550  66.274  1.00  0.00     0.000 HD 
HETATM   21  H2  UNL     1      -7.827  10.165  66.389  1.00  0.00     0.000 HD 
ENDBRANCH  16  18
ENDBRANCH  14  16
BRANCH  15  22
HETATM   22  C   UNL     1      -5.186  14.431  68.788  1.00  0.00    -0.089 C  
HETATM   23  H   UNL     1      -4.337  15.207  67.176  1.00  0.00     0.000 HD 
HETATM   24  O   UNL     1      -5.129  14.732  67.396  1.00  0.00    -0.330 OA 
ENDBRANCH  15  22
ENDBRANCH   4  11
TORSDOF 4
ENDMDL
MODEL      210
REMARK 921   NORMALIZED FREE ENERGY PREDICTED BY IDOCK:   -2.46 KCAL/MOL
REMARK 922        TOTAL FREE ENERGY PREDICTED BY IDOCK:   -3.54 KCAL/MOL
REMARK 923 INTER-LIGAND FREE ENERGY PREDICTED BY IDOCK:   -4.01 KCAL/MOL
REMARK 924 INTRA-LIGAND FREE ENERGY PREDICTED BY IDOCK:    0.47 KCAL/MOL
REMARK 927      BINDING AFFINITY PREDICTED BY RF-SCORE:    0.00 PKD
ROOT
HETATM    1  C   UNL     1     -10.954   5.879  69.040  1.00  0.00    -0.359 C  
HETATM    2  C   UNL     1     -10.217   7.176  69.095  1.00  0.00    -0.196 C  
HETATM    3  C   UNL     1     -10.092   8.021  68.064  1.00  0.00    -0.194 C  
HETATM    4  N   UNL     1      -9.385   9.208  68.149  1.00  0.00    -0.138 N  
HETATM    5  C   UNL     1      -8.831   9.626  69.353  1.00  0.00    -0.180 C  
HETATM    6  O   UNL     1      -9.622   6.814  71.360  1.00  0.00    -0.168 OA 
HETATM    7  O   UNL     1      -8.235  10.692  69.508  1.00  0.00    -0.127 OA 
HETATM    8  H   UNL     1      -8.574   9.062  71.299  1.00  0.00     0.000 HD 
HETATM    9  N   UNL     1      -8.970   8.765  70.407  1.00  0.00    -0.155 N  
HETATM   10  C   UNL     1      -9.587   7.549  70.381  1.00  0.00    -0.168 C  
ENDROOT
BRANCH   4  11
HETATM   11  C   UNL     1      -9.271  10.120  67.010  1.00  0.00    -0.146 C  
HETATM   12  C   UNL     1     -10.369  11.176  66.950  1.00  0.00    -0.272 C  
HETATM   13  O   UNL     1      -8.029  10.851  67.056  1.00  0.00    -0.122 OA 
HETATM   14  C   UNL     1      -9.727  12.278  66.140  1.00  0.00    -0.245 C  
HETATM   15  C   UNL     1      -8.251  12.182  66.537  1.00  0.00     0.064 C  
BRANCH  14  16
HETATM   16  N   UNL     1      -9.855  11.964  64.702  1.00  0.00    -0.382 NA 
HETATM   17  H   UNL     1      -9.056  11.671  64.139  1.00  0.00     0.000 HD 
BRANCH  16  18
HETATM   18  N   UNL     1     -10.996  12.080  64.218  1.00  0.00    -0.321 NA 
HETATM   19  N   UNL     1     -12.040  12.190  63.774  1.00  0.00    -0.496 NA 
HETATM   20  H1  UNL     1     -12.975  12.285  63.378  1.00  0.00     0.000 HD 
HETATM   21  H2  UNL     1     -11.811  13.142  63.486  1.00  0.00     0.000 HD 
ENDBRANCH  16  18
ENDBRANCH  14  16
BRANCH  15  22
HETATM   22  C   UNL     1      -7.851  13.190  67.618  1.00  0.00    -0.169 C  
HETATM   23  H   UNL     1      -6.475  14.589  67.887  1.00  0.00     0.000 HD 
HETATM   24  O   UNL     1      -6.723  13.963  67.217  1.00  0.00    -0.237 OA 
ENDBRANCH  15  22
ENDBRANCH   4  11
TORSDOF 4
ENDMDL
MODEL      211
REMARK 921   NORMALIZED FREE ENERGY PREDICTED BY IDOCK:   -2.40 KCAL/MOL
REMARK 922        TOTAL FREE ENERGY PREDICTED BY IDOCK:   -3.48 KCAL/MOL
REMARK 923 INTER-LIGAND FREE ENERGY PREDICTED BY IDOCK:   -4.22 KCAL/MOL
REMARK 924 INTRA-LIGAND FREE ENERGY PREDICTED BY IDOCK:    0.75 KCAL/MOL
REMARK 927      BINDING AFFINITY PREDICTED BY RF-SCORE:    0.00 PKD
ROOT
HETATM    1  C   UNL     1      -8.204  20.437  68.579  1.00  0.00     0.284 C  
HETATM    2  C   UNL     1      -8.601  19.242  67.777  1.00  0.00    -0.341 C  
HETATM    3  C   UNL     1      -8.050  18.028  67.901  1.00  0.00    -0.243 C  
HETATM    4  N   UNL     1      -8.435  16.947  67.126  1.00  0.00    -0.191 N  
HETATM    5  C   UNL     1      -9.486  17.052  66.223  1.00  0.00    -0.256 C  
HETATM    6  O   UNL     1     -10.208  20.504  66.578  1.00  0.00    -0.335 OA 
HETATM    7  O   UNL     1      -9.909  16.119  65.542  1.00  0.00    -0.458 OA 
HETATM    8  H   UNL     1     -10.830  18.382  65.452  1.00  0.00     0.000 HD 
HETATM    9  N   UNL     1     -10.053  18.291  66.107  1.00  0.00    -0.368 N  
HETATM   10  C   UNL     1      -9.681  19.417  66.780  1.00  0.00    -0.350 C  
ENDROOT
BRANCH   4  11
HETATM   11  C   UNL     1      -7.824  15.627  67.288  1.00  0.00    -0.198 C  
HETATM   12  C   UNL     1      -7.529  15.255  68.737  1.00  0.00    -0.135 C  
HETATM   13  O   UNL     1      -8.693  14.591  66.788  1.00  0.00    -0.234 OA 
HETATM   14  C   UNL     1      -7.506  13.745  68.695  1.00  0.00    -0.116 C  
HETATM   15  C   UNL     1      -8.541  13.415  67.614  1.00  0.00    -0.193 C  
BRANCH  14  16
HETATM   16  N   UNL     1      -6.177  13.290  68.236  1.00  0.00    -0.088 NA 
HETATM   17  H   UNL     1      -5.318  13.568  68.710  1.00  0.00     0.000 HD 
BRANCH  16  18
HETATM   18  N   UNL     1      -6.170  12.547  67.237  1.00  0.00    -0.191 NA 
HETATM   19  N   UNL     1      -6.165  11.863  66.326  1.00  0.00    -0.447 NA 
HETATM   20  H1  UNL     1      -6.159  11.254  65.507  1.00  0.00     0.000 HD 
HETATM   21  H2  UNL     1      -6.322  11.060  66.935  1.00  0.00     0.000 HD 
ENDBRANCH  16  18
ENDBRANCH  14  16
BRANCH  15  22
HETATM   22  C   UNL     1      -9.914  13.052  68.187  1.00  0.00    -0.231 C  
HETATM   23  H   UNL     1     -10.714  11.611  69.286  1.00  0.00     0.000 HD 
HETATM   24  O   UNL     1      -9.863  11.837  68.930  1.00  0.00    -0.131 OA 
ENDBRANCH  15  22
ENDBRANCH   4  11
TORSDOF 4
ENDMDL
MODEL      212
REMARK 921   NORMALIZED FREE ENERGY PREDICTED BY IDOCK:   -2.39 KCAL/MOL
REMARK 922        TOTAL FREE ENERGY PREDICTED BY IDOCK:   -3.46 KCAL/MOL
REMARK 923 INTER-LIGAND FREE ENERGY PREDICTED BY IDOCK:   -2.97 KCAL/MOL
REMARK 924 INTRA-LIGAND FREE ENERGY PREDICTED BY IDOCK:   -0.48 KCAL/MOL
REMARK 927      BINDING AFFINITY PREDICTED BY RF-SCORE:    0.00 PKD
ROOT
HETATM    1  C   UNL     1     -10.011   9.925  65.620  1.00  0.00    -0.353 C  
HETATM    2  C   UNL     1      -8.740   9.536  66.301  1.00  0.00    -0.158 C  
HETATM    3  C   UNL     1      -8.661   9.083  67.558  1.00  0.00    -0.120 C  
HETATM    4  N   UNL     1      -7.460   8.749  68.161  1.00  0.00    -0.091 N  
HETATM    5  C   UNL     1      -6.266   8.790  67.449  1.00  0.00    -0.056 C  
HETATM    6  O   UNL     1      -7.467  10.102  64.384  1.00  0.00    -0.141 OA 
HETATM    7  O   UNL     1      -5.174   8.459  67.910  1.00  0.00    -0.033 OA 
HETATM    8  H   UNL     1      -5.486   9.273  65.625  1.00  0.00     0.000 HD 
HETATM    9  N   UNL     1      -6.353   9.244  66.162  1.00  0.00    -0.064 N  
HETATM   10  C   UNL     1      -7.485   9.659  65.526  1.00  0.00    -0.106 C  
ENDROOT
BRANCH   4  11
HETATM   11  C   UNL     1      -7.401   8.246  69.534  1.00  0.00    -0.074 C  
HETATM   12  C   UNL     1      -7.710   9.299  70.592  1.00  0.00    -0.170 C  
HETATM   13  O   UNL     1      -8.362   7.191  69.739  1.00  0.00    -0.129 OA 
HETATM   14  C   UNL     1      -8.174   8.466  71.765  1.00  0.00    -0.152 C  
HETATM   15  C   UNL     1      -8.870   7.280  71.089  1.00  0.00    -0.140 C  
BRANCH  14  16
HETATM   16  N   UNL     1      -6.997   7.968  72.506  1.00  0.00    -0.077 NA 
HETATM   17  H   UNL     1      -6.484   7.136  72.211  1.00  0.00     0.000 HD 
BRANCH  16  18
HETATM   18  N   UNL     1      -6.668   8.624  73.511  1.00  0.00    -0.292 NA 
HETATM   19  N   UNL     1      -6.364   9.221  74.433  1.00  0.00    -0.352 NA 
HETATM   20  H1  UNL     1      -6.095   9.759  75.257  1.00  0.00     0.000 HD 
HETATM   21  H2  UNL     1      -5.879   8.401  74.797  1.00  0.00     0.000 HD 
ENDBRANCH  16  18
ENDBRANCH  14  16
BRANCH  15  22
HETATM   22  C   UNL     1     -10.392   7.437  71.019  1.00  0.00    -0.195 C  
HETATM   23  H   UNL     1     -11.925   6.528  70.153  1.00  0.00     0.000 HD 
HETATM   24  O   UNL     1     -10.981   6.431  70.198  1.00  0.00    -0.272 OA 
ENDBRANCH  15  22
ENDBRANCH   4  11
TORSDOF 4
ENDMDL
MODEL      213
REMARK 921   NORMALIZED FREE ENERGY PREDICTED BY IDOCK:   -2.28 KCAL/MOL
REMARK 922        TOTAL FREE ENERGY PREDICTED BY IDOCK:   -3.33 KCAL/MOL
REMARK 923 INTER-LIGAND FREE ENERGY PREDICTED BY IDOCK:   -3.21 KCAL/MOL
REMARK 924 INTRA-LIGAND FREE ENERGY PREDICTED BY IDOCK:   -0.12 KCAL/MOL
REMARK 927      BINDING AFFINITY PREDICTED BY RF-SCORE:    0.00 PKD
ROOT
HETATM    1  C   UNL     1     -10.339   5.855  69.005  1.00  0.00    -0.297 C  
HETATM    2  C   UNL     1      -9.459   6.966  69.473  1.00  0.00    -0.146 C  
HETATM    3  C   UNL     1      -8.989   7.943  68.688  1.00  0.00    -0.134 C  
HETATM    4  N   UNL     1      -8.160   8.949  69.156  1.00  0.00    -0.114 N  
HETATM    5  C   UNL     1      -7.837   9.039  70.505  1.00  0.00    -0.130 C  
HETATM    6  O   UNL     1      -9.442   6.106  71.681  1.00  0.00    -0.149 OA 
HETATM    7  O   UNL     1      -7.148   9.934  70.993  1.00  0.00    -0.339 OA 
HETATM    8  H   UNL     1      -8.104   8.101  72.300  1.00  0.00     0.000 HD 
HETATM    9  N   UNL     1      -8.327   8.045  71.306  1.00  0.00    -0.110 N  
HETATM   10  C   UNL     1      -9.086   6.985  70.905  1.00  0.00    -0.153 C  
ENDROOT
BRANCH   4  11
HETATM   11  C   UNL     1      -7.668  10.012  68.280  1.00  0.00    -0.084 C  
HETATM   12  C   UNL     1      -7.965   9.783  66.802  1.00  0.00    -0.105 C  
HETATM   13  O   UNL     1      -8.277  11.276  68.609  1.00  0.00    -0.143 OA 
HETATM   14  C   UNL     1      -7.934  11.184  66.236  1.00  0.00    -0.125 C  
HETATM   15  C   UNL     1      -8.466  12.035  67.393  1.00  0.00    -0.170 C  
BRANCH  14  16
HETATM   16  N   UNL     1      -6.534  11.570  65.965  1.00  0.00    -0.373 NA 
HETATM   17  H   UNL     1      -6.191  12.516  66.135  1.00  0.00     0.000 HD 
BRANCH  16  18
HETATM   18  N   UNL     1      -5.797  10.672  65.518  1.00  0.00    -0.135 NA 
HETATM   19  N   UNL     1      -5.127   9.848  65.105  1.00  0.00    -0.045 NA 
HETATM   20  H1  UNL     1      -4.524   9.111  64.738  1.00  0.00     0.000 HD 
HETATM   21  H2  UNL     1      -5.852   9.605  64.428  1.00  0.00     0.000 HD 
ENDBRANCH  16  18
ENDBRANCH  14  16
BRANCH  15  22
HETATM   22  C   UNL     1      -9.956  12.366  67.262  1.00  0.00    -0.206 C  
HETATM   23  H   UNL     1     -11.105  13.979  67.221  1.00  0.00     0.000 HD 
HETATM   24  O   UNL     1     -10.181  13.773  67.303  1.00  0.00    -0.249 OA 
ENDBRANCH  15  22
ENDBRANCH   4  11
TORSDOF 4
ENDMDL
MODEL      214
REMARK 921   NORMALIZED FREE ENERGY PREDICTED BY IDOCK:   -2.27 KCAL/MOL
REMARK 922        TOTAL FREE ENERGY PREDICTED BY IDOCK:   -3.31 KCAL/MOL
REMARK 923 INTER-LIGAND FREE ENERGY PREDICTED BY IDOCK:   -3.46 KCAL/MOL
REMARK 924 INTRA-LIGAND FREE ENERGY PREDICTED BY IDOCK:    0.15 KCAL/MOL
REMARK 927      BINDING AFFINITY PREDICTED BY RF-SCORE:    0.00 PKD
ROOT
HETATM    1  C   UNL     1     -12.768  10.809  70.421  1.00  0.00    -0.346 C  
HETATM    2  C   UNL     1     -11.444  10.279  69.978  1.00  0.00    -0.367 C  
HETATM    3  C   UNL     1     -10.579  10.949  69.206  1.00  0.00    -0.217 C  
HETATM    4  N   UNL     1      -9.366  10.416  68.802  1.00  0.00    -0.167 N  
HETATM    5  C   UNL     1      -8.946   9.170  69.254  1.00  0.00    -0.145 C  
HETATM    6  O   UNL     1     -11.818   8.228  71.103  1.00  0.00    -0.281 OA 
HETATM    7  O   UNL     1      -7.860   8.663  68.973  1.00  0.00    -0.096 OA 
HETATM    8  H   UNL     1      -9.531   7.581  70.394  1.00  0.00     0.000 HD 
HETATM    9  N   UNL     1      -9.828   8.494  70.050  1.00  0.00    -0.177 N  
HETATM   10  C   UNL     1     -11.066   8.921  70.429  1.00  0.00    -0.239 C  
ENDROOT
BRANCH   4  11
HETATM   11  C   UNL     1      -8.432  11.173  67.967  1.00  0.00    -0.135 C  
HETATM   12  C   UNL     1      -6.987  11.120  68.450  1.00  0.00    -0.072 C  
HETATM   13  O   UNL     1      -8.413  10.660  66.620  1.00  0.00    -0.130 OA 
HETATM   14  C   UNL     1      -6.205  11.408  67.190  1.00  0.00    -0.106 C  
HETATM   15  C   UNL     1      -7.071  10.777  66.095  1.00  0.00    -0.122 C  
BRANCH  14  16
HETATM   16  N   UNL     1      -6.151  12.868  66.971  1.00  0.00    -0.476 NA 
HETATM   17  H   UNL     1      -6.475  13.298  66.105  1.00  0.00     0.000 HD 
BRANCH  16  18
HETATM   18  N   UNL     1      -5.686  13.543  67.909  1.00  0.00    -0.138 NA 
HETATM   19  N   UNL     1      -5.263  14.164  68.766  1.00  0.00    -0.084 NA 
HETATM   20  H1  UNL     1      -4.882  14.716  69.534  1.00  0.00     0.000 HD 
HETATM   21  H2  UNL     1      -5.853  14.947  68.482  1.00  0.00     0.000 HD 
ENDBRANCH  16  18
ENDBRANCH  14  16
BRANCH  15  22
HETATM   22  C   UNL     1      -6.595   9.381  65.681  1.00  0.00    -0.070 C  
HETATM   23  H   UNL     1      -7.395   7.613  65.283  1.00  0.00     0.000 HD 
HETATM   24  O   UNL     1      -7.690   8.479  65.539  1.00  0.00    -0.087 OA 
ENDBRANCH  15  22
ENDBRANCH   4  11
TORSDOF 4
ENDMDL
MODEL      215
REMARK 921   NORMALIZED FREE ENERGY PREDICTED BY IDOCK:   -2.21 KCAL/MOL
REMARK 922        TOTAL FREE ENERGY PREDICTED BY IDOCK:   -3.24 KCAL/MOL
REMARK 923 INTER-LIGAND FREE ENERGY PREDICTED BY IDOCK:   -3.00 KCAL/MOL
REMARK 924 INTRA-LIGAND FREE ENERGY PREDICTED BY IDOCK:   -0.24 KCAL/MOL
REMARK 927      BINDING AFFINITY PREDICTED BY RF-SCORE:    0.00 PKD
ROOT
HETATM    1  C   UNL     1      -5.850  10.418  65.389  1.00  0.00    -0.127 C  
HETATM    2  C   UNL     1      -7.091  10.028  66.122  1.00  0.00    -0.108 C  
HETATM    3  C   UNL     1      -7.639   8.807  66.090  1.00  0.00    -0.094 C  
HETATM    4  N   UNL     1      -8.802   8.488  66.770  1.00  0.00    -0.135 N  
HETATM    5  C   UNL     1      -9.422   9.415  67.600  1.00  0.00    -0.132 C  
HETATM    6  O   UNL     1      -7.340  12.218  66.992  1.00  0.00    -0.132 OA 
HETATM    7  O   UNL     1     -10.428   9.180  68.270  1.00  0.00    -0.211 OA 
HETATM    8  H   UNL     1      -9.294  11.347  68.248  1.00  0.00     0.000 HD 
HETATM    9  N   UNL     1      -8.854  10.658  67.638  1.00  0.00    -0.131 N  
HETATM   10  C   UNL     1      -7.755  11.067  66.941  1.00  0.00    -0.140 C  
ENDROOT
BRANCH   4  11
HETATM   11  C   UNL     1      -9.375   7.142  66.728  1.00  0.00    -0.161 C  
HETATM   12  C   UNL     1      -8.776   6.248  65.647  1.00  0.00    -0.122 C  
HETATM   13  O   UNL     1      -9.159   6.449  67.973  1.00  0.00    -0.116 OA 
HETATM   14  C   UNL     1      -9.046   4.859  66.178  1.00  0.00    -0.135 C  
HETATM   15  C   UNL     1      -8.948   5.046  67.695  1.00  0.00    -0.110 C  
BRANCH  14  16
HETATM   16  N   UNL     1     -10.428   4.465  65.834  1.00  0.00    -0.465 NA 
HETATM   17  H   UNL     1     -11.155   4.370  66.543  1.00  0.00     0.000 HD 
BRANCH  16  18
HETATM   18  N   UNL     1     -10.651   4.258  64.627  1.00  0.00    -0.165 NA 
HETATM   19  N   UNL     1     -10.850   4.069  63.521  1.00  0.00    -0.398 NA 
HETATM   20  H1  UNL     1     -11.033   3.899  62.532  1.00  0.00     0.000 HD 
HETATM   21  H2  UNL     1      -9.872   4.272  63.316  1.00  0.00     0.000 HD 
ENDBRANCH  16  18
ENDBRANCH  14  16
BRANCH  15  22
HETATM   22  C   UNL     1      -7.584   4.644  68.265  1.00  0.00    -0.076 C  
HETATM   23  H   UNL     1      -5.678   5.095  67.971  1.00  0.00     0.000 HD 
HETATM   24  O   UNL     1      -6.524   5.345  67.618  1.00  0.00    -0.044 OA 
ENDBRANCH  15  22
ENDBRANCH   4  11
TORSDOF 4
ENDMDL
MODEL      216
REMARK 921   NORMALIZED FREE ENERGY PREDICTED BY IDOCK:   -2.21 KCAL/MOL
REMARK 922        TOTAL FREE ENERGY PREDICTED BY IDOCK:   -3.24 KCAL/MOL
REMARK 923 INTER-LIGAND FREE ENERGY PREDICTED BY IDOCK:   -2.96 KCAL/MOL
REMARK 924 INTRA-LIGAND FREE ENERGY PREDICTED BY IDOCK:   -0.28 KCAL/MOL
REMARK 927      BINDING AFFINITY PREDICTED BY RF-SCORE:    0.00 PKD
ROOT
HETATM    1  C   UNL     1      -9.609   3.875  65.389  1.00  0.00    -0.185 C  
HETATM    2  C   UNL     1      -8.692   4.605  66.315  1.00  0.00    -0.113 C  
HETATM    3  C   UNL     1      -8.987   4.921  67.582  1.00  0.00    -0.109 C  
HETATM    4  N   UNL     1      -8.116   5.615  68.404  1.00  0.00    -0.102 N  
HETATM    5  C   UNL     1      -6.839   5.952  67.972  1.00  0.00    -0.067 C  
HETATM    6  O   UNL     1      -7.036   4.787  64.630  1.00  0.00    -0.048 OA 
HETATM    7  O   UNL     1      -6.001   6.523  68.669  1.00  0.00    -0.019 OA 
HETATM    8  H   UNL     1      -5.601   5.854  66.350  1.00  0.00     0.000 HD 
HETATM    9  N   UNL     1      -6.538   5.619  66.680  1.00  0.00    -0.054 N  
HETATM   10  C   UNL     1      -7.367   5.003  65.790  1.00  0.00    -0.077 C  
ENDROOT
BRANCH   4  11
HETATM   11  C   UNL     1      -8.458   5.939  69.790  1.00  0.00    -0.125 C  
HETATM   12  C   UNL     1      -8.601   7.433  70.059  1.00  0.00    -0.140 C  
HETATM   13  O   UNL     1      -9.722   5.353  70.160  1.00  0.00    -0.164 OA 
HETATM   14  C   UNL     1      -9.500   7.468  71.273  1.00  0.00    -0.150 C  
HETATM   15  C   UNL     1     -10.404   6.249  71.066  1.00  0.00    -0.211 C  
BRANCH  14  16
HETATM   16  N   UNL     1      -8.686   7.257  72.489  1.00  0.00    -0.121 NA 
HETATM   17  H   UNL     1      -7.677   7.118  72.446  1.00  0.00     0.000 HD 
BRANCH  16  18
HETATM   18  N   UNL     1      -9.308   7.258  73.567  1.00  0.00    -0.187 NA 
HETATM   19  N   UNL     1      -9.877   7.254  74.555  1.00  0.00    -0.361 NA 
HETATM   20  H1  UNL     1     -10.386   7.256  75.438  1.00  0.00     0.000 HD 
HETATM   21  H2  UNL     1      -9.917   6.235  74.522  1.00  0.00     0.000 HD 
ENDBRANCH  16  18
ENDBRANCH  14  16
BRANCH  15  22
HETATM   22  C   UNL     1     -11.763   6.605  70.456  1.00  0.00    -0.394 C  
HETATM   23  H   UNL     1     -13.368   7.655  70.952  1.00  0.00     0.000 HD 
HETATM   24  O   UNL     1     -12.525   7.434  71.330  1.00  0.00    -0.337 OA 
ENDBRANCH  15  22
ENDBRANCH   4  11
TORSDOF 4
ENDMDL
MODEL      217
REMARK 921   NORMALIZED FREE ENERGY PREDICTED BY IDOCK:   -2.20 KCAL/MOL
REMARK 922        TOTAL FREE ENERGY PREDICTED BY IDOCK:   -3.23 KCAL/MOL
REMARK 923 INTER-LIGAND FREE ENERGY PREDICTED BY IDOCK:   -3.71 KCAL/MOL
REMARK 924 INTRA-LIGAND FREE ENERGY PREDICTED BY IDOCK:    0.48 KCAL/MOL
REMARK 927      BINDING AFFINITY PREDICTED BY RF-SCORE:    0.00 PKD
ROOT
HETATM    1  C   UNL     1      -5.984  11.333  68.540  1.00  0.00    -0.042 C  
HETATM    2  C   UNL     1      -6.777  12.461  67.969  1.00  0.00    -0.081 C  
HETATM    3  C   UNL     1      -7.948  12.322  67.334  1.00  0.00    -0.171 C  
HETATM    4  N   UNL     1      -8.646  13.393  66.803  1.00  0.00    -0.098 N  
HETATM    5  C   UNL     1      -8.197  14.697  66.977  1.00  0.00    -0.157 C  
HETATM    6  O   UNL     1      -5.144  14.036  68.653  1.00  0.00    -0.081 OA 
HETATM    7  O   UNL     1      -8.794  15.694  66.574  1.00  0.00    -0.259 OA 
HETATM    8  H   UNL     1      -6.667  15.788  67.777  1.00  0.00     0.000 HD 
HETATM    9  N   UNL     1      -7.006  14.836  67.635  1.00  0.00    -0.173 N  
HETATM   10  C   UNL     1      -6.227  13.827  68.120  1.00  0.00    -0.126 C  
ENDROOT
BRANCH   4  11
HETATM   11  C   UNL     1      -9.929  13.215  66.122  1.00  0.00    -0.291 C  
HETATM   12  C   UNL     1     -10.545  11.834  66.314  1.00  0.00    -0.292 C  
HETATM   13  O   UNL     1     -10.909  14.152  66.614  1.00  0.00    -0.294 OA 
HETATM   14  C   UNL     1     -12.016  12.090  66.080  1.00  0.00    -0.023 C  
HETATM   15  C   UNL     1     -12.206  13.514  66.613  1.00  0.00    -0.358 C  
BRANCH  14  16
HETATM   16  N   UNL     1     -12.287  12.085  64.628  1.00  0.00    -0.318 NA 
HETATM   17  H   UNL     1     -12.396  11.218  64.102  1.00  0.00     0.000 HD 
BRANCH  16  18
HETATM   18  N   UNL     1     -12.376  13.202  64.086  1.00  0.00    -0.588 NA 
HETATM   19  N   UNL     1     -12.452  14.226  63.592  1.00  0.00    -1.083 NA 
HETATM   20  H1  UNL     1     -12.524  15.141  63.148  1.00  0.00     0.000 HD 
HETATM   21  H2  UNL     1     -11.627  14.531  64.109  1.00  0.00     0.000 HD 
ENDBRANCH  16  18
ENDBRANCH  14  16
BRANCH  15  22
HETATM   22  C   UNL     1     -12.761  13.554  68.040  1.00  0.00     1.044 C  
HETATM   23  H   UNL     1     -12.297  14.391  69.774  1.00  0.00     0.000 HD 
HETATM   24  O   UNL     1     -11.953  14.366  68.889  1.00  0.00    -0.318 OA 
ENDBRANCH  15  22
ENDBRANCH   4  11
TORSDOF 4
ENDMDL
MODEL      218
REMARK 921   NORMALIZED FREE ENERGY PREDICTED BY IDOCK:   -2.18 KCAL/MOL
REMARK 922        TOTAL FREE ENERGY PREDICTED BY IDOCK:   -3.21 KCAL/MOL
REMARK 923 INTER-LIGAND FREE ENERGY PREDICTED BY IDOCK:   -3.10 KCAL/MOL
REMARK 924 INTRA-LIGAND FREE ENERGY PREDICTED BY IDOCK:   -0.10 KCAL/MOL
REMARK 927      BINDING AFFINITY PREDICTED BY RF-SCORE:    0.00 PKD
ROOT
HETATM    1  C   UNL     1      -9.386   2.534  67.127  1.00  0.00    -0.089 C  
HETATM    2  C   UNL     1      -8.805   3.910  67.142  1.00  0.00    -0.133 C  
HETATM    3  C   UNL     1      -8.674   4.666  68.239  1.00  0.00    -0.102 C  
HETATM    4  N   UNL     1      -8.145   5.945  68.209  1.00  0.00    -0.108 N  
HETATM    5  C   UNL     1      -7.641   6.484  67.031  1.00  0.00    -0.095 C  
HETATM    6  O   UNL     1      -8.462   3.857  64.798  1.00  0.00    -0.103 OA 
HETATM    7  O   UNL     1      -7.113   7.592  66.948  1.00  0.00    -0.079 OA 
HETATM    8  H   UNL     1      -7.395   6.083  65.044  1.00  0.00     0.000 HD 
HETATM    9  N   UNL     1      -7.767   5.704  65.915  1.00  0.00    -0.093 N  
HETATM   10  C   UNL     1      -8.341   4.469  65.852  1.00  0.00    -0.114 C  
ENDROOT
BRANCH   4  11
HETATM   11  C   UNL     1      -8.003   6.748  69.425  1.00  0.00    -0.115 C  
HETATM   12  C   UNL     1      -8.825   8.032  69.417  1.00  0.00    -0.144 C  
HETATM   13  O   UNL     1      -8.439   6.011  70.584  1.00  0.00    -0.129 OA 
HETATM   14  C   UNL     1      -8.995   8.326  70.890  1.00  0.00    -0.151 C  
HETATM   15  C   UNL     1      -9.057   6.929  71.514  1.00  0.00    -0.144 C  
BRANCH  14  16
HETATM   16  N   UNL     1      -7.790   9.019  71.392  1.00  0.00    -0.310 NA 
HETATM   17  H   UNL     1      -7.306   8.717  72.237  1.00  0.00     0.000 HD 
BRANCH  16  18
HETATM   18  N   UNL     1      -7.402   9.992  70.720  1.00  0.00    -0.282 NA 
HETATM   19  N   UNL     1      -7.046  10.886  70.110  1.00  0.00    -0.458 NA 
HETATM   20  H1  UNL     1      -6.728  11.684  69.559  1.00  0.00     0.000 HD 
HETATM   21  H2  UNL     1      -6.939  11.424  70.970  1.00  0.00     0.000 HD 
ENDBRANCH  16  18
ENDBRANCH  14  16
BRANCH  15  22
HETATM   22  C   UNL     1     -10.488   6.451  71.779  1.00  0.00    -0.214 C  
HETATM   23  H   UNL     1     -11.560   5.797  73.311  1.00  0.00     0.000 HD 
HETATM   24  O   UNL     1     -10.673   6.094  73.147  1.00  0.00    -0.236 OA 
ENDBRANCH  15  22
ENDBRANCH   4  11
TORSDOF 4
ENDMDL
MODEL      219
REMARK 921   NORMALIZED FREE ENERGY PREDICTED BY IDOCK:   -2.17 KCAL/MOL
REMARK 922        TOTAL FREE ENERGY PREDICTED BY IDOCK:   -3.18 KCAL/MOL
REMARK 923 INTER-LIGAND FREE ENERGY PREDICTED BY IDOCK:   -3.16 KCAL/MOL
REMARK 924 INTRA-LIGAND FREE ENERGY PREDICTED BY IDOCK:   -0.03 KCAL/MOL
REMARK 927      BINDING AFFINITY PREDICTED BY RF-SCORE:    0.00 PKD
ROOT
HETATM    1  C   UNL     1      -5.861  15.092  70.338  1.00  0.00    -0.143 C  
HETATM    2  C   UNL     1      -6.798  14.998  69.180  1.00  0.00    -0.132 C  
HETATM    3  C   UNL     1      -7.063  13.871  68.508  1.00  0.00    -0.104 C  
HETATM    4  N   UNL     1      -7.927  13.827  67.426  1.00  0.00    -0.173 N  
HETATM    5  C   UNL     1      -8.636  14.956  67.031  1.00  0.00    -0.238 C  
HETATM    6  O   UNL     1      -7.263  17.319  69.288  1.00  0.00    -0.221 OA 
HETATM    7  O   UNL     1      -9.454  14.972  66.112  1.00  0.00    -0.286 OA 
HETATM    8  H   UNL     1      -8.888  16.938  67.452  1.00  0.00     0.000 HD 
HETATM    9  N   UNL     1      -8.370  16.103  67.726  1.00  0.00    -0.153 N  
HETATM   10  C   UNL     1      -7.481  16.239  68.751  1.00  0.00    -0.195 C  
ENDROOT
BRANCH   4  11
HETATM   11  C   UNL     1      -8.208  12.580  66.715  1.00  0.00     0.008 C  
HETATM   12  C   UNL     1      -7.070  11.566  66.769  1.00  0.00    -0.112 C  
HETATM   13  O   UNL     1      -9.354  11.911  67.278  1.00  0.00    -0.172 OA 
HETATM   14  C   UNL     1      -7.783  10.253  66.540  1.00  0.00    -0.113 C  
HETATM   15  C   UNL     1      -9.147  10.483  67.199  1.00  0.00    -0.143 C  
BRANCH  14  16
HETATM   16  N   UNL     1      -7.983  10.054  65.089  1.00  0.00    -0.139 NA 
HETATM   17  H   UNL     1      -7.236   9.718  64.482  1.00  0.00     0.000 HD 
BRANCH  16  18
HETATM   18  N   UNL     1      -9.119  10.320  64.654  1.00  0.00    -0.207 NA 
HETATM   19  N   UNL     1     -10.156  10.567  64.252  1.00  0.00    -0.342 NA 
HETATM   20  H1  UNL     1     -11.086  10.785  63.895  1.00  0.00     0.000 HD 
HETATM   21  H2  UNL     1      -9.743  11.263  63.630  1.00  0.00     0.000 HD 
ENDBRANCH  16  18
ENDBRANCH  14  16
BRANCH  15  22
HETATM   22  C   UNL     1      -9.234   9.907  68.616  1.00  0.00    -0.139 C  
HETATM   23  H   UNL     1      -9.905  10.471  70.393  1.00  0.00     0.000 HD 
HETATM   24  O   UNL     1      -9.850  10.827  69.514  1.00  0.00    -0.152 OA 
ENDBRANCH  15  22
ENDBRANCH   4  11
TORSDOF 4
ENDMDL
MODEL      220
REMARK 921   NORMALIZED FREE ENERGY PREDICTED BY IDOCK:   -2.10 KCAL/MOL
REMARK 922        TOTAL FREE ENERGY PREDICTED BY IDOCK:   -3.11 KCAL/MOL
REMARK 923 INTER-LIGAND FREE ENERGY PREDICTED BY IDOCK:   -3.42 KCAL/MOL
REMARK 924 INTRA-LIGAND FREE ENERGY PREDICTED BY IDOCK:    0.31 KCAL/MOL
REMARK 927      BINDING AFFINITY PREDICTED BY RF-SCORE:    0.00 PKD
ROOT
HETATM    1  C   UNL     1      -9.538   5.427  70.952  1.00  0.00    -0.226 C  
HETATM    2  C   UNL     1      -9.002   6.054  69.708  1.00  0.00    -0.135 C  
HETATM    3  C   UNL     1      -9.456   7.196  69.178  1.00  0.00    -0.147 C  
HETATM    4  N   UNL     1      -8.944   7.738  68.011  1.00  0.00    -0.127 N  
HETATM    5  C   UNL     1      -7.859   7.153  67.367  1.00  0.00    -0.112 C  
HETATM    6  O   UNL     1      -7.445   4.292  69.417  1.00  0.00    -0.054 OA 
HETATM    7  O   UNL     1      -7.326   7.611  66.356  1.00  0.00    -0.076 OA 
HETATM    8  H   UNL     1      -6.592   5.555  67.459  1.00  0.00     0.000 HD 
HETATM    9  N   UNL     1      -7.392   5.992  67.917  1.00  0.00    -0.082 N  
HETATM   10  C   UNL     1      -7.890   5.361  69.019  1.00  0.00    -0.090 C  
ENDROOT
BRANCH   4  11
HETATM   11  C   UNL     1      -9.450   8.994  67.457  1.00  0.00    -0.137 C  
HETATM   12  C   UNL     1      -8.380  10.063  67.266  1.00  0.00    -0.121 C  
HETATM   13  O   UNL     1     -10.032   8.787  66.154  1.00  0.00    -0.275 OA 
HETATM   14  C   UNL     1      -8.975  10.941  66.190  1.00  0.00    -0.183 C  
HETATM   15  C   UNL     1      -9.768   9.948  65.335  1.00  0.00    -0.306 C  
BRANCH  14  16
HETATM   16  N   UNL     1      -9.917  11.898  66.807  1.00  0.00    -0.194 NA 
HETATM   17  H   UNL     1      -9.691  12.402  67.664  1.00  0.00     0.000 HD 
BRANCH  16  18
HETATM   18  N   UNL     1     -11.003  12.051  66.217  1.00  0.00    -0.286 NA 
HETATM   19  N   UNL     1     -11.994  12.190  65.673  1.00  0.00    -0.523 NA 
HETATM   20  H1  UNL     1     -12.883  12.316  65.189  1.00  0.00     0.000 HD 
HETATM   21  H2  UNL     1     -11.510  12.094  64.779  1.00  0.00     0.000 HD 
ENDBRANCH  16  18
ENDBRANCH  14  16
BRANCH  15  22
HETATM   22  C   UNL     1      -9.011   9.491  64.085  1.00  0.00    -0.198 C  
HETATM   23  H   UNL     1      -7.269   9.843  63.210  1.00  0.00     0.000 HD 
HETATM   24  O   UNL     1      -7.739  10.127  63.986  1.00  0.00    -0.148 OA 
ENDBRANCH  15  22
ENDBRANCH   4  11
TORSDOF 4
ENDMDL
MODEL      221
REMARK 921   NORMALIZED FREE ENERGY PREDICTED BY IDOCK:   -2.07 KCAL/MOL
REMARK 922        TOTAL FREE ENERGY PREDICTED BY IDOCK:   -3.07 KCAL/MOL
REMARK 923 INTER-LIGAND FREE ENERGY PREDICTED BY IDOCK:   -2.85 KCAL/MOL
REMARK 924 INTRA-LIGAND FREE ENERGY PREDICTED BY IDOCK:   -0.22 KCAL/MOL
REMARK 927      BINDING AFFINITY PREDICTED BY RF-SCORE:    0.00 PKD
ROOT
HETATM    1  C   UNL     1      -6.282  15.065  70.439  1.00  0.00    -0.097 C  
HETATM    2  C   UNL     1      -5.978  16.474  70.049  1.00  0.00    -0.179 C  
HETATM    3  C   UNL     1      -6.161  16.979  68.823  1.00  0.00    -0.167 C  
HETATM    4  N   UNL     1      -5.851  18.288  68.496  1.00  0.00    -0.179 N  
HETATM    5  C   UNL     1      -5.404  19.180  69.464  1.00  0.00    -0.193 C  
HETATM    6  O   UNL     1      -5.207  16.977  72.233  1.00  0.00     0.084 OA 
HETATM    7  O   UNL     1      -5.160  20.367  69.250  1.00  0.00    -0.200 OA 
HETATM    8  H   UNL     1      -4.906  19.308  71.440  1.00  0.00     0.000 HD 
HETATM    9  N   UNL     1      -5.228  18.664  70.718  1.00  0.00    -0.249 N  
HETATM   10  C   UNL     1      -5.441  17.371  71.097  1.00  0.00     0.095 C  
ENDROOT
BRANCH   4  11
HETATM   11  C   UNL     1      -6.071  18.819  67.150  1.00  0.00    -0.166 C  
HETATM   12  C   UNL     1      -6.376  17.750  66.106  1.00  0.00    -0.278 C  
HETATM   13  O   UNL     1      -7.196  19.720  67.127  1.00  0.00    -0.214 OA 
HETATM   14  C   UNL     1      -7.126  18.526  65.047  1.00  0.00     0.806 C  
HETATM   15  C   UNL     1      -7.880  19.580  65.862  1.00  0.00    -0.253 C  
BRANCH  14  16
HETATM   16  N   UNL     1      -6.157  19.208  64.165  1.00  0.00    -0.449 NA 
HETATM   17  H   UNL     1      -5.266  18.783  63.909  1.00  0.00     0.000 HD 
BRANCH  16  18
HETATM   18  N   UNL     1      -6.494  20.334  63.753  1.00  0.00    -0.168 NA 
HETATM   19  N   UNL     1      -6.803  21.366  63.381  1.00  0.00    -0.385 NA 
HETATM   20  H1  UNL     1      -7.079  22.288  63.044  1.00  0.00     0.000 HD 
HETATM   21  H2  UNL     1      -6.879  21.685  64.347  1.00  0.00     0.000 HD 
ENDBRANCH  16  18
ENDBRANCH  14  16
BRANCH  15  22
HETATM   22  C   UNL     1      -9.336  19.195  66.145  1.00  0.00    -0.239 C  
HETATM   23  H   UNL     1     -11.140  19.968  65.877  1.00  0.00     0.000 HD 
HETATM   24  O   UNL     1     -10.237  20.206  65.701  1.00  0.00    -0.416 OA 
ENDBRANCH  15  22
ENDBRANCH   4  11
TORSDOF 4
ENDMDL
MODEL      222
REMARK 921   NORMALIZED FREE ENERGY PREDICTED BY IDOCK:   -2.07 KCAL/MOL
REMARK 922        TOTAL FREE ENERGY PREDICTED BY IDOCK:   -3.07 KCAL/MOL
REMARK 923 INTER-LIGAND FREE ENERGY PREDICTED BY IDOCK:   -2.67 KCAL/MOL
REMARK 924 INTRA-LIGAND FREE ENERGY PREDICTED BY IDOCK:   -0.40 KCAL/MOL
REMARK 927      BINDING AFFINITY PREDICTED BY RF-SCORE:    0.00 PKD
ROOT
HETATM    1  C   UNL     1      -5.959  10.096  70.365  1.00  0.00    -0.092 C  
HETATM    2  C   UNL     1      -6.725   9.693  69.148  1.00  0.00    -0.049 C  
HETATM    3  C   UNL     1      -7.458   8.578  69.047  1.00  0.00    -0.089 C  
HETATM    4  N   UNL     1      -8.141   8.231  67.894  1.00  0.00    -0.125 N  
HETATM    5  C   UNL     1      -8.164   9.080  66.793  1.00  0.00    -0.115 C  
HETATM    6  O   UNL     1      -5.987  11.615  67.974  1.00  0.00    -0.046 OA 
HETATM    7  O   UNL     1      -8.791   8.854  65.759  1.00  0.00    -0.162 OA 
HETATM    8  H   UNL     1      -7.435  10.859  66.107  1.00  0.00     0.000 HD 
HETATM    9  N   UNL     1      -7.422  10.223  66.904  1.00  0.00    -0.099 N  
HETATM   10  C   UNL     1      -6.667  10.596  67.977  1.00  0.00    -0.064 C  
ENDROOT
BRANCH   4  11
HETATM   11  C   UNL     1      -8.945   7.011  67.812  1.00  0.00    -0.121 C  
HETATM   12  C   UNL     1      -8.361   5.833  68.585  1.00  0.00    -0.107 C  
HETATM   13  O   UNL     1     -10.262   7.222  68.359  1.00  0.00    -0.169 OA 
HETATM   14  C   UNL     1      -9.577   4.976  68.852  1.00  0.00    -0.151 C  
HETATM   15  C   UNL     1     -10.697   6.008  69.010  1.00  0.00    -0.324 C  
BRANCH  14  16
HETATM   16  N   UNL     1      -9.859   4.145  67.663  1.00  0.00    -0.119 NA 
HETATM   17  H   UNL     1     -10.801   4.041  67.287  1.00  0.00     0.000 HD 
BRANCH  16  18
HETATM   18  N   UNL     1      -8.877   3.580  67.148  1.00  0.00    -0.120 NA 
HETATM   19  N   UNL     1      -7.981   3.059  66.673  1.00  0.00    -0.077 NA 
HETATM   20  H1  UNL     1      -7.176   2.597  66.251  1.00  0.00     0.000 HD 
HETATM   21  H2  UNL     1      -8.611   2.390  66.231  1.00  0.00     0.000 HD 
ENDBRANCH  16  18
ENDBRANCH  14  16
BRANCH  15  22
HETATM   22  C   UNL     1     -11.012   6.335  70.473  1.00  0.00    -0.312 C  
HETATM   23  H   UNL     1     -12.425   7.272  71.499  1.00  0.00     0.000 HD 
HETATM   24  O   UNL     1     -12.229   7.069  70.591  1.00  0.00    -0.330 OA 
ENDBRANCH  15  22
ENDBRANCH   4  11
TORSDOF 4
ENDMDL
MODEL      223
REMARK 921   NORMALIZED FREE ENERGY PREDICTED BY IDOCK:   -2.00 KCAL/MOL
REMARK 922        TOTAL FREE ENERGY PREDICTED BY IDOCK:   -2.98 KCAL/MOL
REMARK 923 INTER-LIGAND FREE ENERGY PREDICTED BY IDOCK:   -2.74 KCAL/MOL
REMARK 924 INTRA-LIGAND FREE ENERGY PREDICTED BY IDOCK:   -0.24 KCAL/MOL
REMARK 927      BINDING AFFINITY PREDICTED BY RF-SCORE:    0.00 PKD
ROOT
HETATM    1  C   UNL     1      -9.008   3.270  65.236  1.00  0.00    -0.142 C  
HETATM    2  C   UNL     1      -8.368   3.224  66.584  1.00  0.00    -0.102 C  
HETATM    3  C   UNL     1      -8.900   3.750  67.694  1.00  0.00    -0.118 C  
HETATM    4  N   UNL     1      -8.266   3.701  68.925  1.00  0.00    -0.064 N  
HETATM    5  C   UNL     1      -7.065   3.021  69.085  1.00  0.00    -0.045 C  
HETATM    6  O   UNL     1      -6.485   2.075  65.718  1.00  0.00    -0.023 OA 
HETATM    7  O   UNL     1      -6.477   2.898  70.159  1.00  0.00    -0.027 OA 
HETATM    8  H   UNL     1      -5.651   1.969  68.053  1.00  0.00     0.000 HD 
HETATM    9  N   UNL     1      -6.530   2.477  67.950  1.00  0.00    -0.032 N  
HETATM   10  C   UNL     1      -7.057   2.547  66.694  1.00  0.00    -0.049 C  
ENDROOT
BRANCH   4  11
HETATM   11  C   UNL     1      -8.874   4.274  70.127  1.00  0.00    -0.081 C  
HETATM   12  C   UNL     1      -8.244   5.590  70.571  1.00  0.00    -0.112 C  
HETATM   13  O   UNL     1     -10.270   4.562  69.913  1.00  0.00    -0.208 OA 
HETATM   14  C   UNL     1      -9.354   6.238  71.366  1.00  0.00    -0.152 C  
HETATM   15  C   UNL     1     -10.618   5.758  70.647  1.00  0.00    -0.277 C  
BRANCH  14  16
HETATM   16  N   UNL     1      -9.351   5.693  72.740  1.00  0.00    -0.139 NA 
HETATM   17  H   UNL     1      -8.489   5.571  73.271  1.00  0.00     0.000 HD 
BRANCH  16  18
HETATM   18  N   UNL     1     -10.464   5.393  73.210  1.00  0.00    -0.208 NA 
HETATM   19  N   UNL     1     -11.481   5.117  73.644  1.00  0.00    -0.428 NA 
HETATM   20  H1  UNL     1     -12.393   4.871  74.029  1.00  0.00     0.000 HD 
HETATM   21  H2  UNL     1     -11.028   4.847  74.518  1.00  0.00     0.000 HD 
ENDBRANCH  16  18
ENDBRANCH  14  16
BRANCH  15  22
HETATM   22  C   UNL     1     -11.173   6.785  69.656  1.00  0.00    -0.292 C  
HETATM   23  H   UNL     1     -11.071   8.739  69.352  1.00  0.00     0.000 HD 
HETATM   24  O   UNL     1     -10.726   8.102  69.967  1.00  0.00    -0.240 OA 
ENDBRANCH  15  22
ENDBRANCH   4  11
TORSDOF 4
ENDMDL
MODEL      224
REMARK 921   NORMALIZED FREE ENERGY PREDICTED BY IDOCK:   -1.98 KCAL/MOL
REMARK 922        TOTAL FREE ENERGY PREDICTED BY IDOCK:   -2.95 KCAL/MOL
REMARK 923 INTER-LIGAND FREE ENERGY PREDICTED BY IDOCK:   -3.58 KCAL/MOL
REMARK 924 INTRA-LIGAND FREE ENERGY PREDICTED BY IDOCK:    0.63 KCAL/MOL
REMARK 927      BINDING AFFINITY PREDICTED BY RF-SCORE:    0.00 PKD
ROOT
HETATM    1  C   UNL     1     -10.052   3.336  73.821  1.00  0.00    -0.188 C  
HETATM    2  C   UNL     1      -9.473   4.230  72.775  1.00  0.00    -0.158 C  
HETATM    3  C   UNL     1     -10.038   5.367  72.352  1.00  0.00    -0.182 C  
HETATM    4  N   UNL     1      -9.478   6.161  71.365  1.00  0.00    -0.156 N  
HETATM    5  C   UNL     1      -8.239   5.853  70.816  1.00  0.00    -0.124 C  
HETATM    6  O   UNL     1      -7.622   2.781  72.473  1.00  0.00    -0.050 OA 
HETATM    7  O   UNL     1      -7.664   6.542  69.974  1.00  0.00    -0.097 OA 
HETATM    8  H   UNL     1      -6.747   4.459  70.869  1.00  0.00     0.000 HD 
HETATM    9  N   UNL     1      -7.660   4.695  71.258  1.00  0.00    -0.077 N  
HETATM   10  C   UNL     1      -8.184   3.827  72.170  1.00  0.00    -0.077 C  
ENDROOT
BRANCH   4  11
HETATM   11  C   UNL     1     -10.110   7.406  70.927  1.00  0.00    -0.188 C  
HETATM   12  C   UNL     1      -9.837   8.595  71.842  1.00  0.00    -0.384 C  
HETATM   13  O   UNL     1      -9.632   7.798  69.625  1.00  0.00    -0.163 OA 
HETATM   14  C   UNL     1     -10.037   9.776  70.921  1.00  0.00    -0.065 C  
HETATM   15  C   UNL     1      -9.565   9.241  69.567  1.00  0.00    -0.173 C  
BRANCH  14  16
HETATM   16  N   UNL     1     -11.479  10.087  70.834  1.00  0.00    -0.347 NA 
HETATM   17  H   UNL     1     -12.195   9.377  70.984  1.00  0.00     0.000 HD 
BRANCH  16  18
HETATM   18  N   UNL     1     -11.767  11.269  70.568  1.00  0.00    -0.310 NA 
HETATM   19  N   UNL     1     -12.025  12.352  70.327  1.00  0.00    -0.488 NA 
HETATM   20  H1  UNL     1     -12.261  13.320  70.108  1.00  0.00     0.000 HD 
HETATM   21  H2  UNL     1     -11.212  12.660  70.861  1.00  0.00     0.000 HD 
ENDBRANCH  16  18
ENDBRANCH  14  16
BRANCH  15  22
HETATM   22  C   UNL     1      -8.125   9.640  69.230  1.00  0.00    -0.107 C  
HETATM   23  H   UNL     1      -6.575  10.464  70.148  1.00  0.00     0.000 HD 
HETATM   24  O   UNL     1      -7.468  10.216  70.357  1.00  0.00    -0.247 OA 
ENDBRANCH  15  22
ENDBRANCH   4  11
TORSDOF 4
ENDMDL
MODEL      225
REMARK 921   NORMALIZED FREE ENERGY PREDICTED BY IDOCK:   -1.91 KCAL/MOL
REMARK 922        TOTAL FREE ENERGY PREDICTED BY IDOCK:   -2.87 KCAL/MOL
REMARK 923 INTER-LIGAND FREE ENERGY PREDICTED BY IDOCK:   -2.36 KCAL/MOL
REMARK 924 INTRA-LIGAND FREE ENERGY PREDICTED BY IDOCK:   -0.51 KCAL/MOL
REMARK 927      BINDING AFFINITY PREDICTED BY RF-SCORE:    0.00 PKD
ROOT
HETATM    1  C   UNL     1      -6.098   9.980  69.972  1.00  0.00    -0.059 C  
HETATM    2  C   UNL     1      -7.221   9.446  69.146  1.00  0.00    -0.066 C  
HETATM    3  C   UNL     1      -7.437   8.147  68.907  1.00  0.00    -0.089 C  
HETATM    4  N   UNL     1      -8.481   7.692  68.120  1.00  0.00    -0.124 N  
HETATM    5  C   UNL     1      -9.421   8.573  67.598  1.00  0.00    -0.145 C  
HETATM    6  O   UNL     1      -8.009  11.635  68.693  1.00  0.00    -0.144 OA 
HETATM    7  O   UNL     1     -10.398   8.229  66.934  1.00  0.00    -0.298 OA 
HETATM    8  H   UNL     1      -9.888  10.557  67.482  1.00  0.00     0.000 HD 
HETATM    9  N   UNL     1      -9.203   9.899  67.853  1.00  0.00    -0.131 N  
HETATM   10  C   UNL     1      -8.160  10.427  68.555  1.00  0.00    -0.116 C  
ENDROOT
BRANCH   4  11
HETATM   11  C   UNL     1      -8.701   6.264  67.883  1.00  0.00    -0.114 C  
HETATM   12  C   UNL     1      -7.615   5.602  67.043  1.00  0.00    -0.096 C  
HETATM   13  O   UNL     1      -8.735   5.533  69.125  1.00  0.00    -0.103 OA 
HETATM   14  C   UNL     1      -7.723   4.149  67.446  1.00  0.00    -0.084 C  
HETATM   15  C   UNL     1      -8.145   4.230  68.916  1.00  0.00    -0.072 C  
BRANCH  14  16
HETATM   16  N   UNL     1      -8.808   3.508  66.674  1.00  0.00    -0.125 NA 
HETATM   17  H   UNL     1      -9.166   3.911  65.808  1.00  0.00     0.000 HD 
BRANCH  16  18
HETATM   18  N   UNL     1      -9.257   2.446  67.144  1.00  0.00    -0.131 NA 
HETATM   19  N   UNL     1      -9.668   1.472  67.569  1.00  0.00    -0.394 NA 
HETATM   20  H1  UNL     1     -10.036   0.603  67.954  1.00  0.00     0.000 HD 
HETATM   21  H2  UNL     1      -9.483   1.011  66.678  1.00  0.00     0.000 HD 
ENDBRANCH  16  18
ENDBRANCH  14  16
BRANCH  15  22
HETATM   22  C   UNL     1      -6.971   4.074  69.888  1.00  0.00    -0.042 C  
HETATM   23  H   UNL     1      -5.562   2.741  70.289  1.00  0.00     0.000 HD 
HETATM   24  O   UNL     1      -6.290   2.838  69.686  1.00  0.00    -0.027 OA 
ENDBRANCH  15  22
ENDBRANCH   4  11
TORSDOF 4
ENDMDL
MODEL      226
REMARK 921   NORMALIZED FREE ENERGY PREDICTED BY IDOCK:   -1.91 KCAL/MOL
REMARK 922        TOTAL FREE ENERGY PREDICTED BY IDOCK:   -2.86 KCAL/MOL
REMARK 923 INTER-LIGAND FREE ENERGY PREDICTED BY IDOCK:   -2.42 KCAL/MOL
REMARK 924 INTRA-LIGAND FREE ENERGY PREDICTED BY IDOCK:   -0.44 KCAL/MOL
REMARK 927      BINDING AFFINITY PREDICTED BY RF-SCORE:    0.00 PKD
ROOT
HETATM    1  C   UNL     1      -7.535   8.052  74.138  1.00  0.00    -0.223 C  
HETATM    2  C   UNL     1      -7.101   8.237  72.722  1.00  0.00    -0.126 C  
HETATM    3  C   UNL     1      -7.636   7.596  71.675  1.00  0.00    -0.085 C  
HETATM    4  N   UNL     1      -7.193   7.782  70.376  1.00  0.00    -0.057 N  
HETATM    5  C   UNL     1      -6.210   8.719  70.082  1.00  0.00    -0.034 C  
HETATM    6  O   UNL     1      -5.436   9.793  73.370  1.00  0.00    -0.312 OA 
HETATM    7  O   UNL     1      -5.808   8.968  68.946  1.00  0.00    -0.040 OA 
HETATM    8  H   UNL     1      -4.955  10.075  70.953  1.00  0.00     0.000 HD 
HETATM    9  N   UNL     1      -5.673   9.379  71.153  1.00  0.00    -0.058 N  
HETATM   10  C   UNL     1      -6.005   9.197  72.463  1.00  0.00     0.034 C  
ENDROOT
BRANCH   4  11
HETATM   11  C   UNL     1      -7.802   7.077  69.247  1.00  0.00    -0.114 C  
HETATM   12  C   UNL     1      -7.203   5.700  68.981  1.00  0.00    -0.073 C  
HETATM   13  O   UNL     1      -9.208   6.854  69.474  1.00  0.00    -0.148 OA 
HETATM   14  C   UNL     1      -8.321   4.986  68.257  1.00  0.00    -0.095 C  
HETATM   15  C   UNL     1      -9.579   5.585  68.891  1.00  0.00    -0.136 C  
BRANCH  14  16
HETATM   16  N   UNL     1      -8.287   5.352  66.826  1.00  0.00    -0.108 NA 
HETATM   17  H   UNL     1      -7.415   5.575  66.345  1.00  0.00     0.000 HD 
BRANCH  16  18
HETATM   18  N   UNL     1      -9.386   5.372  66.243  1.00  0.00    -0.151 NA 
HETATM   19  N   UNL     1     -10.393   5.396  65.710  1.00  0.00    -0.436 NA 
HETATM   20  H1  UNL     1     -11.294   5.413  65.232  1.00  0.00     0.000 HD 
HETATM   21  H2  UNL     1     -10.457   6.399  65.886  1.00  0.00     0.000 HD 
ENDBRANCH  16  18
ENDBRANCH  14  16
BRANCH  15  22
HETATM   22  C   UNL     1     -10.174   4.706  69.995  1.00  0.00    -0.100 C  
HETATM   23  H   UNL     1     -10.052   2.825  70.603  1.00  0.00     0.000 HD 
HETATM   24  O   UNL     1      -9.683   3.370  69.918  1.00  0.00    -0.161 OA 
ENDBRANCH  15  22
ENDBRANCH   4  11
TORSDOF 4
ENDMDL
MODEL      227
REMARK 921   NORMALIZED FREE ENERGY PREDICTED BY IDOCK:   -1.90 KCAL/MOL
REMARK 922        TOTAL FREE ENERGY PREDICTED BY IDOCK:   -2.85 KCAL/MOL
REMARK 923 INTER-LIGAND FREE ENERGY PREDICTED BY IDOCK:   -3.21 KCAL/MOL
REMARK 924 INTRA-LIGAND FREE ENERGY PREDICTED BY IDOCK:    0.36 KCAL/MOL
REMARK 927      BINDING AFFINITY PREDICTED BY RF-SCORE:    0.00 PKD
ROOT
HETATM    1  C   UNL     1     -10.351  11.775  64.122  1.00  0.00    -0.376 C  
HETATM    2  C   UNL     1     -10.402  11.795  65.614  1.00  0.00    -0.293 C  
HETATM    3  C   UNL     1      -9.628  11.046  66.409  1.00  0.00    -0.198 C  
HETATM    4  N   UNL     1      -9.717  11.080  67.790  1.00  0.00    -0.168 N  
HETATM    5  C   UNL     1     -10.573  11.969  68.431  1.00  0.00    -0.217 C  
HETATM    6  O   UNL     1     -12.146  13.398  65.595  1.00  0.00    -0.383 OA 
HETATM    7  O   UNL     1     -10.663  12.084  69.653  1.00  0.00     0.074 OA 
HETATM    8  H   UNL     1     -11.982  13.402  68.070  1.00  0.00     0.000 HD 
HETATM    9  N   UNL     1     -11.354  12.739  67.615  1.00  0.00    -0.290 N  
HETATM   10  C   UNL     1     -11.375  12.709  66.252  1.00  0.00    -0.329 C  
ENDROOT
BRANCH   4  11
HETATM   11  C   UNL     1      -8.852  10.258  68.638  1.00  0.00    -0.137 C  
HETATM   12  C   UNL     1      -9.605   9.245  69.493  1.00  0.00    -0.178 C  
HETATM   13  O   UNL     1      -7.929   9.488  67.842  1.00  0.00    -0.098 OA 
HETATM   14  C   UNL     1      -8.556   8.191  69.762  1.00  0.00    -0.133 C  
HETATM   15  C   UNL     1      -7.713   8.211  68.483  1.00  0.00    -0.112 C  
BRANCH  14  16
HETATM   16  N   UNL     1      -7.711   8.622  70.895  1.00  0.00    -0.085 NA 
HETATM   17  H   UNL     1      -7.986   8.465  71.865  1.00  0.00     0.000 HD 
BRANCH  16  18
HETATM   18  N   UNL     1      -6.644   9.188  70.595  1.00  0.00    -0.062 NA 
HETATM   19  N   UNL     1      -5.668   9.706  70.315  1.00  0.00    -0.041 NA 
HETATM   20  H1  UNL     1      -4.793  10.170  70.069  1.00  0.00     0.000 HD 
HETATM   21  H2  UNL     1      -5.968   9.733  69.340  1.00  0.00     0.000 HD 
ENDBRANCH  16  18
ENDBRANCH  14  16
BRANCH  15  22
HETATM   22  C   UNL     1      -8.098   7.107  67.492  1.00  0.00    -0.113 C  
HETATM   23  H   UNL     1      -7.451   5.309  66.971  1.00  0.00     0.000 HD 
HETATM   24  O   UNL     1      -7.213   5.993  67.586  1.00  0.00    -0.073 OA 
ENDBRANCH  15  22
ENDBRANCH   4  11
TORSDOF 4
ENDMDL
MODEL      228
REMARK 921   NORMALIZED FREE ENERGY PREDICTED BY IDOCK:   -1.85 KCAL/MOL
REMARK 922        TOTAL FREE ENERGY PREDICTED BY IDOCK:   -2.80 KCAL/MOL
REMARK 923 INTER-LIGAND FREE ENERGY PREDICTED BY IDOCK:   -3.18 KCAL/MOL
REMARK 924 INTRA-LIGAND FREE ENERGY PREDICTED BY IDOCK:    0.38 KCAL/MOL
REMARK 927      BINDING AFFINITY PREDICTED BY RF-SCORE:    0.00 PKD
ROOT
HETATM    1  C   UNL     1     -10.865   8.212  67.082  1.00  0.00    -0.120 C  
HETATM    2  C   UNL     1     -10.388   8.314  68.493  1.00  0.00    -0.230 C  
HETATM    3  C   UNL     1      -9.729   7.347  69.143  1.00  0.00    -0.165 C  
HETATM    4  N   UNL     1      -9.317   7.474  70.459  1.00  0.00    -0.161 N  
HETATM    5  C   UNL     1      -9.499   8.664  71.155  1.00  0.00    -0.215 C  
HETATM    6  O   UNL     1     -11.293  10.494  68.707  1.00  0.00    -0.255 OA 
HETATM    7  O   UNL     1      -9.112   8.858  72.307  1.00  0.00    -0.381 OA 
HETATM    8  H   UNL     1     -10.298  10.534  70.979  1.00  0.00     0.000 HD 
HETATM    9  N   UNL     1     -10.163   9.653  70.484  1.00  0.00    -0.281 N  
HETATM   10  C   UNL     1     -10.662   9.576  69.217  1.00  0.00    -0.222 C  
ENDROOT
BRANCH   4  11
HETATM   11  C   UNL     1      -8.588   6.405  71.145  1.00  0.00    -0.128 C  
HETATM   12  C   UNL     1      -7.294   6.865  71.806  1.00  0.00    -0.084 C  
HETATM   13  O   UNL     1      -9.385   5.832  72.200  1.00  0.00    -0.146 OA 
HETATM   14  C   UNL     1      -7.084   5.825  72.883  1.00  0.00    -0.085 C  
HETATM   15  C   UNL     1      -8.515   5.462  73.293  1.00  0.00    -0.117 C  
BRANCH  14  16
HETATM   16  N   UNL     1      -6.440   4.634  72.293  1.00  0.00    -0.029 NA 
HETATM   17  H   UNL     1      -5.558   4.693  71.785  1.00  0.00     0.000 HD 
BRANCH  16  18
HETATM   18  N   UNL     1      -7.039   3.554  72.453  1.00  0.00    -0.045 NA 
HETATM   19  N   UNL     1      -7.592   2.568  72.596  1.00  0.00    -0.050 NA 
HETATM   20  H1  UNL     1      -8.083   1.684  72.728  1.00  0.00     0.000 HD 
HETATM   21  H2  UNL     1      -8.311   2.882  71.944  1.00  0.00     0.000 HD 
ENDBRANCH  16  18
ENDBRANCH  14  16
BRANCH  15  22
HETATM   22  C   UNL     1      -8.986   6.197  74.552  1.00  0.00    -0.141 C  
HETATM   23  H   UNL     1     -10.681   6.906  75.292  1.00  0.00     0.000 HD 
HETATM   24  O   UNL     1     -10.388   6.450  74.512  1.00  0.00    -0.329 OA 
ENDBRANCH  15  22
ENDBRANCH   4  11
TORSDOF 4
ENDMDL
MODEL      229
REMARK 921   NORMALIZED FREE ENERGY PREDICTED BY IDOCK:   -1.82 KCAL/MOL
REMARK 922        TOTAL FREE ENERGY PREDICTED BY IDOCK:   -2.76 KCAL/MOL
REMARK 923 INTER-LIGAND FREE ENERGY PREDICTED BY IDOCK:   -3.94 KCAL/MOL
REMARK 924 INTRA-LIGAND FREE ENERGY PREDICTED BY IDOCK:    1.19 KCAL/MOL
REMARK 927      BINDING AFFINITY PREDICTED BY RF-SCORE:    0.00 PKD
ROOT
HETATM    1  C   UNL     1      -9.369   3.465  65.639  1.00  0.00    -0.147 C  
HETATM    2  C   UNL     1      -9.207   3.728  67.100  1.00  0.00    -0.205 C  
HETATM    3  C   UNL     1     -10.034   4.483  67.831  1.00  0.00    -0.053 C  
HETATM    4  N   UNL     1      -9.840   4.718  69.182  1.00  0.00    -0.188 N  
HETATM    5  C   UNL     1      -8.803   4.102  69.873  1.00  0.00    -0.082 C  
HETATM    6  O   UNL     1      -7.224   2.432  67.175  1.00  0.00    -0.054 OA 
HETATM    7  O   UNL     1      -8.605   4.229  71.081  1.00  0.00    -0.090 OA 
HETATM    8  H   UNL     1      -7.203   2.859  69.619  1.00  0.00     0.000 HD 
HETATM    9  N   UNL     1      -7.965   3.323  69.124  1.00  0.00    -0.050 N  
HETATM   10  C   UNL     1      -8.049   3.105  67.781  1.00  0.00    -0.079 C  
ENDROOT
BRANCH   4  11
HETATM   11  C   UNL     1     -10.766   5.540  69.963  1.00  0.00    -0.286 C  
HETATM   12  C   UNL     1     -10.238   5.930  71.338  1.00  0.00    -0.261 C  
HETATM   13  O   UNL     1     -11.050   6.781  69.287  1.00  0.00    -0.260 OA 
HETATM   14  C   UNL     1     -11.022   7.183  71.652  1.00  0.00    -0.228 C  
HETATM   15  C   UNL     1     -11.214   7.823  70.274  1.00  0.00    -0.206 C  
BRANCH  14  16
HETATM   16  N   UNL     1     -12.346   6.808  72.191  1.00  0.00    -0.513 NA 
HETATM   17  H   UNL     1     -12.450   6.338  73.091  1.00  0.00     0.000 HD 
BRANCH  16  18
HETATM   18  N   UNL     1     -13.326   7.099  71.482  1.00  0.00    -0.377 NA 
HETATM   19  N   UNL     1     -14.225   7.361  70.833  1.00  0.00    -0.504 NA 
HETATM   20  H1  UNL     1     -15.029   7.600  70.251  1.00  0.00     0.000 HD 
HETATM   21  H2  UNL     1     -14.576   6.410  70.943  1.00  0.00     0.000 HD 
ENDBRANCH  16  18
ENDBRANCH  14  16
BRANCH  15  22
HETATM   22  C   UNL     1     -10.196   8.929  69.977  1.00  0.00    -0.199 C  
HETATM   23  H   UNL     1      -9.288   9.705  68.397  1.00  0.00     0.000 HD 
HETATM   24  O   UNL     1      -9.920   9.020  68.582  1.00  0.00    -0.162 OA 
ENDBRANCH  15  22
ENDBRANCH   4  11
TORSDOF 4
ENDMDL
MODEL      230
REMARK 921   NORMALIZED FREE ENERGY PREDICTED BY IDOCK:   -1.77 KCAL/MOL
REMARK 922        TOTAL FREE ENERGY PREDICTED BY IDOCK:   -2.70 KCAL/MOL
REMARK 923 INTER-LIGAND FREE ENERGY PREDICTED BY IDOCK:   -3.16 KCAL/MOL
REMARK 924 INTRA-LIGAND FREE ENERGY PREDICTED BY IDOCK:    0.47 KCAL/MOL
REMARK 927      BINDING AFFINITY PREDICTED BY RF-SCORE:    0.00 PKD
ROOT
HETATM    1  C   UNL     1      -6.751   2.969  68.745  1.00  0.00    -0.037 C  
HETATM    2  C   UNL     1      -7.878   3.862  69.144  1.00  0.00    -0.052 C  
HETATM    3  C   UNL     1      -7.959   5.164  68.842  1.00  0.00    -0.085 C  
HETATM    4  N   UNL     1      -9.015   5.964  69.246  1.00  0.00    -0.117 N  
HETATM    5  C   UNL     1     -10.100   5.426  69.928  1.00  0.00    -0.252 C  
HETATM    6  O   UNL     1      -8.963   2.087  70.278  1.00  0.00    -0.069 OA 
HETATM    7  O   UNL     1     -11.091   6.071  70.270  1.00  0.00    -0.328 OA 
HETATM    8  H   UNL     1     -10.811   3.683  70.721  1.00  0.00     0.000 HD 
HETATM    9  N   UNL     1     -10.018   4.094  70.226  1.00  0.00    -0.161 N  
HETATM   10  C   UNL     1      -8.981   3.260  69.927  1.00  0.00    -0.108 C  
ENDROOT
BRANCH   4  11
HETATM   11  C   UNL     1      -9.086   7.382  68.893  1.00  0.00    -0.136 C  
HETATM   12  C   UNL     1     -10.414   7.800  68.271  1.00  0.00    -0.215 C  
HETATM   13  O   UNL     1      -8.922   8.213  70.059  1.00  0.00    -0.141 OA 
HETATM   14  C   UNL     1     -10.467   9.281  68.565  1.00  0.00    -0.206 C  
HETATM   15  C   UNL     1      -9.748   9.390  69.913  1.00  0.00    -0.212 C  
BRANCH  14  16
HETATM   16  N   UNL     1      -9.683  10.010  67.547  1.00  0.00    -0.156 NA 
HETATM   17  H   UNL     1      -9.917   9.971  66.555  1.00  0.00     0.000 HD 
BRANCH  16  18
HETATM   18  N   UNL     1      -8.719  10.673  67.973  1.00  0.00    -0.124 NA 
HETATM   19  N   UNL     1      -7.841  11.283  68.366  1.00  0.00    -0.128 NA 
HETATM   20  H1  UNL     1      -7.052  11.827  68.715  1.00  0.00     0.000 HD 
HETATM   21  H2  UNL     1      -8.466  11.750  69.023  1.00  0.00     0.000 HD 
ENDBRANCH  16  18
ENDBRANCH  14  16
BRANCH  15  22
HETATM   22  C   UNL     1     -10.709   9.451  71.105  1.00  0.00    -0.347 C  
HETATM   23  H   UNL     1     -12.592   9.960  71.451  1.00  0.00     0.000 HD 
HETATM   24  O   UNL     1     -11.996   9.922  70.712  1.00  0.00    -0.291 OA 
ENDBRANCH  15  22
ENDBRANCH   4  11
TORSDOF 4
ENDMDL
MODEL      231
REMARK 921   NORMALIZED FREE ENERGY PREDICTED BY IDOCK:   -1.65 KCAL/MOL
REMARK 922        TOTAL FREE ENERGY PREDICTED BY IDOCK:   -2.55 KCAL/MOL
REMARK 923 INTER-LIGAND FREE ENERGY PREDICTED BY IDOCK:   -3.64 KCAL/MOL
REMARK 924 INTRA-LIGAND FREE ENERGY PREDICTED BY IDOCK:    1.09 KCAL/MOL
REMARK 927      BINDING AFFINITY PREDICTED BY RF-SCORE:    0.00 PKD
ROOT
HETATM    1  C   UNL     1      -7.747  10.230  65.679  1.00  0.00    -0.148 C  
HETATM    2  C   UNL     1      -7.625  10.130  67.164  1.00  0.00    -0.092 C  
HETATM    3  C   UNL     1      -8.498   9.496  67.956  1.00  0.00    -0.119 C  
HETATM    4  N   UNL     1      -8.358   9.440  69.333  1.00  0.00    -0.116 N  
HETATM    5  C   UNL     1      -7.242   9.979  69.961  1.00  0.00    -0.156 C  
HETATM    6  O   UNL     1      -5.630  11.409  67.147  1.00  0.00    -0.061 OA 
HETATM    7  O   UNL     1      -7.033   9.919  71.173  1.00  0.00    -0.338 OA 
HETATM    8  H   UNL     1      -5.519  11.012  69.594  1.00  0.00     0.000 HD 
HETATM    9  N   UNL     1      -6.347  10.617  69.147  1.00  0.00    -0.049 N  
HETATM   10  C   UNL     1      -6.453  10.776  67.797  1.00  0.00    -0.059 C  
ENDROOT
BRANCH   4  11
HETATM   11  C   UNL     1      -9.322   8.731  70.177  1.00  0.00    -0.169 C  
HETATM   12  C   UNL     1      -8.982   7.262  70.403  1.00  0.00    -0.151 C  
HETATM   13  O   UNL     1      -9.392   9.323  71.489  1.00  0.00    -0.287 OA 
HETATM   14  C   UNL     1      -9.698   6.951  71.698  1.00  0.00    -0.161 C  
HETATM   15  C   UNL     1      -9.618   8.277  72.461  1.00  0.00    -0.295 C  
BRANCH  14  16
HETATM   16  N   UNL     1     -11.116   6.651  71.411  1.00  0.00    -0.252 NA 
HETATM   17  H   UNL     1     -11.809   6.559  72.154  1.00  0.00     0.000 HD 
BRANCH  16  18
HETATM   18  N   UNL     1     -11.413   6.518  70.210  1.00  0.00    -0.388 NA 
HETATM   19  N   UNL     1     -11.689   6.398  69.111  1.00  0.00    -0.491 NA 
HETATM   20  H1  UNL     1     -11.933   6.289  68.126  1.00  0.00     0.000 HD 
HETATM   21  H2  UNL     1     -12.546   6.929  69.274  1.00  0.00     0.000 HD 
ENDBRANCH  16  18
ENDBRANCH  14  16
BRANCH  15  22
HETATM   22  C   UNL     1      -8.477   8.316  73.482  1.00  0.00    -0.195 C  
HETATM   23  H   UNL     1      -7.360   7.026  74.489  1.00  0.00     0.000 HD 
HETATM   24  O   UNL     1      -8.068   7.002  73.856  1.00  0.00    -0.111 OA 
ENDBRANCH  15  22
ENDBRANCH   4  11
TORSDOF 4
ENDMDL
MODEL      232
REMARK 921   NORMALIZED FREE ENERGY PREDICTED BY IDOCK:   -1.65 KCAL/MOL
REMARK 922        TOTAL FREE ENERGY PREDICTED BY IDOCK:   -2.55 KCAL/MOL
REMARK 923 INTER-LIGAND FREE ENERGY PREDICTED BY IDOCK:   -2.62 KCAL/MOL
REMARK 924 INTRA-LIGAND FREE ENERGY PREDICTED BY IDOCK:    0.07 KCAL/MOL
REMARK 927      BINDING AFFINITY PREDICTED BY RF-SCORE:    0.00 PKD
ROOT
HETATM    1  C   UNL     1      -9.125  12.453  66.660  1.00  0.00    -0.204 C  
HETATM    2  C   UNL     1      -8.532  11.730  67.825  1.00  0.00    -0.147 C  
HETATM    3  C   UNL     1      -8.938  10.532  68.261  1.00  0.00    -0.139 C  
HETATM    4  N   UNL     1      -8.373   9.901  69.356  1.00  0.00    -0.141 N  
HETATM    5  C   UNL     1      -7.283  10.455  70.018  1.00  0.00    -0.135 C  
HETATM    6  O   UNL     1      -7.012  13.503  68.229  1.00  0.00    -0.086 OA 
HETATM    7  O   UNL     1      -6.705   9.923  70.965  1.00  0.00    -0.300 OA 
HETATM    8  H   UNL     1      -6.061  12.091  70.034  1.00  0.00     0.000 HD 
HETATM    9  N   UNL     1      -6.865  11.675  69.563  1.00  0.00    -0.091 N  
HETATM   10  C   UNL     1      -7.416  12.389  68.540  1.00  0.00    -0.112 C  
ENDROOT
BRANCH   4  11
HETATM   11  C   UNL     1      -8.828   8.585  69.807  1.00  0.00    -0.137 C  
HETATM   12  C   UNL     1      -9.589   7.797  68.747  1.00  0.00    -0.154 C  
HETATM   13  O   UNL     1      -7.712   7.754  70.185  1.00  0.00    -0.086 OA 
HETATM   14  C   UNL     1      -9.404   6.367  69.199  1.00  0.00    -0.132 C  
HETATM   15  C   UNL     1      -8.010   6.384  69.833  1.00  0.00    -0.116 C  
BRANCH  14  16
HETATM   16  N   UNL     1     -10.399   6.053  70.245  1.00  0.00    -0.206 NA 
HETATM   17  H   UNL     1     -11.158   6.693  70.478  1.00  0.00     0.000 HD 
BRANCH  16  18
HETATM   18  N   UNL     1     -10.255   4.960  70.824  1.00  0.00    -0.228 NA 
HETATM   19  N   UNL     1     -10.124   3.963  71.359  1.00  0.00    -0.116 NA 
HETATM   20  H1  UNL     1     -10.006   3.068  71.834  1.00  0.00     0.000 HD 
HETATM   21  H2  UNL     1     -10.180   4.443  72.258  1.00  0.00     0.000 HD 
ENDBRANCH  16  18
ENDBRANCH  14  16
BRANCH  15  22
HETATM   22  C   UNL     1      -6.913   5.883  68.889  1.00  0.00    -0.068 C  
HETATM   23  H   UNL     1      -5.242   6.574  68.078  1.00  0.00     0.000 HD 
HETATM   24  O   UNL     1      -5.923   6.884  68.664  1.00  0.00    -0.023 OA 
ENDBRANCH  15  22
ENDBRANCH   4  11
TORSDOF 4
ENDMDL
MODEL      233
REMARK 921   NORMALIZED FREE ENERGY PREDICTED BY IDOCK:   -1.47 KCAL/MOL
REMARK 922        TOTAL FREE ENERGY PREDICTED BY IDOCK:   -2.32 KCAL/MOL
REMARK 923 INTER-LIGAND FREE ENERGY PREDICTED BY IDOCK:   -2.82 KCAL/MOL
REMARK 924 INTRA-LIGAND FREE ENERGY PREDICTED BY IDOCK:    0.50 KCAL/MOL
REMARK 927      BINDING AFFINITY PREDICTED BY RF-SCORE:    0.00 PKD
ROOT
HETATM    1  C   UNL     1      -7.591   8.517  70.764  1.00  0.00    -0.074 C  
HETATM    2  C   UNL     1      -7.244   9.896  70.309  1.00  0.00    -0.160 C  
HETATM    3  C   UNL     1      -7.835  10.530  69.288  1.00  0.00    -0.144 C  
HETATM    4  N   UNL     1      -7.474  11.804  68.885  1.00  0.00    -0.108 N  
HETATM    5  C   UNL     1      -6.519  12.532  69.586  1.00  0.00    -0.057 C  
HETATM    6  O   UNL     1      -5.558  10.085  71.963  1.00  0.00    -0.267 OA 
HETATM    7  O   UNL     1      -6.189  13.685  69.311  1.00  0.00    -0.092 OA 
HETATM    8  H   UNL     1      -5.226  12.409  71.162  1.00  0.00     0.000 HD 
HETATM    9  N   UNL     1      -5.925  11.885  70.634  1.00  0.00    -0.077 N  
HETATM   10  C   UNL     1      -6.175  10.609  71.043  1.00  0.00     0.216 C  
ENDROOT
BRANCH   4  11
HETATM   11  C   UNL     1      -8.142  12.479  67.772  1.00  0.00    -0.164 C  
HETATM   12  C   UNL     1      -9.399  13.241  68.176  1.00  0.00    -0.220 C  
HETATM   13  O   UNL     1      -7.273  13.454  67.162  1.00  0.00    -0.075 OA 
HETATM   14  C   UNL     1      -9.526  14.276  67.082  1.00  0.00    -0.227 C  
HETATM   15  C   UNL     1      -8.068  14.578  66.723  1.00  0.00     0.163 C  
BRANCH  14  16
HETATM   16  N   UNL     1     -10.189  13.668  65.910  1.00  0.00    -0.304 NA 
HETATM   17  H   UNL     1      -9.776  13.701  64.978  1.00  0.00     0.000 HD 
BRANCH  16  18
HETATM   18  N   UNL     1     -11.282  13.112  66.129  1.00  0.00    -0.290 NA 
HETATM   19  N   UNL     1     -12.282  12.607  66.334  1.00  0.00    -0.543 NA 
HETATM   20  H1  UNL     1     -13.177  12.152  66.514  1.00  0.00     0.000 HD 
HETATM   21  H2  UNL     1     -12.381  13.161  67.185  1.00  0.00     0.000 HD 
ENDBRANCH  16  18
ENDBRANCH  14  16
BRANCH  15  22
HETATM   22  C   UNL     1      -7.530  15.840  67.404  1.00  0.00    -0.194 C  
HETATM   23  H   UNL     1      -8.243  17.551  68.105  1.00  0.00     0.000 HD 
HETATM   24  O   UNL     1      -8.576  16.768  67.683  1.00  0.00    -0.201 OA 
ENDBRANCH  15  22
ENDBRANCH   4  11
TORSDOF 4
ENDMDL
MODEL      234
REMARK 921   NORMALIZED FREE ENERGY PREDICTED BY IDOCK:   -1.43 KCAL/MOL
REMARK 922        TOTAL FREE ENERGY PREDICTED BY IDOCK:   -2.27 KCAL/MOL
REMARK 923 INTER-LIGAND FREE ENERGY PREDICTED BY IDOCK:   -2.95 KCAL/MOL
REMARK 924 INTRA-LIGAND FREE ENERGY PREDICTED BY IDOCK:    0.67 KCAL/MOL
REMARK 927      BINDING AFFINITY PREDICTED BY RF-SCORE:    0.00 PKD
ROOT
HETATM    1  C   UNL     1      -8.852   5.308  68.830  1.00  0.00    -0.102 C  
HETATM    2  C   UNL     1      -9.451   6.665  68.998  1.00  0.00    -0.131 C  
HETATM    3  C   UNL     1      -8.879   7.803  68.584  1.00  0.00    -0.131 C  
HETATM    4  N   UNL     1      -9.459   9.046  68.773  1.00  0.00    -0.147 N  
HETATM    5  C   UNL     1     -10.722   9.167  69.340  1.00  0.00    -0.198 C  
HETATM    6  O   UNL     1     -11.339   5.763  70.110  1.00  0.00    -0.274 OA 
HETATM    7  O   UNL     1     -11.313  10.236  69.490  1.00  0.00    -0.243 OA 
HETATM    8  H   UNL     1     -12.238   8.075  70.164  1.00  0.00     0.000 HD 
HETATM    9  N   UNL     1     -11.307   8.002  69.752  1.00  0.00     0.025 N  
HETATM   10  C   UNL     1     -10.768   6.753  69.667  1.00  0.00    -0.251 C  
ENDROOT
BRANCH   4  11
HETATM   11  C   UNL     1      -8.818  10.274  68.301  1.00  0.00    -0.126 C  
HETATM   12  C   UNL     1      -9.308  10.742  66.935  1.00  0.00    -0.179 C  
HETATM   13  O   UNL     1      -9.074  11.369  69.203  1.00  0.00     0.006 OA 
HETATM   14  C   UNL     1      -9.002  12.222  66.961  1.00  0.00    -0.204 C  
HETATM   15  C   UNL     1      -9.199  12.588  68.435  1.00  0.00    -0.139 C  
BRANCH  14  16
HETATM   16  N   UNL     1      -7.584  12.434  66.602  1.00  0.00    -0.364 NA 
HETATM   17  H   UNL     1      -7.048  13.222  66.964  1.00  0.00     0.000 HD 
BRANCH  16  18
HETATM   18  N   UNL     1      -7.085  11.592  65.833  1.00  0.00     0.339 NA 
HETATM   19  N   UNL     1      -6.624  10.820  65.133  1.00  0.00    -0.360 NA 
HETATM   20  H1  UNL     1      -6.215  10.131  64.502  1.00  0.00     0.000 HD 
HETATM   21  H2  UNL     1      -5.845  10.705  65.781  1.00  0.00     0.000 HD 
ENDBRANCH  16  18
ENDBRANCH  14  16
BRANCH  15  22
HETATM   22  C   UNL     1     -10.573  13.199  68.726  1.00  0.00    -0.201 C  
HETATM   23  H   UNL     1     -12.098  13.942  67.703  1.00  0.00     0.000 HD 
HETATM   24  O   UNL     1     -11.245  13.562  67.523  1.00  0.00    -0.266 OA 
ENDBRANCH  15  22
ENDBRANCH   4  11
TORSDOF 4
ENDMDL
MODEL      235
REMARK 921   NORMALIZED FREE ENERGY PREDICTED BY IDOCK:   -1.41 KCAL/MOL
REMARK 922        TOTAL FREE ENERGY PREDICTED BY IDOCK:   -2.25 KCAL/MOL
REMARK 923 INTER-LIGAND FREE ENERGY PREDICTED BY IDOCK:   -1.81 KCAL/MOL
REMARK 924 INTRA-LIGAND FREE ENERGY PREDICTED BY IDOCK:   -0.44 KCAL/MOL
REMARK 927      BINDING AFFINITY PREDICTED BY RF-SCORE:    0.00 PKD
ROOT
HETATM    1  C   UNL     1      -7.956   8.773  72.251  1.00  0.00     0.023 C  
HETATM    2  C   UNL     1      -7.300   8.794  70.910  1.00  0.00    -0.087 C  
HETATM    3  C   UNL     1      -7.795   8.206  69.814  1.00  0.00    -0.105 C  
HETATM    4  N   UNL     1      -7.148   8.233  68.590  1.00  0.00    -0.071 N  
HETATM    5  C   UNL     1      -5.973   8.955  68.418  1.00  0.00    -0.045 C  
HETATM    6  O   UNL     1      -5.476  10.051  71.752  1.00  0.00    -0.177 OA 
HETATM    7  O   UNL     1      -5.376   9.061  67.347  1.00  0.00    -0.037 OA 
HETATM    8  H   UNL     1      -4.617  10.102  69.426  1.00  0.00     0.000 HD 
HETATM    9  N   UNL     1      -5.475   9.563  69.538  1.00  0.00    -0.034 N  
HETATM   10  C   UNL     1      -6.016   9.520  70.789  1.00  0.00    -0.071 C  
ENDROOT
BRANCH   4  11
HETATM   11  C   UNL     1      -7.716   7.591  67.404  1.00  0.00    -0.117 C  
HETATM   12  C   UNL     1      -7.280   6.141  67.217  1.00  0.00    -0.075 C  
HETATM   13  O   UNL     1      -9.155   7.561  67.472  1.00  0.00    -0.125 OA 
HETATM   14  C   UNL     1      -8.396   5.565  66.376  1.00  0.00    -0.111 C  
HETATM   15  C   UNL     1      -9.626   6.339  66.859  1.00  0.00    -0.147 C  
BRANCH  14  16
HETATM   16  N   UNL     1      -8.154   5.893  64.955  1.00  0.00    -0.127 NA 
HETATM   17  H   UNL     1      -7.785   6.798  64.665  1.00  0.00     0.000 HD 
BRANCH  16  18
HETATM   18  N   UNL     1      -8.428   4.997  64.135  1.00  0.00    -0.136 NA 
HETATM   19  N   UNL     1      -8.682   4.175  63.389  1.00  0.00    -0.107 NA 
HETATM   20  H1  UNL     1      -8.907   3.441  62.717  1.00  0.00     0.000 HD 
HETATM   21  H2  UNL     1      -9.302   3.747  64.078  1.00  0.00     0.000 HD 
ENDBRANCH  16  18
ENDBRANCH  14  16
BRANCH  15  22
HETATM   22  C   UNL     1     -10.452   5.571  67.895  1.00  0.00    -0.178 C  
HETATM   23  H   UNL     1     -10.450   3.780  68.742  1.00  0.00     0.000 HD 
HETATM   24  O   UNL     1      -9.937   4.257  68.100  1.00  0.00    -0.085 OA 
ENDBRANCH  15  22
ENDBRANCH   4  11
TORSDOF 4
ENDMDL
MODEL      236
REMARK 921   NORMALIZED FREE ENERGY PREDICTED BY IDOCK:   -1.40 KCAL/MOL
REMARK 922        TOTAL FREE ENERGY PREDICTED BY IDOCK:   -2.24 KCAL/MOL
REMARK 923 INTER-LIGAND FREE ENERGY PREDICTED BY IDOCK:   -2.46 KCAL/MOL
REMARK 924 INTRA-LIGAND FREE ENERGY PREDICTED BY IDOCK:    0.22 KCAL/MOL
REMARK 927      BINDING AFFINITY PREDICTED BY RF-SCORE:    0.00 PKD
ROOT
HETATM    1  C   UNL     1      -6.679   2.931  68.685  1.00  0.00    -0.037 C  
HETATM    2  C   UNL     1      -7.658   4.044  68.511  1.00  0.00    -0.058 C  
HETATM    3  C   UNL     1      -7.448   5.128  67.754  1.00  0.00    -0.079 C  
HETATM    4  N   UNL     1      -8.376   6.149  67.632  1.00  0.00    -0.112 N  
HETATM    5  C   UNL     1      -9.625   6.057  68.235  1.00  0.00    -0.119 C  
HETATM    6  O   UNL     1      -9.204   2.994  69.968  1.00  0.00    -0.118 OA 
HETATM    7  O   UNL     1     -10.511   6.904  68.124  1.00  0.00    -0.179 OA 
HETATM    8  H   UNL     1     -10.754   4.858  69.442  1.00  0.00     0.000 HD 
HETATM    9  N   UNL     1      -9.840   4.943  68.998  1.00  0.00    -0.178 N  
HETATM   10  C   UNL     1      -8.950   3.935  69.225  1.00  0.00    -0.116 C  
ENDROOT
BRANCH   4  11
HETATM   11  C   UNL     1      -8.126   7.320  66.789  1.00  0.00    -0.119 C  
HETATM   12  C   UNL     1      -9.296   7.692  65.886  1.00  0.00     0.003 C  
HETATM   13  O   UNL     1      -7.866   8.488  67.593  1.00  0.00    -0.101 OA 
HETATM   14  C   UNL     1      -9.057   9.161  65.621  1.00  0.00    -0.219 C  
HETATM   15  C   UNL     1      -8.418   9.646  66.926  1.00  0.00    -0.120 C  
BRANCH  14  16
HETATM   16  N   UNL     1      -8.076   9.307  64.526  1.00  0.00    -0.130 NA 
HETATM   17  H   UNL     1      -7.092   9.067  64.647  1.00  0.00     0.000 HD 
BRANCH  16  18
HETATM   18  N   UNL     1      -8.523   9.738  63.448  1.00  0.00    -0.169 NA 
HETATM   19  N   UNL     1      -8.936  10.129  62.460  1.00  0.00    -0.241 NA 
HETATM   20  H1  UNL     1      -9.302  10.483  61.577  1.00  0.00     0.000 HD 
HETATM   21  H2  UNL     1      -9.648   9.399  62.475  1.00  0.00     0.000 HD 
ENDBRANCH  16  18
ENDBRANCH  14  16
BRANCH  15  22
HETATM   22  C   UNL     1      -9.417  10.314  67.875  1.00  0.00    -0.141 C  
HETATM   23  H   UNL     1     -11.162  11.243  67.755  1.00  0.00     0.000 HD 
HETATM   24  O   UNL     1     -10.542  10.828  67.167  1.00  0.00    -0.227 OA 
ENDBRANCH  15  22
ENDBRANCH   4  11
TORSDOF 4
ENDMDL
MODEL      237
REMARK 921   NORMALIZED FREE ENERGY PREDICTED BY IDOCK:   -1.24 KCAL/MOL
REMARK 922        TOTAL FREE ENERGY PREDICTED BY IDOCK:   -2.04 KCAL/MOL
REMARK 923 INTER-LIGAND FREE ENERGY PREDICTED BY IDOCK:   -3.34 KCAL/MOL
REMARK 924 INTRA-LIGAND FREE ENERGY PREDICTED BY IDOCK:    1.30 KCAL/MOL
REMARK 927      BINDING AFFINITY PREDICTED BY RF-SCORE:    0.00 PKD
ROOT
HETATM    1  C   UNL     1     -11.463  11.383  70.174  1.00  0.00    -0.302 C  
HETATM    2  C   UNL     1     -10.912  12.002  68.932  1.00  0.00    -0.277 C  
HETATM    3  C   UNL     1     -10.663  13.308  68.782  1.00  0.00    -0.227 C  
HETATM    4  N   UNL     1     -10.167  13.847  67.607  1.00  0.00    -0.239 N  
HETATM    5  C   UNL     1      -9.821  13.032  66.536  1.00  0.00    -0.263 C  
HETATM    6  O   UNL     1     -10.858   9.902  67.836  1.00  0.00    -0.260 OA 
HETATM    7  O   UNL     1      -9.330  13.442  65.485  1.00  0.00     0.105 OA 
HETATM    8  H   UNL     1      -9.813  11.084  65.921  1.00  0.00     0.000 HD 
HETATM    9  N   UNL     1     -10.068  11.696  66.697  1.00  0.00    -0.205 N  
HETATM   10  C   UNL     1     -10.621  11.103  67.793  1.00  0.00    -0.209 C  
ENDROOT
BRANCH   4  11
HETATM   11  C   UNL     1      -9.892  15.278  67.472  1.00  0.00    -0.213 C  
HETATM   12  C   UNL     1     -10.079  16.069  68.762  1.00  0.00    -0.225 C  
HETATM   13  O   UNL     1      -8.527  15.506  67.069  1.00  0.00    -0.196 OA 
HETATM   14  C   UNL     1      -9.199  17.278  68.542  1.00  0.00    -0.273 C  
HETATM   15  C   UNL     1      -8.051  16.718  67.698  1.00  0.00    -0.177 C  
BRANCH  14  16
HETATM   16  N   UNL     1      -9.936  18.278  67.741  1.00  0.00    -0.317 NA 
HETATM   17  H   UNL     1      -9.898  19.275  67.954  1.00  0.00     0.000 HD 
BRANCH  16  18
HETATM   18  N   UNL     1     -10.604  17.830  66.791  1.00  0.00    -0.284 NA 
HETATM   19  N   UNL     1     -11.217  17.425  65.920  1.00  0.00     0.478 NA 
HETATM   20  H1  UNL     1     -11.765  17.059  65.141  1.00  0.00     0.000 HD 
HETATM   21  H2  UNL     1     -11.490  18.378  65.676  1.00  0.00     0.000 HD 
ENDBRANCH  16  18
ENDBRANCH  14  16
BRANCH  15  22
HETATM   22  C   UNL     1      -6.809  16.372  68.525  1.00  0.00    -0.144 C  
HETATM   23  H   UNL     1      -4.861  16.729  68.472  1.00  0.00     0.000 HD 
HETATM   24  O   UNL     1      -5.632  16.943  67.959  1.00  0.00    -0.114 OA 
ENDBRANCH  15  22
ENDBRANCH   4  11
TORSDOF 4
ENDMDL
MODEL      238
REMARK 921   NORMALIZED FREE ENERGY PREDICTED BY IDOCK:   -1.23 KCAL/MOL
REMARK 922        TOTAL FREE ENERGY PREDICTED BY IDOCK:   -2.03 KCAL/MOL
REMARK 923 INTER-LIGAND FREE ENERGY PREDICTED BY IDOCK:   -2.19 KCAL/MOL
REMARK 924 INTRA-LIGAND FREE ENERGY PREDICTED BY IDOCK:    0.16 KCAL/MOL
REMARK 927      BINDING AFFINITY PREDICTED BY RF-SCORE:    0.00 PKD
ROOT
HETATM    1  C   UNL     1      -5.630  10.446  65.215  1.00  0.00    -0.129 C  
HETATM    2  C   UNL     1      -6.741   9.492  65.507  1.00  0.00    -0.080 C  
HETATM    3  C   UNL     1      -6.657   8.163  65.366  1.00  0.00    -0.052 C  
HETATM    4  N   UNL     1      -7.716   7.312  65.632  1.00  0.00    -0.099 N  
HETATM    5  C   UNL     1      -8.913   7.798  66.146  1.00  0.00    -0.163 C  
HETATM    6  O   UNL     1      -8.190  11.268  66.108  1.00  0.00    -0.160 OA 
HETATM    7  O   UNL     1      -9.873   7.090  66.450  1.00  0.00    -0.140 OA 
HETATM    8  H   UNL     1      -9.861   9.525  66.681  1.00  0.00     0.000 HD 
HETATM    9  N   UNL     1      -8.991   9.155  66.298  1.00  0.00    -0.149 N  
HETATM   10  C   UNL     1      -8.019  10.060  65.990  1.00  0.00    -0.118 C  
ENDROOT
BRANCH   4  11
HETATM   11  C   UNL     1      -7.595   5.861  65.479  1.00  0.00    -0.084 C  
HETATM   12  C   UNL     1      -7.990   5.073  66.724  1.00  0.00    -0.104 C  
HETATM   13  O   UNL     1      -8.452   5.380  64.424  1.00  0.00    -0.139 OA 
HETATM   14  C   UNL     1      -8.361   3.722  66.157  1.00  0.00    -0.109 C  
HETATM   15  C   UNL     1      -8.952   4.074  64.789  1.00  0.00    -0.135 C  
BRANCH  14  16
HETATM   16  N   UNL     1      -7.135   2.923  65.956  1.00  0.00    -0.060 NA 
HETATM   17  H   UNL     1      -6.763   2.728  65.027  1.00  0.00     0.000 HD 
BRANCH  16  18
HETATM   18  N   UNL     1      -6.582   2.504  66.990  1.00  0.00    -0.038 NA 
HETATM   19  N   UNL     1      -6.074   2.116  67.933  1.00  0.00    -0.024 NA 
HETATM   20  H1  UNL     1      -5.621   1.772  68.780  1.00  0.00     0.000 HD 
HETATM   21  H2  UNL     1      -5.614   1.392  67.381  1.00  0.00     0.000 HD 
ENDBRANCH  16  18
ENDBRANCH  14  16
BRANCH  15  22
HETATM   22  C   UNL     1     -10.483   4.130  64.790  1.00  0.00    -0.174 C  
HETATM   23  H   UNL     1     -11.974   3.610  63.594  1.00  0.00     0.000 HD 
HETATM   24  O   UNL     1     -11.024   3.575  63.594  1.00  0.00    -0.238 OA 
ENDBRANCH  15  22
ENDBRANCH   4  11
TORSDOF 4
ENDMDL
MODEL      239
REMARK 921   NORMALIZED FREE ENERGY PREDICTED BY IDOCK:   -0.49 KCAL/MOL
REMARK 922        TOTAL FREE ENERGY PREDICTED BY IDOCK:   -1.11 KCAL/MOL
REMARK 923 INTER-LIGAND FREE ENERGY PREDICTED BY IDOCK:   -0.88 KCAL/MOL
REMARK 924 INTRA-LIGAND FREE ENERGY PREDICTED BY IDOCK:   -0.24 KCAL/MOL
REMARK 927      BINDING AFFINITY PREDICTED BY RF-SCORE:    0.00 PKD
ROOT
HETATM    1  C   UNL     1      -8.864   5.332  68.796  1.00  0.00    -0.104 C  
HETATM    2  C   UNL     1      -9.535   6.664  68.851  1.00  0.00    -0.130 C  
HETATM    3  C   UNL     1      -9.004   7.801  68.385  1.00  0.00    -0.132 C  
HETATM    4  N   UNL     1      -9.653   9.022  68.469  1.00  0.00    -0.151 N  
HETATM    5  C   UNL     1     -10.943   9.113  68.977  1.00  0.00    -0.008 C  
HETATM    6  O   UNL     1     -11.422   5.737  69.945  1.00  0.00    -0.181 OA 
HETATM    7  O   UNL     1     -11.593  10.157  69.033  1.00  0.00    -0.143 OA 
HETATM    8  H   UNL     1     -12.436   7.998  69.812  1.00  0.00     0.000 HD 
HETATM    9  N   UNL     1     -11.487   7.948  69.442  1.00  0.00     0.342 N  
HETATM   10  C   UNL     1     -10.883   6.725  69.460  1.00  0.00    -0.273 C  
ENDROOT
BRANCH   4  11
HETATM   11  C   UNL     1      -9.055  10.250  67.943  1.00  0.00    -0.131 C  
HETATM   12  C   UNL     1      -7.801  10.696  68.687  1.00  0.00    -0.121 C  
HETATM   13  O   UNL     1      -8.653  10.081  66.569  1.00  0.00    -0.125 OA 
HETATM   14  C   UNL     1      -7.082  11.534  67.655  1.00  0.00    -0.098 C  
HETATM   15  C   UNL     1      -7.447  10.844  66.337  1.00  0.00    -0.145 C  
BRANCH  14  16
HETATM   16  N   UNL     1      -7.649  12.898  67.652  1.00  0.00    -0.142 NA 
HETATM   17  H   UNL     1      -7.680  13.469  66.807  1.00  0.00     0.000 HD 
BRANCH  16  18
HETATM   18  N   UNL     1      -8.088  13.308  68.742  1.00  0.00    -0.010 NA 
HETATM   19  N   UNL     1      -8.495  13.685  69.738  1.00  0.00     0.796 NA 
HETATM   20  H1  UNL     1      -8.855  14.021  70.631  1.00  0.00     0.000 HD 
HETATM   21  H2  UNL     1      -9.369  13.942  69.278  1.00  0.00     0.000 HD 
ENDBRANCH  16  18
ENDBRANCH  14  16
BRANCH  15  22
HETATM   22  C   UNL     1      -6.362   9.885  65.839  1.00  0.00    -0.085 C  
HETATM   23  H   UNL     1      -4.466   9.474  66.239  1.00  0.00     0.000 HD 
HETATM   24  O   UNL     1      -5.140  10.068  66.548  1.00  0.00    -0.038 OA 
ENDBRANCH  15  22
ENDBRANCH   4  11
TORSDOF 4
ENDMDL
MODEL      240
REMARK 921   NORMALIZED FREE ENERGY PREDICTED BY IDOCK:   -0.41 KCAL/MOL
REMARK 922        TOTAL FREE ENERGY PREDICTED BY IDOCK:   -1.02 KCAL/MOL
REMARK 923 INTER-LIGAND FREE ENERGY PREDICTED BY IDOCK:   -0.53 KCAL/MOL
REMARK 924 INTRA-LIGAND FREE ENERGY PREDICTED BY IDOCK:   -0.49 KCAL/MOL
REMARK 927      BINDING AFFINITY PREDICTED BY RF-SCORE:    0.00 PKD
ROOT
HETATM    1  C   UNL     1     -12.076   4.421  72.518  1.00  0.00     1.044 C  
HETATM    2  C   UNL     1     -10.659   4.050  72.231  1.00  0.00    -0.046 C  
HETATM    3  C   UNL     1     -10.149   3.893  71.004  1.00  0.00     0.034 C  
HETATM    4  N   UNL     1      -8.832   3.530  70.779  1.00  0.00    -0.075 N  
HETATM    5  C   UNL     1      -7.939   3.389  71.834  1.00  0.00    -0.062 C  
HETATM    6  O   UNL     1     -10.158   3.930  74.544  1.00  0.00    -0.152 OA 
HETATM    7  O   UNL     1      -6.746   3.118  71.700  1.00  0.00    -0.025 OA 
HETATM    8  H   UNL     1      -7.815   3.467  73.871  1.00  0.00     0.000 HD 
HETATM    9  N   UNL     1      -8.461   3.561  73.087  1.00  0.00    -0.082 N  
HETATM   10  C   UNL     1      -9.760   3.845  73.389  1.00  0.00    -0.111 C  
ENDROOT
BRANCH   4  11
HETATM   11  C   UNL     1      -8.296   3.375  69.426  1.00  0.00    -0.059 C  
HETATM   12  C   UNL     1      -9.229   2.638  68.471  1.00  0.00    -0.243 C  
HETATM   13  O   UNL     1      -8.049   4.659  68.818  1.00  0.00    -0.081 OA 
HETATM   14  C   UNL     1      -8.773   3.129  67.116  1.00  0.00    -0.123 C  
HETATM   15  C   UNL     1      -8.328   4.566  67.403  1.00  0.00    -0.104 C  
BRANCH  14  16
HETATM   16  N   UNL     1      -7.598   2.344  66.683  1.00  0.00    -0.069 NA 
HETATM   17  H   UNL     1      -7.061   1.772  67.335  1.00  0.00     0.000 HD 
BRANCH  16  18
HETATM   18  N   UNL     1      -7.305   2.423  65.476  1.00  0.00    -0.065 NA 
HETATM   19  N   UNL     1      -7.034   2.501  64.372  1.00  0.00    -0.046 NA 
HETATM   20  H1  UNL     1      -6.794   2.566  63.383  1.00  0.00     0.000 HD 
HETATM   21  H2  UNL     1      -6.690   3.448  64.528  1.00  0.00     0.000 HD 
ENDBRANCH  16  18
ENDBRANCH  14  16
BRANCH  15  22
HETATM   22  C   UNL     1      -9.397   5.607  67.056  1.00  0.00    -0.118 C  
HETATM   23  H   UNL     1      -9.716   6.978  65.663  1.00  0.00     0.000 HD 
HETATM   24  O   UNL     1      -9.054   6.332  65.878  1.00  0.00    -0.145 OA 
ENDBRANCH  15  22
ENDBRANCH   4  11
TORSDOF 4
ENDMDL
MODEL      241
REMARK 921   NORMALIZED FREE ENERGY PREDICTED BY IDOCK:    1.74 KCAL/MOL
REMARK 922        TOTAL FREE ENERGY PREDICTED BY IDOCK:    1.64 KCAL/MOL
REMARK 923 INTER-LIGAND FREE ENERGY PREDICTED BY IDOCK:   -0.81 KCAL/MOL
REMARK 924 INTRA-LIGAND FREE ENERGY PREDICTED BY IDOCK:    2.45 KCAL/MOL
REMARK 927      BINDING AFFINITY PREDICTED BY RF-SCORE:    0.00 PKD
ROOT
HETATM    1  C   UNL     1     -11.319   7.428  67.035  1.00  0.00     0.611 C  
HETATM    2  C   UNL     1      -9.997   6.810  67.351  1.00  0.00    -0.192 C  
HETATM    3  C   UNL     1      -9.460   5.783  66.681  1.00  0.00    -0.149 C  
HETATM    4  N   UNL     1      -8.238   5.226  67.016  1.00  0.00    -0.108 N  
HETATM    5  C   UNL     1      -7.458   5.769  68.031  1.00  0.00    -0.077 C  
HETATM    6  O   UNL     1      -9.670   8.293  69.171  1.00  0.00    -0.166 OA 
HETATM    7  O   UNL     1      -6.343   5.353  68.344  1.00  0.00    -0.032 OA 
HETATM    8  H   UNL     1      -7.442   7.238  69.449  1.00  0.00     0.000 HD 
HETATM    9  N   UNL     1      -8.005   6.825  68.706  1.00  0.00    -0.117 N  
HETATM   10  C   UNL     1      -9.231   7.379  68.483  1.00  0.00    -0.142 C  
ENDROOT
BRANCH   4  11
HETATM   11  C   UNL     1      -7.667   4.110  66.261  1.00  0.00    -0.090 C  
HETATM   12  C   UNL     1      -6.332   4.430  65.597  1.00  0.00    -0.036 C  
HETATM   13  O   UNL     1      -7.415   2.980  67.120  1.00  0.00    -0.068 OA 
HETATM   14  C   UNL     1      -5.703   3.064  65.441  1.00  0.00    -0.018 C  
HETATM   15  C   UNL     1      -6.221   2.305  66.665  1.00  0.00    -0.024 C  
BRANCH  14  16
HETATM   16  N   UNL     1      -6.233   2.421  64.221  1.00  0.00    -0.018 NA 
HETATM   17  H   UNL     1      -5.691   1.738  63.691  1.00  0.00     0.000 HD 
BRANCH  16  18
HETATM   18  N   UNL     1      -7.381   2.761  63.879  1.00  0.00    -0.063 NA 
HETATM   19  N   UNL     1      -8.433   3.074  63.573  1.00  0.00    -0.086 NA 
HETATM   20  H1  UNL     1      -9.373   3.353  63.293  1.00  0.00     0.000 HD 
HETATM   21  H2  UNL     1      -8.678   3.197  64.555  1.00  0.00     0.000 HD 
ENDBRANCH  16  18
ENDBRANCH  14  16
BRANCH  15  22
HETATM   22  C   UNL     1      -5.218   2.273  67.823  1.00  0.00    -0.012 C  
HETATM   23  H   UNL     1      -4.964   3.166  69.572  1.00  0.00     0.000 HD 
HETATM   24  O   UNL     1      -5.586   3.185  68.854  1.00  0.00    -0.019 OA 
ENDBRANCH  15  22
ENDBRANCH   4  11
TORSDOF 4
ENDMDL
MODEL      242
REMARK 921   NORMALIZED FREE ENERGY PREDICTED BY IDOCK:    1.91 KCAL/MOL
REMARK 922        TOTAL FREE ENERGY PREDICTED BY IDOCK:    1.84 KCAL/MOL
REMARK 923 INTER-LIGAND FREE ENERGY PREDICTED BY IDOCK:    1.61 KCAL/MOL
REMARK 924 INTRA-LIGAND FREE ENERGY PREDICTED BY IDOCK:    0.23 KCAL/MOL
REMARK 927      BINDING AFFINITY PREDICTED BY RF-SCORE:    0.00 PKD
ROOT
HETATM    1  C   UNL     1      -8.398  20.710  68.692  1.00  0.00     0.757 C  
HETATM    2  C   UNL     1      -9.249  19.654  68.067  1.00  0.00    -0.409 C  
HETATM    3  C   UNL     1      -8.965  18.346  68.076  1.00  0.00    -0.290 C  
HETATM    4  N   UNL     1      -9.772  17.398  67.469  1.00  0.00    -0.260 N  
HETATM    5  C   UNL     1     -10.979  17.757  66.881  1.00  0.00     0.118 C  
HETATM    6  O   UNL     1     -10.805  21.272  67.306  1.00  0.00     1.956 OA 
HETATM    7  O   UNL     1     -11.764  16.959  66.371  1.00  0.00     1.162 OA 
HETATM    8  H   UNL     1     -12.157  19.371  66.460  1.00  0.00     0.000 HD 
HETATM    9  N   UNL     1     -11.271  19.093  66.883  1.00  0.00    -0.028 N  
HETATM   10  C   UNL     1     -10.493  20.090  67.394  1.00  0.00    -0.350 C  
ENDROOT
BRANCH   4  11
HETATM   11  C   UNL     1      -9.444  15.972  67.503  1.00  0.00    -0.223 C  
HETATM   12  C   UNL     1      -9.099  15.385  66.139  1.00  0.00    -0.339 C  
HETATM   13  O   UNL     1      -8.294  15.726  68.337  1.00  0.00    -0.155 OA 
HETATM   14  C   UNL     1      -8.255  14.183  66.499  1.00  0.00     0.565 C  
HETATM   15  C   UNL     1      -7.528  14.641  67.767  1.00  0.00    -0.166 C  
BRANCH  14  16
HETATM   16  N   UNL     1      -9.140  13.050  66.840  1.00  0.00    -0.228 NA 
HETATM   17  H   UNL     1      -9.689  12.562  66.133  1.00  0.00     0.000 HD 
BRANCH  16  18
HETATM   18  N   UNL     1      -9.173  12.728  68.042  1.00  0.00    -0.203 NA 
HETATM   19  N   UNL     1      -9.199  12.433  69.142  1.00  0.00    -0.103 NA 
HETATM   20  H1  UNL     1      -9.226  12.168  70.127  1.00  0.00     0.000 HD 
HETATM   21  H2  UNL     1      -8.188  12.560  69.194  1.00  0.00     0.000 HD 
ENDBRANCH  16  18
ENDBRANCH  14  16
BRANCH  15  22
HETATM   22  C   UNL     1      -6.108  15.148  67.497  1.00  0.00    -0.019 C  
HETATM   23  H   UNL     1      -4.250  14.484  67.680  1.00  0.00     0.000 HD 
HETATM   24  O   UNL     1      -5.132  14.170  67.847  1.00  0.00    -0.175 OA 
ENDBRANCH  15  22
ENDBRANCH   4  11
TORSDOF 4
ENDMDL
MODEL      243
REMARK 921   NORMALIZED FREE ENERGY PREDICTED BY IDOCK:    9.86 KCAL/MOL
REMARK 922        TOTAL FREE ENERGY PREDICTED BY IDOCK:   11.65 KCAL/MOL
REMARK 923 INTER-LIGAND FREE ENERGY PREDICTED BY IDOCK:   11.74 KCAL/MOL
REMARK 924 INTRA-LIGAND FREE ENERGY PREDICTED BY IDOCK:   -0.09 KCAL/MOL
REMARK 927      BINDING AFFINITY PREDICTED BY RF-SCORE:    0.00 PKD
ROOT
HETATM    1  C   UNL     1     -13.272   2.908  72.057  1.00  0.00     6.732 C  
HETATM    2  C   UNL     1     -11.846   3.241  72.347  1.00  0.00     1.877 C  
HETATM    3  C   UNL     1     -10.823   2.971  71.528  1.00  0.00     1.516 C  
HETATM    4  N   UNL     1      -9.510   3.280  71.841  1.00  0.00    -0.128 N  
HETATM    5  C   UNL     1      -9.195   3.971  73.005  1.00  0.00    -0.110 C  
HETATM    6  O   UNL     1     -12.425   4.164  74.451  1.00  0.00     2.722 OA 
HETATM    7  O   UNL     1      -8.057   4.320  73.317  1.00  0.00    -0.089 OA 
HETATM    8  H   UNL     1     -10.031   4.767  74.690  1.00  0.00     0.000 HD 
HETATM    9  N   UNL     1     -10.245   4.254  73.834  1.00  0.00    -0.156 N  
HETATM   10  C   UNL     1     -11.551   3.918  73.630  1.00  0.00     0.026 C  
ENDROOT
BRANCH   4  11
HETATM   11  C   UNL     1      -8.409   2.984  70.923  1.00  0.00    -0.057 C  
HETATM   12  C   UNL     1      -8.263   1.504  70.588  1.00  0.00    -0.055 C  
HETATM   13  O   UNL     1      -8.595   3.654  69.660  1.00  0.00    -0.062 OA 
HETATM   14  C   UNL     1      -7.546   1.533  69.258  1.00  0.00    -0.042 C  
HETATM   15  C   UNL     1      -8.087   2.808  68.604  1.00  0.00    -0.056 C  
BRANCH  14  16
HETATM   16  N   UNL     1      -6.096   1.694  69.488  1.00  0.00    -0.023 NA 
HETATM   17  H   UNL     1      -5.541   0.980  69.961  1.00  0.00     0.000 HD 
BRANCH  16  18
HETATM   18  N   UNL     1      -5.592   2.753  69.071  1.00  0.00    -0.020 NA 
HETATM   19  N   UNL     1      -5.134   3.722  68.684  1.00  0.00    -0.007 NA 
HETATM   20  H1  UNL     1      -4.721   4.590  68.342  1.00  0.00     0.000 HD 
HETATM   21  H2  UNL     1      -5.803   3.725  67.914  1.00  0.00     0.000 HD 
ENDBRANCH  16  18
ENDBRANCH  14  16
BRANCH  15  22
HETATM   22  C   UNL     1      -9.225   2.541  67.614  1.00  0.00    -0.184 C  
HETATM   23  H   UNL     1      -9.825   3.209  65.848  1.00  0.00     0.000 HD 
HETATM   24  O   UNL     1      -9.119   3.374  66.462  1.00  0.00    -0.142 OA 
ENDBRANCH  15  22
ENDBRANCH   4  11
TORSDOF 4
ENDMDL
MODEL      244
REMARK 921   NORMALIZED FREE ENERGY PREDICTED BY IDOCK:   14.18 KCAL/MOL
REMARK 922        TOTAL FREE ENERGY PREDICTED BY IDOCK:   16.99 KCAL/MOL
REMARK 923 INTER-LIGAND FREE ENERGY PREDICTED BY IDOCK:   17.15 KCAL/MOL
REMARK 924 INTRA-LIGAND FREE ENERGY PREDICTED BY IDOCK:   -0.16 KCAL/MOL
REMARK 927      BINDING AFFINITY PREDICTED BY RF-SCORE:    0.00 PKD
ROOT
HETATM    1  C   UNL     1     -11.764   4.190  68.146  1.00  0.00     9.530 C  
HETATM    2  C   UNL     1     -11.530   5.629  68.469  1.00  0.00     1.055 C  
HETATM    3  C   UNL     1     -10.595   6.394  67.893  1.00  0.00    -0.258 C  
HETATM    4  N   UNL     1     -10.398   7.722  68.233  1.00  0.00    -0.201 N  
HETATM    5  C   UNL     1     -11.231   8.358  69.145  1.00  0.00     0.358 C  
HETATM    6  O   UNL     1     -13.252   5.607  70.097  1.00  0.00     5.153 OA 
HETATM    7  O   UNL     1     -11.142   9.547  69.452  1.00  0.00    -0.206 OA 
HETATM    8  H   UNL     1     -12.816   8.031  70.391  1.00  0.00     0.000 HD 
HETATM    9  N   UNL     1     -12.192   7.576  69.724  1.00  0.00     0.744 N  
HETATM   10  C   UNL     1     -12.399   6.248  69.496  1.00  0.00     2.013 C  
ENDROOT
BRANCH   4  11
HETATM   11  C   UNL     1      -9.374   8.540  67.581  1.00  0.00    -0.137 C  
HETATM   12  C   UNL     1      -7.947   8.080  67.855  1.00  0.00    -0.128 C  
HETATM   13  O   UNL     1      -9.526   8.511  66.147  1.00  0.00    -0.218 OA 
HETATM   14  C   UNL     1      -7.187   8.631  66.671  1.00  0.00    -0.081 C  
HETATM   15  C   UNL     1      -8.215   8.561  65.539  1.00  0.00    -0.137 C  
BRANCH  14  16
HETATM   16  N   UNL     1      -6.851  10.048  66.924  1.00  0.00    -0.086 NA 
HETATM   17  H   UNL     1      -6.704  10.712  66.164  1.00  0.00     0.000 HD 
BRANCH  16  18
HETATM   18  N   UNL     1      -6.761  10.382  68.120  1.00  0.00    -0.060 NA 
HETATM   19  N   UNL     1      -6.683  10.685  69.215  1.00  0.00    -0.065 NA 
HETATM   20  H1  UNL     1      -6.609  10.958  70.195  1.00  0.00     0.000 HD 
HETATM   21  H2  UNL     1      -7.569  10.216  69.403  1.00  0.00     0.000 HD 
ENDBRANCH  16  18
ENDBRANCH  14  16
BRANCH  15  22
HETATM   22  C   UNL     1      -8.051   7.324  64.651  1.00  0.00    -0.081 C  
HETATM   23  H   UNL     1      -6.715   5.890  64.361  1.00  0.00     0.000 HD 
HETATM   24  O   UNL     1      -6.818   6.658  64.911  1.00  0.00    -0.047 OA 
ENDBRANCH  15  22
ENDBRANCH   4  11
TORSDOF 4
ENDMDL
MODEL      245
REMARK 921   NORMALIZED FREE ENERGY PREDICTED BY IDOCK:   26.38 KCAL/MOL
REMARK 922        TOTAL FREE ENERGY PREDICTED BY IDOCK:   32.04 KCAL/MOL
REMARK 923 INTER-LIGAND FREE ENERGY PREDICTED BY IDOCK:   30.91 KCAL/MOL
REMARK 924 INTRA-LIGAND FREE ENERGY PREDICTED BY IDOCK:    1.13 KCAL/MOL
REMARK 927      BINDING AFFINITY PREDICTED BY RF-SCORE:    0.00 PKD
ROOT
HETATM    1  C   UNL     1     -13.719  11.675  64.875  1.00  0.00     4.442 C  
HETATM    2  C   UNL     1     -12.805  12.178  65.943  1.00  0.00     1.879 C  
HETATM    3  C   UNL     1     -12.227  11.408  66.872  1.00  0.00     1.444 C  
HETATM    4  N   UNL     1     -11.397  11.915  67.858  1.00  0.00    -0.268 N  
HETATM    5  C   UNL     1     -11.054  13.262  67.880  1.00  0.00    -0.262 C  
HETATM    6  O   UNL     1     -13.041  14.409  65.178  1.00  0.00    -0.633 OA 
HETATM    7  O   UNL     1     -10.284  13.767  68.697  1.00  0.00    -0.232 OA 
HETATM    8  H   UNL     1     -11.391  15.034  66.923  1.00  0.00     0.000 HD 
HETATM    9  N   UNL     1     -11.639  14.045  66.923  1.00  0.00    -0.365 N  
HETATM   10  C   UNL     1     -12.520  13.631  65.969  1.00  0.00    -0.426 C  
ENDROOT
BRANCH   4  11
HETATM   11  C   UNL     1     -10.768  11.050  68.857  1.00  0.00    -0.211 C  
HETATM   12  C   UNL     1      -9.368  10.582  68.476  1.00  0.00    -0.168 C  
HETATM   13  O   UNL     1     -10.622  11.737  70.116  1.00  0.00     0.673 OA 
HETATM   14  C   UNL     1      -8.746  10.269  69.818  1.00  0.00    -0.044 C  
HETATM   15  C   UNL     1      -9.397  11.298  70.746  1.00  0.00     5.072 C  
BRANCH  14  16
HETATM   16  N   UNL     1      -9.158   8.915  70.243  1.00  0.00    -0.167 NA 
HETATM   17  H   UNL     1      -8.558   8.101  70.110  1.00  0.00     0.000 HD 
BRANCH  16  18
HETATM   18  N   UNL     1     -10.281   8.829  70.773  1.00  0.00    -0.199 NA 
HETATM   19  N   UNL     1     -11.310   8.754  71.256  1.00  0.00    -0.272 NA 
HETATM   20  H1  UNL     1     -12.230   8.683  71.690  1.00  0.00     0.000 HD 
HETATM   21  H2  UNL     1     -11.624   9.549  70.698  1.00  0.00     0.000 HD 
ENDBRANCH  16  18
ENDBRANCH  14  16
BRANCH  15  22
HETATM   22  C   UNL     1      -8.518  12.528  70.993  1.00  0.00    10.431 C  
HETATM   23  H   UNL     1      -8.626  14.236  71.990  1.00  0.00     0.000 HD 
HETATM   24  O   UNL     1      -9.171  13.473  71.837  1.00  0.00    10.211 OA 
ENDBRANCH  15  22
ENDBRANCH   4  11
TORSDOF 4
ENDMDL
MODEL      246
REMARK 921   NORMALIZED FREE ENERGY PREDICTED BY IDOCK:   31.42 KCAL/MOL
REMARK 922        TOTAL FREE ENERGY PREDICTED BY IDOCK:   38.26 KCAL/MOL
REMARK 923 INTER-LIGAND FREE ENERGY PREDICTED BY IDOCK:   36.08 KCAL/MOL
REMARK 924 INTRA-LIGAND FREE ENERGY PREDICTED BY IDOCK:    2.18 KCAL/MOL
REMARK 927      BINDING AFFINITY PREDICTED BY RF-SCORE:    0.00 PKD
ROOT
HETATM    1  C   UNL     1     -11.907  16.154  71.190  1.00  0.00    -0.411 C  
HETATM    2  C   UNL     1     -11.356  14.770  71.091  1.00  0.00    -0.185 C  
HETATM    3  C   UNL     1     -11.543  13.952  70.049  1.00  0.00    -0.212 C  
HETATM    4  N   UNL     1     -11.029  12.667  70.002  1.00  0.00     0.475 N  
HETATM    5  C   UNL     1     -10.212  12.185  71.018  1.00  0.00     6.747 C  
HETATM    6  O   UNL     1     -10.362  14.946  73.235  1.00  0.00     2.694 OA 
HETATM    7  O   UNL     1      -9.684  11.074  71.013  1.00  0.00     2.885 OA 
HETATM    8  H   UNL     1      -9.412  12.691  72.828  1.00  0.00     0.000 HD 
HETATM    9  N   UNL     1     -10.015  13.028  72.077  1.00  0.00    12.583 N  
HETATM   10  C   UNL     1     -10.546  14.275  72.227  1.00  0.00     3.884 C  
ENDROOT
BRANCH   4  11
HETATM   11  C   UNL     1     -11.238  11.795  68.845  1.00  0.00    -0.253 C  
HETATM   12  C   UNL     1     -10.333  10.569  68.822  1.00  0.00    -0.208 C  
HETATM   13  O   UNL     1     -12.587  11.286  68.819  1.00  0.00    -0.312 OA 
HETATM   14  C   UNL     1     -11.111   9.597  67.965  1.00  0.00    -0.047 C  
HETATM   15  C   UNL     1     -12.568   9.941  68.291  1.00  0.00     4.315 C  
BRANCH  14  16
HETATM   16  N   UNL     1     -10.859   9.894  66.539  1.00  0.00     0.007 NA 
HETATM   17  H   UNL     1     -10.812   9.159  65.834  1.00  0.00     0.000 HD 
BRANCH  16  18
HETATM   18  N   UNL     1     -10.709  11.096  66.252  1.00  0.00    -0.261 NA 
HETATM   19  N   UNL     1     -10.577  12.197  65.991  1.00  0.00    -0.249 NA 
HETATM   20  H1  UNL     1     -10.454  13.182  65.755  1.00  0.00     0.000 HD 
HETATM   21  H2  UNL     1     -11.475  12.404  66.428  1.00  0.00     0.000 HD 
ENDBRANCH  16  18
ENDBRANCH  14  16
BRANCH  15  22
HETATM   22  C   UNL     1     -13.187   9.007  69.336  1.00  0.00     4.438 C  
HETATM   23  H   UNL     1     -14.259   9.163  70.995  1.00  0.00     0.000 HD 
HETATM   24  O   UNL     1     -13.874   9.741  70.346  1.00  0.00     0.187 OA 
ENDBRANCH  15  22
ENDBRANCH   4  11
TORSDOF 4
ENDMDL
