MODEL        1
REMARK 921   NORMALIZED FREE ENERGY PREDICTED BY IDOCK:   -6.53 KCAL/MOL
REMARK 922        TOTAL FREE ENERGY PREDICTED BY IDOCK:   -8.94 KCAL/MOL
REMARK 923 INTER-LIGAND FREE ENERGY PREDICTED BY IDOCK:   -8.06 KCAL/MOL
REMARK 924 INTRA-LIGAND FREE ENERGY PREDICTED BY IDOCK:   -0.88 KCAL/MOL
REMARK 927      BINDING AFFINITY PREDICTED BY RF-SCORE:    0.00 PKD
ROOT
HETATM    1 ZN   UNL     1      -7.919  14.446  70.572  1.00  0.00    -0.368 Zn 
HETATM    2  C   UNL     2      -8.300  14.739  67.238  1.00  0.00    -0.212 C  
HETATM    3  O   UNL     2      -8.866  15.056  65.938  1.00  0.00    -0.048 OA 
HETATM    4  C   UNL     3     -10.229  12.290  64.839  1.00  0.00    -0.281 C  
HETATM    5  H   UNL     2     -11.412  16.893  68.928  1.00  0.00     0.000 HD 
HETATM    6  O   UNL     3     -10.789  12.657  63.568  1.00  0.00    -0.429 OA 
HETATM    7  O   UNL     3     -13.288  13.921  65.846  1.00  0.00    -0.560 OA 
HETATM    8  C   UNL     3     -11.341  12.530  65.852  1.00  0.00    -0.340 C  
HETATM    9  C   UNL     2     -10.036  15.754  66.084  1.00  0.00    -0.311 C  
HETATM   10  O   UNL     2      -8.828  15.601  69.413  1.00  0.00    -0.250 OA 
HETATM   11  C   UNL     3     -11.967  13.319  63.785  1.00  0.00    -0.491 C  
HETATM   12  C   UNL     2     -10.246  15.976  67.518  1.00  0.00    -0.275 C  
HETATM   13  O   UNL     2     -11.276  16.749  68.000  1.00  0.00    -0.295 OA 
HETATM   14  O   UNL     2     -10.709  16.233  65.185  1.00  0.00    -0.541 OA 
HETATM   15  C   UNL     2      -9.205  15.480  68.220  1.00  0.00    -0.188 C  
HETATM   16  O   UNL     3     -11.183  12.197  67.059  1.00  0.00    -0.276 OA 
HETATM   17  H   UNL     3     -13.483  13.880  66.775  1.00  0.00     0.000 HD 
HETATM   18  C   UNL     3     -12.267  13.257  65.217  1.00  0.00    -0.448 C  
HETATM   19  O   UNL     3     -12.652  13.809  62.893  1.00  0.00    -0.611 OA 
ENDROOT
BRANCH   2  20
HETATM   20  C   UNL     2      -8.094  13.185  67.348  1.00  0.00    -0.179 C  
HETATM   21  O   UNL     2      -6.860  12.797  66.713  1.00  0.00    -0.399 OA 
HETATM   22  H   UNL     2      -6.736  11.857  66.779  1.00  0.00     0.000 HD 
BRANCH  20  23
HETATM   23  C   UNL     2      -8.104  12.431  68.683  1.00  0.00    -0.020 C  
HETATM   24  H   UNL     2      -6.851  12.034  70.232  1.00  0.00     0.000 HD 
HETATM   25  O   UNL     2      -6.845  12.500  69.404  1.00  0.00    -0.068 OA 
ENDBRANCH  20  23
ENDBRANCH   2  20
BRANCH   4  26
HETATM   26  C   UNL     3      -9.461  10.957  64.693  1.00  0.00    -0.244 C  
HETATM   27  H   UNL     3      -9.686   8.983  65.119  1.00  0.00     0.000 HD 
HETATM   28  O   UNL     3     -10.157   9.802  65.209  1.00  0.00    -0.286 OA 
BRANCH  26  29
HETATM   29  C   UNL     3      -8.960  10.704  63.274  1.00  0.00    -0.224 C  
HETATM   30  O   UNL     3     -10.044  10.305  62.427  1.00  0.00    -0.714 OA 
HETATM   31  H   UNL     3      -9.732  10.147  61.544  1.00  0.00     0.000 HD 
ENDBRANCH  26  29
ENDBRANCH   4  26
TORSDOF 4
ENDMDL
MODEL        2
REMARK 921   NORMALIZED FREE ENERGY PREDICTED BY IDOCK:   -6.50 KCAL/MOL
REMARK 922        TOTAL FREE ENERGY PREDICTED BY IDOCK:   -8.90 KCAL/MOL
REMARK 923 INTER-LIGAND FREE ENERGY PREDICTED BY IDOCK:   -8.11 KCAL/MOL
REMARK 924 INTRA-LIGAND FREE ENERGY PREDICTED BY IDOCK:   -0.78 KCAL/MOL
REMARK 927      BINDING AFFINITY PREDICTED BY RF-SCORE:    0.00 PKD
ROOT
HETATM    1 ZN   UNL     1      -8.548  18.883  67.886  1.00  0.00    -0.257 Zn 
HETATM    2  C   UNL     2     -11.057  16.666  67.511  1.00  0.00    -0.055 C  
HETATM    3  O   UNL     2     -11.958  15.552  67.748  1.00  0.00    -0.101 OA 
HETATM    4  C   UNL     3     -10.841  13.076  65.921  1.00  0.00    -0.272 C  
HETATM    5  H   UNL     2      -9.517  16.006  71.303  1.00  0.00     0.000 HD 
HETATM    6  O   UNL     3     -11.747  11.996  66.202  1.00  0.00    -0.483 OA 
HETATM    7  O   UNL     3      -9.583  11.890  69.090  1.00  0.00    -0.397 OA 
HETATM    8  C   UNL     3      -9.719  12.934  66.941  1.00  0.00    -0.240 C  
HETATM    9  C   UNL     2     -11.694  14.975  68.962  1.00  0.00    -0.325 C  
HETATM   10  O   UNL     2      -9.611  17.843  69.021  1.00  0.00    -0.241 OA 
HETATM   11  C   UNL     3     -11.409  11.447  67.409  1.00  0.00    -0.288 C  
HETATM   12  C   UNL     2     -10.628  15.752  69.603  1.00  0.00    -0.295 C  
HETATM   13  O   UNL     2     -10.207  15.504  70.888  1.00  0.00     0.093 OA 
HETATM   14  O   UNL     2     -12.326  14.071  69.485  1.00  0.00    -0.332 OA 
HETATM   15  C   UNL     2     -10.294  16.804  68.827  1.00  0.00    -0.318 C  
HETATM   16  O   UNL     3      -8.706  13.686  66.880  1.00  0.00    -0.214 OA 
HETATM   17  H   UNL     3      -8.776  12.296  69.384  1.00  0.00     0.000 HD 
HETATM   18  C   UNL     3     -10.165  12.074  67.862  1.00  0.00    -0.196 C  
HETATM   19  O   UNL     3     -12.035  10.540  67.949  1.00  0.00    -0.297 OA 
ENDROOT
BRANCH   2  20
HETATM   20  C   UNL     2     -10.292  16.436  66.158  1.00  0.00    -0.344 C  
HETATM   21  O   UNL     2     -10.872  17.239  65.112  1.00  0.00    -0.640 OA 
HETATM   22  H   UNL     2     -10.410  17.100  64.293  1.00  0.00     0.000 HD 
BRANCH  20  23
HETATM   23  C   UNL     2      -8.778  16.628  66.008  1.00  0.00    -0.204 C  
HETATM   24  H   UNL     2      -7.442  18.129  65.709  1.00  0.00     0.000 HD 
HETATM   25  O   UNL     2      -8.380  18.010  65.802  1.00  0.00    -0.508 OA 
ENDBRANCH  20  23
ENDBRANCH   2  20
BRANCH   4  26
HETATM   26  C   UNL     3     -10.619  13.170  64.395  1.00  0.00    -0.421 C  
HETATM   27  H   UNL     3      -9.697  12.155  62.895  1.00  0.00     0.000 HD 
HETATM   28  O   UNL     3      -9.833  12.097  63.833  1.00  0.00    -0.287 OA 
BRANCH  26  29
HETATM   29  C   UNL     3     -11.912  13.370  63.610  1.00  0.00    -0.446 C  
HETATM   30  O   UNL     3     -12.341  14.734  63.696  1.00  0.00    -1.046 OA 
HETATM   31  H   UNL     3     -13.146  14.858  63.208  1.00  0.00     0.000 HD 
ENDBRANCH  26  29
ENDBRANCH   4  26
TORSDOF 4
ENDMDL
MODEL        3
REMARK 921   NORMALIZED FREE ENERGY PREDICTED BY IDOCK:   -6.50 KCAL/MOL
REMARK 922        TOTAL FREE ENERGY PREDICTED BY IDOCK:   -8.90 KCAL/MOL
REMARK 923 INTER-LIGAND FREE ENERGY PREDICTED BY IDOCK:   -7.68 KCAL/MOL
REMARK 924 INTRA-LIGAND FREE ENERGY PREDICTED BY IDOCK:   -1.22 KCAL/MOL
REMARK 927      BINDING AFFINITY PREDICTED BY RF-SCORE:    0.00 PKD
ROOT
HETATM    1 ZN   UNL     1     -11.023  17.203  67.133  1.00  0.00    -0.315 Zn 
HETATM    2  C   UNL     2     -11.875  13.981  66.633  1.00  0.00    -0.419 C  
HETATM    3  O   UNL     2     -12.144  12.574  66.873  1.00  0.00    -0.537 OA 
HETATM    4  C   UNL     3      -9.456  10.962  65.928  1.00  0.00    -0.207 C  
HETATM    5  H   UNL     2     -11.495  14.431  70.737  1.00  0.00     0.000 HD 
HETATM    6  O   UNL     3      -9.760   9.584  66.201  1.00  0.00    -0.216 OA 
HETATM    7  O   UNL     3      -8.854  10.784  69.483  1.00  0.00    -0.388 OA 
HETATM    8  C   UNL     3      -8.794  11.485  67.196  1.00  0.00    -0.168 C  
HETATM    9  C   UNL     2     -12.032  12.287  68.207  1.00  0.00    -0.200 C  
HETATM   10  O   UNL     2     -11.743  15.820  68.169  1.00  0.00    -0.316 OA 
HETATM   11  C   UNL     3      -9.598   9.359  67.541  1.00  0.00    -0.141 C  
HETATM   12  C   UNL     2     -11.742  13.540  68.910  1.00  0.00    -0.339 C  
HETATM   13  O   UNL     2     -11.683  13.619  70.281  1.00  0.00    -0.270 OA 
HETATM   14  O   UNL     2     -12.273  11.215  68.739  1.00  0.00    -0.555 OA 
HETATM   15  C   UNL     2     -11.735  14.569  68.036  1.00  0.00    -0.342 C  
HETATM   16  O   UNL     3      -8.314  12.653  67.227  1.00  0.00    -0.176 OA 
HETATM   17  H   UNL     3      -8.485  11.569  69.872  1.00  0.00     0.000 HD 
HETATM   18  C   UNL     3      -9.031  10.569  68.141  1.00  0.00    -0.138 C  
HETATM   19  O   UNL     3      -9.839   8.289  68.090  1.00  0.00    -0.161 OA 
ENDROOT
BRANCH   2  20
HETATM   20  C   UNL     2     -10.713  14.117  65.584  1.00  0.00    -0.313 C  
HETATM   21  O   UNL     2     -11.174  13.733  64.274  1.00  0.00    -0.497 OA 
HETATM   22  H   UNL     2     -10.471  13.815  63.640  1.00  0.00     0.000 HD 
BRANCH  20  23
HETATM   23  C   UNL     2      -9.932  15.417  65.362  1.00  0.00    -0.321 C  
HETATM   24  H   UNL     2     -10.266  17.322  64.739  1.00  0.00     0.000 HD 
HETATM   25  O   UNL     2     -10.749  16.516  64.877  1.00  0.00    -0.702 OA 
ENDBRANCH  20  23
ENDBRANCH   2  20
BRANCH   4  26
HETATM   26  C   UNL     3      -8.839  11.079  64.516  1.00  0.00     0.003 C  
HETATM   27  H   UNL     3      -7.165  10.530  63.505  1.00  0.00     0.000 HD 
HETATM   28  O   UNL     3      -7.543  10.459  64.373  1.00  0.00    -0.121 OA 
BRANCH  26  29
HETATM   29  C   UNL     3      -9.787  10.629  63.408  1.00  0.00    -0.321 C  
HETATM   30  O   UNL     3     -11.137  10.982  63.734  1.00  0.00    -0.521 OA 
HETATM   31  H   UNL     3     -11.726  10.702  63.043  1.00  0.00     0.000 HD 
ENDBRANCH  26  29
ENDBRANCH   4  26
TORSDOF 4
ENDMDL
MODEL        4
REMARK 921   NORMALIZED FREE ENERGY PREDICTED BY IDOCK:   -6.10 KCAL/MOL
REMARK 922        TOTAL FREE ENERGY PREDICTED BY IDOCK:   -8.41 KCAL/MOL
REMARK 923 INTER-LIGAND FREE ENERGY PREDICTED BY IDOCK:   -7.88 KCAL/MOL
REMARK 924 INTRA-LIGAND FREE ENERGY PREDICTED BY IDOCK:   -0.53 KCAL/MOL
REMARK 927      BINDING AFFINITY PREDICTED BY RF-SCORE:    0.00 PKD
ROOT
HETATM    1 ZN   UNL     1      -9.302   7.987  64.518  1.00  0.00    -0.382 Zn 
HETATM    2  C   UNL     2      -8.537  11.078  65.618  1.00  0.00    -0.130 C  
HETATM    3  O   UNL     2      -8.297  12.206  66.501  1.00  0.00    -0.110 OA 
HETATM    4  C   UNL     3     -11.040  13.993  66.456  1.00  0.00    -0.314 C  
HETATM    5  H   UNL     2      -8.831   8.708  69.007  1.00  0.00     0.000 HD 
HETATM    6  O   UNL     3     -10.763  15.081  67.354  1.00  0.00    -0.276 OA 
HETATM    7  O   UNL     3     -11.581  12.431  69.666  1.00  0.00    -0.339 OA 
HETATM    8  C   UNL     3     -11.666  12.908  67.322  1.00  0.00    -0.373 C  
HETATM    9  C   UNL     2      -8.391  11.817  67.810  1.00  0.00    -0.146 C  
HETATM   10  O   UNL     2      -8.597   8.726  66.086  1.00  0.00    -0.132 OA 
HETATM   11  C   UNL     3     -10.906  14.632  68.639  1.00  0.00    -0.255 C  
HETATM   12  C   UNL     2      -8.639  10.371  67.828  1.00  0.00    -0.122 C  
HETATM   13  O   UNL     2      -8.670   9.644  68.995  1.00  0.00    -0.130 OA 
HETATM   14  O   UNL     2      -8.166  12.510  68.789  1.00  0.00    -0.032 OA 
HETATM   15  C   UNL     2      -8.637   9.887  66.569  1.00  0.00    -0.124 C  
HETATM   16  O   UNL     3     -12.117  11.854  66.792  1.00  0.00    -0.593 OA 
HETATM   17  H   UNL     3     -11.923  11.544  69.633  1.00  0.00     0.000 HD 
HETATM   18  C   UNL     3     -11.433  13.267  68.589  1.00  0.00    -0.304 C  
HETATM   19  O   UNL     3     -10.681  15.316  69.633  1.00  0.00    -0.250 OA 
ENDROOT
BRANCH   2  20
HETATM   20  C   UNL     2      -9.714  11.427  64.638  1.00  0.00    -0.240 C  
HETATM   21  O   UNL     2      -9.441  12.661  63.946  1.00  0.00    -0.539 OA 
HETATM   22  H   UNL     2     -10.153  12.872  63.354  1.00  0.00     0.000 HD 
BRANCH  20  23
HETATM   23  C   UNL     2     -10.211  10.467  63.550  1.00  0.00    -0.003 C  
HETATM   24  H   UNL     2      -9.454   9.157  62.195  1.00  0.00     0.000 HD 
HETATM   25  O   UNL     2      -9.146   9.752  62.869  1.00  0.00    -0.250 OA 
ENDBRANCH  20  23
ENDBRANCH   2  20
BRANCH   4  26
HETATM   26  C   UNL     3     -11.679  14.548  65.164  1.00  0.00    -0.376 C  
HETATM   27  H   UNL     3     -13.504  14.722  64.287  1.00  0.00     0.000 HD 
HETATM   28  O   UNL     3     -13.111  14.380  65.081  1.00  0.00    -0.633 OA 
BRANCH  26  29
HETATM   29  C   UNL     3     -11.279  15.990  64.867  1.00  0.00    -0.312 C  
HETATM   30  O   UNL     3     -11.768  16.387  63.580  1.00  0.00    -1.520 OA 
HETATM   31  H   UNL     3     -11.519  17.285  63.396  1.00  0.00     0.000 HD 
ENDBRANCH  26  29
ENDBRANCH   4  26
TORSDOF 4
ENDMDL
MODEL        5
REMARK 921   NORMALIZED FREE ENERGY PREDICTED BY IDOCK:   -6.06 KCAL/MOL
REMARK 922        TOTAL FREE ENERGY PREDICTED BY IDOCK:   -8.36 KCAL/MOL
REMARK 923 INTER-LIGAND FREE ENERGY PREDICTED BY IDOCK:   -7.89 KCAL/MOL
REMARK 924 INTRA-LIGAND FREE ENERGY PREDICTED BY IDOCK:   -0.47 KCAL/MOL
REMARK 927      BINDING AFFINITY PREDICTED BY RF-SCORE:    0.00 PKD
ROOT
HETATM    1 ZN   UNL     1      -8.137  14.476  70.588  1.00  0.00    -0.374 Zn 
HETATM    2  C   UNL     2      -8.423  14.526  67.231  1.00  0.00    -0.215 C  
HETATM    3  O   UNL     2      -8.927  14.793  65.895  1.00  0.00    -0.062 OA 
HETATM    4  C   UNL     3     -10.568  12.108  64.990  1.00  0.00    -0.291 C  
HETATM    5  H   UNL     2     -11.307  17.141  68.655  1.00  0.00     0.000 HD 
HETATM    6  O   UNL     3     -11.061  12.426  63.678  1.00  0.00    -0.408 OA 
HETATM    7  O   UNL     3     -13.445  14.143  65.776  1.00  0.00    -0.670 OA 
HETATM    8  C   UNL     3     -11.665  12.553  65.949  1.00  0.00    -0.426 C  
HETATM    9  C   UNL     2     -10.014  15.623  65.952  1.00  0.00    -0.351 C  
HETATM   10  O   UNL     2      -8.891  15.621  69.314  1.00  0.00    -0.236 OA 
HETATM   11  C   UNL     3     -12.161  13.229  63.808  1.00  0.00    -0.439 C  
HETATM   12  C   UNL     2     -10.224  15.987  67.356  1.00  0.00    -0.273 C  
HETATM   13  O   UNL     2     -11.171  16.905  67.745  1.00  0.00    -0.201 OA 
HETATM   14  O   UNL     2     -10.614  16.096  64.999  1.00  0.00    -0.588 OA 
HETATM   15  C   UNL     2      -9.258  15.441  68.125  1.00  0.00    -0.186 C  
HETATM   16  O   UNL     3     -11.566  12.307  67.184  1.00  0.00    -0.334 OA 
HETATM   17  H   UNL     3     -13.660  14.201  66.700  1.00  0.00     0.000 HD 
HETATM   18  C   UNL     3     -12.492  13.320  65.232  1.00  0.00    -0.489 C  
HETATM   19  O   UNL     3     -12.772  13.713  62.861  1.00  0.00    -0.577 OA 
ENDROOT
BRANCH   2  20
HETATM   20  C   UNL     2      -8.393  12.974  67.474  1.00  0.00    -0.184 C  
HETATM   21  O   UNL     2      -7.520  12.335  66.522  1.00  0.00    -0.370 OA 
HETATM   22  H   UNL     2      -7.502  11.396  66.669  1.00  0.00     0.000 HD 
BRANCH  20  23
HETATM   23  C   UNL     2      -8.031  12.344  68.825  1.00  0.00     0.048 C  
HETATM   24  H   UNL     2      -6.513  12.367  70.173  1.00  0.00     0.000 HD 
HETATM   25  O   UNL     2      -6.737  12.757  69.336  1.00  0.00    -0.095 OA 
ENDBRANCH  20  23
ENDBRANCH   2  20
BRANCH   4  26
HETATM   26  C   UNL     3      -9.950  10.692  64.974  1.00  0.00    -0.305 C  
HETATM   27  H   UNL     3      -8.239   9.752  64.410  1.00  0.00     0.000 HD 
HETATM   28  O   UNL     3      -8.619  10.622  64.420  1.00  0.00    -0.173 OA 
BRANCH  26  29
HETATM   29  C   UNL     3     -10.016   9.993  66.329  1.00  0.00    -0.245 C  
HETATM   30  O   UNL     3     -10.197   8.582  66.152  1.00  0.00    -0.446 OA 
HETATM   31  H   UNL     3     -10.238   8.147  66.995  1.00  0.00     0.000 HD 
ENDBRANCH  26  29
ENDBRANCH   4  26
TORSDOF 4
ENDMDL
MODEL        6
REMARK 921   NORMALIZED FREE ENERGY PREDICTED BY IDOCK:   -6.02 KCAL/MOL
REMARK 922        TOTAL FREE ENERGY PREDICTED BY IDOCK:   -8.30 KCAL/MOL
REMARK 923 INTER-LIGAND FREE ENERGY PREDICTED BY IDOCK:   -7.76 KCAL/MOL
REMARK 924 INTRA-LIGAND FREE ENERGY PREDICTED BY IDOCK:   -0.54 KCAL/MOL
REMARK 927      BINDING AFFINITY PREDICTED BY RF-SCORE:    0.00 PKD
ROOT
HETATM    1 ZN   UNL     1      -5.703  15.341  70.946  1.00  0.00    -0.130 Zn 
HETATM    2  C   UNL     2      -6.473  16.664  67.944  1.00  0.00    -0.136 C  
HETATM    3  O   UNL     2      -6.909  17.598  66.921  1.00  0.00    -0.156 OA 
HETATM    4  C   UNL     3     -10.023  16.832  66.259  1.00  0.00    -0.320 C  
HETATM    5  H   UNL     2      -6.671  19.798  70.650  1.00  0.00     0.000 HD 
HETATM    6  O   UNL     3     -10.414  17.791  65.262  1.00  0.00    -0.605 OA 
HETATM    7  O   UNL     3     -10.703  19.741  68.286  1.00  0.00    -0.399 OA 
HETATM    8  C   UNL     3     -10.380  17.473  67.593  1.00  0.00    -0.360 C  
HETATM    9  C   UNL     2      -7.169  18.824  67.474  1.00  0.00    -0.215 C  
HETATM   10  O   UNL     2      -5.745  17.055  70.196  1.00  0.00    -0.219 OA 
HETATM   11  C   UNL     3     -10.689  18.979  65.883  1.00  0.00    -0.327 C  
HETATM   12  C   UNL     2      -6.842  18.748  68.901  1.00  0.00    -0.291 C  
HETATM   13  O   UNL     2      -6.882  19.847  69.725  1.00  0.00    -0.337 OA 
HETATM   14  O   UNL     2      -7.476  19.839  66.870  1.00  0.00    -0.227 OA 
HETATM   15  C   UNL     2      -6.343  17.529  69.196  1.00  0.00    -0.235 C  
HETATM   16  O   UNL     3     -10.249  16.821  68.667  1.00  0.00    -0.260 OA 
HETATM   17  H   UNL     3     -10.662  19.599  69.226  1.00  0.00     0.000 HD 
HETATM   18  C   UNL     3     -10.624  18.761  67.330  1.00  0.00    -0.443 C  
HETATM   19  O   UNL     3     -10.995  20.008  65.290  1.00  0.00    -0.315 OA 
ENDROOT
BRANCH   2  20
HETATM   20  C   UNL     2      -7.412  15.404  67.930  1.00  0.00    -0.140 C  
HETATM   21  O   UNL     2      -7.009  14.490  66.892  1.00  0.00    -0.308 OA 
HETATM   22  H   UNL     2      -7.576  13.728  66.883  1.00  0.00     0.000 HD 
BRANCH  20  23
HETATM   23  C   UNL     2      -7.648  14.521  69.162  1.00  0.00    -0.102 C  
HETATM   24  H   UNL     2      -6.628  13.207  70.328  1.00  0.00     0.000 HD 
HETATM   25  O   UNL     2      -6.482  13.753  69.565  1.00  0.00    -0.110 OA 
ENDBRANCH  20  23
ENDBRANCH   2  20
BRANCH   4  26
HETATM   26  C   UNL     3     -10.483  15.424  65.822  1.00  0.00    -0.355 C  
HETATM   27  H   UNL     3     -10.906  13.609  66.632  1.00  0.00     0.000 HD 
HETATM   28  O   UNL     3     -10.622  14.474  66.900  1.00  0.00    -0.274 OA 
BRANCH  26  29
HETATM   29  C   UNL     3     -11.733  15.445  64.947  1.00  0.00    -0.174 C  
HETATM   30  O   UNL     3     -11.471  16.138  63.721  1.00  0.00    -1.323 OA 
HETATM   31  H   UNL     3     -12.249  16.151  63.176  1.00  0.00     0.000 HD 
ENDBRANCH  26  29
ENDBRANCH   4  26
TORSDOF 4
ENDMDL
MODEL        7
REMARK 921   NORMALIZED FREE ENERGY PREDICTED BY IDOCK:   -6.01 KCAL/MOL
REMARK 922        TOTAL FREE ENERGY PREDICTED BY IDOCK:   -8.30 KCAL/MOL
REMARK 923 INTER-LIGAND FREE ENERGY PREDICTED BY IDOCK:   -7.65 KCAL/MOL
REMARK 924 INTRA-LIGAND FREE ENERGY PREDICTED BY IDOCK:   -0.65 KCAL/MOL
REMARK 927      BINDING AFFINITY PREDICTED BY RF-SCORE:    0.00 PKD
ROOT
HETATM    1 ZN   UNL     1     -12.086  15.950  62.999  1.00  0.00    -0.751 Zn 
HETATM    2  C   UNL     2     -11.515  14.991  66.178  1.00  0.00    -0.222 C  
HETATM    3  O   UNL     2     -10.848  14.748  67.446  1.00  0.00    -0.285 OA 
HETATM    4  C   UNL     3      -9.914  11.611  67.393  1.00  0.00    -0.183 C  
HETATM    5  H   UNL     2      -8.167  17.147  65.025  1.00  0.00     0.000 HD 
HETATM    6  O   UNL     3      -9.245  11.423  68.651  1.00  0.00    -0.183 OA 
HETATM    7  O   UNL     3      -6.675  13.049  66.706  1.00  0.00    -0.373 OA 
HETATM    8  C   UNL     3      -8.823  12.035  66.419  1.00  0.00    -0.126 C  
HETATM    9  C   UNL     2      -9.587  15.281  67.432  1.00  0.00    -0.207 C  
HETATM   10  O   UNL     2     -10.949  16.483  64.387  1.00  0.00    -0.872 OA 
HETATM   11  C   UNL     3      -7.985  11.949  68.558  1.00  0.00    -0.137 C  
HETATM   12  C   UNL     2      -9.406  15.964  66.146  1.00  0.00    -0.350 C  
HETATM   13  O   UNL     2      -8.285  16.705  65.857  1.00  0.00    -0.405 OA 
HETATM   14  O   UNL     2      -8.805  15.314  68.368  1.00  0.00    -0.168 OA 
HETATM   15  C   UNL     2     -10.544  15.897  65.424  1.00  0.00    -0.419 C  
HETATM   16  O   UNL     3      -9.087  12.174  65.191  1.00  0.00     0.181 OA 
HETATM   17  H   UNL     3      -6.531  13.311  65.804  1.00  0.00     0.000 HD 
HETATM   18  C   UNL     3      -7.763  12.354  67.168  1.00  0.00    -0.122 C  
HETATM   19  O   UNL     3      -7.190  11.992  69.491  1.00  0.00     0.063 OA 
ENDROOT
BRANCH   2  20
HETATM   20  C   UNL     2     -11.980  13.621  65.565  1.00  0.00    -0.384 C  
HETATM   21  O   UNL     2     -13.406  13.469  65.701  1.00  0.00    -0.412 OA 
HETATM   22  H   UNL     2     -13.687  12.641  65.330  1.00  0.00     0.000 HD 
BRANCH  20  23
HETATM   23  C   UNL     2     -11.675  13.203  64.122  1.00  0.00    -0.418 C  
HETATM   24  H   UNL     2     -12.384  13.527  62.246  1.00  0.00     0.000 HD 
HETATM   25  O   UNL     2     -12.573  13.786  63.141  1.00  0.00    -0.793 OA 
ENDBRANCH  20  23
ENDBRANCH   2  20
BRANCH   4  26
HETATM   26  C   UNL     3     -10.884  10.433  67.151  1.00  0.00    -0.238 C  
HETATM   27  H   UNL     3     -10.946   8.649  66.179  1.00  0.00     0.000 HD 
HETATM   28  O   UNL     3     -10.350   9.373  66.328  1.00  0.00    -0.240 OA 
BRANCH  26  29
HETATM   29  C   UNL     3     -11.487   9.876  68.437  1.00  0.00     0.143 C  
HETATM   30  O   UNL     3     -12.380  10.831  69.022  1.00  0.00    -0.751 OA 
HETATM   31  H   UNL     3     -12.755  10.484  69.823  1.00  0.00     0.000 HD 
ENDBRANCH  26  29
ENDBRANCH   4  26
TORSDOF 4
ENDMDL
MODEL        8
REMARK 921   NORMALIZED FREE ENERGY PREDICTED BY IDOCK:   -6.00 KCAL/MOL
REMARK 922        TOTAL FREE ENERGY PREDICTED BY IDOCK:   -8.29 KCAL/MOL
REMARK 923 INTER-LIGAND FREE ENERGY PREDICTED BY IDOCK:   -7.53 KCAL/MOL
REMARK 924 INTRA-LIGAND FREE ENERGY PREDICTED BY IDOCK:   -0.76 KCAL/MOL
REMARK 927      BINDING AFFINITY PREDICTED BY RF-SCORE:    0.00 PKD
ROOT
HETATM    1 ZN   UNL     1      -9.009   4.348  72.587  1.00  0.00    -0.104 Zn 
HETATM    2  C   UNL     2     -11.139   5.967  70.539  1.00  0.00    -0.314 C  
HETATM    3  O   UNL     2     -11.658   6.751  69.432  1.00  0.00    -0.199 OA 
HETATM    4  C   UNL     3     -12.010   9.802  70.564  1.00  0.00    -0.206 C  
HETATM    5  H   UNL     2      -7.482   5.943  68.585  1.00  0.00     0.000 HD 
HETATM    6  O   UNL     3     -12.504  10.540  69.434  1.00  0.00    -0.223 OA 
HETATM    7  O   UNL     3      -8.974  10.371  68.695  1.00  0.00    -0.132 OA 
HETATM    8  C   UNL     3     -10.494   9.920  70.488  1.00  0.00    -0.264 C  
HETATM    9  C   UNL     2     -10.659   7.035  68.539  1.00  0.00    -0.202 C  
HETATM   10  O   UNL     2      -9.060   4.792  70.770  1.00  0.00    -0.121 OA 
HETATM   11  C   UNL     3     -11.454  10.817  68.602  1.00  0.00    -0.295 C  
HETATM   12  C   UNL     2      -9.437   6.377  69.012  1.00  0.00    -0.129 C  
HETATM   13  O   UNL     2      -8.274   6.369  68.279  1.00  0.00    -0.115 OA 
HETATM   14  O   UNL     2     -10.787   7.607  67.468  1.00  0.00    -0.223 OA 
HETATM   15  C   UNL     2      -9.699   5.665  70.128  1.00  0.00    -0.174 C  
HETATM   16  O   UNL     3      -9.773   9.456  71.416  1.00  0.00    -0.236 OA 
HETATM   17  H   UNL     3      -8.174  10.093  69.127  1.00  0.00     0.000 HD 
HETATM   18  C   UNL     3     -10.221  10.388  69.266  1.00  0.00    -0.230 C  
HETATM   19  O   UNL     3     -11.568  11.389  67.522  1.00  0.00    -0.497 OA 
ENDROOT
BRANCH   2  20
HETATM   20  C   UNL     2     -11.452   6.707  71.890  1.00  0.00    -0.291 C  
HETATM   21  O   UNL     2     -12.761   6.342  72.369  1.00  0.00    -0.550 OA 
HETATM   22  H   UNL     2     -12.950   6.789  73.185  1.00  0.00     0.000 HD 
BRANCH  20  23
HETATM   23  C   UNL     2     -10.543   6.621  73.122  1.00  0.00    -0.273 C  
HETATM   24  H   UNL     2     -10.152   5.349  74.657  1.00  0.00     0.000 HD 
HETATM   25  O   UNL     2     -10.715   5.402  73.893  1.00  0.00    -0.279 OA 
ENDBRANCH  20  23
ENDBRANCH   2  20
BRANCH   4  26
HETATM   26  C   UNL     3     -12.847  10.160  71.813  1.00  0.00    -0.452 C  
HETATM   27  H   UNL     3     -13.800  11.755  72.636  1.00  0.00     0.000 HD 
HETATM   28  O   UNL     3     -13.286  11.535  71.869  1.00  0.00    -0.485 OA 
BRANCH  26  29
HETATM   29  C   UNL     3     -14.012   9.204  72.050  1.00  0.00    -0.371 C  
HETATM   30  O   UNL     3     -14.066   8.819  73.430  1.00  0.00    -1.167 OA 
HETATM   31  H   UNL     3     -14.792   8.224  73.577  1.00  0.00     0.000 HD 
ENDBRANCH  26  29
ENDBRANCH   4  26
TORSDOF 4
ENDMDL
MODEL        9
REMARK 921   NORMALIZED FREE ENERGY PREDICTED BY IDOCK:   -5.95 KCAL/MOL
REMARK 922        TOTAL FREE ENERGY PREDICTED BY IDOCK:   -8.22 KCAL/MOL
REMARK 923 INTER-LIGAND FREE ENERGY PREDICTED BY IDOCK:   -7.01 KCAL/MOL
REMARK 924 INTRA-LIGAND FREE ENERGY PREDICTED BY IDOCK:   -1.21 KCAL/MOL
REMARK 927      BINDING AFFINITY PREDICTED BY RF-SCORE:    0.00 PKD
ROOT
HETATM    1 ZN   UNL     1      -5.635   9.410  65.627  1.00  0.00    -0.042 Zn 
HETATM    2  C   UNL     2      -8.991   9.712  65.637  1.00  0.00    -0.169 C  
HETATM    3  O   UNL     2     -10.339  10.114  65.276  1.00  0.00    -0.266 OA 
HETATM    4  C   UNL     3     -11.117  12.583  67.281  1.00  0.00    -0.274 C  
HETATM    5  H   UNL     2      -7.699  11.515  62.134  1.00  0.00     0.000 HD 
HETATM    6  O   UNL     3     -12.444  12.958  66.875  1.00  0.00    -0.308 OA 
HETATM    7  O   UNL     3     -10.434  14.586  64.356  1.00  0.00    -0.535 OA 
HETATM    8  C   UNL     3     -10.182  13.449  66.447  1.00  0.00    -0.293 C  
HETATM    9  C   UNL     2     -10.325  10.854  64.124  1.00  0.00    -0.364 C  
HETATM   10  O   UNL     2      -6.964   9.748  64.354  1.00  0.00    -0.114 OA 
HETATM   11  C   UNL     3     -12.354  13.719  65.741  1.00  0.00    -0.486 C  
HETATM   12  C   UNL     2      -8.939  10.907  63.646  1.00  0.00    -0.129 C  
HETATM   13  O   UNL     2      -8.596  11.480  62.444  1.00  0.00    -0.298 OA 
HETATM   14  O   UNL     2     -11.300  11.272  63.519  1.00  0.00    -0.314 OA 
HETATM   15  C   UNL     2      -8.144  10.173  64.452  1.00  0.00    -0.163 C  
HETATM   16  O   UNL     3      -8.937  13.422  66.654  1.00  0.00    -0.213 OA 
HETATM   17  H   UNL     3      -9.514  14.754  64.185  1.00  0.00     0.000 HD 
HETATM   18  C   UNL     3     -10.937  13.978  65.477  1.00  0.00    -0.309 C  
HETATM   19  O   UNL     3     -13.324  14.143  65.122  1.00  0.00    -0.684 OA 
ENDROOT
BRANCH   2  20
HETATM   20  C   UNL     2      -8.674  10.207  67.094  1.00  0.00    -0.129 C  
HETATM   21  O   UNL     2      -9.350   9.381  68.062  1.00  0.00    -0.130 OA 
HETATM   22  H   UNL     2      -9.159   9.681  68.943  1.00  0.00     0.000 HD 
BRANCH  20  23
HETATM   23  C   UNL     2      -7.247  10.359  67.635  1.00  0.00    -0.086 C  
HETATM   24  H   UNL     2      -5.603   9.216  67.975  1.00  0.00     0.000 HD 
HETATM   25  O   UNL     2      -6.487   9.122  67.640  1.00  0.00    -0.062 OA 
ENDBRANCH  20  23
ENDBRANCH   2  20
BRANCH   4  26
HETATM   26  C   UNL     3     -11.063  12.483  68.822  1.00  0.00    -0.270 C  
HETATM   27  H   UNL     3     -11.416  13.629  70.463  1.00  0.00     0.000 HD 
HETATM   28  O   UNL     3     -11.448  13.690  69.516  1.00  0.00    -0.272 OA 
BRANCH  26  29
HETATM   29  C   UNL     3     -11.812  11.273  69.372  1.00  0.00    -0.355 C  
HETATM   30  O   UNL     3     -12.126  10.359  68.315  1.00  0.00    -0.747 OA 
HETATM   31  H   UNL     3     -12.591   9.605  68.658  1.00  0.00     0.000 HD 
ENDBRANCH  26  29
ENDBRANCH   4  26
TORSDOF 4
ENDMDL
MODEL       10
REMARK 921   NORMALIZED FREE ENERGY PREDICTED BY IDOCK:   -5.92 KCAL/MOL
REMARK 922        TOTAL FREE ENERGY PREDICTED BY IDOCK:   -8.18 KCAL/MOL
REMARK 923 INTER-LIGAND FREE ENERGY PREDICTED BY IDOCK:   -7.23 KCAL/MOL
REMARK 924 INTRA-LIGAND FREE ENERGY PREDICTED BY IDOCK:   -0.95 KCAL/MOL
REMARK 927      BINDING AFFINITY PREDICTED BY RF-SCORE:    0.00 PKD
ROOT
HETATM    1 ZN   UNL     1     -10.783  12.834  66.248  1.00  0.00    -0.252 Zn 
HETATM    2  C   UNL     2     -10.576  15.799  67.834  1.00  0.00    -0.282 C  
HETATM    3  O   UNL     2     -10.487  17.228  68.078  1.00  0.00    -0.342 OA 
HETATM    4  C   UNL     3      -7.318  17.865  68.599  1.00  0.00    -0.271 C  
HETATM    5  H   UNL     2     -11.227  16.693  63.839  1.00  0.00     0.000 HD 
HETATM    6  O   UNL     3      -7.278  19.286  68.814  1.00  0.00    -0.316 OA 
HETATM    7  O   UNL     3      -7.469  19.109  65.214  1.00  0.00    -0.381 OA 
HETATM    8  C   UNL     3      -7.117  17.681  67.101  1.00  0.00    -0.173 C  
HETATM    9  C   UNL     2     -10.589  17.921  66.901  1.00  0.00    -0.265 C  
HETATM   10  O   UNL     2     -11.294  14.598  65.886  1.00  0.00    -0.334 OA 
HETATM   11  C   UNL     3      -7.351  19.913  67.600  1.00  0.00    -0.281 C  
HETATM   12  C   UNL     2     -10.817  16.946  65.829  1.00  0.00    -0.060 C  
HETATM   13  O   UNL     2     -11.079  17.324  64.534  1.00  0.00    -1.082 OA 
HETATM   14  O   UNL     2     -10.630  19.134  66.776  1.00  0.00    -0.408 OA 
HETATM   15  C   UNL     2     -10.910  15.703  66.347  1.00  0.00    -0.252 C  
HETATM   16  O   UNL     3      -6.999  16.522  66.614  1.00  0.00    -0.216 OA 
HETATM   17  H   UNL     3      -7.427  18.445  64.535  1.00  0.00     0.000 HD 
HETATM   18  C   UNL     3      -7.286  18.889  66.554  1.00  0.00    -0.235 C  
HETATM   19  O   UNL     3      -7.396  21.131  67.460  1.00  0.00    -0.391 OA 
ENDROOT
BRANCH   2  20
HETATM   20  C   UNL     2      -9.300  15.092  68.420  1.00  0.00    -0.197 C  
HETATM   21  O   UNL     2      -9.299  15.172  69.859  1.00  0.00    -0.463 OA 
HETATM   22  H   UNL     2      -8.528  14.745  70.213  1.00  0.00     0.000 HD 
BRANCH  20  23
HETATM   23  C   UNL     2      -8.930  13.638  68.106  1.00  0.00    -0.191 C  
HETATM   24  H   UNL     2      -7.934  12.579  66.687  1.00  0.00     0.000 HD 
HETATM   25  O   UNL     2      -8.164  13.480  66.882  1.00  0.00    -0.090 OA 
ENDBRANCH  20  23
ENDBRANCH   2  20
BRANCH   4  26
HETATM   26  C   UNL     3      -6.470  17.161  69.682  1.00  0.00    -0.170 C  
HETATM   27  H   UNL     3      -5.773  15.309  70.145  1.00  0.00     0.000 HD 
HETATM   28  O   UNL     3      -6.295  15.742  69.480  1.00  0.00    -0.151 OA 
BRANCH  26  29
HETATM   29  C   UNL     3      -5.131  17.847  69.937  1.00  0.00    -0.200 C  
HETATM   30  O   UNL     3      -5.282  18.882  70.917  1.00  0.00    -0.230 OA 
HETATM   31  H   UNL     3      -4.448  19.309  71.076  1.00  0.00     0.000 HD 
ENDBRANCH  26  29
ENDBRANCH   4  26
TORSDOF 4
ENDMDL
MODEL       11
REMARK 921   NORMALIZED FREE ENERGY PREDICTED BY IDOCK:   -5.83 KCAL/MOL
REMARK 922        TOTAL FREE ENERGY PREDICTED BY IDOCK:   -8.07 KCAL/MOL
REMARK 923 INTER-LIGAND FREE ENERGY PREDICTED BY IDOCK:   -7.71 KCAL/MOL
REMARK 924 INTRA-LIGAND FREE ENERGY PREDICTED BY IDOCK:   -0.35 KCAL/MOL
REMARK 927      BINDING AFFINITY PREDICTED BY RF-SCORE:    0.00 PKD
ROOT
HETATM    1 ZN   UNL     1      -7.129  12.224  70.330  1.00  0.00    -0.361 Zn 
HETATM    2  C   UNL     2      -7.338  14.116  67.549  1.00  0.00    -0.175 C  
HETATM    3  O   UNL     2      -7.392  15.269  66.668  1.00  0.00    -0.006 OA 
HETATM    4  C   UNL     3     -10.564  15.789  66.047  1.00  0.00    -0.326 C  
HETATM    5  H   UNL     2      -6.386  16.724  70.627  1.00  0.00     0.000 HD 
HETATM    6  O   UNL     3     -10.569  16.945  65.193  1.00  0.00    -0.679 OA 
HETATM    7  O   UNL     3     -10.140  18.454  68.444  1.00  0.00    -0.357 OA 
HETATM    8  C   UNL     3     -10.670  16.337  67.464  1.00  0.00    -0.300 C  
HETATM    9  C   UNL     2      -7.186  16.422  67.378  1.00  0.00    -0.160 C  
HETATM   10  O   UNL     2      -6.532  13.917  69.800  1.00  0.00    -0.127 OA 
HETATM   11  C   UNL     3     -10.390  18.059  65.967  1.00  0.00    -0.331 C  
HETATM   12  C   UNL     2      -6.920  16.047  68.770  1.00  0.00    -0.139 C  
HETATM   13  O   UNL     2      -6.558  16.967  69.725  1.00  0.00    -0.199 OA 
HETATM   14  O   UNL     2      -7.093  17.549  66.917  1.00  0.00    -0.165 OA 
HETATM   15  C   UNL     2      -6.907  14.702  68.892  1.00  0.00    -0.104 C  
HETATM   16  O   UNL     3     -10.795  15.548  68.442  1.00  0.00    -0.252 OA 
HETATM   17  H   UNL     3     -10.160  18.187  69.356  1.00  0.00     0.000 HD 
HETATM   18  C   UNL     3     -10.421  17.647  67.372  1.00  0.00    -0.356 C  
HETATM   19  O   UNL     3     -10.293  19.197  65.518  1.00  0.00    -0.478 OA 
ENDROOT
BRANCH   2  20
HETATM   20  C   UNL     2      -8.674  13.300  67.419  1.00  0.00    -0.206 C  
HETATM   21  O   UNL     2      -8.800  12.753  66.091  1.00  0.00    -0.427 OA 
HETATM   22  H   UNL     2      -9.609  12.260  66.012  1.00  0.00     0.000 HD 
BRANCH  20  23
HETATM   23  C   UNL     2      -9.046  12.145  68.357  1.00  0.00    -0.151 C  
HETATM   24  H   UNL     2     -10.686  11.388  69.286  1.00  0.00     0.000 HD 
HETATM   25  O   UNL     2     -10.455  12.104  68.705  1.00  0.00    -0.228 OA 
ENDBRANCH  20  23
ENDBRANCH   2  20
BRANCH   4  26
HETATM   26  C   UNL     3     -11.508  14.717  65.458  1.00  0.00    -0.341 C  
HETATM   27  H   UNL     3     -13.001  13.472  66.049  1.00  0.00     0.000 HD 
HETATM   28  O   UNL     3     -12.421  14.130  66.411  1.00  0.00    -0.461 OA 
BRANCH  26  29
HETATM   29  C   UNL     3     -12.248  15.187  64.210  1.00  0.00    -0.240 C  
HETATM   30  O   UNL     3     -12.435  14.095  63.301  1.00  0.00    -1.146 OA 
HETATM   31  H   UNL     3     -12.896  14.389  62.524  1.00  0.00     0.000 HD 
ENDBRANCH  26  29
ENDBRANCH   4  26
TORSDOF 4
ENDMDL
MODEL       12
REMARK 921   NORMALIZED FREE ENERGY PREDICTED BY IDOCK:   -5.69 KCAL/MOL
REMARK 922        TOTAL FREE ENERGY PREDICTED BY IDOCK:   -7.90 KCAL/MOL
REMARK 923 INTER-LIGAND FREE ENERGY PREDICTED BY IDOCK:   -7.06 KCAL/MOL
REMARK 924 INTRA-LIGAND FREE ENERGY PREDICTED BY IDOCK:   -0.84 KCAL/MOL
REMARK 927      BINDING AFFINITY PREDICTED BY RF-SCORE:    0.00 PKD
ROOT
HETATM    1 ZN   UNL     1      -6.884  17.150  69.807  1.00  0.00    -0.222 Zn 
HETATM    2  C   UNL     2      -7.938  15.919  66.854  1.00  0.00    -0.252 C  
HETATM    3  O   UNL     2      -8.786  15.595  65.720  1.00  0.00    -0.196 OA 
HETATM    4  C   UNL     3      -9.865  12.547  66.233  1.00  0.00    -0.252 C  
HETATM    5  H   UNL     2     -10.978  18.395  68.201  1.00  0.00     0.000 HD 
HETATM    6  O   UNL     3     -10.710  12.280  65.102  1.00  0.00    -0.275 OA 
HETATM    7  O   UNL     3     -12.899  14.257  67.184  1.00  0.00    -0.309 OA 
HETATM    8  C   UNL     3     -10.787  13.137  67.292  1.00  0.00    -0.257 C  
HETATM    9  C   UNL     2     -10.004  16.209  65.843  1.00  0.00    -0.356 C  
HETATM   10  O   UNL     2      -8.173  17.616  68.533  1.00  0.00    -0.280 OA 
HETATM   11  C   UNL     3     -11.916  12.894  65.304  1.00  0.00    -0.419 C  
HETATM   12  C   UNL     2      -9.970  17.027  67.060  1.00  0.00    -0.288 C  
HETATM   13  O   UNL     2     -11.000  17.866  67.413  1.00  0.00    -0.281 OA 
HETATM   14  O   UNL     2     -10.906  16.200  65.020  1.00  0.00    -0.516 OA 
HETATM   15  C   UNL     2      -8.747  16.958  67.628  1.00  0.00    -0.209 C  
HETATM   16  O   UNL     3     -10.348  13.381  68.451  1.00  0.00    -0.242 OA 
HETATM   17  H   UNL     3     -12.903  14.617  68.064  1.00  0.00     0.000 HD 
HETATM   18  C   UNL     3     -11.923  13.450  66.660  1.00  0.00    -0.399 C  
HETATM   19  O   UNL     3     -12.830  12.896  64.486  1.00  0.00    -0.697 OA 
ENDROOT
BRANCH   2  20
HETATM   20  C   UNL     2      -7.465  14.590  67.544  1.00  0.00    -0.194 C  
HETATM   21  O   UNL     2      -6.165  14.205  67.053  1.00  0.00    -0.270 OA 
HETATM   22  H   UNL     2      -5.879  13.401  67.470  1.00  0.00     0.000 HD 
BRANCH  20  23
HETATM   23  C   UNL     2      -7.376  14.421  69.066  1.00  0.00    -0.127 C  
HETATM   24  H   UNL     2      -6.069  14.781  70.578  1.00  0.00     0.000 HD 
HETATM   25  O   UNL     2      -6.124  14.886  69.635  1.00  0.00    -0.108 OA 
ENDBRANCH  20  23
ENDBRANCH   2  20
BRANCH   4  26
HETATM   26  C   UNL     3      -8.933  11.338  66.470  1.00  0.00    -0.184 C  
HETATM   27  H   UNL     3      -8.769   9.722  67.692  1.00  0.00     0.000 HD 
HETATM   28  O   UNL     3      -9.341  10.465  67.546  1.00  0.00    -0.147 OA 
BRANCH  26  29
HETATM   29  C   UNL     3      -8.645  10.543  65.200  1.00  0.00    -0.180 C  
HETATM   30  O   UNL     3      -9.602   9.488  65.046  1.00  0.00    -0.401 OA 
HETATM   31  H   UNL     3      -9.423   8.994  64.255  1.00  0.00     0.000 HD 
ENDBRANCH  26  29
ENDBRANCH   4  26
TORSDOF 4
ENDMDL
MODEL       13
REMARK 921   NORMALIZED FREE ENERGY PREDICTED BY IDOCK:   -5.69 KCAL/MOL
REMARK 922        TOTAL FREE ENERGY PREDICTED BY IDOCK:   -7.90 KCAL/MOL
REMARK 923 INTER-LIGAND FREE ENERGY PREDICTED BY IDOCK:   -7.02 KCAL/MOL
REMARK 924 INTRA-LIGAND FREE ENERGY PREDICTED BY IDOCK:   -0.88 KCAL/MOL
REMARK 927      BINDING AFFINITY PREDICTED BY RF-SCORE:    0.00 PKD
ROOT
HETATM    1 ZN   UNL     1      -6.334  19.865  69.172  1.00  0.00    -0.226 Zn 
HETATM    2  C   UNL     2      -7.635  17.846  66.810  1.00  0.00    -0.217 C  
HETATM    3  O   UNL     2      -8.589  17.167  65.951  1.00  0.00    -0.522 OA 
HETATM    4  C   UNL     3      -9.122  14.241  67.318  1.00  0.00    -0.215 C  
HETATM    5  H   UNL     2     -10.761  20.242  68.102  1.00  0.00     0.000 HD 
HETATM    6  O   UNL     3     -10.082  13.618  66.448  1.00  0.00    -0.279 OA 
HETATM    7  O   UNL     3     -12.192  15.802  68.400  1.00  0.00    -0.436 OA 
HETATM    8  C   UNL     3      -9.948  14.971  68.369  1.00  0.00    -0.225 C  
HETATM    9  C   UNL     2      -9.850  17.661  66.154  1.00  0.00    -0.242 C  
HETATM   10  O   UNL     2      -7.855  19.867  68.083  1.00  0.00    -0.306 OA 
HETATM   11  C   UNL     3     -11.320  14.132  66.725  1.00  0.00    -0.343 C  
HETATM   12  C   UNL     2      -9.750  18.750  67.131  1.00  0.00    -0.301 C  
HETATM   13  O   UNL     2     -10.825  19.537  67.469  1.00  0.00    -0.468 OA 
HETATM   14  O   UNL     2     -10.855  17.357  65.532  1.00  0.00    -0.429 OA 
HETATM   15  C   UNL     2      -8.458  18.951  67.468  1.00  0.00    -0.274 C  
HETATM   16  O   UNL     3      -9.379  15.536  69.345  1.00  0.00    -0.254 OA 
HETATM   17  H   UNL     3     -12.115  16.364  69.163  1.00  0.00     0.000 HD 
HETATM   18  C   UNL     3     -11.200  14.999  67.900  1.00  0.00    -0.323 C  
HETATM   19  O   UNL     3     -12.338  13.838  66.107  1.00  0.00    -0.445 OA 
ENDROOT
BRANCH   2  20
HETATM   20  C   UNL     2      -6.874  16.783  67.681  1.00  0.00    -0.137 C  
HETATM   21  O   UNL     2      -6.248  15.797  66.836  1.00  0.00    -0.275 OA 
HETATM   22  H   UNL     2      -5.788  15.154  67.363  1.00  0.00     0.000 HD 
BRANCH  20  23
HETATM   23  C   UNL     2      -5.800  17.156  68.711  1.00  0.00    -0.148 C  
HETATM   24  H   UNL     2      -5.663  17.652  70.676  1.00  0.00     0.000 HD 
HETATM   25  O   UNL     2      -6.328  17.421  70.038  1.00  0.00    -0.150 OA 
ENDBRANCH  20  23
ENDBRANCH   2  20
BRANCH   4  26
HETATM   26  C   UNL     3      -8.000  13.231  67.645  1.00  0.00    -0.176 C  
HETATM   27  H   UNL     3      -6.473  12.982  68.963  1.00  0.00     0.000 HD 
HETATM   28  O   UNL     3      -7.163  13.603  68.762  1.00  0.00    -0.100 OA 
BRANCH  26  29
HETATM   29  C   UNL     3      -8.503  11.799  67.792  1.00  0.00    -0.147 C  
HETATM   30  O   UNL     3      -9.442  11.710  68.871  1.00  0.00    -0.384 OA 
HETATM   31  H   UNL     3      -9.756  10.817  68.962  1.00  0.00     0.000 HD 
ENDBRANCH  26  29
ENDBRANCH   4  26
TORSDOF 4
ENDMDL
MODEL       14
REMARK 921   NORMALIZED FREE ENERGY PREDICTED BY IDOCK:   -5.66 KCAL/MOL
REMARK 922        TOTAL FREE ENERGY PREDICTED BY IDOCK:   -7.87 KCAL/MOL
REMARK 923 INTER-LIGAND FREE ENERGY PREDICTED BY IDOCK:   -6.91 KCAL/MOL
REMARK 924 INTRA-LIGAND FREE ENERGY PREDICTED BY IDOCK:   -0.96 KCAL/MOL
REMARK 927      BINDING AFFINITY PREDICTED BY RF-SCORE:    0.00 PKD
ROOT
HETATM    1 ZN   UNL     1      -9.575   8.132  67.790  1.00  0.00    -0.138 Zn 
HETATM    2  C   UNL     2     -11.469  10.852  67.183  1.00  0.00     0.055 C  
HETATM    3  O   UNL     2     -11.937  12.109  66.625  1.00  0.00    -0.616 OA 
HETATM    4  C   UNL     3     -11.069  14.431  68.764  1.00  0.00    -0.257 C  
HETATM    5  H   UNL     2      -8.500  10.868  64.290  1.00  0.00     0.000 HD 
HETATM    6  O   UNL     3     -11.533  15.651  68.163  1.00  0.00    -0.352 OA 
HETATM    7  O   UNL     3      -8.471  15.069  66.341  1.00  0.00    -0.425 OA 
HETATM    8  C   UNL     3      -9.644  14.251  68.260  1.00  0.00    -0.221 C  
HETATM    9  C   UNL     2     -11.110  12.519  65.613  1.00  0.00    -0.303 C  
HETATM   10  O   UNL     2      -9.864   9.281  66.341  1.00  0.00    -0.233 OA 
HETATM   11  C   UNL     3     -10.648  16.019  67.186  1.00  0.00    -0.305 C  
HETATM   12  C   UNL     2     -10.085  11.486  65.429  1.00  0.00    -0.260 C  
HETATM   13  O   UNL     2      -9.164  11.537  64.410  1.00  0.00    -0.070 OA 
HETATM   14  O   UNL     2     -11.274  13.492  64.894  1.00  0.00    -0.318 OA 
HETATM   15  C   UNL     2     -10.317  10.452  66.264  1.00  0.00    -0.203 C  
HETATM   16  O   UNL     3      -8.928  13.309  68.702  1.00  0.00    -0.103 OA 
HETATM   17  H   UNL     3      -7.727  14.479  66.379  1.00  0.00     0.000 HD 
HETATM   18  C   UNL     3      -9.501  15.110  67.245  1.00  0.00    -0.210 C  
HETATM   19  O   UNL     3     -10.800  16.992  66.454  1.00  0.00    -0.132 OA 
ENDROOT
BRANCH   2  20
HETATM   20  C   UNL     2     -11.244  11.022  68.729  1.00  0.00    -0.266 C  
HETATM   21  O   UNL     2     -12.499  10.926  69.431  1.00  0.00    -0.540 OA 
HETATM   22  H   UNL     2     -12.363  11.030  70.366  1.00  0.00     0.000 HD 
BRANCH  20  23
HETATM   23  C   UNL     2     -10.274  10.151  69.536  1.00  0.00    -0.236 C  
HETATM   24  H   UNL     2     -10.122   8.240  70.209  1.00  0.00     0.000 HD 
HETATM   25  O   UNL     2     -10.723   8.780  69.709  1.00  0.00    -0.228 OA 
ENDBRANCH  20  23
ENDBRANCH   2  20
BRANCH   4  26
HETATM   26  C   UNL     3     -11.470  14.413  70.256  1.00  0.00    -0.196 C  
HETATM   27  H   UNL     3     -11.138  15.462  71.964  1.00  0.00     0.000 HD 
HETATM   28  O   UNL     3     -10.892  15.473  71.047  1.00  0.00    -0.321 OA 
BRANCH  26  29
HETATM   29  C   UNL     3     -12.979  14.330  70.472  1.00  0.00    -0.201 C  
HETATM   30  O   UNL     3     -13.548  15.644  70.514  1.00  0.00    -0.833 OA 
HETATM   31  H   UNL     3     -14.487  15.592  70.649  1.00  0.00     0.000 HD 
ENDBRANCH  26  29
ENDBRANCH   4  26
TORSDOF 4
ENDMDL
MODEL       15
REMARK 921   NORMALIZED FREE ENERGY PREDICTED BY IDOCK:   -5.62 KCAL/MOL
REMARK 922        TOTAL FREE ENERGY PREDICTED BY IDOCK:   -7.82 KCAL/MOL
REMARK 923 INTER-LIGAND FREE ENERGY PREDICTED BY IDOCK:   -6.70 KCAL/MOL
REMARK 924 INTRA-LIGAND FREE ENERGY PREDICTED BY IDOCK:   -1.12 KCAL/MOL
REMARK 927      BINDING AFFINITY PREDICTED BY RF-SCORE:    0.00 PKD
ROOT
HETATM    1 ZN   UNL     1      -6.908   7.735  66.358  1.00  0.00    -0.051 Zn 
HETATM    2  C   UNL     2      -7.705  11.009  66.331  1.00  0.00    -0.146 C  
HETATM    3  O   UNL     2      -8.075  12.341  66.777  1.00  0.00    -0.132 OA 
HETATM    4  C   UNL     3     -11.311  12.579  66.340  1.00  0.00    -0.329 C  
HETATM    5  H   UNL     2      -7.213   9.994  70.320  1.00  0.00     0.000 HD 
HETATM    6  O   UNL     3     -11.631  13.899  66.812  1.00  0.00    -0.341 OA 
HETATM    7  O   UNL     3     -11.383  12.068  69.913  1.00  0.00    -0.482 OA 
HETATM    8  C   UNL     3     -11.461  11.672  67.554  1.00  0.00    -0.289 C  
HETATM    9  C   UNL     2      -8.103  12.395  68.145  1.00  0.00    -0.163 C  
HETATM   10  O   UNL     2      -6.751   9.173  67.545  1.00  0.00    -0.067 OA 
HETATM   11  C   UNL     3     -11.673  13.875  68.179  1.00  0.00    -0.353 C  
HETATM   12  C   UNL     2      -7.679  11.086  68.652  1.00  0.00    -0.132 C  
HETATM   13  O   UNL     2      -7.487  10.842  69.991  1.00  0.00    -0.062 OA 
HETATM   14  O   UNL     2      -8.300  13.389  68.825  1.00  0.00    -0.058 OA 
HETATM   15  C   UNL     2      -7.348  10.278  67.623  1.00  0.00    -0.088 C  
HETATM   16  O   UNL     3     -11.345  10.421  67.430  1.00  0.00    -0.355 OA 
HETATM   17  H   UNL     3     -11.289  11.165  70.196  1.00  0.00     0.000 HD 
HETATM   18  C   UNL     3     -11.528  12.484  68.615  1.00  0.00    -0.306 C  
HETATM   19  O   UNL     3     -11.867  14.866  68.876  1.00  0.00    -0.311 OA 
ENDROOT
BRANCH   2  20
HETATM   20  C   UNL     2      -8.821  10.453  65.374  1.00  0.00    -0.179 C  
HETATM   21  O   UNL     2      -8.533  10.809  64.008  1.00  0.00    -0.330 OA 
HETATM   22  H   UNL     2      -9.208  10.474  63.430  1.00  0.00     0.000 HD 
BRANCH  20  23
HETATM   23  C   UNL     2      -9.218   8.973  65.320  1.00  0.00    -0.140 C  
HETATM   24  H   UNL     2      -8.594   7.247  64.451  1.00  0.00     0.000 HD 
HETATM   25  O   UNL     2      -8.349   8.164  64.485  1.00  0.00    -0.140 OA 
ENDBRANCH  20  23
ENDBRANCH   2  20
BRANCH   4  26
HETATM   26  C   UNL     3     -12.012  12.338  64.985  1.00  0.00    -0.354 C  
HETATM   27  H   UNL     3     -13.789  12.705  64.070  1.00  0.00     0.000 HD 
HETATM   28  O   UNL     3     -13.358  12.853  64.903  1.00  0.00    -0.716 OA 
BRANCH  26  29
HETATM   29  C   UNL     3     -11.180  12.790  63.788  1.00  0.00    -0.443 C  
HETATM   30  O   UNL     3     -10.016  13.499  64.231  1.00  0.00    -0.732 OA 
HETATM   31  H   UNL     3      -9.498  13.781  63.486  1.00  0.00     0.000 HD 
ENDBRANCH  26  29
ENDBRANCH   4  26
TORSDOF 4
ENDMDL
MODEL       16
REMARK 921   NORMALIZED FREE ENERGY PREDICTED BY IDOCK:   -5.62 KCAL/MOL
REMARK 922        TOTAL FREE ENERGY PREDICTED BY IDOCK:   -7.81 KCAL/MOL
REMARK 923 INTER-LIGAND FREE ENERGY PREDICTED BY IDOCK:   -6.88 KCAL/MOL
REMARK 924 INTRA-LIGAND FREE ENERGY PREDICTED BY IDOCK:   -0.93 KCAL/MOL
REMARK 927      BINDING AFFINITY PREDICTED BY RF-SCORE:    0.00 PKD
ROOT
HETATM    1 ZN   UNL     1      -9.150   8.879  70.148  1.00  0.00    -0.129 Zn 
HETATM    2  C   UNL     2      -8.437  10.851  67.511  1.00  0.00    -0.123 C  
HETATM    3  O   UNL     2      -7.988  11.983  66.718  1.00  0.00    -0.145 OA 
HETATM    4  C   UNL     3     -10.673  13.716  66.009  1.00  0.00    -0.280 C  
HETATM    5  H   UNL     2      -6.768  12.723  70.812  1.00  0.00     0.000 HD 
HETATM    6  O   UNL     3     -10.179  14.829  65.245  1.00  0.00    -0.358 OA 
HETATM    7  O   UNL     3      -9.424  15.880  68.615  1.00  0.00    -0.198 OA 
HETATM    8  C   UNL     3     -10.655  14.186  67.457  1.00  0.00    -0.257 C  
HETATM    9  C   UNL     2      -7.405  12.927  67.520  1.00  0.00    -0.154 C  
HETATM   10  O   UNL     2      -7.919  10.237  69.772  1.00  0.00    -0.166 OA 
HETATM   11  C   UNL     3      -9.641  15.745  66.107  1.00  0.00    -0.332 C  
HETATM   12  C   UNL     2      -7.396  12.404  68.890  1.00  0.00    -0.031 C  
HETATM   13  O   UNL     2      -6.774  13.061  69.925  1.00  0.00     0.049 OA 
HETATM   14  O   UNL     2      -6.859  13.954  67.149  1.00  0.00    -0.146 OA 
HETATM   15  C   UNL     2      -7.905  11.154  68.910  1.00  0.00    -0.131 C  
HETATM   16  O   UNL     3     -11.137  13.455  68.368  1.00  0.00    -0.249 OA 
HETATM   17  H   UNL     3      -9.605  15.592  69.502  1.00  0.00     0.000 HD 
HETATM   18  C   UNL     3      -9.920  15.302  67.475  1.00  0.00    -0.226 C  
HETATM   19  O   UNL     3      -9.087  16.780  65.749  1.00  0.00    -0.515 OA 
ENDROOT
BRANCH   2  20
HETATM   20  C   UNL     2      -9.971  10.622  67.266  1.00  0.00    -0.188 C  
HETATM   21  O   UNL     2     -10.207  10.222  65.901  1.00  0.00    -0.254 OA 
HETATM   22  H   UNL     2     -11.135  10.083  65.753  1.00  0.00     0.000 HD 
BRANCH  20  23
HETATM   23  C   UNL     2     -10.820   9.662  68.109  1.00  0.00    -0.190 C  
HETATM   24  H   UNL     2     -11.672   9.579  69.950  1.00  0.00     0.000 HD 
HETATM   25  O   UNL     2     -11.146  10.173  69.428  1.00  0.00    -0.232 OA 
ENDBRANCH  20  23
ENDBRANCH   2  20
BRANCH   4  26
HETATM   26  C   UNL     3     -11.913  13.124  65.304  1.00  0.00    -0.398 C  
HETATM   27  H   UNL     3     -13.898  13.497  65.083  1.00  0.00     0.000 HD 
HETATM   28  O   UNL     3     -13.136  13.861  65.516  1.00  0.00    -0.699 OA 
BRANCH  26  29
HETATM   29  C   UNL     3     -11.689  12.853  63.819  1.00  0.00    -0.492 C  
HETATM   30  O   UNL     3     -12.166  13.953  63.035  1.00  0.00    -1.039 OA 
HETATM   31  H   UNL     3     -12.027  13.784  62.110  1.00  0.00     0.000 HD 
ENDBRANCH  26  29
ENDBRANCH   4  26
TORSDOF 4
ENDMDL
MODEL       17
REMARK 921   NORMALIZED FREE ENERGY PREDICTED BY IDOCK:   -5.60 KCAL/MOL
REMARK 922        TOTAL FREE ENERGY PREDICTED BY IDOCK:   -7.79 KCAL/MOL
REMARK 923 INTER-LIGAND FREE ENERGY PREDICTED BY IDOCK:   -6.88 KCAL/MOL
REMARK 924 INTRA-LIGAND FREE ENERGY PREDICTED BY IDOCK:   -0.91 KCAL/MOL
REMARK 927      BINDING AFFINITY PREDICTED BY RF-SCORE:    0.00 PKD
ROOT
HETATM    1 ZN   UNL     1      -5.611   9.227  67.692  1.00  0.00    -0.035 Zn 
HETATM    2  C   UNL     2      -8.882   9.482  66.926  1.00  0.00    -0.127 C  
HETATM    3  O   UNL     2     -10.111   9.773  66.208  1.00  0.00    -0.244 OA 
HETATM    4  C   UNL     3     -11.194  12.631  67.380  1.00  0.00    -0.290 C  
HETATM    5  H   UNL     2      -6.827  10.433  63.454  1.00  0.00     0.000 HD 
HETATM    6  O   UNL     3     -12.393  12.885  66.629  1.00  0.00    -0.422 OA 
HETATM    7  O   UNL     3      -9.846  13.904  64.282  1.00  0.00    -0.651 OA 
HETATM    8  C   UNL     3     -10.075  13.290  66.584  1.00  0.00    -0.266 C  
HETATM    9  C   UNL     2      -9.830  10.223  64.945  1.00  0.00    -0.336 C  
HETATM   10  O   UNL     2      -6.634   9.243  66.125  1.00  0.00    -0.068 OA 
HETATM   11  C   UNL     3     -12.042  13.361  65.395  1.00  0.00    -0.421 C  
HETATM   12  C   UNL     2      -8.375  10.180  64.770  1.00  0.00    -0.165 C  
HETATM   13  O   UNL     2      -7.769  10.460  63.568  1.00  0.00    -0.138 OA 
HETATM   14  O   UNL     2     -10.642  10.476  64.070  1.00  0.00    -0.137 OA 
HETATM   15  C   UNL     2      -7.792   9.664  65.873  1.00  0.00    -0.102 C  
HETATM   16  O   UNL     3      -8.902  13.327  67.049  1.00  0.00    -0.218 OA 
HETATM   17  H   UNL     3      -8.905  14.039  64.274  1.00  0.00     0.000 HD 
HETATM   18  C   UNL     3     -10.592  13.568  65.382  1.00  0.00    -0.308 C  
HETATM   19  O   UNL     3     -12.846  13.617  64.505  1.00  0.00    -0.645 OA 
ENDROOT
BRANCH   2  20
HETATM   20  C   UNL     2      -8.855  10.307  68.263  1.00  0.00    -0.126 C  
HETATM   21  O   UNL     2      -9.653   9.655  69.271  1.00  0.00    -0.167 OA 
HETATM   22  H   UNL     2      -9.637  10.154  70.079  1.00  0.00     0.000 HD 
BRANCH  20  23
HETATM   23  C   UNL     2      -7.558  10.698  68.980  1.00  0.00    -0.122 C  
HETATM   24  H   UNL     2      -6.624  10.370  70.754  1.00  0.00     0.000 HD 
HETATM   25  O   UNL     2      -7.428  10.127  70.309  1.00  0.00    -0.178 OA 
ENDBRANCH  20  23
ENDBRANCH   2  20
BRANCH   4  26
HETATM   26  C   UNL     3     -11.464  12.895  68.878  1.00  0.00    -0.304 C  
HETATM   27  H   UNL     3     -12.331  14.289  70.075  1.00  0.00     0.000 HD 
HETATM   28  O   UNL     3     -12.164  14.127  69.155  1.00  0.00    -0.335 OA 
BRANCH  26  29
HETATM   29  C   UNL     3     -12.129  11.717  69.585  1.00  0.00    -0.258 C  
HETATM   30  O   UNL     3     -12.366  10.650  68.659  1.00  0.00    -0.820 OA 
HETATM   31  H   UNL     3     -12.780   9.917  69.100  1.00  0.00     0.000 HD 
ENDBRANCH  26  29
ENDBRANCH   4  26
TORSDOF 4
ENDMDL
MODEL       18
REMARK 921   NORMALIZED FREE ENERGY PREDICTED BY IDOCK:   -5.59 KCAL/MOL
REMARK 922        TOTAL FREE ENERGY PREDICTED BY IDOCK:   -7.78 KCAL/MOL
REMARK 923 INTER-LIGAND FREE ENERGY PREDICTED BY IDOCK:   -6.76 KCAL/MOL
REMARK 924 INTRA-LIGAND FREE ENERGY PREDICTED BY IDOCK:   -1.02 KCAL/MOL
REMARK 927      BINDING AFFINITY PREDICTED BY RF-SCORE:    0.00 PKD
ROOT
HETATM    1 ZN   UNL     1      -8.753   7.230  68.795  1.00  0.00    -0.118 Zn 
HETATM    2  C   UNL     2      -8.098   9.823  66.746  1.00  0.00    -0.120 C  
HETATM    3  O   UNL     2      -7.710  11.139  66.271  1.00  0.00    -0.154 OA 
HETATM    4  C   UNL     3     -10.494  12.810  65.849  1.00  0.00    -0.277 C  
HETATM    5  H   UNL     2      -6.705  10.950  70.484  1.00  0.00     0.000 HD 
HETATM    6  O   UNL     3     -10.061  14.104  65.399  1.00  0.00    -0.338 OA 
HETATM    7  O   UNL     3      -9.515  14.359  68.959  1.00  0.00    -0.353 OA 
HETATM    8  C   UNL     3     -10.567  12.916  67.366  1.00  0.00    -0.233 C  
HETATM    9  C   UNL     2      -7.233  11.899  67.305  1.00  0.00    -0.147 C  
HETATM   10  O   UNL     2      -7.619   8.717  68.821  1.00  0.00    -0.092 OA 
HETATM   11  C   UNL     3      -9.628  14.820  66.483  1.00  0.00    -0.284 C  
HETATM   12  C   UNL     2      -7.234  11.063  68.510  1.00  0.00    -0.085 C  
HETATM   13  O   UNL     2      -6.704  11.491  69.704  1.00  0.00    -0.125 OA 
HETATM   14  O   UNL     2      -6.756  13.019  67.220  1.00  0.00    -0.148 OA 
HETATM   15  C   UNL     2      -7.644   9.814  68.204  1.00  0.00    -0.082 C  
HETATM   16  O   UNL     3     -11.024  11.956  68.048  1.00  0.00    -0.201 OA 
HETATM   17  H   UNL     3      -9.706  13.854  69.741  1.00  0.00     0.000 HD 
HETATM   18  C   UNL     3      -9.922  14.041  67.689  1.00  0.00    -0.237 C  
HETATM   19  O   UNL     3      -9.144  15.944  66.413  1.00  0.00    -0.260 OA 
ENDROOT
BRANCH   2  20
HETATM   20  C   UNL     2      -9.600   9.557  66.369  1.00  0.00    -0.213 C  
HETATM   21  O   UNL     2      -9.732   9.347  64.950  1.00  0.00    -0.443 OA 
HETATM   22  H   UNL     2     -10.640   9.187  64.722  1.00  0.00     0.000 HD 
BRANCH  20  23
HETATM   23  C   UNL     2     -10.441   8.447  67.011  1.00  0.00    -0.305 C  
HETATM   24  H   UNL     2     -10.467   6.420  67.141  1.00  0.00     0.000 HD 
HETATM   25  O   UNL     2      -9.946   7.108  66.743  1.00  0.00    -0.204 OA 
ENDBRANCH  20  23
ENDBRANCH   2  20
BRANCH   4  26
HETATM   26  C   UNL     3     -11.657  12.323  64.956  1.00  0.00    -0.343 C  
HETATM   27  H   UNL     3     -13.646  12.643  64.689  1.00  0.00     0.000 HD 
HETATM   28  O   UNL     3     -12.931  12.942  65.238  1.00  0.00    -0.703 OA 
BRANCH  26  29
HETATM   29  C   UNL     3     -11.338  12.384  63.465  1.00  0.00    -0.476 C  
HETATM   30  O   UNL     3     -10.931  11.095  62.991  1.00  0.00    -0.820 OA 
HETATM   31  H   UNL     3     -10.731  11.133  62.062  1.00  0.00     0.000 HD 
ENDBRANCH  26  29
ENDBRANCH   4  26
TORSDOF 4
ENDMDL
MODEL       19
REMARK 921   NORMALIZED FREE ENERGY PREDICTED BY IDOCK:   -5.56 KCAL/MOL
REMARK 922        TOTAL FREE ENERGY PREDICTED BY IDOCK:   -7.74 KCAL/MOL
REMARK 923 INTER-LIGAND FREE ENERGY PREDICTED BY IDOCK:   -6.94 KCAL/MOL
REMARK 924 INTRA-LIGAND FREE ENERGY PREDICTED BY IDOCK:   -0.80 KCAL/MOL
REMARK 927      BINDING AFFINITY PREDICTED BY RF-SCORE:    0.00 PKD
ROOT
HETATM    1 ZN   UNL     1      -8.368  17.953  66.492  1.00  0.00    -0.203 Zn 
HETATM    2  C   UNL     2      -9.683  15.089  67.684  1.00  0.00    -0.215 C  
HETATM    3  O   UNL     2      -9.823  13.702  68.094  1.00  0.00    -0.223 OA 
HETATM    4  C   UNL     3     -11.288  12.162  65.604  1.00  0.00    -0.347 C  
HETATM    5  H   UNL     2      -5.633  14.358  67.188  1.00  0.00     0.000 HD 
HETATM    6  O   UNL     3     -11.386  10.798  66.046  1.00  0.00     0.101 OA 
HETATM    7  O   UNL     3      -7.946  10.959  64.963  1.00  0.00    -0.355 OA 
HETATM    8  C   UNL     3      -9.957  12.252  64.870  1.00  0.00    -0.195 C  
HETATM    9  C   UNL     2      -8.623  13.051  67.989  1.00  0.00    -0.186 C  
HETATM   10  O   UNL     2      -7.714  16.415  67.334  1.00  0.00    -0.137 OA 
HETATM   11  C   UNL     3     -10.166  10.199  65.885  1.00  0.00    -0.211 C  
HETATM   12  C   UNL     2      -7.620  14.030  67.558  1.00  0.00    -0.180 C  
HETATM   13  O   UNL     2      -6.283  13.724  67.468  1.00  0.00    -0.286 OA 
HETATM   14  O   UNL     2      -8.391  11.902  68.332  1.00  0.00    -0.159 OA 
HETATM   15  C   UNL     2      -8.182  15.253  67.459  1.00  0.00    -0.173 C  
HETATM   16  O   UNL     3      -9.633  13.315  64.270  1.00  0.00     0.078 OA 
HETATM   17  H   UNL     3      -7.375  11.568  64.509  1.00  0.00     0.000 HD 
HETATM   18  C   UNL     3      -9.287  11.138  65.185  1.00  0.00    -0.213 C  
HETATM   19  O   UNL     3      -9.917   9.047  66.227  1.00  0.00    -0.280 OA 
ENDROOT
BRANCH   2  20
HETATM   20  C   UNL     2     -10.707  15.395  66.532  1.00  0.00    -0.308 C  
HETATM   21  O   UNL     2     -12.010  15.675  67.081  1.00  0.00     0.144 OA 
HETATM   22  H   UNL     2     -12.629  15.860  66.385  1.00  0.00     0.000 HD 
BRANCH  20  23
HETATM   23  C   UNL     2     -10.482  16.486  65.478  1.00  0.00    -0.301 C  
HETATM   24  H   UNL     2     -11.243  17.073  63.689  1.00  0.00     0.000 HD 
HETATM   25  O   UNL     2     -11.382  16.398  64.342  1.00  0.00    -0.784 OA 
ENDBRANCH  20  23
ENDBRANCH   2  20
BRANCH   4  26
HETATM   26  C   UNL     3     -12.642  12.602  65.004  1.00  0.00    -0.430 C  
HETATM   27  H   UNL     3     -14.011  14.092  65.190  1.00  0.00     0.000 HD 
HETATM   28  O   UNL     3     -13.179  13.821  65.559  1.00  0.00    -0.662 OA 
BRANCH  26  29
HETATM   29  C   UNL     3     -12.635  12.653  63.479  1.00  0.00    -0.311 C  
HETATM   30  O   UNL     3     -12.489  14.004  63.026  1.00  0.00    -1.101 OA 
HETATM   31  H   UNL     3     -12.485  14.035  62.077  1.00  0.00     0.000 HD 
ENDBRANCH  26  29
ENDBRANCH   4  26
TORSDOF 4
ENDMDL
MODEL       20
REMARK 921   NORMALIZED FREE ENERGY PREDICTED BY IDOCK:   -5.48 KCAL/MOL
REMARK 922        TOTAL FREE ENERGY PREDICTED BY IDOCK:   -7.64 KCAL/MOL
REMARK 923 INTER-LIGAND FREE ENERGY PREDICTED BY IDOCK:   -6.93 KCAL/MOL
REMARK 924 INTRA-LIGAND FREE ENERGY PREDICTED BY IDOCK:   -0.71 KCAL/MOL
REMARK 927      BINDING AFFINITY PREDICTED BY RF-SCORE:    0.00 PKD
ROOT
HETATM    1 ZN   UNL     1      -9.043  20.947  64.597  1.00  0.00    -0.381 Zn 
HETATM    2  C   UNL     2      -8.345  19.596  67.604  1.00  0.00    -0.308 C  
HETATM    3  O   UNL     2      -7.696  18.827  68.652  1.00  0.00    -0.311 OA 
HETATM    4  C   UNL     3      -9.387  16.037  68.912  1.00  0.00    -0.231 C  
HETATM    5  H   UNL     2      -5.111  18.690  65.174  1.00  0.00     0.000 HD 
HETATM    6  O   UNL     3      -8.700  15.306  69.941  1.00  0.00    -0.118 OA 
HETATM    7  O   UNL     3      -6.583  14.686  67.084  1.00  0.00    -0.344 OA 
HETATM    8  C   UNL     3      -8.728  15.609  67.608  1.00  0.00    -0.175 C  
HETATM    9  C   UNL     2      -6.540  18.261  68.183  1.00  0.00    -0.205 C  
HETATM   10  O   UNL     2      -7.509  20.345  65.484  1.00  0.00    -0.212 OA 
HETATM   11  C   UNL     3      -7.577  14.742  69.400  1.00  0.00    -0.127 C  
HETATM   12  C   UNL     2      -6.358  18.703  66.797  1.00  0.00    -0.182 C  
HETATM   13  O   UNL     2      -5.229  18.404  66.072  1.00  0.00    -0.137 OA 
HETATM   14  O   UNL     2      -5.730  17.624  68.837  1.00  0.00    -0.169 OA 
HETATM   15  C   UNL     2      -7.342  19.560  66.452  1.00  0.00    -0.253 C  
HETATM   16  O   UNL     3      -9.189  16.007  66.502  1.00  0.00    -0.229 OA 
HETATM   17  H   UNL     3      -6.599  14.839  66.145  1.00  0.00     0.000 HD 
HETATM   18  C   UNL     3      -7.601  14.977  67.954  1.00  0.00    -0.139 C  
HETATM   19  O   UNL     3      -6.752  14.101  70.044  1.00  0.00    -0.100 OA 
ENDROOT
BRANCH   2  20
HETATM   20  C   UNL     2      -9.813  19.071  67.409  1.00  0.00    -0.324 C  
HETATM   21  O   UNL     2     -10.607  19.359  68.577  1.00  0.00    -0.451 OA 
HETATM   22  H   UNL     2     -11.494  19.042  68.459  1.00  0.00     0.000 HD 
BRANCH  20  23
HETATM   23  C   UNL     2     -10.697  19.475  66.223  1.00  0.00    -0.429 C  
HETATM   24  H   UNL     2     -11.396  18.683  64.488  1.00  0.00     0.000 HD 
HETATM   25  O   UNL     2     -10.848  18.433  65.223  1.00  0.00    -0.624 OA 
ENDBRANCH  20  23
ENDBRANCH   2  20
BRANCH   4  26
HETATM   26  C   UNL     3     -10.909  15.979  69.175  1.00  0.00    -0.281 C  
HETATM   27  H   UNL     3     -12.556  14.977  68.535  1.00  0.00     0.000 HD 
HETATM   28  O   UNL     3     -11.622  15.013  68.373  1.00  0.00    -0.309 OA 
BRANCH  26  29
HETATM   29  C   UNL     3     -11.258  15.828  70.653  1.00  0.00    -0.372 C  
HETATM   30  O   UNL     3     -11.311  14.442  71.012  1.00  0.00    -0.520 OA 
HETATM   31  H   UNL     3     -11.529  14.348  71.932  1.00  0.00     0.000 HD 
ENDBRANCH  26  29
ENDBRANCH   4  26
TORSDOF 4
ENDMDL
MODEL       21
REMARK 921   NORMALIZED FREE ENERGY PREDICTED BY IDOCK:   -5.37 KCAL/MOL
REMARK 922        TOTAL FREE ENERGY PREDICTED BY IDOCK:   -7.50 KCAL/MOL
REMARK 923 INTER-LIGAND FREE ENERGY PREDICTED BY IDOCK:   -6.70 KCAL/MOL
REMARK 924 INTRA-LIGAND FREE ENERGY PREDICTED BY IDOCK:   -0.80 KCAL/MOL
REMARK 927      BINDING AFFINITY PREDICTED BY RF-SCORE:    0.00 PKD
ROOT
HETATM    1 ZN   UNL     1      -8.733  10.982  66.473  1.00  0.00    -0.136 Zn 
HETATM    2  C   UNL     2      -9.453  13.589  68.483  1.00  0.00    -0.131 C  
HETATM    3  O   UNL     2     -10.075  14.790  69.012  1.00  0.00    -0.233 OA 
HETATM    4  C   UNL     3      -8.117  17.275  68.169  1.00  0.00    -0.229 C  
HETATM    5  H   UNL     2     -12.432  13.521  65.601  1.00  0.00     0.000 HD 
HETATM    6  O   UNL     3      -8.780  18.437  68.694  1.00  0.00    -0.318 OA 
HETATM    7  O   UNL     3     -10.656  17.844  65.667  1.00  0.00    -0.587 OA 
HETATM    8  C   UNL     3      -8.653  17.113  66.753  1.00  0.00    -0.243 C  
HETATM    9  C   UNL     2     -11.136  15.162  68.230  1.00  0.00    -0.291 C  
HETATM   10  O   UNL     2     -10.243  12.023  66.845  1.00  0.00    -0.206 OA 
HETATM   11  C   UNL     3      -9.805  18.771  67.852  1.00  0.00    -0.341 C  
HETATM   12  C   UNL     2     -11.286  14.156  67.174  1.00  0.00    -0.317 C  
HETATM   13  O   UNL     2     -12.334  14.172  66.285  1.00  0.00    -0.456 OA 
HETATM   14  O   UNL     2     -11.911  16.080  68.450  1.00  0.00    -0.304 OA 
HETATM   15  C   UNL     2     -10.380  13.170  67.343  1.00  0.00    -0.239 C  
HETATM   16  O   UNL     3      -8.174  16.227  65.991  1.00  0.00    -0.263 OA 
HETATM   17  H   UNL     3     -10.603  17.284  64.901  1.00  0.00     0.000 HD 
HETATM   18  C   UNL     3      -9.724  17.908  66.671  1.00  0.00    -0.319 C  
HETATM   19  O   UNL     3     -10.593  19.688  68.061  1.00  0.00    -0.425 OA 
ENDROOT
BRANCH   2  20
HETATM   20  C   UNL     2      -7.929  13.867  68.220  1.00  0.00    -0.148 C  
HETATM   21  O   UNL     2      -7.200  13.880  69.463  1.00  0.00    -0.312 OA 
HETATM   22  H   UNL     2      -6.279  14.048  69.304  1.00  0.00     0.000 HD 
BRANCH  20  23
HETATM   23  C   UNL     2      -7.074  13.018  67.271  1.00  0.00    -0.044 C  
HETATM   24  H   UNL     2      -5.115  12.694  66.844  1.00  0.00     0.000 HD 
HETATM   25  O   UNL     2      -5.645  13.220  67.432  1.00  0.00    -0.334 OA 
ENDBRANCH  20  23
ENDBRANCH   2  20
BRANCH   4  26
HETATM   26  C   UNL     3      -6.615  17.340  68.526  1.00  0.00    -0.174 C  
HETATM   27  H   UNL     3      -5.271  16.432  69.750  1.00  0.00     0.000 HD 
HETATM   28  O   UNL     3      -6.194  16.392  69.531  1.00  0.00    -0.176 OA 
BRANCH  26  29
HETATM   29  C   UNL     3      -5.703  17.283  67.304  1.00  0.00    -0.142 C  
HETATM   30  O   UNL     3      -5.337  15.927  67.020  1.00  0.00    -0.333 OA 
HETATM   31  H   UNL     3      -4.770  15.892  66.258  1.00  0.00     0.000 HD 
ENDBRANCH  26  29
ENDBRANCH   4  26
TORSDOF 4
ENDMDL
MODEL       22
REMARK 921   NORMALIZED FREE ENERGY PREDICTED BY IDOCK:   -5.26 KCAL/MOL
REMARK 922        TOTAL FREE ENERGY PREDICTED BY IDOCK:   -7.37 KCAL/MOL
REMARK 923 INTER-LIGAND FREE ENERGY PREDICTED BY IDOCK:   -6.15 KCAL/MOL
REMARK 924 INTRA-LIGAND FREE ENERGY PREDICTED BY IDOCK:   -1.21 KCAL/MOL
REMARK 927      BINDING AFFINITY PREDICTED BY RF-SCORE:    0.00 PKD
ROOT
HETATM    1 ZN   UNL     1      -8.249  19.390  66.727  1.00  0.00    -0.243 Zn 
HETATM    2  C   UNL     2      -8.421  16.769  68.837  1.00  0.00    -0.217 C  
HETATM    3  O   UNL     2      -8.118  15.514  69.504  1.00  0.00    -0.240 OA 
HETATM    4  C   UNL     3     -10.080  13.269  68.153  1.00  0.00    -0.241 C  
HETATM    5  H   UNL     2      -4.801  16.392  66.853  1.00  0.00     0.000 HD 
HETATM    6  O   UNL     3      -9.731  12.048  68.828  1.00  0.00    -0.141 OA 
HETATM    7  O   UNL     3      -7.061  12.324  66.414  1.00  0.00    -0.231 OA 
HETATM    8  C   UNL     3      -9.172  13.326  66.933  1.00  0.00    -0.241 C  
HETATM    9  C   UNL     2      -6.943  14.994  69.031  1.00  0.00    -0.127 C  
HETATM   10  O   UNL     2      -7.035  18.181  67.481  1.00  0.00    -0.194 OA 
HETATM   11  C   UNL     3      -8.570  11.568  68.287  1.00  0.00    -0.161 C  
HETATM   12  C   UNL     2      -6.394  15.945  68.060  1.00  0.00    -0.131 C  
HETATM   13  O   UNL     2      -5.158  15.776  67.482  1.00  0.00    -0.238 OA 
HETATM   14  O   UNL     2      -6.377  13.994  69.443  1.00  0.00    -0.103 OA 
HETATM   15  C   UNL     2      -7.181  17.039  67.989  1.00  0.00    -0.167 C  
HETATM   16  O   UNL     3      -9.316  14.243  66.076  1.00  0.00    -0.228 OA 
HETATM   17  H   UNL     3      -6.838  12.865  65.665  1.00  0.00     0.000 HD 
HETATM   18  C   UNL     3      -8.226  12.402  67.133  1.00  0.00    -0.176 C  
HETATM   19  O   UNL     3      -7.988  10.566  68.692  1.00  0.00    -0.109 OA 
ENDROOT
BRANCH   2  20
HETATM   20  C   UNL     2      -9.844  16.674  68.176  1.00  0.00    -0.250 C  
HETATM   21  O   UNL     2     -10.867  16.647  69.190  1.00  0.00    -0.320 OA 
HETATM   22  H   UNL     2     -11.727  16.590  68.791  1.00  0.00     0.000 HD 
BRANCH  20  23
HETATM   23  C   UNL     2     -10.351  17.675  67.131  1.00  0.00    -0.343 C  
HETATM   24  H   UNL     2     -10.127  18.077  65.153  1.00  0.00     0.000 HD 
HETATM   25  O   UNL     2      -9.812  17.457  65.800  1.00  0.00    -0.536 OA 
ENDBRANCH  20  23
ENDBRANCH   2  20
BRANCH   4  26
HETATM   26  C   UNL     3     -11.618  13.399  68.097  1.00  0.00    -0.341 C  
HETATM   27  H   UNL     3     -13.220  12.504  67.223  1.00  0.00     0.000 HD 
HETATM   28  O   UNL     3     -12.274  12.424  67.258  1.00  0.00    -0.478 OA 
BRANCH  26  29
HETATM   29  C   UNL     3     -12.268  13.458  69.477  1.00  0.00    -0.205 C  
HETATM   30  O   UNL     3     -11.355  14.012  70.432  1.00  0.00    -0.492 OA 
HETATM   31  H   UNL     3     -11.760  14.049  71.291  1.00  0.00     0.000 HD 
ENDBRANCH  26  29
ENDBRANCH   4  26
TORSDOF 4
ENDMDL
MODEL       23
REMARK 921   NORMALIZED FREE ENERGY PREDICTED BY IDOCK:   -5.26 KCAL/MOL
REMARK 922        TOTAL FREE ENERGY PREDICTED BY IDOCK:   -7.36 KCAL/MOL
REMARK 923 INTER-LIGAND FREE ENERGY PREDICTED BY IDOCK:   -6.41 KCAL/MOL
REMARK 924 INTRA-LIGAND FREE ENERGY PREDICTED BY IDOCK:   -0.95 KCAL/MOL
REMARK 927      BINDING AFFINITY PREDICTED BY RF-SCORE:    0.00 PKD
ROOT
HETATM    1 ZN   UNL     1      -8.384   9.551  66.345  1.00  0.00    -0.108 Zn 
HETATM    2  C   UNL     2      -8.940   9.462  69.667  1.00  0.00    -0.173 C  
HETATM    3  O   UNL     2      -8.939   9.028  71.053  1.00  0.00    -0.211 OA 
HETATM    4  C   UNL     3     -11.822   7.556  71.546  1.00  0.00    -0.295 C  
HETATM    5  H   UNL     2      -6.268   6.392  68.881  1.00  0.00     0.000 HD 
HETATM    6  O   UNL     3     -11.766   7.129  72.917  1.00  0.00    -0.142 OA 
HETATM    7  O   UNL     3      -9.832   4.556  71.283  1.00  0.00    -0.171 OA 
HETATM    8  C   UNL     3     -11.273   6.387  70.739  1.00  0.00    -0.327 C  
HETATM    9  C   UNL     2      -8.169   7.905  71.201  1.00  0.00    -0.107 C  
HETATM   10  O   UNL     2      -7.521   8.827  67.840  1.00  0.00    -0.091 OA 
HETATM   11  C   UNL     3     -11.011   5.990  72.989  1.00  0.00    -0.257 C  
HETATM   12  C   UNL     2      -7.575   7.597  69.896  1.00  0.00    -0.092 C  
HETATM   13  O   UNL     2      -6.653   6.592  69.726  1.00  0.00    -0.045 OA 
HETATM   14  O   UNL     2      -7.903   7.344  72.252  1.00  0.00    -0.092 OA 
HETATM   15  C   UNL     2      -7.926   8.539  68.995  1.00  0.00    -0.113 C  
HETATM   16  O   UNL     3     -11.292   6.423  69.477  1.00  0.00    -0.390 OA 
HETATM   17  H   UNL     3      -9.623   4.284  70.396  1.00  0.00     0.000 HD 
HETATM   18  C   UNL     3     -10.688   5.572  71.622  1.00  0.00    -0.231 C  
HETATM   19  O   UNL     3     -10.733   5.416  74.037  1.00  0.00    -0.281 OA 
ENDROOT
BRANCH   2  20
HETATM   20  C   UNL     2     -10.422   9.543  69.150  1.00  0.00    -0.210 C  
HETATM   21  O   UNL     2     -11.135  10.592  69.834  1.00  0.00    -0.267 OA 
HETATM   22  H   UNL     2     -12.031  10.640  69.521  1.00  0.00     0.000 HD 
BRANCH  20  23
HETATM   23  C   UNL     2     -10.784   9.721  67.670  1.00  0.00    -0.274 C  
HETATM   24  H   UNL     2     -10.844   8.625  65.961  1.00  0.00     0.000 HD 
HETATM   25  O   UNL     2     -10.619   8.515  66.878  1.00  0.00    -0.298 OA 
ENDBRANCH  20  23
ENDBRANCH   2  20
BRANCH   4  26
HETATM   26  C   UNL     3     -13.185   8.232  71.278  1.00  0.00    -0.129 C  
HETATM   27  H   UNL     3     -15.143   7.739  71.053  1.00  0.00     0.000 HD 
HETATM   28  O   UNL     3     -14.306   7.324  71.217  1.00  0.00    -0.402 OA 
BRANCH  26  29
HETATM   29  C   UNL     3     -13.475   9.397  72.220  1.00  0.00    -0.465 C  
HETATM   30  O   UNL     3     -14.162   8.932  73.388  1.00  0.00    -1.241 OA 
HETATM   31  H   UNL     3     -14.342   9.657  73.975  1.00  0.00     0.000 HD 
ENDBRANCH  26  29
ENDBRANCH   4  26
TORSDOF 4
ENDMDL
MODEL       24
REMARK 921   NORMALIZED FREE ENERGY PREDICTED BY IDOCK:   -5.25 KCAL/MOL
REMARK 922        TOTAL FREE ENERGY PREDICTED BY IDOCK:   -7.35 KCAL/MOL
REMARK 923 INTER-LIGAND FREE ENERGY PREDICTED BY IDOCK:   -6.41 KCAL/MOL
REMARK 924 INTRA-LIGAND FREE ENERGY PREDICTED BY IDOCK:   -0.94 KCAL/MOL
REMARK 927      BINDING AFFINITY PREDICTED BY RF-SCORE:    0.00 PKD
ROOT
HETATM    1 ZN   UNL     1     -10.089  17.041  67.820  1.00  0.00    -0.245 Zn 
HETATM    2  C   UNL     2     -11.288  14.039  66.871  1.00  0.00    -0.329 C  
HETATM    3  O   UNL     2     -11.808  12.683  66.924  1.00  0.00    -0.381 OA 
HETATM    4  C   UNL     3      -9.252  10.709  66.386  1.00  0.00    -0.168 C  
HETATM    5  H   UNL     2     -11.712  14.179  70.992  1.00  0.00     0.000 HD 
HETATM    6  O   UNL     3      -9.809   9.386  66.467  1.00  0.00    -0.217 OA 
HETATM    7  O   UNL     3      -9.441  10.226  69.958  1.00  0.00    -0.397 OA 
HETATM    8  C   UNL     3      -8.800  11.041  67.802  1.00  0.00    -0.133 C  
HETATM    9  C   UNL     2     -12.022  12.304  68.222  1.00  0.00    -0.200 C  
HETATM   10  O   UNL     2     -11.207  15.737  68.563  1.00  0.00    -0.314 OA 
HETATM   11  C   UNL     3      -9.966   9.059  67.786  1.00  0.00    -0.187 C  
HETATM   12  C   UNL     2     -11.701  13.449  69.079  1.00  0.00    -0.323 C  
HETATM   13  O   UNL     2     -11.919  13.437  70.437  1.00  0.00    -0.331 OA 
HETATM   14  O   UNL     2     -12.526  11.257  68.596  1.00  0.00    -0.442 OA 
HETATM   15  C   UNL     2     -11.359  14.512  68.321  1.00  0.00    -0.297 C  
HETATM   16  O   UNL     3      -8.168  12.110  68.032  1.00  0.00    -0.140 OA 
HETATM   17  H   UNL     3      -9.049  10.916  70.482  1.00  0.00     0.000 HD 
HETATM   18  C   UNL     3      -9.363  10.122  68.594  1.00  0.00    -0.161 C  
HETATM   19  O   UNL     3     -10.473   8.013  68.177  1.00  0.00    -0.205 OA 
ENDROOT
BRANCH   2  20
HETATM   20  C   UNL     2      -9.926  14.042  66.089  1.00  0.00    -0.312 C  
HETATM   21  O   UNL     2     -10.141  13.703  64.705  1.00  0.00    -0.603 OA 
HETATM   22  H   UNL     2      -9.317  13.705  64.232  1.00  0.00     0.000 HD 
BRANCH  20  23
HETATM   23  C   UNL     2      -8.981  15.250  66.056  1.00  0.00    -0.116 C  
HETATM   24  H   UNL     2      -7.551  16.113  67.210  1.00  0.00     0.000 HD 
HETATM   25  O   UNL     2      -8.136  15.365  67.231  1.00  0.00    -0.166 OA 
ENDBRANCH  20  23
ENDBRANCH   2  20
BRANCH   4  26
HETATM   26  C   UNL     3      -8.344  10.805  65.140  1.00  0.00    -0.064 C  
HETATM   27  H   UNL     3      -6.432  10.404  64.580  1.00  0.00     0.000 HD 
HETATM   28  O   UNL     3      -6.990  10.346  65.345  1.00  0.00    -0.138 OA 
BRANCH  26  29
HETATM   29  C   UNL     3      -8.956  10.163  63.898  1.00  0.00    -0.244 C  
HETATM   30  O   UNL     3      -9.402  11.173  62.985  1.00  0.00    -0.297 OA 
HETATM   31  H   UNL     3      -9.783  10.773  62.212  1.00  0.00     0.000 HD 
ENDBRANCH  26  29
ENDBRANCH   4  26
TORSDOF 4
ENDMDL
MODEL       25
REMARK 921   NORMALIZED FREE ENERGY PREDICTED BY IDOCK:   -5.20 KCAL/MOL
REMARK 922        TOTAL FREE ENERGY PREDICTED BY IDOCK:   -7.30 KCAL/MOL
REMARK 923 INTER-LIGAND FREE ENERGY PREDICTED BY IDOCK:   -6.06 KCAL/MOL
REMARK 924 INTRA-LIGAND FREE ENERGY PREDICTED BY IDOCK:   -1.23 KCAL/MOL
REMARK 927      BINDING AFFINITY PREDICTED BY RF-SCORE:    0.00 PKD
ROOT
HETATM    1 ZN   UNL     1     -10.775  10.035  69.739  1.00  0.00    -0.180 Zn 
HETATM    2  C   UNL     2      -9.072  11.752  67.394  1.00  0.00    -0.175 C  
HETATM    3  O   UNL     2      -8.044  12.544  66.740  1.00  0.00    -0.089 OA 
HETATM    4  C   UNL     3      -9.108  15.639  66.796  1.00  0.00    -0.254 C  
HETATM    5  H   UNL     2      -6.513  11.418  70.637  1.00  0.00     0.000 HD 
HETATM    6  O   UNL     3      -8.055  16.382  66.160  1.00  0.00    -0.314 OA 
HETATM    7  O   UNL     3      -6.718  15.943  69.485  1.00  0.00    -0.178 OA 
HETATM    8  C   UNL     3      -8.764  15.646  68.279  1.00  0.00    -0.174 C  
HETATM    9  C   UNL     2      -6.981  12.734  67.582  1.00  0.00    -0.146 C  
HETATM   10  O   UNL     2      -8.980  10.437  69.398  1.00  0.00    -0.194 OA 
HETATM   11  C   UNL     3      -7.043  16.563  67.063  1.00  0.00    -0.212 C  
HETATM   12  C   UNL     2      -7.258  12.001  68.822  1.00  0.00    -0.108 C  
HETATM   13  O   UNL     2      -6.334  11.892  69.834  1.00  0.00    -0.144 OA 
HETATM   14  O   UNL     2      -5.929  13.287  67.305  1.00  0.00    -0.341 OA 
HETATM   15  C   UNL     2      -8.428  11.337  68.715  1.00  0.00    -0.112 C  
HETATM   16  O   UNL     3      -9.569  15.155  69.120  1.00  0.00    -0.217 OA 
HETATM   17  H   UNL     3      -7.014  15.619  70.328  1.00  0.00     0.000 HD 
HETATM   18  C   UNL     3      -7.497  16.064  68.362  1.00  0.00    -0.143 C  
HETATM   19  O   UNL     3      -5.979  17.115  66.798  1.00  0.00    -0.169 OA 
ENDROOT
BRANCH   2  20
HETATM   20  C   UNL     2     -10.428  12.545  67.373  1.00  0.00    -0.219 C  
HETATM   21  O   UNL     2     -11.137  12.295  66.144  1.00  0.00    -0.284 OA 
HETATM   22  H   UNL     2     -11.957  12.774  66.132  1.00  0.00     0.000 HD 
BRANCH  20  23
HETATM   23  C   UNL     2     -11.490  12.418  68.473  1.00  0.00    -0.306 C  
HETATM   24  H   UNL     2     -12.937  11.122  69.068  1.00  0.00     0.000 HD 
HETATM   25  O   UNL     2     -12.280  11.202  68.387  1.00  0.00    -0.610 OA 
ENDBRANCH  20  23
ENDBRANCH   2  20
BRANCH   4  26
HETATM   26  C   UNL     3     -10.469  16.087  66.218  1.00  0.00    -0.320 C  
HETATM   27  H   UNL     3     -11.520  17.790  65.866  1.00  0.00     0.000 HD 
HETATM   28  O   UNL     3     -10.684  17.515  66.222  1.00  0.00    -0.233 OA 
BRANCH  26  29
HETATM   29  C   UNL     3     -10.764  15.493  64.844  1.00  0.00    -0.392 C  
HETATM   30  O   UNL     3      -9.811  14.470  64.530  1.00  0.00    -0.548 OA 
HETATM   31  H   UNL     3      -9.995  14.100  63.674  1.00  0.00     0.000 HD 
ENDBRANCH  26  29
ENDBRANCH   4  26
TORSDOF 4
ENDMDL
MODEL       26
REMARK 921   NORMALIZED FREE ENERGY PREDICTED BY IDOCK:   -5.17 KCAL/MOL
REMARK 922        TOTAL FREE ENERGY PREDICTED BY IDOCK:   -7.26 KCAL/MOL
REMARK 923 INTER-LIGAND FREE ENERGY PREDICTED BY IDOCK:   -6.28 KCAL/MOL
REMARK 924 INTRA-LIGAND FREE ENERGY PREDICTED BY IDOCK:   -0.98 KCAL/MOL
REMARK 927      BINDING AFFINITY PREDICTED BY RF-SCORE:    0.00 PKD
ROOT
HETATM    1 ZN   UNL     1     -13.025  10.763  72.422  1.00  0.00    -0.402 Zn 
HETATM    2  C   UNL     2     -10.257   9.530  70.948  1.00  0.00    -0.286 C  
HETATM    3  O   UNL     2      -9.315   9.093  69.933  1.00  0.00    -0.165 OA 
HETATM    4  C   UNL     3      -9.660   5.845  69.711  1.00  0.00    -0.153 C  
HETATM    5  H   UNL     2     -12.575  11.087  67.885  1.00  0.00     0.000 HD 
HETATM    6  O   UNL     3      -8.728   5.464  68.686  1.00  0.00    -0.098 OA 
HETATM    7  O   UNL     3     -11.495   6.692  66.719  1.00  0.00    -0.776 OA 
HETATM    8  C   UNL     3     -10.970   6.115  68.982  1.00  0.00    -0.367 C  
HETATM    9  C   UNL     2      -9.793   9.382  68.682  1.00  0.00    -0.163 C  
HETATM   10  O   UNL     2     -12.151  10.993  70.783  1.00  0.00    -0.335 OA 
HETATM   11  C   UNL     3      -9.279   5.749  67.466  1.00  0.00    -0.108 C  
HETATM   12  C   UNL     2     -11.065  10.093  68.845  1.00  0.00    -0.207 C  
HETATM   13  O   UNL     2     -11.751  10.627  67.780  1.00  0.00    -0.503 OA 
HETATM   14  O   UNL     2      -9.204   9.214  67.626  1.00  0.00    -0.129 OA 
HETATM   15  C   UNL     2     -11.324  10.282  70.156  1.00  0.00    -0.316 C  
HETATM   16  O   UNL     3     -12.019   6.373  69.635  1.00  0.00    -0.197 OA 
HETATM   17  H   UNL     3     -12.392   6.975  66.860  1.00  0.00     0.000 HD 
HETATM   18  C   UNL     3     -10.661   6.187  67.683  1.00  0.00    -0.270 C  
HETATM   19  O   UNL     3      -8.700   5.588  66.397  1.00  0.00    -0.118 OA 
ENDROOT
BRANCH   2  20
HETATM   20  C   UNL     2     -10.641   8.309  71.860  1.00  0.00    -0.282 C  
HETATM   21  O   UNL     2      -9.599   8.055  72.822  1.00  0.00    -0.221 OA 
HETATM   22  H   UNL     2      -9.831   7.316  73.373  1.00  0.00     0.000 HD 
BRANCH  20  23
HETATM   23  C   UNL     2     -11.945   8.242  72.664  1.00  0.00    -0.295 C  
HETATM   24  H   UNL     2     -13.949   8.188  72.339  1.00  0.00     0.000 HD 
HETATM   25  O   UNL     2     -13.141   8.231  71.841  1.00  0.00    -0.329 OA 
ENDBRANCH  20  23
ENDBRANCH   2  20
BRANCH   4  26
HETATM   26  C   UNL     3      -9.518   4.885  70.913  1.00  0.00    -0.165 C  
HETATM   27  H   UNL     3      -9.683   2.907  71.346  1.00  0.00     0.000 HD 
HETATM   28  O   UNL     3      -9.771   3.497  70.607  1.00  0.00    -0.180 OA 
BRANCH  26  29
HETATM   29  C   UNL     3      -8.198   5.049  71.661  1.00  0.00    -0.115 C  
HETATM   30  O   UNL     3      -7.691   6.378  71.488  1.00  0.00    -0.097 OA 
HETATM   31  H   UNL     3      -6.869   6.480  71.954  1.00  0.00     0.000 HD 
ENDBRANCH  26  29
ENDBRANCH   4  26
TORSDOF 4
ENDMDL
MODEL       27
REMARK 921   NORMALIZED FREE ENERGY PREDICTED BY IDOCK:   -5.15 KCAL/MOL
REMARK 922        TOTAL FREE ENERGY PREDICTED BY IDOCK:   -7.24 KCAL/MOL
REMARK 923 INTER-LIGAND FREE ENERGY PREDICTED BY IDOCK:   -6.35 KCAL/MOL
REMARK 924 INTRA-LIGAND FREE ENERGY PREDICTED BY IDOCK:   -0.89 KCAL/MOL
REMARK 927      BINDING AFFINITY PREDICTED BY RF-SCORE:    0.00 PKD
ROOT
HETATM    1 ZN   UNL     1      -6.627   7.569  68.251  1.00  0.00    -0.037 Zn 
HETATM    2  C   UNL     2      -9.554   8.655  66.986  1.00  0.00    -0.182 C  
HETATM    3  O   UNL     2     -10.524   9.355  66.162  1.00  0.00    -0.162 OA 
HETATM    4  C   UNL     3     -11.440  11.989  67.876  1.00  0.00    -0.330 C  
HETATM    5  H   UNL     2      -6.623  10.009  64.386  1.00  0.00     0.000 HD 
HETATM    6  O   UNL     3     -12.380  12.657  67.016  1.00  0.00    -0.399 OA 
HETATM    7  O   UNL     3      -9.232  13.697  65.586  1.00  0.00    -0.437 OA 
HETATM    8  C   UNL     3     -10.084  12.588  67.529  1.00  0.00    -0.207 C  
HETATM    9  C   UNL     2      -9.893  10.040  65.158  1.00  0.00    -0.318 C  
HETATM   10  O   UNL     2      -7.237   8.178  66.590  1.00  0.00    -0.078 OA 
HETATM   11  C   UNL     3     -11.683  13.344  66.060  1.00  0.00    -0.362 C  
HETATM   12  C   UNL     2      -8.458   9.752  65.257  1.00  0.00    -0.145 C  
HETATM   13  O   UNL     2      -7.552  10.195  64.322  1.00  0.00    -0.140 OA 
HETATM   14  O   UNL     2     -10.431  10.659  64.255  1.00  0.00    -0.349 OA 
HETATM   15  C   UNL     2      -8.231   8.871  66.254  1.00  0.00    -0.111 C  
HETATM   16  O   UNL     3      -9.060  12.273  68.198  1.00  0.00    -0.187 OA 
HETATM   17  H   UNL     3      -8.307  13.638  65.795  1.00  0.00     0.000 HD 
HETATM   18  C   UNL     3     -10.257  13.254  66.382  1.00  0.00    -0.292 C  
HETATM   19  O   UNL     3     -12.210  13.969  65.145  1.00  0.00    -0.393 OA 
ENDROOT
BRANCH   2  20
HETATM   20  C   UNL     2      -9.729   9.100  68.483  1.00  0.00    -0.155 C  
HETATM   21  O   UNL     2     -10.904   8.490  69.053  1.00  0.00    -0.402 OA 
HETATM   22  H   UNL     2     -11.009   8.759  69.958  1.00  0.00     0.000 HD 
BRANCH  20  23
HETATM   23  C   UNL     2      -8.636   8.917  69.544  1.00  0.00    -0.134 C  
HETATM   24  H   UNL     2      -7.694   7.416  70.536  1.00  0.00     0.000 HD 
HETATM   25  O   UNL     2      -8.371   7.529  69.879  1.00  0.00    -0.129 OA 
ENDBRANCH  20  23
ENDBRANCH   2  20
BRANCH   4  26
HETATM   26  C   UNL     3     -12.018  11.921  69.307  1.00  0.00    -0.281 C  
HETATM   27  H   UNL     3     -11.833  10.817  71.003  1.00  0.00     0.000 HD 
HETATM   28  O   UNL     3     -11.478  10.859  70.124  1.00  0.00    -0.292 OA 
BRANCH  26  29
HETATM   29  C   UNL     3     -11.963  13.257  70.042  1.00  0.00    -0.329 C  
HETATM   30  O   UNL     3     -12.726  14.244  69.337  1.00  0.00    -0.493 OA 
HETATM   31  H   UNL     3     -12.692  15.076  69.794  1.00  0.00     0.000 HD 
ENDBRANCH  26  29
ENDBRANCH   4  26
TORSDOF 4
ENDMDL
MODEL       28
REMARK 921   NORMALIZED FREE ENERGY PREDICTED BY IDOCK:   -5.11 KCAL/MOL
REMARK 922        TOTAL FREE ENERGY PREDICTED BY IDOCK:   -7.18 KCAL/MOL
REMARK 923 INTER-LIGAND FREE ENERGY PREDICTED BY IDOCK:   -6.42 KCAL/MOL
REMARK 924 INTRA-LIGAND FREE ENERGY PREDICTED BY IDOCK:   -0.76 KCAL/MOL
REMARK 927      BINDING AFFINITY PREDICTED BY RF-SCORE:    0.00 PKD
ROOT
HETATM    1 ZN   UNL     1     -13.815  14.930  66.311  1.00  0.00    -0.135 Zn 
HETATM    2  C   UNL     2     -10.778  14.187  65.056  1.00  0.00    -0.416 C  
HETATM    3  O   UNL     2      -9.708  13.503  64.352  1.00  0.00    -0.047 OA 
HETATM    4  C   UNL     3      -8.079  11.792  66.618  1.00  0.00    -0.094 C  
HETATM    5  H   UNL     2     -13.409  11.488  63.332  1.00  0.00     0.000 HD 
HETATM    6  O   UNL     3      -7.048  11.120  65.875  1.00  0.00    -0.027 OA 
HETATM    7  O   UNL     3      -9.906   9.020  65.201  1.00  0.00    -0.375 OA 
HETATM    8  C   UNL     3      -9.259  10.830  66.626  1.00  0.00    -0.166 C  
HETATM    9  C   UNL     2     -10.200  12.421  63.671  1.00  0.00    -0.354 C  
HETATM   10  O   UNL     2     -13.159  13.993  64.830  1.00  0.00    -0.693 OA 
HETATM   11  C   UNL     3      -7.599  10.036  65.248  1.00  0.00    -0.137 C  
HETATM   12  C   UNL     2     -11.654  12.399  63.860  1.00  0.00    -0.441 C  
HETATM   13  O   UNL     2     -12.468  11.502  63.210  1.00  0.00    -0.363 OA 
HETATM   14  O   UNL     2      -9.571  11.690  62.922  1.00  0.00    -0.384 OA 
HETATM   15  C   UNL     2     -12.041  13.469  64.586  1.00  0.00    -0.409 C  
HETATM   16  O   UNL     3     -10.293  11.100  67.299  1.00  0.00    -0.193 OA 
HETATM   17  H   UNL     3     -10.805   8.933  65.497  1.00  0.00     0.000 HD 
HETATM   18  C   UNL     3      -8.985   9.901  65.705  1.00  0.00    -0.171 C  
HETATM   19  O   UNL     3      -6.981   9.294  64.491  1.00  0.00    -0.089 OA 
ENDROOT
BRANCH   2  20
HETATM   20  C   UNL     2     -10.422  14.273  66.584  1.00  0.00    -0.278 C  
HETATM   21  O   UNL     2      -9.353  15.215  66.798  1.00  0.00    -0.219 OA 
HETATM   22  H   UNL     2      -9.137  15.266  67.721  1.00  0.00     0.000 HD 
BRANCH  20  23
HETATM   23  C   UNL     2     -11.456  14.599  67.668  1.00  0.00    -0.346 C  
HETATM   24  H   UNL     2     -12.030  16.170  68.820  1.00  0.00     0.000 HD 
HETATM   25  O   UNL     2     -11.389  15.968  68.149  1.00  0.00    -0.342 OA 
ENDBRANCH  20  23
ENDBRANCH   2  20
BRANCH   4  26
HETATM   26  C   UNL     3      -7.464  12.422  67.888  1.00  0.00    -0.120 C  
HETATM   27  H   UNL     3      -6.787  11.868  69.722  1.00  0.00     0.000 HD 
HETATM   28  O   UNL     3      -7.165  11.481  68.942  1.00  0.00    -0.105 OA 
BRANCH  26  29
HETATM   29  C   UNL     3      -6.262  13.315  67.595  1.00  0.00    -0.148 C  
HETATM   30  O   UNL     3      -6.696  14.587  67.099  1.00  0.00    -0.369 OA 
HETATM   31  H   UNL     3      -5.947  15.143  66.917  1.00  0.00     0.000 HD 
ENDBRANCH  26  29
ENDBRANCH   4  26
TORSDOF 4
ENDMDL
MODEL       29
REMARK 921   NORMALIZED FREE ENERGY PREDICTED BY IDOCK:   -5.10 KCAL/MOL
REMARK 922        TOTAL FREE ENERGY PREDICTED BY IDOCK:   -7.17 KCAL/MOL
REMARK 923 INTER-LIGAND FREE ENERGY PREDICTED BY IDOCK:   -6.25 KCAL/MOL
REMARK 924 INTRA-LIGAND FREE ENERGY PREDICTED BY IDOCK:   -0.92 KCAL/MOL
REMARK 927      BINDING AFFINITY PREDICTED BY RF-SCORE:    0.00 PKD
ROOT
HETATM    1 ZN   UNL     1     -10.654   5.643  73.648  1.00  0.00    -0.172 Zn 
HETATM    2  C   UNL     2     -11.641   6.382  70.512  1.00  0.00    -0.358 C  
HETATM    3  O   UNL     2     -11.638   6.541  69.068  1.00  0.00    -0.235 OA 
HETATM    4  C   UNL     3     -10.909   9.682  68.503  1.00  0.00    -0.161 C  
HETATM    5  H   UNL     2      -8.054   4.341  70.122  1.00  0.00     0.000 HD 
HETATM    6  O   UNL     3     -10.899   9.786  67.069  1.00  0.00    -0.203 OA 
HETATM    7  O   UNL     3      -7.661   8.323  67.707  1.00  0.00    -0.098 OA 
HETATM    8  C   UNL     3      -9.478   9.337  68.890  1.00  0.00    -0.154 C  
HETATM    9  C   UNL     2     -10.490   6.020  68.532  1.00  0.00    -0.234 C  
HETATM   10  O   UNL     2     -10.259   5.024  71.927  1.00  0.00    -0.193 OA 
HETATM   11  C   UNL     3      -9.716   9.279  66.604  1.00  0.00    -0.219 C  
HETATM   12  C   UNL     2      -9.714   5.432  69.629  1.00  0.00    -0.177 C  
HETATM   13  O   UNL     2      -8.557   4.722  69.413  1.00  0.00    -0.082 OA 
HETATM   14  O   UNL     2     -10.223   5.928  67.345  1.00  0.00    -0.153 OA 
HETATM   15  C   UNL     2     -10.397   5.539  70.788  1.00  0.00    -0.251 C  
HETATM   16  O   UNL     3      -9.145   9.281  70.107  1.00  0.00    -0.184 OA 
HETATM   17  H   UNL     3      -7.109   8.126  68.456  1.00  0.00     0.000 HD 
HETATM   18  C   UNL     3      -8.866   8.974  67.757  1.00  0.00    -0.124 C  
HETATM   19  O   UNL     3      -9.435   9.178  65.414  1.00  0.00    -0.241 OA 
ENDROOT
BRANCH   2  20
HETATM   20  C   UNL     2     -11.827   7.787  71.189  1.00  0.00    -0.291 C  
HETATM   21  O   UNL     2     -13.122   8.331  70.866  1.00  0.00    -0.503 OA 
HETATM   22  H   UNL     2     -13.235   9.181  71.275  1.00  0.00     0.000 HD 
BRANCH  20  23
HETATM   23  C   UNL     2     -11.667   8.019  72.696  1.00  0.00    -0.358 C  
HETATM   24  H   UNL     2     -10.186   8.210  74.072  1.00  0.00     0.000 HD 
HETATM   25  O   UNL     2     -10.285   8.066  73.139  1.00  0.00    -0.322 OA 
ENDBRANCH  20  23
ENDBRANCH   2  20
BRANCH   4  26
HETATM   26  C   UNL     3     -11.707  10.866  69.094  1.00  0.00    -0.326 C  
HETATM   27  H   UNL     3     -12.069  11.750  70.887  1.00  0.00     0.000 HD 
HETATM   28  O   UNL     3     -11.579  11.023  70.524  1.00  0.00    -0.314 OA 
BRANCH  26  29
HETATM   29  C   UNL     3     -11.447  12.185  68.374  1.00  0.00    -0.304 C  
HETATM   30  O   UNL     3     -12.058  12.174  67.078  1.00  0.00    -0.591 OA 
HETATM   31  H   UNL     3     -11.896  12.995  66.630  1.00  0.00     0.000 HD 
ENDBRANCH  26  29
ENDBRANCH   4  26
TORSDOF 4
ENDMDL
MODEL       30
REMARK 921   NORMALIZED FREE ENERGY PREDICTED BY IDOCK:   -5.08 KCAL/MOL
REMARK 922        TOTAL FREE ENERGY PREDICTED BY IDOCK:   -7.15 KCAL/MOL
REMARK 923 INTER-LIGAND FREE ENERGY PREDICTED BY IDOCK:   -6.41 KCAL/MOL
REMARK 924 INTRA-LIGAND FREE ENERGY PREDICTED BY IDOCK:   -0.74 KCAL/MOL
REMARK 927      BINDING AFFINITY PREDICTED BY RF-SCORE:    0.00 PKD
ROOT
HETATM    1 ZN   UNL     1     -11.089   5.528  69.409  1.00  0.00    -0.251 Zn 
HETATM    2  C   UNL     2      -8.972   7.871  68.233  1.00  0.00    -0.132 C  
HETATM    3  O   UNL     2      -8.177   9.082  68.130  1.00  0.00    -0.111 OA 
HETATM    4  C   UNL     3      -9.903  11.146  66.265  1.00  0.00    -0.214 C  
HETATM    5  H   UNL     2      -9.817   8.963  72.142  1.00  0.00     0.000 HD 
HETATM    6  O   UNL     3      -9.090  12.330  66.209  1.00  0.00    -0.206 OA 
HETATM    7  O   UNL     3     -10.654  12.687  69.443  1.00  0.00    -0.432 OA 
HETATM    8  C   UNL     3     -10.816  11.344  67.468  1.00  0.00    -0.244 C  
HETATM    9  C   UNL     2      -8.266   9.812  69.286  1.00  0.00    -0.132 C  
HETATM   10  O   UNL     2      -9.955   6.817  70.152  1.00  0.00    -0.176 OA 
HETATM   11  C   UNL     3      -9.250  13.025  67.376  1.00  0.00    -0.208 C  
HETATM   12  C   UNL     2      -9.092   9.052  70.230  1.00  0.00    -0.202 C  
HETATM   13  O   UNL     2      -9.283   9.455  71.530  1.00  0.00    -0.276 OA 
HETATM   14  O   UNL     2      -7.654  10.836  69.543  1.00  0.00    -0.141 OA 
HETATM   15  C   UNL     2      -9.446   7.869  69.685  1.00  0.00    -0.160 C  
HETATM   16  O   UNL     3     -11.727  10.507  67.718  1.00  0.00    -0.438 OA 
HETATM   17  H   UNL     3     -11.337  12.261  69.948  1.00  0.00     0.000 HD 
HETATM   18  C   UNL     3     -10.302  12.369  68.156  1.00  0.00    -0.226 C  
HETATM   19  O   UNL     3      -8.640  14.054  67.650  1.00  0.00    -0.165 OA 
ENDROOT
BRANCH   2  20
HETATM   20  C   UNL     2     -10.005   7.826  67.050  1.00  0.00    -0.244 C  
HETATM   21  O   UNL     2      -9.319   7.690  65.790  1.00  0.00    -0.396 OA 
HETATM   22  H   UNL     2      -9.943   7.663  65.075  1.00  0.00     0.000 HD 
BRANCH  20  23
HETATM   23  C   UNL     2     -11.158   6.817  66.982  1.00  0.00    -0.299 C  
HETATM   24  H   UNL     2     -11.478   4.886  66.440  1.00  0.00     0.000 HD 
HETATM   25  O   UNL     2     -10.764   5.511  66.482  1.00  0.00    -0.296 OA 
ENDBRANCH  20  23
ENDBRANCH   2  20
BRANCH   4  26
HETATM   26  C   UNL     3     -10.403  10.802  64.844  1.00  0.00    -0.299 C  
HETATM   27  H   UNL     3     -11.846  11.365  63.529  1.00  0.00     0.000 HD 
HETATM   28  O   UNL     3     -11.539  11.576  64.403  1.00  0.00    -0.237 OA 
BRANCH  26  29
HETATM   29  C   UNL     3      -9.293  10.814  63.797  1.00  0.00    -0.266 C  
HETATM   30  O   UNL     3      -9.173  12.117  63.215  1.00  0.00    -0.653 OA 
HETATM   31  H   UNL     3      -8.482  12.124  62.563  1.00  0.00     0.000 HD 
ENDBRANCH  26  29
ENDBRANCH   4  26
TORSDOF 4
ENDMDL
MODEL       31
REMARK 921   NORMALIZED FREE ENERGY PREDICTED BY IDOCK:   -5.03 KCAL/MOL
REMARK 922        TOTAL FREE ENERGY PREDICTED BY IDOCK:   -7.09 KCAL/MOL
REMARK 923 INTER-LIGAND FREE ENERGY PREDICTED BY IDOCK:   -6.09 KCAL/MOL
REMARK 924 INTRA-LIGAND FREE ENERGY PREDICTED BY IDOCK:   -1.00 KCAL/MOL
REMARK 927      BINDING AFFINITY PREDICTED BY RF-SCORE:    0.00 PKD
ROOT
HETATM    1 ZN   UNL     1     -12.560  13.593  72.483  1.00  0.00    -0.310 Zn 
HETATM    2  C   UNL     2     -12.534  12.475  69.305  1.00  0.00     0.350 C  
HETATM    3  O   UNL     2     -12.231  11.684  68.125  1.00  0.00    -0.537 OA 
HETATM    4  C   UNL     3      -9.902  13.319  66.507  1.00  0.00    -0.281 C  
HETATM    5  H   UNL     2     -10.518   9.616  71.529  1.00  0.00     0.000 HD 
HETATM    6  O   UNL     3      -9.623  12.492  65.365  1.00  0.00    -0.147 OA 
HETATM    7  O   UNL     3      -7.755  10.800  67.950  1.00  0.00    -0.097 OA 
HETATM    8  C   UNL     3      -8.935  12.850  67.587  1.00  0.00    -0.192 C  
HETATM    9  C   UNL     2     -11.456  10.606  68.459  1.00  0.00    -0.265 C  
HETATM   10  O   UNL     2     -12.290  11.948  71.632  1.00  0.00    -0.066 OA 
HETATM   11  C   UNL     3      -8.821  11.456  65.761  1.00  0.00    -0.111 C  
HETATM   12  C   UNL     2     -11.274  10.621  69.914  1.00  0.00    -0.308 C  
HETATM   13  O   UNL     2     -10.636   9.606  70.587  1.00  0.00    -0.278 OA 
HETATM   14  O   UNL     2     -11.100   9.710  67.709  1.00  0.00    -0.219 OA 
HETATM   15  C   UNL     2     -11.967  11.645  70.455  1.00  0.00    -0.358 C  
HETATM   16  O   UNL     3      -8.867  13.464  68.688  1.00  0.00    -0.108 OA 
HETATM   17  H   UNL     3      -7.507  10.949  68.855  1.00  0.00     0.000 HD 
HETATM   18  C   UNL     3      -8.439  11.685  67.157  1.00  0.00    -0.162 C  
HETATM   19  O   UNL     3      -8.458  10.548  65.021  1.00  0.00    -0.173 OA 
ENDROOT
BRANCH   2  20
HETATM   20  C   UNL     2     -12.063  13.955  69.071  1.00  0.00    -0.329 C  
HETATM   21  O   UNL     2     -12.628  14.475  67.852  1.00  0.00    -0.489 OA 
HETATM   22  H   UNL     2     -12.342  15.370  67.711  1.00  0.00     0.000 HD 
BRANCH  20  23
HETATM   23  C   UNL     2     -12.262  15.071  70.104  1.00  0.00    -0.343 C  
HETATM   24  H   UNL     2     -13.649  15.682  71.457  1.00  0.00     0.000 HD 
HETATM   25  O   UNL     2     -13.525  14.991  70.817  1.00  0.00    -0.356 OA 
ENDBRANCH  20  23
ENDBRANCH   2  20
BRANCH   4  26
HETATM   26  C   UNL     3     -10.047  14.788  66.051  1.00  0.00    -0.308 C  
HETATM   27  H   UNL     3      -8.891  16.415  65.669  1.00  0.00     0.000 HD 
HETATM   28  O   UNL     3      -8.802  15.512  65.950  1.00  0.00    -0.254 OA 
BRANCH  26  29
HETATM   29  C   UNL     3     -10.874  14.943  64.778  1.00  0.00    -0.363 C  
HETATM   30  O   UNL     3     -12.042  14.115  64.840  1.00  0.00    -0.387 OA 
HETATM   31  H   UNL     3     -12.557  14.212  64.048  1.00  0.00     0.000 HD 
ENDBRANCH  26  29
ENDBRANCH   4  26
TORSDOF 4
ENDMDL
MODEL       32
REMARK 921   NORMALIZED FREE ENERGY PREDICTED BY IDOCK:   -5.03 KCAL/MOL
REMARK 922        TOTAL FREE ENERGY PREDICTED BY IDOCK:   -7.09 KCAL/MOL
REMARK 923 INTER-LIGAND FREE ENERGY PREDICTED BY IDOCK:   -5.89 KCAL/MOL
REMARK 924 INTRA-LIGAND FREE ENERGY PREDICTED BY IDOCK:   -1.20 KCAL/MOL
REMARK 927      BINDING AFFINITY PREDICTED BY RF-SCORE:    0.00 PKD
ROOT
HETATM    1 ZN   UNL     1     -11.863  11.029  62.628  1.00  0.00    -0.792 Zn 
HETATM    2  C   UNL     2     -11.405  11.635  65.910  1.00  0.00    -0.199 C  
HETATM    3  O   UNL     2     -11.446  12.280  67.211  1.00  0.00    -0.314 OA 
HETATM    4  C   UNL     3      -8.575  13.815  67.555  1.00  0.00    -0.193 C  
HETATM    5  H   UNL     2     -14.044  14.541  64.576  1.00  0.00     0.000 HD 
HETATM    6  O   UNL     3      -8.670  14.451  68.841  1.00  0.00    -0.154 OA 
HETATM    7  O   UNL     3     -10.546  16.735  66.768  1.00  0.00    -0.288 OA 
HETATM    8  C   UNL     3      -9.096  14.843  66.560  1.00  0.00    -0.277 C  
HETATM    9  C   UNL     2     -12.217  13.411  67.159  1.00  0.00    -0.256 C  
HETATM   10  O   UNL     2     -12.767  11.976  63.965  1.00  0.00    -0.506 OA 
HETATM   11  C   UNL     3      -9.423  15.586  68.711  1.00  0.00    -0.210 C  
HETATM   12  C   UNL     2     -12.771  13.511  65.805  1.00  0.00    -0.374 C  
HETATM   13  O   UNL     2     -13.685  14.476  65.453  1.00  0.00    -0.128 OA 
HETATM   14  O   UNL     2     -12.512  14.129  68.101  1.00  0.00    -0.115 OA 
HETATM   15  C   UNL     2     -12.396  12.442  65.073  1.00  0.00    -0.369 C  
HETATM   16  O   UNL     3      -9.039  14.611  65.320  1.00  0.00     0.567 OA 
HETATM   17  H   UNL     3     -10.728  16.864  65.844  1.00  0.00     0.000 HD 
HETATM   18  C   UNL     3      -9.705  15.785  67.287  1.00  0.00    -0.223 C  
HETATM   19  O   UNL     3      -9.730  16.315  69.648  1.00  0.00    -0.187 OA 
ENDROOT
BRANCH   2  20
HETATM   20  C   UNL     2      -9.909  11.477  65.456  1.00  0.00    -0.234 C  
HETATM   21  O   UNL     2      -9.202  10.601  66.356  1.00  0.00    -0.162 OA 
HETATM   22  H   UNL     2      -8.298  10.506  66.082  1.00  0.00     0.000 HD 
BRANCH  20  23
HETATM   23  C   UNL     2      -9.504  11.010  64.053  1.00  0.00    -0.246 C  
HETATM   24  H   UNL     2      -9.373  11.750  62.166  1.00  0.00     0.000 HD 
HETATM   25  O   UNL     2      -9.625  12.039  63.035  1.00  0.00    -0.369 OA 
ENDBRANCH  20  23
ENDBRANCH   2  20
BRANCH   4  26
HETATM   26  C   UNL     3      -7.206  13.107  67.436  1.00  0.00    -0.110 C  
HETATM   27  H   UNL     3      -5.245  13.561  67.162  1.00  0.00     0.000 HD 
HETATM   28  O   UNL     3      -6.086  13.995  67.235  1.00  0.00    -0.309 OA 
BRANCH  26  29
HETATM   29  C   UNL     3      -6.933  12.130  68.576  1.00  0.00    -0.091 C  
HETATM   30  O   UNL     3      -8.164  11.596  69.078  1.00  0.00    -0.350 OA 
HETATM   31  H   UNL     3      -7.994  10.987  69.788  1.00  0.00     0.000 HD 
ENDBRANCH  26  29
ENDBRANCH   4  26
TORSDOF 4
ENDMDL
MODEL       33
REMARK 921   NORMALIZED FREE ENERGY PREDICTED BY IDOCK:   -5.03 KCAL/MOL
REMARK 922        TOTAL FREE ENERGY PREDICTED BY IDOCK:   -7.08 KCAL/MOL
REMARK 923 INTER-LIGAND FREE ENERGY PREDICTED BY IDOCK:   -5.94 KCAL/MOL
REMARK 924 INTRA-LIGAND FREE ENERGY PREDICTED BY IDOCK:   -1.14 KCAL/MOL
REMARK 927      BINDING AFFINITY PREDICTED BY RF-SCORE:    0.00 PKD
ROOT
HETATM    1 ZN   UNL     1     -14.164   9.956  70.101  1.00  0.00    -0.622 Zn 
HETATM    2  C   UNL     2     -11.188   9.285  71.530  1.00  0.00    -0.386 C  
HETATM    3  O   UNL     2      -9.762   9.068  71.708  1.00  0.00    -0.304 OA 
HETATM    4  C   UNL     3      -9.319   5.825  71.623  1.00  0.00    -0.146 C  
HETATM    5  H   UNL     2     -10.333  10.606  67.695  1.00  0.00     0.000 HD 
HETATM    6  O   UNL     3      -7.900   5.662  71.783  1.00  0.00    -0.105 OA 
HETATM    7  O   UNL     3      -8.135   6.523  68.284  1.00  0.00    -0.109 OA 
HETATM    8  C   UNL     3      -9.546   5.914  70.120  1.00  0.00    -0.162 C  
HETATM    9  C   UNL     2      -9.088   9.343  70.548  1.00  0.00    -0.256 C  
HETATM   10  O   UNL     2     -12.379  10.420  69.784  1.00  0.00    -0.192 OA 
HETATM   11  C   UNL     3      -7.294   5.920  70.584  1.00  0.00    -0.085 C  
HETATM   12  C   UNL     2     -10.067   9.823  69.567  1.00  0.00    -0.217 C  
HETATM   13  O   UNL     2      -9.699  10.295  68.330  1.00  0.00    -0.149 OA 
HETATM   14  O   UNL     2      -7.877   9.335  70.396  1.00  0.00    -0.112 OA 
HETATM   15  C   UNL     2     -11.291   9.892  70.132  1.00  0.00    -0.275 C  
HETATM   16  O   UNL     3     -10.720   5.958  69.656  1.00  0.00    -0.279 OA 
HETATM   17  H   UNL     3      -8.814   6.645  67.631  1.00  0.00     0.000 HD 
HETATM   18  C   UNL     3      -8.340   6.110  69.576  1.00  0.00    -0.120 C  
HETATM   19  O   UNL     3      -6.079   5.918  70.416  1.00  0.00    -0.027 OA 
ENDROOT
BRANCH   2  20
HETATM   20  C   UNL     2     -11.962   7.968  71.895  1.00  0.00    -0.314 C  
HETATM   21  O   UNL     2     -11.734   7.618  73.274  1.00  0.00    -0.649 OA 
HETATM   22  H   UNL     2     -12.203   6.821  73.494  1.00  0.00     0.000 HD 
BRANCH  20  23
HETATM   23  C   UNL     2     -13.473   7.801  71.691  1.00  0.00    -0.349 C  
HETATM   24  H   UNL     2     -15.192   8.828  72.030  1.00  0.00     0.000 HD 
HETATM   25  O   UNL     2     -14.256   8.932  72.156  1.00  0.00    -0.429 OA 
ENDBRANCH  20  23
ENDBRANCH   2  20
BRANCH   4  26
HETATM   26  C   UNL     3     -10.055   4.836  72.554  1.00  0.00    -0.181 C  
HETATM   27  H   UNL     3     -10.419   2.844  72.724  1.00  0.00     0.000 HD 
HETATM   28  O   UNL     3      -9.968   3.452  72.151  1.00  0.00    -0.158 OA 
BRANCH  26  29
HETATM   29  C   UNL     3      -9.681   5.003  74.024  1.00  0.00    -0.143 C  
HETATM   30  O   UNL     3      -9.413   6.379  74.316  1.00  0.00    -0.171 OA 
HETATM   31  H   UNL     3      -9.181   6.483  75.232  1.00  0.00     0.000 HD 
ENDBRANCH  26  29
ENDBRANCH   4  26
TORSDOF 4
ENDMDL
MODEL       34
REMARK 921   NORMALIZED FREE ENERGY PREDICTED BY IDOCK:   -5.00 KCAL/MOL
REMARK 922        TOTAL FREE ENERGY PREDICTED BY IDOCK:   -7.05 KCAL/MOL
REMARK 923 INTER-LIGAND FREE ENERGY PREDICTED BY IDOCK:   -6.16 KCAL/MOL
REMARK 924 INTRA-LIGAND FREE ENERGY PREDICTED BY IDOCK:   -0.89 KCAL/MOL
REMARK 927      BINDING AFFINITY PREDICTED BY RF-SCORE:    0.00 PKD
ROOT
HETATM    1 ZN   UNL     1     -11.639  14.387  70.111  1.00  0.00    -0.227 Zn 
HETATM    2  C   UNL     2     -11.907  11.708  68.086  1.00  0.00    -0.244 C  
HETATM    3  O   UNL     2     -11.707  10.388  67.513  1.00  0.00    -0.246 OA 
HETATM    4  C   UNL     3      -9.584  10.778  65.051  1.00  0.00    -0.254 C  
HETATM    5  H   UNL     2      -9.620  10.467  71.313  1.00  0.00     0.000 HD 
HETATM    6  O   UNL     3      -9.403   9.450  64.531  1.00  0.00    -0.189 OA 
HETATM    7  O   UNL     3      -7.252   9.387  67.430  1.00  0.00    -0.085 OA 
HETATM    8  C   UNL     3      -8.505  10.943  66.113  1.00  0.00    -0.171 C  
HETATM    9  C   UNL     2     -10.879   9.642  68.309  1.00  0.00    -0.182 C  
HETATM   10  O   UNL     2     -11.421  12.536  70.284  1.00  0.00    -0.074 OA 
HETATM   11  C   UNL     3      -8.545   8.774  65.354  1.00  0.00    -0.178 C  
HETATM   12  C   UNL     2     -10.553  10.447  69.491  1.00  0.00    -0.246 C  
HETATM   13  O   UNL     2      -9.831   9.945  70.547  1.00  0.00    -0.226 OA 
HETATM   14  O   UNL     2     -10.581   8.470  68.146  1.00  0.00    -0.200 OA 
HETATM   15  C   UNL     2     -11.211  11.625  69.443  1.00  0.00    -0.246 C  
HETATM   16  O   UNL     3      -8.341  12.058  66.683  1.00  0.00    -0.165 OA 
HETATM   17  H   UNL     3      -6.918   9.999  68.076  1.00  0.00     0.000 HD 
HETATM   18  C   UNL     3      -8.030   9.716  66.350  1.00  0.00    -0.108 C  
HETATM   19  O   UNL     3      -8.238   7.595  65.204  1.00  0.00    -0.136 OA 
ENDROOT
BRANCH   2  20
HETATM   20  C   UNL     2     -11.492  12.798  67.033  1.00  0.00    -0.341 C  
HETATM   21  O   UNL     2     -12.604  13.112  66.172  1.00  0.00    -0.398 OA 
HETATM   22  H   UNL     2     -12.353  13.771  65.536  1.00  0.00     0.000 HD 
BRANCH  20  23
HETATM   23  C   UNL     2     -10.901  14.158  67.424  1.00  0.00    -0.287 C  
HETATM   24  H   UNL     2     -11.503  15.916  68.245  1.00  0.00     0.000 HD 
HETATM   25  O   UNL     2     -11.869  15.073  68.003  1.00  0.00    -0.335 OA 
ENDBRANCH  20  23
ENDBRANCH   2  20
BRANCH   4  26
HETATM   26  C   UNL     3      -9.805  11.760  63.878  1.00  0.00    -0.274 C  
HETATM   27  H   UNL     3      -9.070  12.152  62.025  1.00  0.00     0.000 HD 
HETATM   28  O   UNL     3      -8.934  11.549  62.746  1.00  0.00    -0.267 OA 
BRANCH  26  29
HETATM   29  C   UNL     3     -11.263  11.852  63.438  1.00  0.00    -0.377 C  
HETATM   30  O   UNL     3     -11.687  13.220  63.408  1.00  0.00    -0.701 OA 
HETATM   31  H   UNL     3     -12.595  13.278  63.133  1.00  0.00     0.000 HD 
ENDBRANCH  26  29
ENDBRANCH   4  26
TORSDOF 4
ENDMDL
MODEL       35
REMARK 921   NORMALIZED FREE ENERGY PREDICTED BY IDOCK:   -4.97 KCAL/MOL
REMARK 922        TOTAL FREE ENERGY PREDICTED BY IDOCK:   -7.01 KCAL/MOL
REMARK 923 INTER-LIGAND FREE ENERGY PREDICTED BY IDOCK:   -6.06 KCAL/MOL
REMARK 924 INTRA-LIGAND FREE ENERGY PREDICTED BY IDOCK:   -0.95 KCAL/MOL
REMARK 927      BINDING AFFINITY PREDICTED BY RF-SCORE:    0.00 PKD
ROOT
HETATM    1 ZN   UNL     1     -14.213   9.690  72.251  1.00  0.00    -0.389 Zn 
HETATM    2  C   UNL     2     -10.975   9.559  71.328  1.00  0.00    -0.370 C  
HETATM    3  O   UNL     2      -9.767   9.637  70.525  1.00  0.00    -0.259 OA 
HETATM    4  C   UNL     3      -9.129   6.580  69.543  1.00  0.00    -0.140 C  
HETATM    5  H   UNL     2     -12.986  11.326  68.163  1.00  0.00     0.000 HD 
HETATM    6  O   UNL     3      -7.943   6.711  68.741  1.00  0.00    -0.115 OA 
HETATM    7  O   UNL     3     -10.499   7.771  66.423  1.00  0.00    -0.480 OA 
HETATM    8  C   UNL     3     -10.290   6.736  68.570  1.00  0.00    -0.190 C  
HETATM    9  C   UNL     2     -10.050  10.139  69.283  1.00  0.00    -0.222 C  
HETATM   10  O   UNL     2     -13.134  10.546  70.983  1.00  0.00    -0.377 OA 
HETATM   11  C   UNL     3      -8.301   7.185  67.509  1.00  0.00    -0.116 C  
HETATM   12  C   UNL     2     -11.477  10.474  69.253  1.00  0.00    -0.256 C  
HETATM   13  O   UNL     2     -12.062  11.109  68.183  1.00  0.00    -0.633 OA 
HETATM   14  O   UNL     2      -9.241  10.401  68.407  1.00  0.00    -0.137 OA 
HETATM   15  C   UNL     2     -12.033  10.237  70.460  1.00  0.00    -0.323 C  
HETATM   16  O   UNL     3     -11.477   6.564  68.966  1.00  0.00    -0.283 OA 
HETATM   17  H   UNL     3     -11.449   7.797  66.381  1.00  0.00     0.000 HD 
HETATM   18  C   UNL     3      -9.763   7.225  67.443  1.00  0.00    -0.150 C  
HETATM   19  O   UNL     3      -7.500   7.454  66.619  1.00  0.00    -0.085 OA 
ENDROOT
BRANCH   2  20
HETATM   20  C   UNL     2     -11.170   8.083  71.829  1.00  0.00    -0.266 C  
HETATM   21  O   UNL     2     -10.643   7.932  73.161  1.00  0.00    -0.359 OA 
HETATM   22  H   UNL     2     -10.761   7.039  73.464  1.00  0.00     0.000 HD 
BRANCH  20  23
HETATM   23  C   UNL     2     -12.535   7.383  71.864  1.00  0.00    -0.302 C  
HETATM   24  H   UNL     2     -13.305   5.535  72.202  1.00  0.00     0.000 HD 
HETATM   25  O   UNL     2     -12.460   5.968  72.180  1.00  0.00    -0.203 OA 
ENDBRANCH  20  23
ENDBRANCH   2  20
BRANCH   4  26
HETATM   26  C   UNL     3      -8.961   5.387  70.511  1.00  0.00    -0.134 C  
HETATM   27  H   UNL     3      -8.330   3.456  70.498  1.00  0.00     0.000 HD 
HETATM   28  O   UNL     3      -8.433   4.189  69.903  1.00  0.00    -0.060 OA 
BRANCH  26  29
HETATM   29  C   UNL     3      -8.189   5.745  71.777  1.00  0.00    -0.119 C  
HETATM   30  O   UNL     3      -7.976   7.160  71.848  1.00  0.00    -0.092 OA 
HETATM   31  H   UNL     3      -7.495   7.382  72.637  1.00  0.00     0.000 HD 
ENDBRANCH  26  29
ENDBRANCH   4  26
TORSDOF 4
ENDMDL
MODEL       36
REMARK 921   NORMALIZED FREE ENERGY PREDICTED BY IDOCK:   -4.90 KCAL/MOL
REMARK 922        TOTAL FREE ENERGY PREDICTED BY IDOCK:   -6.93 KCAL/MOL
REMARK 923 INTER-LIGAND FREE ENERGY PREDICTED BY IDOCK:   -6.20 KCAL/MOL
REMARK 924 INTRA-LIGAND FREE ENERGY PREDICTED BY IDOCK:   -0.73 KCAL/MOL
REMARK 927      BINDING AFFINITY PREDICTED BY RF-SCORE:    0.00 PKD
ROOT
HETATM    1 ZN   UNL     1      -8.375   6.955  71.262  1.00  0.00    -0.106 Zn 
HETATM    2  C   UNL     2     -10.253   8.048  68.687  1.00  0.00    -0.206 C  
HETATM    3  O   UNL     2     -10.642   8.537  67.376  1.00  0.00    -0.277 OA 
HETATM    4  C   UNL     3     -10.959  11.782  67.674  1.00  0.00    -0.233 C  
HETATM    5  H   UNL     2      -6.449   7.459  67.149  1.00  0.00     0.000 HD 
HETATM    6  O   UNL     3     -11.323  12.221  66.355  1.00  0.00    -0.315 OA 
HETATM    7  O   UNL     3      -7.754  11.800  66.012  1.00  0.00    -0.350 OA 
HETATM    8  C   UNL     3      -9.438  11.847  67.712  1.00  0.00    -0.184 C  
HETATM    9  C   UNL     2      -9.560   8.567  66.537  1.00  0.00    -0.236 C  
HETATM   10  O   UNL     2      -8.253   6.927  69.395  1.00  0.00    -0.127 OA 
HETATM   11  C   UNL     3     -10.196  12.258  65.581  1.00  0.00    -0.261 C  
HETATM   12  C   UNL     2      -8.412   8.025  67.270  1.00  0.00    -0.125 C  
HETATM   13  O   UNL     2      -7.193   7.809  66.674  1.00  0.00    -0.083 OA 
HETATM   14  O   UNL     2      -9.573   8.853  65.350  1.00  0.00    -0.135 OA 
HETATM   15  C   UNL     2      -8.798   7.623  68.500  1.00  0.00    -0.130 C  
HETATM   16  O   UNL     3      -8.819  11.617  68.789  1.00  0.00    -0.122 OA 
HETATM   17  H   UNL     3      -7.006  11.624  66.571  1.00  0.00     0.000 HD 
HETATM   18  C   UNL     3      -9.043  11.986  66.442  1.00  0.00    -0.193 C  
HETATM   19  O   UNL     3     -10.193  12.541  64.387  1.00  0.00    -0.330 OA 
ENDROOT
BRANCH   2  20
HETATM   20  C   UNL     2     -10.647   9.110  69.776  1.00  0.00    -0.229 C  
HETATM   21  O   UNL     2     -12.066   9.069  70.025  1.00  0.00    -0.325 OA 
HETATM   22  H   UNL     2     -12.304   9.712  70.683  1.00  0.00     0.000 HD 
BRANCH  20  23
HETATM   23  C   UNL     2     -10.004   9.163  71.167  1.00  0.00    -0.307 C  
HETATM   24  H   UNL     2     -10.480   8.739  73.095  1.00  0.00     0.000 HD 
HETATM   25  O   UNL     2     -10.878   8.706  72.233  1.00  0.00    -0.354 OA 
ENDBRANCH  20  23
ENDBRANCH   2  20
BRANCH   4  26
HETATM   26  C   UNL     3     -11.882  12.460  68.711  1.00  0.00    -0.311 C  
HETATM   27  H   UNL     3     -12.331  12.358  70.690  1.00  0.00     0.000 HD 
HETATM   28  O   UNL     3     -11.764  11.941  70.053  1.00  0.00    -0.317 OA 
BRANCH  26  29
HETATM   29  C   UNL     3     -11.780  13.983  68.702  1.00  0.00    -0.354 C  
HETATM   30  O   UNL     3     -12.246  14.505  67.453  1.00  0.00    -0.589 OA 
HETATM   31  H   UNL     3     -12.182  15.453  67.447  1.00  0.00     0.000 HD 
ENDBRANCH  26  29
ENDBRANCH   4  26
TORSDOF 4
ENDMDL
MODEL       37
REMARK 921   NORMALIZED FREE ENERGY PREDICTED BY IDOCK:   -4.86 KCAL/MOL
REMARK 922        TOTAL FREE ENERGY PREDICTED BY IDOCK:   -6.87 KCAL/MOL
REMARK 923 INTER-LIGAND FREE ENERGY PREDICTED BY IDOCK:   -6.31 KCAL/MOL
REMARK 924 INTRA-LIGAND FREE ENERGY PREDICTED BY IDOCK:   -0.57 KCAL/MOL
REMARK 927      BINDING AFFINITY PREDICTED BY RF-SCORE:    0.00 PKD
ROOT
HETATM    1 ZN   UNL     1     -11.202   9.286  70.213  1.00  0.00    -0.214 Zn 
HETATM    2  C   UNL     2      -9.774  11.910  68.656  1.00  0.00    -0.108 C  
HETATM    3  O   UNL     2      -9.570  13.233  68.090  1.00  0.00    -0.217 OA 
HETATM    4  C   UNL     3     -10.191  12.956  64.888  1.00  0.00    -0.275 C  
HETATM    5  H   UNL     2     -13.281  13.355  70.328  1.00  0.00     0.000 HD 
HETATM    6  O   UNL     3      -9.996  14.285  64.377  1.00  0.00    -0.062 OA 
HETATM    7  O   UNL     3     -13.301  14.541  65.807  1.00  0.00    -0.425 OA 
HETATM    8  C   UNL     3     -11.665  12.882  65.261  1.00  0.00    -0.364 C  
HETATM    9  C   UNL     2     -10.633  14.046  68.380  1.00  0.00    -0.254 C  
HETATM   10  O   UNL     2     -11.352  11.150  70.295  1.00  0.00    -0.268 OA 
HETATM   11  C   UNL     3     -11.104  15.032  64.673  1.00  0.00    -0.321 C  
HETATM   12  C   UNL     2     -11.561  13.282  69.221  1.00  0.00    -0.314 C  
HETATM   13  O   UNL     2     -12.680  13.849  69.784  1.00  0.00    -0.178 OA 
HETATM   14  O   UNL     2     -10.728  15.234  68.116  1.00  0.00    -0.245 OA 
HETATM   15  C   UNL     2     -11.049  12.061  69.482  1.00  0.00    -0.073 C  
HETATM   16  O   UNL     3     -12.169  11.790  65.647  1.00  0.00    -0.289 OA 
HETATM   17  H   UNL     3     -13.955  13.963  66.184  1.00  0.00     0.000 HD 
HETATM   18  C   UNL     3     -12.111  14.142  65.255  1.00  0.00    -0.405 C  
HETATM   19  O   UNL     3     -11.213  16.227  64.416  1.00  0.00    -0.716 OA 
ENDROOT
BRANCH   2  20
HETATM   20  C   UNL     2      -9.677  10.836  67.513  1.00  0.00    -0.166 C  
HETATM   21  O   UNL     2      -8.333  10.326  67.417  1.00  0.00    -0.117 OA 
HETATM   22  H   UNL     2      -8.275   9.677  66.726  1.00  0.00     0.000 HD 
BRANCH  20  23
HETATM   23  C   UNL     2     -10.575   9.594  67.453  1.00  0.00    -0.268 C  
HETATM   24  H   UNL     2     -10.625   7.699  68.180  1.00  0.00     0.000 HD 
HETATM   25  O   UNL     2     -10.069   8.468  68.217  1.00  0.00    -0.179 OA 
ENDBRANCH  20  23
ENDBRANCH   2  20
BRANCH   4  26
HETATM   26  C   UNL     3      -9.479  11.945  63.962  1.00  0.00     0.047 C  
HETATM   27  H   UNL     3      -8.274  10.312  64.082  1.00  0.00     0.000 HD 
HETATM   28  O   UNL     3      -8.712  10.934  64.651  1.00  0.00    -0.140 OA 
BRANCH  26  29
HETATM   29  C   UNL     3     -10.410  11.315  62.929  1.00  0.00    -0.078 C  
HETATM   30  O   UNL     3      -9.793  10.165  62.339  1.00  0.00    -0.677 OA 
HETATM   31  H   UNL     3     -10.373   9.773  61.696  1.00  0.00     0.000 HD 
ENDBRANCH  26  29
ENDBRANCH   4  26
TORSDOF 4
ENDMDL
MODEL       38
REMARK 921   NORMALIZED FREE ENERGY PREDICTED BY IDOCK:   -4.86 KCAL/MOL
REMARK 922        TOTAL FREE ENERGY PREDICTED BY IDOCK:   -6.87 KCAL/MOL
REMARK 923 INTER-LIGAND FREE ENERGY PREDICTED BY IDOCK:   -6.09 KCAL/MOL
REMARK 924 INTRA-LIGAND FREE ENERGY PREDICTED BY IDOCK:   -0.78 KCAL/MOL
REMARK 927      BINDING AFFINITY PREDICTED BY RF-SCORE:    0.00 PKD
ROOT
HETATM    1 ZN   UNL     1      -8.845   7.516  64.532  1.00  0.00    -0.314 Zn 
HETATM    2  C   UNL     2      -8.492   9.640  67.123  1.00  0.00    -0.131 C  
HETATM    3  O   UNL     2      -8.677  10.284  68.412  1.00  0.00    -0.122 OA 
HETATM    4  C   UNL     3     -10.630  12.855  67.872  1.00  0.00    -0.222 C  
HETATM    5  H   UNL     2     -11.003   6.625  68.461  1.00  0.00     0.000 HD 
HETATM    6  O   UNL     3     -10.799  13.445  69.172  1.00  0.00    -0.211 OA 
HETATM    7  O   UNL     3     -13.133  10.695  69.321  1.00  0.00    -0.425 OA 
HETATM    8  C   UNL     3     -11.772  11.858  67.733  1.00  0.00    -0.292 C  
HETATM    9  C   UNL     2      -9.567   9.576  69.176  1.00  0.00    -0.170 C  
HETATM   10  O   UNL     2      -9.105   7.442  66.384  1.00  0.00    -0.152 OA 
HETATM   11  C   UNL     3     -11.720  12.711  69.867  1.00  0.00    -0.250 C  
HETATM   12  C   UNL     2      -9.954   8.382  68.418  1.00  0.00    -0.187 C  
HETATM   13  O   UNL     2     -10.751   7.398  68.952  1.00  0.00    -0.200 OA 
HETATM   14  O   UNL     2      -9.873   9.811  70.334  1.00  0.00    -0.259 OA 
HETATM   15  C   UNL     2      -9.276   8.335  67.252  1.00  0.00    -0.138 C  
HETATM   16  O   UNL     3     -11.954  11.249  66.641  1.00  0.00    -0.197 OA 
HETATM   17  H   UNL     3     -13.498  10.045  68.732  1.00  0.00     0.000 HD 
HETATM   18  C   UNL     3     -12.282  11.708  68.960  1.00  0.00    -0.099 C  
HETATM   19  O   UNL     3     -12.037  12.933  71.032  1.00  0.00    -0.231 OA 
ENDROOT
BRANCH   2  20
HETATM   20  C   UNL     2      -8.820  10.666  65.979  1.00  0.00    -0.175 C  
HETATM   21  O   UNL     2      -7.839  11.721  65.956  1.00  0.00    -0.357 OA 
HETATM   22  H   UNL     2      -8.037  12.341  65.264  1.00  0.00     0.000 HD 
BRANCH  20  23
HETATM   23  C   UNL     2      -8.994  10.257  64.512  1.00  0.00    -0.219 C  
HETATM   24  H   UNL     2     -10.204  10.674  62.934  1.00  0.00     0.000 HD 
HETATM   25  O   UNL     2     -10.096  10.926  63.844  1.00  0.00    -0.309 OA 
ENDBRANCH  20  23
ENDBRANCH   2  20
BRANCH   4  26
HETATM   26  C   UNL     3     -10.318  13.966  66.844  1.00  0.00    -0.266 C  
HETATM   27  H   UNL     3      -8.726  14.977  66.089  1.00  0.00     0.000 HD 
HETATM   28  O   UNL     3      -8.918  14.295  66.720  1.00  0.00    -0.251 OA 
BRANCH  26  29
HETATM   29  C   UNL     3     -10.943  13.712  65.476  1.00  0.00    -0.293 C  
HETATM   30  O   UNL     3      -9.929  13.675  64.464  1.00  0.00    -0.622 OA 
HETATM   31  H   UNL     3     -10.319  13.517  63.613  1.00  0.00     0.000 HD 
ENDBRANCH  26  29
ENDBRANCH   4  26
TORSDOF 4
ENDMDL
MODEL       39
REMARK 921   NORMALIZED FREE ENERGY PREDICTED BY IDOCK:   -4.78 KCAL/MOL
REMARK 922        TOTAL FREE ENERGY PREDICTED BY IDOCK:   -6.77 KCAL/MOL
REMARK 923 INTER-LIGAND FREE ENERGY PREDICTED BY IDOCK:   -5.86 KCAL/MOL
REMARK 924 INTRA-LIGAND FREE ENERGY PREDICTED BY IDOCK:   -0.92 KCAL/MOL
REMARK 927      BINDING AFFINITY PREDICTED BY RF-SCORE:    0.00 PKD
ROOT
HETATM    1 ZN   UNL     1      -5.939   9.678  67.925  1.00  0.00    -0.046 Zn 
HETATM    2  C   UNL     2      -8.742  11.425  68.591  1.00  0.00    -0.121 C  
HETATM    3  O   UNL     2     -10.129  11.857  68.591  1.00  0.00    -0.216 OA 
HETATM    4  C   UNL     3     -10.316  14.311  66.431  1.00  0.00    -0.286 C  
HETATM    5  H   UNL     2      -9.973   8.051  66.519  1.00  0.00     0.000 HD 
HETATM    6  O   UNL     3     -11.702  14.690  66.452  1.00  0.00    -0.369 OA 
HETATM    7  O   UNL     3     -11.788  11.765  64.337  1.00  0.00    -0.283 OA 
HETATM    8  C   UNL     3     -10.205  13.254  65.341  1.00  0.00    -0.293 C  
HETATM    9  C   UNL     2     -10.904  10.976  67.885  1.00  0.00    -0.237 C  
HETATM   10  O   UNL     2      -7.774   9.314  67.988  1.00  0.00    -0.088 OA 
HETATM   11  C   UNL     3     -12.412  13.789  65.705  1.00  0.00    -0.485 C  
HETATM   12  C   UNL     2     -10.040   9.877  67.443  1.00  0.00    -0.205 C  
HETATM   13  O   UNL     2     -10.532   8.763  66.806  1.00  0.00    -0.275 OA 
HETATM   14  O   UNL     2     -12.118  11.014  67.767  1.00  0.00    -0.534 OA 
HETATM   15  C   UNL     2      -8.788  10.055  67.916  1.00  0.00    -0.125 C  
HETATM   16  O   UNL     3      -9.075  12.797  65.011  1.00  0.00     0.585 OA 
HETATM   17  H   UNL     3     -11.169  11.179  63.916  1.00  0.00     0.000 HD 
HETATM   18  C   UNL     3     -11.459  12.886  65.056  1.00  0.00    -0.315 C  
HETATM   19  O   UNL     3     -13.632  13.813  65.579  1.00  0.00    -0.511 OA 
ENDROOT
BRANCH   2  20
HETATM   20  C   UNL     2      -7.840  12.576  68.016  1.00  0.00    -0.147 C  
HETATM   21  O   UNL     2      -7.525  13.529  69.049  1.00  0.00    -0.251 OA 
HETATM   22  H   UNL     2      -6.979  14.225  68.701  1.00  0.00     0.000 HD 
BRANCH  20  23
HETATM   23  C   UNL     2      -6.510  12.318  67.298  1.00  0.00    -0.152 C  
HETATM   24  H   UNL     2      -4.743  13.259  66.954  1.00  0.00     0.000 HD 
HETATM   25  O   UNL     2      -5.567  13.418  67.398  1.00  0.00    -0.346 OA 
ENDBRANCH  20  23
ENDBRANCH   2  20
BRANCH   4  26
HETATM   26  C   UNL     3      -9.439  15.581  66.501  1.00  0.00    -0.273 C  
HETATM   27  H   UNL     3      -8.998  17.224  65.389  1.00  0.00     0.000 HD 
HETATM   28  O   UNL     3      -9.536  16.443  65.347  1.00  0.00    -0.455 OA 
BRANCH  26  29
HETATM   29  C   UNL     3      -9.626  16.371  67.792  1.00  0.00    -0.231 C  
HETATM   30  O   UNL     3      -9.764  15.480  68.905  1.00  0.00    -0.200 OA 
HETATM   31  H   UNL     3      -9.881  15.973  69.709  1.00  0.00     0.000 HD 
ENDBRANCH  26  29
ENDBRANCH   4  26
TORSDOF 4
ENDMDL
MODEL       40
REMARK 921   NORMALIZED FREE ENERGY PREDICTED BY IDOCK:   -4.77 KCAL/MOL
REMARK 922        TOTAL FREE ENERGY PREDICTED BY IDOCK:   -6.77 KCAL/MOL
REMARK 923 INTER-LIGAND FREE ENERGY PREDICTED BY IDOCK:   -6.26 KCAL/MOL
REMARK 924 INTRA-LIGAND FREE ENERGY PREDICTED BY IDOCK:   -0.51 KCAL/MOL
REMARK 927      BINDING AFFINITY PREDICTED BY RF-SCORE:    0.00 PKD
ROOT
HETATM    1 ZN   UNL     1      -7.342   5.135  68.393  1.00  0.00    -0.059 Zn 
HETATM    2  C   UNL     2      -9.964   7.061  67.519  1.00  0.00    -0.156 C  
HETATM    3  O   UNL     2     -10.747   8.176  67.016  1.00  0.00    -0.321 OA 
HETATM    4  C   UNL     3     -11.624   9.926  69.641  1.00  0.00    -0.039 C  
HETATM    5  H   UNL     2      -6.604   8.964  66.010  1.00  0.00     0.000 HD 
HETATM    6  O   UNL     3     -12.376  11.023  69.095  1.00  0.00    -0.451 OA 
HETATM    7  O   UNL     3      -8.985  12.115  68.511  1.00  0.00    -0.287 OA 
HETATM    8  C   UNL     3     -10.183  10.416  69.696  1.00  0.00    -0.209 C  
HETATM    9  C   UNL     2      -9.928   9.127  66.468  1.00  0.00    -0.288 C  
HETATM   10  O   UNL     2      -7.670   6.475  67.129  1.00  0.00    -0.097 OA 
HETATM   11  C   UNL     3     -11.499  11.946  68.595  1.00  0.00    -0.294 C  
HETATM   12  C   UNL     2      -8.552   8.623  66.537  1.00  0.00    -0.116 C  
HETATM   13  O   UNL     2      -7.495   9.290  65.965  1.00  0.00    -0.093 OA 
HETATM   14  O   UNL     2     -10.283  10.143  65.892  1.00  0.00    -0.254 OA 
HETATM   15  C   UNL     2      -8.542   7.379  67.059  1.00  0.00    -0.119 C  
HETATM   16  O   UNL     3      -9.290   9.703  70.234  1.00  0.00    -0.242 OA 
HETATM   17  H   UNL     3      -8.104  11.841  68.742  1.00  0.00     0.000 HD 
HETATM   18  C   UNL     3     -10.142  11.525  68.951  1.00  0.00    -0.127 C  
HETATM   19  O   UNL     3     -11.840  12.970  68.011  1.00  0.00    -0.344 OA 
ENDROOT
BRANCH   2  20
HETATM   20  C   UNL     2     -10.288   6.843  69.040  1.00  0.00    -0.192 C  
HETATM   21  O   UNL     2     -11.658   6.429  69.207  1.00  0.00    -0.611 OA 
HETATM   22  H   UNL     2     -11.854   6.298  70.127  1.00  0.00     0.000 HD 
BRANCH  20  23
HETATM   23  C   UNL     2      -9.481   5.901  69.943  1.00  0.00    -0.150 C  
HETATM   24  H   UNL     2      -9.801   4.410  71.283  1.00  0.00     0.000 HD 
HETATM   25  O   UNL     2     -10.301   4.993  70.725  1.00  0.00    -0.235 OA 
ENDBRANCH  20  23
ENDBRANCH   2  20
BRANCH   4  26
HETATM   26  C   UNL     3     -12.386   9.335  70.848  1.00  0.00    -0.167 C  
HETATM   27  H   UNL     3     -12.113   7.994  72.350  1.00  0.00     0.000 HD 
HETATM   28  O   UNL     3     -11.644   8.357  71.608  1.00  0.00    -0.260 OA 
BRANCH  26  29
HETATM   29  C   UNL     3     -12.983  10.401  71.762  1.00  0.00    -0.475 C  
HETATM   30  O   UNL     3     -13.910   9.807  72.679  1.00  0.00    -0.674 OA 
HETATM   31  H   UNL     3     -14.281  10.471  73.249  1.00  0.00     0.000 HD 
ENDBRANCH  26  29
ENDBRANCH   4  26
TORSDOF 4
ENDMDL
MODEL       41
REMARK 921   NORMALIZED FREE ENERGY PREDICTED BY IDOCK:   -4.76 KCAL/MOL
REMARK 922        TOTAL FREE ENERGY PREDICTED BY IDOCK:   -6.75 KCAL/MOL
REMARK 923 INTER-LIGAND FREE ENERGY PREDICTED BY IDOCK:   -5.90 KCAL/MOL
REMARK 924 INTRA-LIGAND FREE ENERGY PREDICTED BY IDOCK:   -0.84 KCAL/MOL
REMARK 927      BINDING AFFINITY PREDICTED BY RF-SCORE:    0.00 PKD
ROOT
HETATM    1 ZN   UNL     1      -7.660   2.823  70.611  1.00  0.00    -0.037 Zn 
HETATM    2  C   UNL     2      -8.331   5.927  71.737  1.00  0.00    -0.119 C  
HETATM    3  O   UNL     2      -8.962   7.032  72.437  1.00  0.00    -0.129 OA 
HETATM    4  C   UNL     3     -10.925   8.486  70.258  1.00  0.00    -0.235 C  
HETATM    5  H   UNL     2     -10.789   3.380  73.895  1.00  0.00     0.000 HD 
HETATM    6  O   UNL     3     -11.539   9.554  70.998  1.00  0.00    -0.291 OA 
HETATM    7  O   UNL     3     -13.502   6.720  72.067  1.00  0.00    -0.525 OA 
HETATM    8  C   UNL     3     -11.859   7.295  70.425  1.00  0.00    -0.135 C  
HETATM    9  C   UNL     2      -9.958   6.572  73.256  1.00  0.00    -0.185 C  
HETATM   10  O   UNL     2      -8.454   3.564  72.134  1.00  0.00    -0.081 OA 
HETATM   11  C   UNL     3     -12.542   9.032  71.768  1.00  0.00    -0.367 C  
HETATM   12  C   UNL     2      -9.970   5.109  73.164  1.00  0.00    -0.160 C  
HETATM   13  O   UNL     2     -10.781   4.328  73.954  1.00  0.00    -0.219 OA 
HETATM   14  O   UNL     2     -10.621   7.239  74.034  1.00  0.00    -0.313 OA 
HETATM   15  C   UNL     2      -8.972   4.688  72.359  1.00  0.00    -0.125 C  
HETATM   16  O   UNL     3     -11.639   6.222  69.796  1.00  0.00    -0.436 OA 
HETATM   17  H   UNL     3     -13.601   5.802  71.840  1.00  0.00     0.000 HD 
HETATM   18  C   UNL     3     -12.695   7.617  71.417  1.00  0.00    -0.327 C  
HETATM   19  O   UNL     3     -13.215   9.689  72.555  1.00  0.00    -0.378 OA 
ENDROOT
BRANCH   2  20
HETATM   20  C   UNL     2      -8.408   6.182  70.189  1.00  0.00    -0.128 C  
HETATM   21  O   UNL     2      -7.608   7.326  69.829  1.00  0.00    -0.094 OA 
HETATM   22  H   UNL     2      -7.655   7.480  68.893  1.00  0.00     0.000 HD 
BRANCH  20  23
HETATM   23  C   UNL     2      -8.059   5.114  69.145  1.00  0.00    -0.084 C  
HETATM   24  H   UNL     2      -8.904   3.488  68.270  1.00  0.00     0.000 HD 
HETATM   25  O   UNL     2      -9.120   4.149  68.917  1.00  0.00    -0.108 OA 
ENDBRANCH  20  23
ENDBRANCH   2  20
BRANCH   4  26
HETATM   26  C   UNL     3     -10.440   9.023  68.893  1.00  0.00    -0.210 C  
HETATM   27  H   UNL     3     -10.478   8.519  66.925  1.00  0.00     0.000 HD 
HETATM   28  O   UNL     3     -10.776   8.189  67.764  1.00  0.00    -0.194 OA 
BRANCH  26  29
HETATM   29  C   UNL     3     -10.842  10.473  68.641  1.00  0.00    -0.237 C  
HETATM   30  O   UNL     3     -12.250  10.563  68.394  1.00  0.00    -0.787 OA 
HETATM   31  H   UNL     3     -12.500  11.466  68.237  1.00  0.00     0.000 HD 
ENDBRANCH  26  29
ENDBRANCH   4  26
TORSDOF 4
ENDMDL
MODEL       42
REMARK 921   NORMALIZED FREE ENERGY PREDICTED BY IDOCK:   -4.75 KCAL/MOL
REMARK 922        TOTAL FREE ENERGY PREDICTED BY IDOCK:   -6.74 KCAL/MOL
REMARK 923 INTER-LIGAND FREE ENERGY PREDICTED BY IDOCK:   -5.66 KCAL/MOL
REMARK 924 INTRA-LIGAND FREE ENERGY PREDICTED BY IDOCK:   -1.08 KCAL/MOL
REMARK 927      BINDING AFFINITY PREDICTED BY RF-SCORE:    0.00 PKD
ROOT
HETATM    1 ZN   UNL     1     -12.680  13.167  65.603  1.00  0.00    -0.388 Zn 
HETATM    2  C   UNL     2      -9.587  12.052  66.337  1.00  0.00    -0.228 C  
HETATM    3  O   UNL     2      -8.334  11.319  66.272  1.00  0.00    -0.170 OA 
HETATM    4  C   UNL     3      -8.642   8.808  68.350  1.00  0.00    -0.134 C  
HETATM    5  H   UNL     2     -10.496  10.497  62.604  1.00  0.00     0.000 HD 
HETATM    6  O   UNL     3      -7.394   8.105  68.236  1.00  0.00    -0.091 OA 
HETATM    7  O   UNL     3      -9.150   6.931  65.309  1.00  0.00    -0.356 OA 
HETATM    8  C   UNL     3      -9.559   8.168  67.316  1.00  0.00    -0.163 C  
HETATM    9  C   UNL     2      -8.282  10.565  65.130  1.00  0.00    -0.134 C  
HETATM   10  O   UNL     2     -11.234  12.468  64.643  1.00  0.00    -0.292 OA 
HETATM   11  C   UNL     3      -7.421   7.350  67.095  1.00  0.00    -0.106 C  
HETATM   12  C   UNL     2      -9.501  10.836  64.361  1.00  0.00    -0.256 C  
HETATM   13  O   UNL     2      -9.707  10.322  63.102  1.00  0.00    -0.301 OA 
HETATM   14  O   UNL     2      -7.334   9.900  64.745  1.00  0.00    -0.125 OA 
HETATM   15  C   UNL     2     -10.245  11.771  64.988  1.00  0.00    -0.272 C  
HETATM   16  O   UNL     3     -10.773   8.508  67.248  1.00  0.00    -0.279 OA 
HETATM   17  H   UNL     3     -10.024   6.987  64.939  1.00  0.00     0.000 HD 
HETATM   18  C   UNL     3      -8.767   7.437  66.524  1.00  0.00    -0.140 C  
HETATM   19  O   UNL     3      -6.476   6.679  66.694  1.00  0.00    -0.040 OA 
ENDROOT
BRANCH   2  20
HETATM   20  C   UNL     2     -10.323  11.703  67.680  1.00  0.00    -0.189 C  
HETATM   21  O   UNL     2      -9.551  12.160  68.809  1.00  0.00    -0.384 OA 
HETATM   22  H   UNL     2      -9.997  11.948  69.621  1.00  0.00     0.000 HD 
BRANCH  20  23
HETATM   23  C   UNL     2     -11.762  12.137  67.985  1.00  0.00    -0.344 C  
HETATM   24  H   UNL     2     -12.831  13.847  68.228  1.00  0.00     0.000 HD 
HETATM   25  O   UNL     2     -11.939  13.578  68.040  1.00  0.00    -0.355 OA 
ENDBRANCH  20  23
ENDBRANCH   2  20
BRANCH   4  26
HETATM   26  C   UNL     3      -9.000   8.973  69.844  1.00  0.00    -0.164 C  
HETATM   27  H   UNL     3      -9.907   7.944  71.344  1.00  0.00     0.000 HD 
HETATM   28  O   UNL     3      -9.687   7.844  70.426  1.00  0.00    -0.178 OA 
BRANCH  26  29
HETATM   29  C   UNL     3      -7.813   9.393  70.704  1.00  0.00    -0.151 C  
HETATM   30  O   UNL     3      -7.270  10.632  70.232  1.00  0.00    -0.424 OA 
HETATM   31  H   UNL     3      -6.531  10.894  70.768  1.00  0.00     0.000 HD 
ENDBRANCH  26  29
ENDBRANCH   4  26
TORSDOF 4
ENDMDL
MODEL       43
REMARK 921   NORMALIZED FREE ENERGY PREDICTED BY IDOCK:   -4.65 KCAL/MOL
REMARK 922        TOTAL FREE ENERGY PREDICTED BY IDOCK:   -6.62 KCAL/MOL
REMARK 923 INTER-LIGAND FREE ENERGY PREDICTED BY IDOCK:   -5.83 KCAL/MOL
REMARK 924 INTRA-LIGAND FREE ENERGY PREDICTED BY IDOCK:   -0.79 KCAL/MOL
REMARK 927      BINDING AFFINITY PREDICTED BY RF-SCORE:    0.00 PKD
ROOT
HETATM    1 ZN   UNL     1      -5.276   6.529  69.880  1.00  0.00    -0.010 Zn 
HETATM    2  C   UNL     2      -7.414   8.414  71.676  1.00  0.00    -0.101 C  
HETATM    3  O   UNL     2      -8.524   8.807  72.526  1.00  0.00    -0.403 OA 
HETATM    4  C   UNL     3     -10.891   9.834  70.510  1.00  0.00    -0.323 C  
HETATM    5  H   UNL     2      -8.360   4.475  72.555  1.00  0.00     0.000 HD 
HETATM    6  O   UNL     3     -11.969  10.192  71.390  1.00  0.00    -0.369 OA 
HETATM    7  O   UNL     3     -12.314   6.601  71.253  1.00  0.00    -0.352 OA 
HETATM    8  C   UNL     3     -11.123   8.369  70.166  1.00  0.00    -0.182 C  
HETATM    9  C   UNL     2      -9.188   7.702  72.987  1.00  0.00    -0.201 C  
HETATM   10  O   UNL     2      -6.371   6.274  71.375  1.00  0.00    -0.046 OA 
HETATM   11  C   UNL     3     -12.606   9.048  71.786  1.00  0.00    -0.367 C  
HETATM   12  C   UNL     2      -8.477   6.518  72.494  1.00  0.00    -0.121 C  
HETATM   13  O   UNL     2      -8.820   5.242  72.874  1.00  0.00    -0.122 OA 
HETATM   14  O   UNL     2     -10.113   7.693  73.783  1.00  0.00    -0.293 OA 
HETATM   15  C   UNL     2      -7.380   6.892  71.802  1.00  0.00    -0.084 C  
HETATM   16  O   UNL     3     -10.388   7.792  69.317  1.00  0.00    -0.211 OA 
HETATM   17  H   UNL     3     -11.944   5.873  70.767  1.00  0.00     0.000 HD 
HETATM   18  C   UNL     3     -12.036   7.926  71.037  1.00  0.00    -0.252 C  
HETATM   19  O   UNL     3     -13.536   9.023  72.587  1.00  0.00    -0.463 OA 
ENDROOT
BRANCH   2  20
HETATM   20  C   UNL     2      -7.565   9.102  70.272  1.00  0.00    -0.108 C  
HETATM   21  O   UNL     2      -7.450  10.533  70.400  1.00  0.00    -0.452 OA 
HETATM   22  H   UNL     2      -7.542  10.949  69.551  1.00  0.00     0.000 HD 
BRANCH  20  23
HETATM   23  C   UNL     2      -6.691   8.743  69.064  1.00  0.00    -0.052 C  
HETATM   24  H   UNL     2      -6.601   7.345  67.594  1.00  0.00     0.000 HD 
HETATM   25  O   UNL     2      -7.142   7.567  68.343  1.00  0.00    -0.076 OA 
ENDBRANCH  20  23
ENDBRANCH   2  20
BRANCH   4  26
HETATM   26  C   UNL     3     -10.696  10.951  69.460  1.00  0.00    -0.206 C  
HETATM   27  H   UNL     3      -9.674  11.303  67.740  1.00  0.00     0.000 HD 
HETATM   28  O   UNL     3      -9.793  10.616  68.385  1.00  0.00    -0.151 OA 
BRANCH  26  29
HETATM   29  C   UNL     3     -12.012  11.503  68.919  1.00  0.00    -0.299 C  
HETATM   30  O   UNL     3     -12.036  11.416  67.489  1.00  0.00    -0.592 OA 
HETATM   31  H   UNL     3     -12.855  11.760  67.152  1.00  0.00     0.000 HD 
ENDBRANCH  26  29
ENDBRANCH   4  26
TORSDOF 4
ENDMDL
MODEL       44
REMARK 921   NORMALIZED FREE ENERGY PREDICTED BY IDOCK:   -4.65 KCAL/MOL
REMARK 922        TOTAL FREE ENERGY PREDICTED BY IDOCK:   -6.62 KCAL/MOL
REMARK 923 INTER-LIGAND FREE ENERGY PREDICTED BY IDOCK:   -6.06 KCAL/MOL
REMARK 924 INTRA-LIGAND FREE ENERGY PREDICTED BY IDOCK:   -0.56 KCAL/MOL
REMARK 927      BINDING AFFINITY PREDICTED BY RF-SCORE:    0.00 PKD
ROOT
HETATM    1 ZN   UNL     1     -10.583  15.696  67.492  1.00  0.00    -0.248 Zn 
HETATM    2  C   UNL     2     -11.858  12.577  67.539  1.00  0.00    -0.323 C  
HETATM    3  O   UNL     2     -12.355  11.299  68.017  1.00  0.00    -0.432 OA 
HETATM    4  C   UNL     3      -9.863   9.194  67.741  1.00  0.00    -0.174 C  
HETATM    5  H   UNL     2     -11.793  13.836  71.488  1.00  0.00     0.000 HD 
HETATM    6  O   UNL     3     -10.394   7.956  68.242  1.00  0.00    -0.199 OA 
HETATM    7  O   UNL     3      -9.623   9.700  71.308  1.00  0.00    -0.290 OA 
HETATM    8  C   UNL     3      -9.249   9.886  68.951  1.00  0.00    -0.160 C  
HETATM    9  C   UNL     2     -12.410  11.290  69.386  1.00  0.00    -0.149 C  
HETATM   10  O   UNL     2     -11.594  14.668  68.686  1.00  0.00    -0.284 OA 
HETATM   11  C   UNL     3     -10.391   8.002  69.610  1.00  0.00    -0.220 C  
HETATM   12  C   UNL     2     -12.001  12.617  69.857  1.00  0.00    -0.295 C  
HETATM   13  O   UNL     2     -12.058  12.977  71.183  1.00  0.00    -0.174 OA 
HETATM   14  O   UNL     2     -12.857  10.395  70.086  1.00  0.00    -0.235 OA 
HETATM   15  C   UNL     2     -11.761  13.427  68.804  1.00  0.00    -0.340 C  
HETATM   16  O   UNL     3      -8.605  10.962  68.809  1.00  0.00    -0.152 OA 
HETATM   17  H   UNL     3      -9.179  10.496  71.576  1.00  0.00     0.000 HD 
HETATM   18  C   UNL     3      -9.706   9.229  70.023  1.00  0.00    -0.207 C  
HETATM   19  O   UNL     3     -10.838   7.112  70.326  1.00  0.00    -0.235 OA 
ENDROOT
BRANCH   2  20
HETATM   20  C   UNL     2     -10.598  12.337  66.632  1.00  0.00    -0.229 C  
HETATM   21  O   UNL     2     -10.959  11.575  65.464  1.00  0.00    -0.284 OA 
HETATM   22  H   UNL     2     -10.196  11.430  64.916  1.00  0.00     0.000 HD 
BRANCH  20  23
HETATM   23  C   UNL     2      -9.717  13.476  66.103  1.00  0.00    -0.252 C  
HETATM   24  H   UNL     2      -9.677  14.796  64.560  1.00  0.00     0.000 HD 
HETATM   25  O   UNL     2     -10.222  14.091  64.888  1.00  0.00    -0.405 OA 
ENDBRANCH  20  23
ENDBRANCH   2  20
BRANCH   4  26
HETATM   26  C   UNL     3      -9.109   8.929  66.419  1.00  0.00    -0.174 C  
HETATM   27  H   UNL     3      -7.778   9.839  65.183  1.00  0.00     0.000 HD 
HETATM   28  O   UNL     3      -8.241  10.002  65.995  1.00  0.00    -0.120 OA 
BRANCH  26  29
HETATM   29  C   UNL     3      -8.373   7.592  66.404  1.00  0.00    -0.126 C  
HETATM   30  O   UNL     3      -8.999   6.690  65.484  1.00  0.00    -0.349 OA 
HETATM   31  H   UNL     3      -8.541   5.857  65.475  1.00  0.00     0.000 HD 
ENDBRANCH  26  29
ENDBRANCH   4  26
TORSDOF 4
ENDMDL
MODEL       45
REMARK 921   NORMALIZED FREE ENERGY PREDICTED BY IDOCK:   -4.64 KCAL/MOL
REMARK 922        TOTAL FREE ENERGY PREDICTED BY IDOCK:   -6.60 KCAL/MOL
REMARK 923 INTER-LIGAND FREE ENERGY PREDICTED BY IDOCK:   -5.78 KCAL/MOL
REMARK 924 INTRA-LIGAND FREE ENERGY PREDICTED BY IDOCK:   -0.82 KCAL/MOL
REMARK 927      BINDING AFFINITY PREDICTED BY RF-SCORE:    0.00 PKD
ROOT
HETATM    1 ZN   UNL     1     -12.242  11.031  68.872  1.00  0.00    -0.271 Zn 
HETATM    2  C   UNL     2     -10.024  12.846  67.101  1.00  0.00    -0.240 C  
HETATM    3  O   UNL     2      -8.779  13.449  66.657  1.00  0.00    -0.136 OA 
HETATM    4  C   UNL     3      -8.741  16.477  67.902  1.00  0.00    -0.188 C  
HETATM    5  H   UNL     2      -7.778  10.556  69.727  1.00  0.00     0.000 HD 
HETATM    6  O   UNL     3      -7.489  17.023  67.455  1.00  0.00    -0.151 OA 
HETATM    7  O   UNL     3      -6.431  15.002  70.252  1.00  0.00    -0.159 OA 
HETATM    8  C   UNL     3      -8.439  15.833  69.249  1.00  0.00    -0.258 C  
HETATM    9  C   UNL     2      -7.727  12.970  67.391  1.00  0.00    -0.155 C  
HETATM   10  O   UNL     2     -10.411  10.936  68.500  1.00  0.00    -0.171 OA 
HETATM   11  C   UNL     3      -6.489  16.530  68.248  1.00  0.00    -0.135 C  
HETATM   12  C   UNL     2      -8.254  11.966  68.321  1.00  0.00    -0.157 C  
HETATM   13  O   UNL     2      -7.437  11.207  69.125  1.00  0.00    -0.123 OA 
HETATM   14  O   UNL     2      -6.546  13.220  67.212  1.00  0.00    -0.218 OA 
HETATM   15  C   UNL     2      -9.577  11.797  68.117  1.00  0.00    -0.193 C  
HETATM   16  O   UNL     3      -9.375  15.352  69.948  1.00  0.00    -0.217 OA 
HETATM   17  H   UNL     3      -6.832  14.505  70.957  1.00  0.00     0.000 HD 
HETATM   18  C   UNL     3      -7.106  15.764  69.334  1.00  0.00    -0.209 C  
HETATM   19  O   UNL     3      -5.298  16.770  68.078  1.00  0.00    -0.110 OA 
ENDROOT
BRANCH   2  20
HETATM   20  C   UNL     2     -11.034  13.980  67.506  1.00  0.00    -0.277 C  
HETATM   21  O   UNL     2     -11.818  14.383  66.366  1.00  0.00    -0.384 OA 
HETATM   22  H   UNL     2     -12.428  15.068  66.611  1.00  0.00     0.000 HD 
BRANCH  20  23
HETATM   23  C   UNL     2     -12.047  13.831  68.647  1.00  0.00    -0.298 C  
HETATM   24  H   UNL     2     -12.882  14.957  70.116  1.00  0.00     0.000 HD 
HETATM   25  O   UNL     2     -12.255  15.049  69.410  1.00  0.00    -0.270 OA 
ENDBRANCH  20  23
ENDBRANCH   2  20
BRANCH   4  26
HETATM   26  C   UNL     3      -9.863  17.513  67.668  1.00  0.00    -0.291 C  
HETATM   27  H   UNL     3     -10.247  19.482  67.990  1.00  0.00     0.000 HD 
HETATM   28  O   UNL     3      -9.558  18.845  68.134  1.00  0.00    -0.308 OA 
BRANCH  26  29
HETATM   29  C   UNL     3     -10.367  17.538  66.228  1.00  0.00    -0.335 C  
HETATM   30  O   UNL     3      -9.886  16.394  65.513  1.00  0.00    -0.522 OA 
HETATM   31  H   UNL     3     -10.200  16.410  64.616  1.00  0.00     0.000 HD 
ENDBRANCH  26  29
ENDBRANCH   4  26
TORSDOF 4
ENDMDL
MODEL       46
REMARK 921   NORMALIZED FREE ENERGY PREDICTED BY IDOCK:   -4.60 KCAL/MOL
REMARK 922        TOTAL FREE ENERGY PREDICTED BY IDOCK:   -6.55 KCAL/MOL
REMARK 923 INTER-LIGAND FREE ENERGY PREDICTED BY IDOCK:   -5.36 KCAL/MOL
REMARK 924 INTRA-LIGAND FREE ENERGY PREDICTED BY IDOCK:   -1.19 KCAL/MOL
REMARK 927      BINDING AFFINITY PREDICTED BY RF-SCORE:    0.00 PKD
ROOT
HETATM    1 ZN   UNL     1     -11.654   4.545  72.035  1.00  0.00     0.013 Zn 
HETATM    2  C   UNL     2     -10.459   7.695  72.085  1.00  0.00    -0.221 C  
HETATM    3  O   UNL     2     -10.363   9.135  71.922  1.00  0.00    -0.335 OA 
HETATM    4  C   UNL     3      -8.726   9.629  69.131  1.00  0.00    -0.151 C  
HETATM    5  H   UNL     2     -14.466   8.018  71.073  1.00  0.00     0.000 HD 
HETATM    6  O   UNL     3      -8.675  11.060  69.004  1.00  0.00    -0.147 OA 
HETATM    7  O   UNL     3     -12.021  10.355  67.847  1.00  0.00    -0.627 OA 
HETATM    8  C   UNL     3      -9.996   9.207  68.405  1.00  0.00    -0.181 C  
HETATM    9  C   UNL     2     -11.558   9.647  71.490  1.00  0.00    -0.381 C  
HETATM   10  O   UNL     2     -12.383   6.264  72.157  1.00  0.00    -0.315 OA 
HETATM   11  C   UNL     3      -9.884  11.500  68.540  1.00  0.00    -0.195 C  
HETATM   12  C   UNL     2     -12.516   8.540  71.414  1.00  0.00    -0.297 C  
HETATM   13  O   UNL     2     -13.845   8.735  71.122  1.00  0.00    -0.219 OA 
HETATM   14  O   UNL     2     -11.825  10.828  71.335  1.00  0.00    -0.206 OA 
HETATM   15  C   UNL     2     -11.937   7.398  71.844  1.00  0.00    -0.302 C  
HETATM   16  O   UNL     3     -10.265   7.983  68.253  1.00  0.00    -0.194 OA 
HETATM   17  H   UNL     3     -12.549   9.595  67.632  1.00  0.00     0.000 HD 
HETATM   18  C   UNL     3     -10.699  10.328  68.210  1.00  0.00    -0.237 C  
HETATM   19  O   UNL     3     -10.168  12.683  68.382  1.00  0.00    -0.230 OA 
ENDROOT
BRANCH   2  20
HETATM   20  C   UNL     2      -9.347   7.000  71.218  1.00  0.00    -0.160 C  
HETATM   21  O   UNL     2      -8.038   7.358  71.702  1.00  0.00    -0.098 OA 
HETATM   22  H   UNL     2      -7.366   6.939  71.178  1.00  0.00     0.000 HD 
BRANCH  20  23
HETATM   23  C   UNL     2      -9.284   5.485  70.995  1.00  0.00    -0.148 C  
HETATM   24  H   UNL     2     -10.179   4.061  69.856  1.00  0.00     0.000 HD 
HETATM   25  O   UNL     2     -10.219   5.000  69.995  1.00  0.00    -0.257 OA 
ENDBRANCH  20  23
ENDBRANCH   2  20
BRANCH   4  26
HETATM   26  C   UNL     3      -7.327   9.040  68.844  1.00  0.00    -0.074 C  
HETATM   27  H   UNL     3      -6.137   8.567  67.266  1.00  0.00     0.000 HD 
HETATM   28  O   UNL     3      -6.997   8.929  67.442  1.00  0.00    -0.073 OA 
BRANCH  26  29
HETATM   29  C   UNL     3      -6.211   9.740  69.614  1.00  0.00    -0.045 C  
HETATM   30  O   UNL     3      -6.586   9.912  70.986  1.00  0.00    -0.277 OA 
HETATM   31  H   UNL     3      -5.891  10.348  71.466  1.00  0.00     0.000 HD 
ENDBRANCH  26  29
ENDBRANCH   4  26
TORSDOF 4
ENDMDL
MODEL       47
REMARK 921   NORMALIZED FREE ENERGY PREDICTED BY IDOCK:   -4.59 KCAL/MOL
REMARK 922        TOTAL FREE ENERGY PREDICTED BY IDOCK:   -6.54 KCAL/MOL
REMARK 923 INTER-LIGAND FREE ENERGY PREDICTED BY IDOCK:   -5.31 KCAL/MOL
REMARK 924 INTRA-LIGAND FREE ENERGY PREDICTED BY IDOCK:   -1.24 KCAL/MOL
REMARK 927      BINDING AFFINITY PREDICTED BY RF-SCORE:    0.00 PKD
ROOT
HETATM    1 ZN   UNL     1     -13.559   9.730  70.309  1.00  0.00    -0.546 Zn 
HETATM    2  C   UNL     2     -10.420  10.541  69.391  1.00  0.00    -0.240 C  
HETATM    3  O   UNL     2      -9.293  11.019  68.608  1.00  0.00    -0.183 OA 
HETATM    4  C   UNL     3      -7.924   8.363  67.271  1.00  0.00    -0.105 C  
HETATM    5  H   UNL     2     -12.898  12.090  66.451  1.00  0.00     0.000 HD 
HETATM    6  O   UNL     3      -6.833   8.885  66.495  1.00  0.00    -0.076 OA 
HETATM    7  O   UNL     3      -9.635   9.518  64.309  1.00  0.00    -0.401 OA 
HETATM    8  C   UNL     3      -9.112   8.328  66.319  1.00  0.00    -0.188 C  
HETATM    9  C   UNL     2      -9.728  11.573  67.434  1.00  0.00    -0.179 C  
HETATM   10  O   UNL     2     -12.768  10.976  69.158  1.00  0.00    -0.277 OA 
HETATM   11  C   UNL     3      -7.332   9.392  65.326  1.00  0.00    -0.096 C  
HETATM   12  C   UNL     2     -11.194  11.532  67.438  1.00  0.00    -0.304 C  
HETATM   13  O   UNL     2     -11.949  12.116  66.449  1.00  0.00    -0.611 OA 
HETATM   14  O   UNL     2      -9.036  12.133  66.598  1.00  0.00    -0.201 OA 
HETATM   15  C   UNL     2     -11.639  11.022  68.605  1.00  0.00    -0.316 C  
HETATM   16  O   UNL     3     -10.205   7.813  66.686  1.00  0.00    -0.269 OA 
HETATM   17  H   UNL     3     -10.561   9.305  64.266  1.00  0.00     0.000 HD 
HETATM   18  C   UNL     3      -8.758   9.064  65.260  1.00  0.00    -0.193 C  
HETATM   19  O   UNL     3      -6.650   9.959  64.479  1.00  0.00    -0.111 OA 
ENDROOT
BRANCH   2  20
HETATM   20  C   UNL     2     -10.220   9.016  69.711  1.00  0.00    -0.205 C  
HETATM   21  O   UNL     2      -9.137   8.838  70.645  1.00  0.00    -0.155 OA 
HETATM   22  H   UNL     2      -9.016   7.916  70.838  1.00  0.00     0.000 HD 
BRANCH  20  23
HETATM   23  C   UNL     2     -11.344   8.115  70.236  1.00  0.00    -0.132 C  
HETATM   24  H   UNL     2     -12.561   7.963  71.855  1.00  0.00     0.000 HD 
HETATM   25  O   UNL     2     -11.864   8.520  71.530  1.00  0.00    -0.273 OA 
ENDBRANCH  20  23
ENDBRANCH   2  20
BRANCH   4  26
HETATM   26  C   UNL     3      -7.433   7.148  68.090  1.00  0.00    -0.099 C  
HETATM   27  H   UNL     3      -6.744   5.259  67.801  1.00  0.00     0.000 HD 
HETATM   28  O   UNL     3      -7.046   6.005  67.298  1.00  0.00    -0.067 OA 
BRANCH  26  29
HETATM   29  C   UNL     3      -6.348   7.505  69.102  1.00  0.00    -0.035 C  
HETATM   30  O   UNL     3      -6.508   8.858  69.546  1.00  0.00    -0.042 OA 
HETATM   31  H   UNL     3      -5.832   9.079  70.177  1.00  0.00     0.000 HD 
ENDBRANCH  26  29
ENDBRANCH   4  26
TORSDOF 4
ENDMDL
MODEL       48
REMARK 921   NORMALIZED FREE ENERGY PREDICTED BY IDOCK:   -4.52 KCAL/MOL
REMARK 922        TOTAL FREE ENERGY PREDICTED BY IDOCK:   -6.46 KCAL/MOL
REMARK 923 INTER-LIGAND FREE ENERGY PREDICTED BY IDOCK:   -5.81 KCAL/MOL
REMARK 924 INTRA-LIGAND FREE ENERGY PREDICTED BY IDOCK:   -0.65 KCAL/MOL
REMARK 927      BINDING AFFINITY PREDICTED BY RF-SCORE:    0.00 PKD
ROOT
HETATM    1 ZN   UNL     1     -12.329  12.430  64.771  1.00  0.00    -0.345 Zn 
HETATM    2  C   UNL     2     -11.460  14.570  67.223  1.00  0.00    -0.365 C  
HETATM    3  O   UNL     2     -10.990  15.760  67.912  1.00  0.00    -0.308 OA 
HETATM    4  C   UNL     3      -7.857  15.194  68.670  1.00  0.00    -0.140 C  
HETATM    5  H   UNL     2     -11.353  16.767  63.710  1.00  0.00     0.000 HD 
HETATM    6  O   UNL     3      -7.433  16.400  69.328  1.00  0.00    -0.236 OA 
HETATM    7  O   UNL     3      -7.245  17.370  65.856  1.00  0.00    -0.344 OA 
HETATM    8  C   UNL     3      -7.544  15.410  67.196  1.00  0.00    -0.203 C  
HETATM    9  C   UNL     2     -10.750  16.766  67.014  1.00  0.00    -0.161 C  
HETATM   10  O   UNL     2     -12.262  14.288  64.980  1.00  0.00    -0.402 OA 
HETATM   11  C   UNL     3      -7.180  17.350  68.376  1.00  0.00    -0.223 C  
HETATM   12  C   UNL     2     -11.123  16.276  65.684  1.00  0.00     0.012 C  
HETATM   13  O   UNL     2     -11.112  17.084  64.572  1.00  0.00    -1.098 OA 
HETATM   14  O   UNL     2     -10.424  17.912  67.282  1.00  0.00    -0.363 OA 
HETATM   15  C   UNL     2     -11.632  15.029  65.777  1.00  0.00    -0.171 C  
HETATM   16  O   UNL     3      -7.710  14.472  66.367  1.00  0.00     0.647 OA 
HETATM   17  H   UNL     3      -7.317  16.959  65.002  1.00  0.00     0.000 HD 
HETATM   18  C   UNL     3      -7.292  16.716  67.060  1.00  0.00    -0.206 C  
HETATM   19  O   UNL     3      -6.854  18.505  68.630  1.00  0.00    -0.246 OA 
ENDROOT
BRANCH   2  20
HETATM   20  C   UNL     2     -10.521  13.361  67.578  1.00  0.00    -0.236 C  
HETATM   21  O   UNL     2     -10.528  13.121  68.999  1.00  0.00    -0.409 OA 
HETATM   22  H   UNL     2      -9.960  12.390  69.213  1.00  0.00     0.000 HD 
BRANCH  20  23
HETATM   23  C   UNL     2     -10.665  11.973  66.943  1.00  0.00    -0.244 C  
HETATM   24  H   UNL     2     -11.809  10.306  67.139  1.00  0.00     0.000 HD 
HETATM   25  O   UNL     2     -11.719  11.166  67.533  1.00  0.00    -0.574 OA 
ENDBRANCH  20  23
ENDBRANCH   2  20
BRANCH   4  26
HETATM   26  C   UNL     3      -7.381  13.973  69.488  1.00  0.00     0.154 C  
HETATM   27  H   UNL     3      -7.093  11.974  69.266  1.00  0.00     0.000 HD 
HETATM   28  O   UNL     3      -7.385  12.724  68.763  1.00  0.00    -0.109 OA 
BRANCH  26  29
HETATM   29  C   UNL     3      -6.041  14.198  70.181  1.00  0.00    -0.158 C  
HETATM   30  O   UNL     3      -6.245  14.586  71.546  1.00  0.00    -0.081 OA 
HETATM   31  H   UNL     3      -5.410  14.727  71.977  1.00  0.00     0.000 HD 
ENDBRANCH  26  29
ENDBRANCH   4  26
TORSDOF 4
ENDMDL
MODEL       49
REMARK 921   NORMALIZED FREE ENERGY PREDICTED BY IDOCK:   -4.48 KCAL/MOL
REMARK 922        TOTAL FREE ENERGY PREDICTED BY IDOCK:   -6.40 KCAL/MOL
REMARK 923 INTER-LIGAND FREE ENERGY PREDICTED BY IDOCK:   -6.06 KCAL/MOL
REMARK 924 INTRA-LIGAND FREE ENERGY PREDICTED BY IDOCK:   -0.34 KCAL/MOL
REMARK 927      BINDING AFFINITY PREDICTED BY RF-SCORE:    0.00 PKD
ROOT
HETATM    1 ZN   UNL     1     -11.784  17.503  71.963  1.00  0.00    -0.617 Zn 
HETATM    2  C   UNL     2     -11.973  15.827  69.046  1.00  0.00    -0.278 C  
HETATM    3  O   UNL     2     -12.017  14.743  68.080  1.00  0.00    -0.316 OA 
HETATM    4  C   UNL     3      -8.981  14.464  66.888  1.00  0.00    -0.243 C  
HETATM    5  H   UNL     2     -12.245  12.957  72.024  1.00  0.00     0.000 HD 
HETATM    6  O   UNL     3      -9.070  13.372  65.957  1.00  0.00     0.017 OA 
HETATM    7  O   UNL     3      -8.851  11.616  69.104  1.00  0.00    -0.370 OA 
HETATM    8  C   UNL     3      -8.603  13.826  68.218  1.00  0.00    -0.175 C  
HETATM    9  C   UNL     2     -12.040  13.533  68.721  1.00  0.00    -0.270 C  
HETATM   10  O   UNL     2     -12.382  15.818  71.410  1.00  0.00    -0.394 OA 
HETATM   11  C   UNL     3      -9.056  12.198  66.659  1.00  0.00    -0.206 C  
HETATM   12  C   UNL     2     -12.077  13.794  70.164  1.00  0.00    -0.359 C  
HETATM   13  O   UNL     2     -12.222  12.788  71.090  1.00  0.00    -0.247 OA 
HETATM   14  O   UNL     2     -12.158  12.438  68.195  1.00  0.00    -0.362 OA 
HETATM   15  C   UNL     2     -12.134  15.123  70.392  1.00  0.00    -0.328 C  
HETATM   16  O   UNL     3      -8.347  14.551  69.220  1.00  0.00    -0.055 OA 
HETATM   17  H   UNL     3      -8.685  11.821  70.017  1.00  0.00     0.000 HD 
HETATM   18  C   UNL     3      -8.801  12.512  68.067  1.00  0.00    -0.187 C  
HETATM   19  O   UNL     3      -9.176  11.090  66.145  1.00  0.00    -0.177 OA 
ENDROOT
BRANCH   2  20
HETATM   20  C   UNL     2     -10.721  16.730  68.755  1.00  0.00    -0.341 C  
HETATM   21  O   UNL     2     -10.876  17.412  67.495  1.00  0.00    -0.315 OA 
HETATM   22  H   UNL     2     -10.119  17.958  67.319  1.00  0.00     0.000 HD 
BRANCH  20  23
HETATM   23  C   UNL     2     -10.220  17.807  69.725  1.00  0.00     0.465 C  
HETATM   24  H   UNL     2      -9.747  19.782  69.717  1.00  0.00     0.000 HD 
HETATM   25  O   UNL     2     -10.057  19.115  69.116  1.00  0.00    -0.383 OA 
ENDBRANCH  20  23
ENDBRANCH   2  20
BRANCH   4  26
HETATM   26  C   UNL     3      -8.207  15.630  66.234  1.00  0.00     0.064 C  
HETATM   27  H   UNL     3      -8.565  17.342  65.200  1.00  0.00     0.000 HD 
HETATM   28  O   UNL     3      -9.041  16.625  65.602  1.00  0.00    -0.477 OA 
BRANCH  26  29
HETATM   29  C   UNL     3      -7.195  16.280  67.172  1.00  0.00    -0.208 C  
HETATM   30  O   UNL     3      -5.928  15.617  67.073  1.00  0.00    -0.295 OA 
HETATM   31  H   UNL     3      -5.298  16.022  67.657  1.00  0.00     0.000 HD 
ENDBRANCH  26  29
ENDBRANCH   4  26
TORSDOF 4
ENDMDL
MODEL       50
REMARK 921   NORMALIZED FREE ENERGY PREDICTED BY IDOCK:   -4.45 KCAL/MOL
REMARK 922        TOTAL FREE ENERGY PREDICTED BY IDOCK:   -6.37 KCAL/MOL
REMARK 923 INTER-LIGAND FREE ENERGY PREDICTED BY IDOCK:   -5.17 KCAL/MOL
REMARK 924 INTRA-LIGAND FREE ENERGY PREDICTED BY IDOCK:   -1.20 KCAL/MOL
REMARK 927      BINDING AFFINITY PREDICTED BY RF-SCORE:    0.00 PKD
ROOT
HETATM    1 ZN   UNL     1      -9.450  11.729  69.295  1.00  0.00    -0.321 Zn 
HETATM    2  C   UNL     2     -10.635   8.579  69.458  1.00  0.00    -0.211 C  
HETATM    3  O   UNL     2     -11.337   7.393  69.917  1.00  0.00    -0.195 OA 
HETATM    4  C   UNL     3      -9.112   5.565  71.475  1.00  0.00    -0.139 C  
HETATM    5  H   UNL     2     -12.599  10.686  72.439  1.00  0.00     0.000 HD 
HETATM    6  O   UNL     3      -9.854   4.419  71.925  1.00  0.00    -0.164 OA 
HETATM    7  O   UNL     3     -10.746   6.877  74.415  1.00  0.00    -0.468 OA 
HETATM    8  C   UNL     3      -9.200   6.572  72.614  1.00  0.00    -0.137 C  
HETATM    9  C   UNL     2     -12.094   7.683  71.020  1.00  0.00    -0.258 C  
HETATM   10  O   UNL     2     -10.956  10.889  70.021  1.00  0.00    -0.248 OA 
HETATM   11  C   UNL     3     -10.560   4.769  73.043  1.00  0.00    -0.218 C  
HETATM   12  C   UNL     2     -11.959   9.119  71.288  1.00  0.00    -0.325 C  
HETATM   13  O   UNL     2     -12.686   9.757  72.265  1.00  0.00    -0.342 OA 
HETATM   14  O   UNL     2     -12.859   6.924  71.593  1.00  0.00    -0.373 OA 
HETATM   15  C   UNL     2     -11.189   9.695  70.341  1.00  0.00    -0.283 C  
HETATM   16  O   UNL     3      -8.550   7.654  72.556  1.00  0.00    -0.111 OA 
HETATM   17  H   UNL     3     -10.487   7.757  74.664  1.00  0.00     0.000 HD 
HETATM   18  C   UNL     3     -10.161   6.125  73.428  1.00  0.00    -0.217 C  
HETATM   19  O   UNL     3     -11.335   4.018  73.628  1.00  0.00    -0.244 OA 
ENDROOT
BRANCH   2  20
HETATM   20  C   UNL     2      -9.093   8.282  69.408  1.00  0.00    -0.154 C  
HETATM   21  O   UNL     2      -8.807   7.279  68.414  1.00  0.00    -0.129 OA 
HETATM   22  H   UNL     2      -7.875   7.099  68.385  1.00  0.00     0.000 HD 
BRANCH  20  23
HETATM   23  C   UNL     2      -8.037   9.371  69.184  1.00  0.00    -0.107 C  
HETATM   24  H   UNL     2      -7.113  10.852  70.222  1.00  0.00     0.000 HD 
HETATM   25  O   UNL     2      -7.767  10.178  70.361  1.00  0.00    -0.230 OA 
ENDBRANCH  20  23
ENDBRANCH   2  20
BRANCH   4  26
HETATM   26  C   UNL     3      -7.788   5.096  70.831  1.00  0.00    -0.096 C  
HETATM   27  H   UNL     3      -5.944   4.443  71.380  1.00  0.00     0.000 HD 
HETATM   28  O   UNL     3      -6.757   4.732  71.775  1.00  0.00    -0.039 OA 
BRANCH  26  29
HETATM   29  C   UNL     3      -7.983   4.002  69.786  1.00  0.00    -0.055 C  
HETATM   30  O   UNL     3      -9.125   4.291  68.970  1.00  0.00    -0.110 OA 
HETATM   31  H   UNL     3      -9.246   3.610  68.319  1.00  0.00     0.000 HD 
ENDBRANCH  26  29
ENDBRANCH   4  26
TORSDOF 4
ENDMDL
MODEL       51
REMARK 921   NORMALIZED FREE ENERGY PREDICTED BY IDOCK:   -4.44 KCAL/MOL
REMARK 922        TOTAL FREE ENERGY PREDICTED BY IDOCK:   -6.36 KCAL/MOL
REMARK 923 INTER-LIGAND FREE ENERGY PREDICTED BY IDOCK:   -5.53 KCAL/MOL
REMARK 924 INTRA-LIGAND FREE ENERGY PREDICTED BY IDOCK:   -0.83 KCAL/MOL
REMARK 927      BINDING AFFINITY PREDICTED BY RF-SCORE:    0.00 PKD
ROOT
HETATM    1 ZN   UNL     1     -13.687   8.827  71.331  1.00  0.00    -0.329 Zn 
HETATM    2  C   UNL     2     -10.549   9.611  70.386  1.00  0.00    -0.295 C  
HETATM    3  O   UNL     2      -9.434  10.196  69.663  1.00  0.00    -0.222 OA 
HETATM    4  C   UNL     3      -8.424   7.910  67.548  1.00  0.00    -0.123 C  
HETATM    5  H   UNL     2     -13.047  12.095  68.201  1.00  0.00     0.000 HD 
HETATM    6  O   UNL     3      -7.339   8.539  66.845  1.00  0.00    -0.081 OA 
HETATM    7  O   UNL     3     -10.200   9.963  65.168  1.00  0.00    -0.309 OA 
HETATM    8  C   UNL     3      -9.669   8.231  66.731  1.00  0.00    -0.239 C  
HETATM    9  C   UNL     2      -9.886  11.083  68.722  1.00  0.00    -0.198 C  
HETATM   10  O   UNL     2     -12.853  10.275  70.488  1.00  0.00    -0.315 OA 
HETATM   11  C   UNL     3      -7.860   9.384  65.904  1.00  0.00    -0.099 C  
HETATM   12  C   UNL     2     -11.346  11.157  68.846  1.00  0.00    -0.278 C  
HETATM   13  O   UNL     2     -12.102  12.047  68.121  1.00  0.00    -0.480 OA 
HETATM   14  O   UNL     2      -9.198  11.795  68.009  1.00  0.00    -0.168 OA 
HETATM   15  C   UNL     2     -11.762  10.383  69.870  1.00  0.00    -0.264 C  
HETATM   16  O   UNL     3     -10.782   7.722  67.043  1.00  0.00    -0.347 OA 
HETATM   17  H   UNL     3     -11.143   9.842  65.152  1.00  0.00     0.000 HD 
HETATM   18  C   UNL     3      -9.313   9.198  65.880  1.00  0.00    -0.243 C  
HETATM   19  O   UNL     3      -7.181  10.107  65.181  1.00  0.00    -0.134 OA 
ENDROOT
BRANCH   2  20
HETATM   20  C   UNL     2     -10.481   8.046  70.268  1.00  0.00    -0.222 C  
HETATM   21  O   UNL     2      -9.335   7.540  70.981  1.00  0.00    -0.155 OA 
HETATM   22  H   UNL     2      -9.294   6.593  70.910  1.00  0.00     0.000 HD 
BRANCH  20  23
HETATM   23  C   UNL     2     -11.637   7.124  70.674  1.00  0.00    -0.314 C  
HETATM   24  H   UNL     2     -12.819   6.762  72.285  1.00  0.00     0.000 HD 
HETATM   25  O   UNL     2     -12.103   7.333  72.034  1.00  0.00    -0.296 OA 
ENDBRANCH  20  23
ENDBRANCH   2  20
BRANCH   4  26
HETATM   26  C   UNL     3      -8.004   6.484  67.965  1.00  0.00    -0.109 C  
HETATM   27  H   UNL     3      -8.776   4.847  68.891  1.00  0.00     0.000 HD 
HETATM   28  O   UNL     3      -9.034   5.724  68.634  1.00  0.00    -0.113 OA 
BRANCH  26  29
HETATM   29  C   UNL     3      -7.386   5.681  66.824  1.00  0.00    -0.083 C  
HETATM   30  O   UNL     3      -8.384   4.874  66.187  1.00  0.00    -0.111 OA 
HETATM   31  H   UNL     3      -7.999   4.374  65.476  1.00  0.00     0.000 HD 
ENDBRANCH  26  29
ENDBRANCH   4  26
TORSDOF 4
ENDMDL
MODEL       52
REMARK 921   NORMALIZED FREE ENERGY PREDICTED BY IDOCK:   -4.43 KCAL/MOL
REMARK 922        TOTAL FREE ENERGY PREDICTED BY IDOCK:   -6.35 KCAL/MOL
REMARK 923 INTER-LIGAND FREE ENERGY PREDICTED BY IDOCK:   -5.58 KCAL/MOL
REMARK 924 INTRA-LIGAND FREE ENERGY PREDICTED BY IDOCK:   -0.76 KCAL/MOL
REMARK 927      BINDING AFFINITY PREDICTED BY RF-SCORE:    0.00 PKD
ROOT
HETATM    1 ZN   UNL     1     -10.305   2.906  66.241  1.00  0.00    -0.388 Zn 
HETATM    2  C   UNL     2      -8.712   4.926  68.417  1.00  0.00    -0.101 C  
HETATM    3  O   UNL     2      -8.240   5.515  69.658  1.00  0.00    -0.098 OA 
HETATM    4  C   UNL     3     -10.178   8.089  70.237  1.00  0.00    -0.200 C  
HETATM    5  H   UNL     2     -10.293   1.837  70.685  1.00  0.00     0.000 HD 
HETATM    6  O   UNL     3      -9.687   8.625  71.477  1.00  0.00    -0.210 OA 
HETATM    7  O   UNL     3     -11.688   5.851  72.632  1.00  0.00    -0.436 OA 
HETATM    8  C   UNL     3     -11.255   7.088  70.630  1.00  0.00    -0.288 C  
HETATM    9  C   UNL     2      -8.655   4.769  70.729  1.00  0.00    -0.105 C  
HETATM   10  O   UNL     2      -9.634   2.754  67.981  1.00  0.00    -0.198 OA 
HETATM   11  C   UNL     3     -10.163   7.854  72.503  1.00  0.00    -0.278 C  
HETATM   12  C   UNL     2      -9.377   3.604  70.207  1.00  0.00    -0.171 C  
HETATM   13  O   UNL     2      -9.826   2.592  71.022  1.00  0.00    -0.127 OA 
HETATM   14  O   UNL     2      -8.357   4.954  71.898  1.00  0.00    -0.114 OA 
HETATM   15  C   UNL     2      -9.350   3.610  68.858  1.00  0.00    -0.167 C  
HETATM   16  O   UNL     3     -11.952   6.523  69.742  1.00  0.00    -0.277 OA 
HETATM   17  H   UNL     3     -12.301   5.222  72.269  1.00  0.00     0.000 HD 
HETATM   18  C   UNL     3     -11.107   6.884  71.944  1.00  0.00    -0.246 C  
HETATM   19  O   UNL     3      -9.871   8.026  73.682  1.00  0.00    -0.191 OA 
ENDROOT
BRANCH   2  20
HETATM   20  C   UNL     2      -9.542   5.995  67.618  1.00  0.00    -0.112 C  
HETATM   21  O   UNL     2      -8.665   6.987  67.049  1.00  0.00    -0.119 OA 
HETATM   22  H   UNL     2      -9.167   7.633  66.566  1.00  0.00     0.000 HD 
BRANCH  20  23
HETATM   23  C   UNL     2     -10.510   5.629  66.486  1.00  0.00    -0.249 C  
HETATM   24  H   UNL     2     -10.471   4.749  64.656  1.00  0.00     0.000 HD 
HETATM   25  O   UNL     2      -9.872   4.976  65.357  1.00  0.00    -0.099 OA 
ENDBRANCH  20  23
ENDBRANCH   2  20
BRANCH   4  26
HETATM   26  C   UNL     3     -10.391   9.244  69.232  1.00  0.00    -0.215 C  
HETATM   27  H   UNL     3     -11.019   9.542  67.323  1.00  0.00     0.000 HD 
HETATM   28  O   UNL     3     -10.888   8.833  67.940  1.00  0.00    -0.151 OA 
BRANCH  26  29
HETATM   29  C   UNL     3     -11.224  10.389  69.800  1.00  0.00    -0.293 C  
HETATM   30  O   UNL     3     -12.220  10.796  68.854  1.00  0.00    -0.748 OA 
HETATM   31  H   UNL     3     -12.739  11.509  69.207  1.00  0.00     0.000 HD 
ENDBRANCH  26  29
ENDBRANCH   4  26
TORSDOF 4
ENDMDL
MODEL       53
REMARK 921   NORMALIZED FREE ENERGY PREDICTED BY IDOCK:   -4.43 KCAL/MOL
REMARK 922        TOTAL FREE ENERGY PREDICTED BY IDOCK:   -6.34 KCAL/MOL
REMARK 923 INTER-LIGAND FREE ENERGY PREDICTED BY IDOCK:   -5.38 KCAL/MOL
REMARK 924 INTRA-LIGAND FREE ENERGY PREDICTED BY IDOCK:   -0.96 KCAL/MOL
REMARK 927      BINDING AFFINITY PREDICTED BY RF-SCORE:    0.00 PKD
ROOT
HETATM    1 ZN   UNL     1      -6.761  11.287  65.086  1.00  0.00    -0.326 Zn 
HETATM    2  C   UNL     2      -9.639   9.841  66.076  1.00  0.00    -0.235 C  
HETATM    3  O   UNL     2     -10.843   9.544  66.833  1.00  0.00    -0.161 OA 
HETATM    4  C   UNL     3     -10.082   7.049  68.810  1.00  0.00    -0.170 C  
HETATM    5  H   UNL     2      -9.220  13.246  68.404  1.00  0.00     0.000 HD 
HETATM    6  O   UNL     3     -11.291   6.806  69.548  1.00  0.00    -0.282 OA 
HETATM    7  O   UNL     3      -9.935   9.652  71.306  1.00  0.00    -0.251 OA 
HETATM    8  C   UNL     3      -9.298   8.053  69.644  1.00  0.00    -0.156 C  
HETATM    9  C   UNL     2     -11.025  10.472  67.824  1.00  0.00    -0.313 C  
HETATM   10  O   UNL     2      -8.295  11.827  66.013  1.00  0.00     0.006 OA 
HETATM   11  C   UNL     3     -11.394   7.745  70.537  1.00  0.00    -0.241 C  
HETATM   12  C   UNL     2      -9.955  11.467  67.704  1.00  0.00    -0.184 C  
HETATM   13  O   UNL     2      -9.914  12.601  68.481  1.00  0.00    -0.219 OA 
HETATM   14  O   UNL     2     -11.982  10.547  68.578  1.00  0.00    -0.354 OA 
HETATM   15  C   UNL     2      -9.179  11.185  66.636  1.00  0.00    -0.175 C  
HETATM   16  O   UNL     3      -8.129   8.387  69.302  1.00  0.00    -0.111 OA 
HETATM   17  H   UNL     3      -9.132  10.161  71.315  1.00  0.00     0.000 HD 
HETATM   18  C   UNL     3     -10.157   8.530  70.551  1.00  0.00    -0.192 C  
HETATM   19  O   UNL     3     -12.350   7.834  71.301  1.00  0.00    -0.310 OA 
ENDROOT
BRANCH   2  20
HETATM   20  C   UNL     2      -8.689   8.590  66.102  1.00  0.00    -0.152 C  
HETATM   21  O   UNL     2      -9.052   7.663  65.059  1.00  0.00    -0.294 OA 
HETATM   22  H   UNL     2      -8.478   6.907  65.075  1.00  0.00     0.000 HD 
BRANCH  20  23
HETATM   23  C   UNL     2      -7.161   8.697  66.019  1.00  0.00    -0.084 C  
HETATM   24  H   UNL     2      -5.515   7.733  66.715  1.00  0.00     0.000 HD 
HETATM   25  O   UNL     2      -6.461   7.667  66.767  1.00  0.00    -0.050 OA 
ENDBRANCH  20  23
ENDBRANCH   2  20
BRANCH   4  26
HETATM   26  C   UNL     3      -9.511   5.703  68.309  1.00  0.00    -0.114 C  
HETATM   27  H   UNL     3      -8.960   3.886  69.033  1.00  0.00     0.000 HD 
HETATM   28  O   UNL     3      -9.311   4.713  69.341  1.00  0.00    -0.115 OA 
BRANCH  26  29
HETATM   29  C   UNL     3     -10.290   5.120  67.134  1.00  0.00    -0.192 C  
HETATM   30  O   UNL     3     -11.231   6.078  66.636  1.00  0.00    -0.703 OA 
HETATM   31  H   UNL     3     -11.716   5.714  65.905  1.00  0.00     0.000 HD 
ENDBRANCH  26  29
ENDBRANCH   4  26
TORSDOF 4
ENDMDL
MODEL       54
REMARK 921   NORMALIZED FREE ENERGY PREDICTED BY IDOCK:   -4.43 KCAL/MOL
REMARK 922        TOTAL FREE ENERGY PREDICTED BY IDOCK:   -6.34 KCAL/MOL
REMARK 923 INTER-LIGAND FREE ENERGY PREDICTED BY IDOCK:   -5.40 KCAL/MOL
REMARK 924 INTRA-LIGAND FREE ENERGY PREDICTED BY IDOCK:   -0.94 KCAL/MOL
REMARK 927      BINDING AFFINITY PREDICTED BY RF-SCORE:    0.00 PKD
ROOT
HETATM    1 ZN   UNL     1      -8.399  11.369  64.193  1.00  0.00    -0.361 Zn 
HETATM    2  C   UNL     2      -8.197  11.481  67.554  1.00  0.00    -0.140 C  
HETATM    3  O   UNL     2      -7.920  11.110  68.931  1.00  0.00    -0.141 OA 
HETATM    4  C   UNL     3     -10.732   9.952  70.142  1.00  0.00    -0.308 C  
HETATM    5  H   UNL     2      -6.044   8.133  66.399  1.00  0.00     0.000 HD 
HETATM    6  O   UNL     3     -10.405   9.582  71.492  1.00  0.00    -0.278 OA 
HETATM    7  O   UNL     3      -9.118   6.762  69.642  1.00  0.00    -0.143 OA 
HETATM    8  C   UNL     3     -10.482   8.701  69.312  1.00  0.00    -0.217 C  
HETATM    9  C   UNL     2      -7.235   9.925  68.978  1.00  0.00    -0.077 C  
HETATM   10  O   UNL     2      -7.287  10.631  65.504  1.00  0.00    -0.135 OA 
HETATM   11  C   UNL     3      -9.754   8.379  71.469  1.00  0.00    -0.210 C  
HETATM   12  C   UNL     2      -6.980   9.504  67.597  1.00  0.00    -0.080 C  
HETATM   13  O   UNL     2      -6.209   8.406  67.293  1.00  0.00    -0.053 OA 
HETATM   14  O   UNL     2      -6.788   9.387  69.978  1.00  0.00    -0.052 OA 
HETATM   15  C   UNL     2      -7.444  10.434  66.736  1.00  0.00    -0.110 C  
HETATM   16  O   UNL     3     -10.782   8.682  68.085  1.00  0.00    -0.167 OA 
HETATM   17  H   UNL     3      -9.138   6.433  68.750  1.00  0.00     0.000 HD 
HETATM   18  C   UNL     3      -9.784   7.871  70.095  1.00  0.00    -0.179 C  
HETATM   19  O   UNL     3      -9.297   7.827  72.465  1.00  0.00    -0.150 OA 
ENDROOT
BRANCH   2  20
HETATM   20  C   UNL     2      -9.744  11.684  67.372  1.00  0.00    -0.176 C  
HETATM   21  O   UNL     2     -10.170  12.900  68.020  1.00  0.00    -0.217 OA 
HETATM   22  H   UNL     2     -11.105  13.022  67.910  1.00  0.00     0.000 HD 
BRANCH  20  23
HETATM   23  C   UNL     2     -10.431  11.707  66.002  1.00  0.00    -0.251 C  
HETATM   24  H   UNL     2     -10.523  12.885  64.350  1.00  0.00     0.000 HD 
HETATM   25  O   UNL     2     -10.098  12.871  65.199  1.00  0.00    -0.278 OA 
ENDBRANCH  20  23
ENDBRANCH   2  20
BRANCH   4  26
HETATM   26  C   UNL     3     -12.058  10.746  70.138  1.00  0.00    -0.346 C  
HETATM   27  H   UNL     3     -13.368  11.570  68.821  1.00  0.00     0.000 HD 
HETATM   28  O   UNL     3     -12.553  11.082  68.824  1.00  0.00    -0.350 OA 
BRANCH  26  29
HETATM   29  C   UNL     3     -13.149  10.099  70.985  1.00  0.00    -0.375 C  
HETATM   30  O   UNL     3     -13.239  10.746  72.260  1.00  0.00    -0.605 OA 
HETATM   31  H   UNL     3     -13.919  10.343  72.787  1.00  0.00     0.000 HD 
ENDBRANCH  26  29
ENDBRANCH   4  26
TORSDOF 4
ENDMDL
MODEL       55
REMARK 921   NORMALIZED FREE ENERGY PREDICTED BY IDOCK:   -4.39 KCAL/MOL
REMARK 922        TOTAL FREE ENERGY PREDICTED BY IDOCK:   -6.30 KCAL/MOL
REMARK 923 INTER-LIGAND FREE ENERGY PREDICTED BY IDOCK:   -5.68 KCAL/MOL
REMARK 924 INTRA-LIGAND FREE ENERGY PREDICTED BY IDOCK:   -0.62 KCAL/MOL
REMARK 927      BINDING AFFINITY PREDICTED BY RF-SCORE:    0.00 PKD
ROOT
HETATM    1 ZN   UNL     1     -11.792  13.683  62.466  1.00  0.00    -0.740 Zn 
HETATM    2  C   UNL     2      -9.805  13.294  65.158  1.00  0.00    -0.054 C  
HETATM    3  O   UNL     2      -8.986  12.680  66.190  1.00  0.00    -0.060 OA 
HETATM    4  C   UNL     3     -10.912  12.381  68.820  1.00  0.00    -0.246 C  
HETATM    5  H   UNL     2      -9.923   9.594  63.292  1.00  0.00     0.000 HD 
HETATM    6  O   UNL     3     -10.069  11.755  69.802  1.00  0.00     0.626 OA 
HETATM    7  O   UNL     3     -11.042   8.927  67.781  1.00  0.00    -0.493 OA 
HETATM    8  C   UNL     3     -11.596  11.234  68.089  1.00  0.00    -0.289 C  
HETATM    9  C   UNL     2      -8.845  11.339  65.952  1.00  0.00    -0.169 C  
HETATM   10  O   UNL     2     -10.492  12.456  63.018  1.00  0.00    -0.181 OA 
HETATM   11  C   UNL     3      -9.997  10.417  69.525  1.00  0.00    -0.202 C  
HETATM   12  C   UNL     2      -9.530  11.035  64.692  1.00  0.00    -0.234 C  
HETATM   13  O   UNL     2      -9.479   9.792  64.107  1.00  0.00    -0.253 OA 
HETATM   14  O   UNL     2      -8.153  10.561  66.589  1.00  0.00    -0.119 OA 
HETATM   15  C   UNL     2     -10.024  12.168  64.150  1.00  0.00    -0.252 C  
HETATM   16  O   UNL     3     -12.489  11.472  67.228  1.00  0.00     0.362 OA 
HETATM   17  H   UNL     3     -11.647   8.739  67.072  1.00  0.00     0.000 HD 
HETATM   18  C   UNL     3     -10.929  10.127  68.432  1.00  0.00    -0.244 C  
HETATM   19  O   UNL     3      -9.305   9.623  70.154  1.00  0.00    -0.230 OA 
ENDROOT
BRANCH   2  20
HETATM   20  C   UNL     2     -11.025  14.022  65.829  1.00  0.00    -0.294 C  
HETATM   21  O   UNL     2     -10.583  15.207  66.520  1.00  0.00    -0.291 OA 
HETATM   22  H   UNL     2     -11.321  15.647  66.925  1.00  0.00     0.000 HD 
BRANCH  20  23
HETATM   23  C   UNL     2     -12.271  14.461  65.050  1.00  0.00    -0.414 C  
HETATM   24  H   UNL     2     -13.950  13.644  64.251  1.00  0.00     0.000 HD 
HETATM   25  O   UNL     2     -13.178  13.372  64.733  1.00  0.00    -0.590 OA 
ENDBRANCH  20  23
ENDBRANCH   2  20
BRANCH   4  26
HETATM   26  C   UNL     3     -11.661  13.565  69.472  1.00  0.00    -0.294 C  
HETATM   27  H   UNL     3     -12.914  13.941  71.027  1.00  0.00     0.000 HD 
HETATM   28  O   UNL     3     -12.454  13.213  70.626  1.00  0.00    -0.338 OA 
BRANCH  26  29
HETATM   29  C   UNL     3     -10.756  14.757  69.772  1.00  0.00    -0.154 C  
HETATM   30  O   UNL     3     -10.944  15.195  71.123  1.00  0.00    -0.522 OA 
HETATM   31  H   UNL     3     -10.381  15.937  71.310  1.00  0.00     0.000 HD 
ENDBRANCH  26  29
ENDBRANCH   4  26
TORSDOF 4
ENDMDL
MODEL       56
REMARK 921   NORMALIZED FREE ENERGY PREDICTED BY IDOCK:   -4.36 KCAL/MOL
REMARK 922        TOTAL FREE ENERGY PREDICTED BY IDOCK:   -6.26 KCAL/MOL
REMARK 923 INTER-LIGAND FREE ENERGY PREDICTED BY IDOCK:   -5.52 KCAL/MOL
REMARK 924 INTRA-LIGAND FREE ENERGY PREDICTED BY IDOCK:   -0.73 KCAL/MOL
REMARK 927      BINDING AFFINITY PREDICTED BY RF-SCORE:    0.00 PKD
ROOT
HETATM    1 ZN   UNL     1     -12.321  14.147  73.238  1.00  0.00    -0.319 Zn 
HETATM    2  C   UNL     2     -12.687  13.702  69.918  1.00  0.00     0.096 C  
HETATM    3  O   UNL     2     -12.637  13.108  68.594  1.00  0.00     0.226 OA 
HETATM    4  C   UNL     3     -10.016  14.400  67.116  1.00  0.00    -0.253 C  
HETATM    5  H   UNL     2     -11.408  10.055  71.417  1.00  0.00     0.000 HD 
HETATM    6  O   UNL     3      -9.997  13.770  65.824  1.00  0.00    -0.298 OA 
HETATM    7  O   UNL     3      -8.548  11.196  67.900  1.00  0.00    -0.128 OA 
HETATM    8  C   UNL     3      -9.170  13.504  68.011  1.00  0.00    -0.209 C  
HETATM    9  C   UNL     2     -12.155  11.827  68.663  1.00  0.00    -0.102 C  
HETATM   10  O   UNL     2     -12.513  12.686  72.084  1.00  0.00     0.150 OA 
HETATM   11  C   UNL     3      -9.478  12.511  65.961  1.00  0.00    -0.152 C  
HETATM   12  C   UNL     2     -11.929  11.512  70.077  1.00  0.00    -0.357 C  
HETATM   13  O   UNL     2     -11.555  10.259  70.502  1.00  0.00    -0.288 OA 
HETATM   14  O   UNL     2     -12.067  11.037  67.737  1.00  0.00    -0.534 OA 
HETATM   15  C   UNL     2     -12.317  12.549  70.849  1.00  0.00    -0.255 C  
HETATM   16  O   UNL     3      -8.910  13.854  69.197  1.00  0.00     0.146 OA 
HETATM   17  H   UNL     3      -8.241  11.099  68.794  1.00  0.00     0.000 HD 
HETATM   18  C   UNL     3      -9.005  12.360  67.339  1.00  0.00    -0.185 C  
HETATM   19  O   UNL     3      -9.385  11.705  65.041  1.00  0.00    -0.163 OA 
ENDROOT
BRANCH   2  20
HETATM   20  C   UNL     2     -11.857  15.036  69.920  1.00  0.00    -0.324 C  
HETATM   21  O   UNL     2     -12.470  16.009  69.051  1.00  0.00    -0.393 OA 
HETATM   22  H   UNL     2     -11.968  16.816  69.052  1.00  0.00     0.000 HD 
BRANCH  20  23
HETATM   23  C   UNL     2     -11.516  15.810  71.199  1.00  0.00    -0.414 C  
HETATM   24  H   UNL     2     -12.450  16.535  72.850  1.00  0.00     0.000 HD 
HETATM   25  O   UNL     2     -12.661  16.056  72.058  1.00  0.00    -0.448 OA 
ENDBRANCH  20  23
ENDBRANCH   2  20
BRANCH   4  26
HETATM   26  C   UNL     3      -9.791  15.919  66.947  1.00  0.00    -0.243 C  
HETATM   27  H   UNL     3      -9.655  17.602  68.077  1.00  0.00     0.000 HD 
HETATM   28  O   UNL     3      -9.794  16.669  68.181  1.00  0.00    -0.239 OA 
BRANCH  26  29
HETATM   29  C   UNL     3      -8.564  16.255  66.105  1.00  0.00    -0.307 C  
HETATM   30  O   UNL     3      -8.472  17.670  65.902  1.00  0.00    -0.531 OA 
HETATM   31  H   UNL     3      -7.708  17.879  65.378  1.00  0.00     0.000 HD 
ENDBRANCH  26  29
ENDBRANCH   4  26
TORSDOF 4
ENDMDL
MODEL       57
REMARK 921   NORMALIZED FREE ENERGY PREDICTED BY IDOCK:   -4.36 KCAL/MOL
REMARK 922        TOTAL FREE ENERGY PREDICTED BY IDOCK:   -6.26 KCAL/MOL
REMARK 923 INTER-LIGAND FREE ENERGY PREDICTED BY IDOCK:   -5.30 KCAL/MOL
REMARK 924 INTRA-LIGAND FREE ENERGY PREDICTED BY IDOCK:   -0.95 KCAL/MOL
REMARK 927      BINDING AFFINITY PREDICTED BY RF-SCORE:    0.00 PKD
ROOT
HETATM    1 ZN   UNL     1     -10.251   3.572  69.473  1.00  0.00    -0.184 Zn 
HETATM    2  C   UNL     2      -8.896   6.621  69.945  1.00  0.00    -0.144 C  
HETATM    3  O   UNL     2      -8.757   8.036  70.243  1.00  0.00    -0.131 OA 
HETATM    4  C   UNL     3      -8.717   9.572  67.353  1.00  0.00    -0.125 C  
HETATM    5  H   UNL     2     -12.812   6.900  71.277  1.00  0.00     0.000 HD 
HETATM    6  O   UNL     3      -8.598  10.963  67.698  1.00  0.00    -0.123 OA 
HETATM    7  O   UNL     3     -12.120  10.385  68.240  1.00  0.00    -0.747 OA 
HETATM    8  C   UNL     3     -10.214   9.304  67.279  1.00  0.00    -0.252 C  
HETATM    9  C   UNL     2      -9.950   8.553  70.673  1.00  0.00    -0.189 C  
HETATM   10  O   UNL     2     -10.648   5.081  70.506  1.00  0.00    -0.209 OA 
HETATM   11  C   UNL     3      -9.827  11.422  68.086  1.00  0.00    -0.191 C  
HETATM   12  C   UNL     2     -10.917   7.452  70.733  1.00  0.00    -0.255 C  
HETATM   13  O   UNL     2     -12.185   7.613  71.238  1.00  0.00    -0.310 OA 
HETATM   14  O   UNL     2     -10.143   9.689  71.075  1.00  0.00    -0.268 OA 
HETATM   15  C   UNL     2     -10.314   6.289  70.405  1.00  0.00    -0.208 C  
HETATM   16  O   UNL     3     -10.639   8.180  66.890  1.00  0.00    -0.329 OA 
HETATM   17  H   UNL     3     -12.755   9.695  68.086  1.00  0.00     0.000 HD 
HETATM   18  C   UNL     3     -10.806  10.358  67.850  1.00  0.00    -0.279 C  
HETATM   19  O   UNL     3     -10.036  12.560  68.495  1.00  0.00    -0.221 OA 
ENDROOT
BRANCH   2  20
HETATM   20  C   UNL     2      -8.448   6.356  68.463  1.00  0.00    -0.119 C  
HETATM   21  O   UNL     2      -7.029   6.565  68.323  1.00  0.00    -0.075 OA 
HETATM   22  H   UNL     2      -6.759   6.405  67.426  1.00  0.00     0.000 HD 
BRANCH  20  23
HETATM   23  C   UNL     2      -8.727   5.041  67.725  1.00  0.00    -0.103 C  
HETATM   24  H   UNL     2     -10.256   4.114  66.762  1.00  0.00     0.000 HD 
HETATM   25  O   UNL     2     -10.084   4.929  67.219  1.00  0.00    -0.186 OA 
ENDBRANCH  20  23
ENDBRANCH   2  20
BRANCH   4  26
HETATM   26  C   UNL     3      -7.719   9.241  66.221  1.00  0.00    -0.096 C  
HETATM   27  H   UNL     3      -7.637   9.189  64.191  1.00  0.00     0.000 HD 
HETATM   28  O   UNL     3      -8.250   9.393  64.887  1.00  0.00    -0.127 OA 
BRANCH  26  29
HETATM   29  C   UNL     3      -6.384   9.966  66.364  1.00  0.00    -0.071 C  
HETATM   30  O   UNL     3      -6.480  11.293  65.832  1.00  0.00    -0.364 OA 
HETATM   31  H   UNL     3      -5.648  11.745  65.921  1.00  0.00     0.000 HD 
ENDBRANCH  26  29
ENDBRANCH   4  26
TORSDOF 4
ENDMDL
MODEL       58
REMARK 921   NORMALIZED FREE ENERGY PREDICTED BY IDOCK:   -4.32 KCAL/MOL
REMARK 922        TOTAL FREE ENERGY PREDICTED BY IDOCK:   -6.21 KCAL/MOL
REMARK 923 INTER-LIGAND FREE ENERGY PREDICTED BY IDOCK:   -5.27 KCAL/MOL
REMARK 924 INTRA-LIGAND FREE ENERGY PREDICTED BY IDOCK:   -0.94 KCAL/MOL
REMARK 927      BINDING AFFINITY PREDICTED BY RF-SCORE:    0.00 PKD
ROOT
HETATM    1 ZN   UNL     1     -14.329   8.755  71.588  1.00  0.00    -0.352 Zn 
HETATM    2  C   UNL     2     -11.568   7.278  70.343  1.00  0.00    -0.219 C  
HETATM    3  O   UNL     2     -10.401   6.422  70.217  1.00  0.00    -0.192 OA 
HETATM    4  C   UNL     3      -7.825   8.274  71.023  1.00  0.00    -0.096 C  
HETATM    5  H   UNL     2     -12.524   5.178  73.787  1.00  0.00     0.000 HD 
HETATM    6  O   UNL     3      -6.703   7.384  70.903  1.00  0.00    -0.043 OA 
HETATM    7  O   UNL     3      -8.034   6.434  74.121  1.00  0.00    -0.103 OA 
HETATM    8  C   UNL     3      -8.286   8.146  72.468  1.00  0.00    -0.159 C  
HETATM    9  C   UNL     2     -10.315   5.570  71.286  1.00  0.00    -0.233 C  
HETATM   10  O   UNL     2     -13.472   7.104  71.793  1.00  0.00    -0.355 OA 
HETATM   11  C   UNL     3      -6.658   6.587  72.014  1.00  0.00    -0.058 C  
HETATM   12  C   UNL     2     -11.488   5.803  72.136  1.00  0.00    -0.235 C  
HETATM   13  O   UNL     2     -11.765   5.027  73.236  1.00  0.00    -0.292 OA 
HETATM   14  O   UNL     2      -9.497   4.678  71.436  1.00  0.00    -0.141 OA 
HETATM   15  C   UNL     2     -12.292   6.728  71.570  1.00  0.00    -0.358 C  
HETATM   16  O   UNL     3      -9.202   8.893  72.912  1.00  0.00    -0.200 OA 
HETATM   17  H   UNL     3      -8.694   6.741  74.732  1.00  0.00     0.000 HD 
HETATM   18  C   UNL     3      -7.677   7.059  72.955  1.00  0.00    -0.084 C  
HETATM   19  O   UNL     3      -5.843   5.684  72.178  1.00  0.00    -0.024 OA 
ENDROOT
BRANCH   2  20
HETATM   20  C   UNL     2     -11.118   8.782  70.281  1.00  0.00    -0.222 C  
HETATM   21  O   UNL     2     -11.235   9.286  68.936  1.00  0.00    -0.448 OA 
HETATM   22  H   UNL     2     -10.963  10.195  68.899  1.00  0.00     0.000 HD 
BRANCH  20  23
HETATM   23  C   UNL     2     -11.727   9.876  71.166  1.00  0.00    -0.396 C  
HETATM   24  H   UNL     2     -13.327  11.128  71.178  1.00  0.00     0.000 HD 
HETATM   25  O   UNL     2     -12.949  10.450  70.630  1.00  0.00    -0.368 OA 
ENDBRANCH  20  23
ENDBRANCH   2  20
BRANCH   4  26
HETATM   26  C   UNL     3      -7.487   9.616  70.336  1.00  0.00    -0.158 C  
HETATM   27  H   UNL     3      -6.254  11.214  70.574  1.00  0.00     0.000 HD 
HETATM   28  O   UNL     3      -6.462  10.389  70.996  1.00  0.00    -0.340 OA 
BRANCH  26  29
HETATM   29  C   UNL     3      -7.188   9.471  68.847  1.00  0.00    -0.072 C  
HETATM   30  O   UNL     3      -8.399   9.559  68.086  1.00  0.00    -0.117 OA 
HETATM   31  H   UNL     3      -8.213   9.469  67.158  1.00  0.00     0.000 HD 
ENDBRANCH  26  29
ENDBRANCH   4  26
TORSDOF 4
ENDMDL
MODEL       59
REMARK 921   NORMALIZED FREE ENERGY PREDICTED BY IDOCK:   -4.31 KCAL/MOL
REMARK 922        TOTAL FREE ENERGY PREDICTED BY IDOCK:   -6.20 KCAL/MOL
REMARK 923 INTER-LIGAND FREE ENERGY PREDICTED BY IDOCK:   -5.75 KCAL/MOL
REMARK 924 INTRA-LIGAND FREE ENERGY PREDICTED BY IDOCK:   -0.45 KCAL/MOL
REMARK 927      BINDING AFFINITY PREDICTED BY RF-SCORE:    0.00 PKD
ROOT
HETATM    1 ZN   UNL     1      -9.413   6.429  65.544  1.00  0.00    -0.283 Zn 
HETATM    2  C   UNL     2      -8.509   7.274  68.678  1.00  0.00    -0.129 C  
HETATM    3  O   UNL     2      -8.200   7.184  70.094  1.00  0.00    -0.130 OA 
HETATM    4  C   UNL     3     -10.885   8.187  71.675  1.00  0.00    -0.249 C  
HETATM    5  H   UNL     2      -8.745   3.135  68.641  1.00  0.00     0.000 HD 
HETATM    6  O   UNL     3     -10.539   8.062  73.065  1.00  0.00    -0.353 OA 
HETATM    7  O   UNL     3     -11.349   4.648  72.216  1.00  0.00     0.123 OA 
HETATM    8  C   UNL     3     -11.510   6.851  71.296  1.00  0.00    -0.296 C  
HETATM    9  C   UNL     2      -8.255   5.881  70.513  1.00  0.00    -0.119 C  
HETATM   10  O   UNL     2      -8.625   5.561  67.002  1.00  0.00    -0.111 OA 
HETATM   11  C   UNL     3     -10.646   6.746  73.424  1.00  0.00    -0.325 C  
HETATM   12  C   UNL     2      -8.547   5.048  69.342  1.00  0.00    -0.088 C  
HETATM   13  O   UNL     2      -8.556   3.675  69.399  1.00  0.00    -0.063 OA 
HETATM   14  O   UNL     2      -7.970   5.466  71.625  1.00  0.00    -0.111 OA 
HETATM   15  C   UNL     2      -8.609   5.816  68.233  1.00  0.00    -0.112 C  
HETATM   16  O   UNL     3     -12.015   6.689  70.150  1.00  0.00    -0.367 OA 
HETATM   17  H   UNL     3     -11.720   4.171  71.482  1.00  0.00     0.000 HD 
HETATM   18  C   UNL     3     -11.218   6.010  72.294  1.00  0.00    -0.293 C  
HETATM   19  O   UNL     3     -10.361   6.314  74.536  1.00  0.00    -0.316 OA 
ENDROOT
BRANCH   2  20
HETATM   20  C   UNL     2      -9.712   8.263  68.471  1.00  0.00    -0.156 C  
HETATM   21  O   UNL     2      -9.264   9.628  68.588  1.00  0.00    -0.133 OA 
HETATM   22  H   UNL     2      -9.992  10.226  68.464  1.00  0.00     0.000 HD 
BRANCH  20  23
HETATM   23  C   UNL     2     -10.605   8.247  67.224  1.00  0.00    -0.265 C  
HETATM   24  H   UNL     2     -10.750   9.183  65.428  1.00  0.00     0.000 HD 
HETATM   25  O   UNL     2     -10.198   9.193  66.200  1.00  0.00    -0.272 OA 
ENDBRANCH  20  23
ENDBRANCH   2  20
BRANCH   4  26
HETATM   26  C   UNL     3     -11.556   9.558  71.438  1.00  0.00    -0.395 C  
HETATM   27  H   UNL     3     -12.002  10.823  69.911  1.00  0.00     0.000 HD 
HETATM   28  O   UNL     3     -11.589   9.981  70.057  1.00  0.00    -0.249 OA 
BRANCH  26  29
HETATM   29  C   UNL     3     -12.936   9.671  72.078  1.00  0.00    -0.428 C  
HETATM   30  O   UNL     3     -13.296  11.048  72.245  1.00  0.00    -0.633 OA 
HETATM   31  H   UNL     3     -14.156  11.118  72.643  1.00  0.00     0.000 HD 
ENDBRANCH  26  29
ENDBRANCH   4  26
TORSDOF 4
ENDMDL
MODEL       60
REMARK 921   NORMALIZED FREE ENERGY PREDICTED BY IDOCK:   -4.30 KCAL/MOL
REMARK 922        TOTAL FREE ENERGY PREDICTED BY IDOCK:   -6.19 KCAL/MOL
REMARK 923 INTER-LIGAND FREE ENERGY PREDICTED BY IDOCK:   -5.00 KCAL/MOL
REMARK 924 INTRA-LIGAND FREE ENERGY PREDICTED BY IDOCK:   -1.19 KCAL/MOL
REMARK 927      BINDING AFFINITY PREDICTED BY RF-SCORE:    0.00 PKD
ROOT
HETATM    1 ZN   UNL     1     -12.121  14.156  69.519  1.00  0.00    -0.236 Zn 
HETATM    2  C   UNL     2     -11.519  11.145  68.131  1.00  0.00    -0.303 C  
HETATM    3  O   UNL     2     -11.147   9.750  67.974  1.00  0.00    -0.222 OA 
HETATM    4  C   UNL     3      -8.061   9.749  66.883  1.00  0.00    -0.113 C  
HETATM    5  H   UNL     2     -11.229  10.584  72.228  1.00  0.00     0.000 HD 
HETATM    6  O   UNL     3      -7.733   8.355  66.762  1.00  0.00    -0.089 OA 
HETATM    7  O   UNL     3      -7.319   8.887  70.309  1.00  0.00    -0.054 OA 
HETATM    8  C   UNL     3      -7.646  10.138  68.295  1.00  0.00    -0.087 C  
HETATM    9  C   UNL     2     -10.877   9.188  69.193  1.00  0.00    -0.110 C  
HETATM   10  O   UNL     2     -12.139  12.375  70.095  1.00  0.00    -0.335 OA 
HETATM   11  C   UNL     3      -7.444   7.866  68.007  1.00  0.00    -0.108 C  
HETATM   12  C   UNL     2     -11.131  10.204  70.219  1.00  0.00    -0.317 C  
HETATM   13  O   UNL     2     -11.065   9.926  71.564  1.00  0.00    -0.275 OA 
HETATM   14  O   UNL     2     -10.615   8.015  69.407  1.00  0.00    -0.229 OA 
HETATM   15  C   UNL     2     -11.598  11.333  69.645  1.00  0.00    -0.330 C  
HETATM   16  O   UNL     3      -7.714  11.343  68.668  1.00  0.00    -0.124 OA 
HETATM   17  H   UNL     3      -7.312   9.617  70.918  1.00  0.00     0.000 HD 
HETATM   18  C   UNL     3      -7.433   8.990  68.946  1.00  0.00    -0.075 C  
HETATM   19  O   UNL     3      -7.181   6.690  68.238  1.00  0.00    -0.080 OA 
ENDROOT
BRANCH   2  20
HETATM   20  C   UNL     2     -10.565  12.038  67.258  1.00  0.00    -0.222 C  
HETATM   21  O   UNL     2     -10.967  11.996  65.875  1.00  0.00    -0.278 OA 
HETATM   22  H   UNL     2     -10.390  12.535  65.347  1.00  0.00     0.000 HD 
BRANCH  20  23
HETATM   23  C   UNL     2     -10.307  13.521  67.548  1.00  0.00    -0.237 C  
HETATM   24  H   UNL     2     -11.188  15.324  67.232  1.00  0.00     0.000 HD 
HETATM   25  O   UNL     2     -11.347  14.405  67.052  1.00  0.00    -0.319 OA 
ENDBRANCH  20  23
ENDBRANCH   2  20
BRANCH   4  26
HETATM   26  C   UNL     3      -7.604  10.493  65.608  1.00  0.00    -0.134 C  
HETATM   27  H   UNL     3      -5.891  11.058  64.672  1.00  0.00     0.000 HD 
HETATM   28  O   UNL     3      -6.172  10.601  65.456  1.00  0.00    -0.127 OA 
BRANCH  26  29
HETATM   29  C   UNL     3      -8.250   9.956  64.334  1.00  0.00    -0.164 C  
HETATM   30  O   UNL     3      -9.604   9.565  64.591  1.00  0.00    -0.435 OA 
HETATM   31  H   UNL     3     -10.007   9.231  63.797  1.00  0.00     0.000 HD 
ENDBRANCH  26  29
ENDBRANCH   4  26
TORSDOF 4
ENDMDL
MODEL       61
REMARK 921   NORMALIZED FREE ENERGY PREDICTED BY IDOCK:   -4.30 KCAL/MOL
REMARK 922        TOTAL FREE ENERGY PREDICTED BY IDOCK:   -6.19 KCAL/MOL
REMARK 923 INTER-LIGAND FREE ENERGY PREDICTED BY IDOCK:   -4.94 KCAL/MOL
REMARK 924 INTRA-LIGAND FREE ENERGY PREDICTED BY IDOCK:   -1.25 KCAL/MOL
REMARK 927      BINDING AFFINITY PREDICTED BY RF-SCORE:    0.00 PKD
ROOT
HETATM    1 ZN   UNL     1      -6.897   5.370  65.807  1.00  0.00    -0.047 Zn 
HETATM    2  C   UNL     2      -9.771   6.861  66.736  1.00  0.00    -0.177 C  
HETATM    3  O   UNL     2     -10.770   7.881  67.006  1.00  0.00    -0.339 OA 
HETATM    4  C   UNL     3     -10.578   8.516  70.212  1.00  0.00    -0.226 C  
HETATM    5  H   UNL     2      -7.505   9.808  64.902  1.00  0.00     0.000 HD 
HETATM    6  O   UNL     3     -11.565   9.538  70.426  1.00  0.00    -0.258 OA 
HETATM    7  O   UNL     3      -8.824  11.457  69.072  1.00  0.00    -0.365 OA 
HETATM    8  C   UNL     3      -9.287   9.263  69.905  1.00  0.00    -0.198 C  
HETATM    9  C   UNL     2     -10.328   9.106  66.582  1.00  0.00    -0.218 C  
HETATM   10  O   UNL     2      -7.821   6.929  65.341  1.00  0.00    -0.100 OA 
HETATM   11  C   UNL     3     -11.049  10.736  70.012  1.00  0.00    -0.255 C  
HETATM   12  C   UNL     2      -9.020   8.913  65.948  1.00  0.00    -0.200 C  
HETATM   13  O   UNL     2      -8.352   9.933  65.312  1.00  0.00    -0.136 OA 
HETATM   14  O   UNL     2     -10.963  10.148  66.594  1.00  0.00    -0.083 OA 
HETATM   15  C   UNL     2      -8.702   7.601  65.934  1.00  0.00    -0.152 C  
HETATM   16  O   UNL     3      -8.203   8.629  69.773  1.00  0.00    -0.114 OA 
HETATM   17  H   UNL     3      -7.911  11.322  68.844  1.00  0.00     0.000 HD 
HETATM   18  C   UNL     3      -9.642  10.528  69.660  1.00  0.00    -0.027 C  
HETATM   19  O   UNL     3     -11.676  11.791  70.016  1.00  0.00    -0.320 OA 
ENDROOT
BRANCH   2  20
HETATM   20  C   UNL     2      -9.407   6.125  68.075  1.00  0.00    -0.114 C  
HETATM   21  O   UNL     2     -10.517   5.323  68.524  1.00  0.00    -0.157 OA 
HETATM   22  H   UNL     2     -10.297   4.878  69.334  1.00  0.00     0.000 HD 
BRANCH  20  23
HETATM   23  C   UNL     2      -8.180   5.218  68.226  1.00  0.00    -0.094 C  
HETATM   24  H   UNL     2      -7.434   3.500  67.441  1.00  0.00     0.000 HD 
HETATM   25  O   UNL     2      -8.194   4.062  67.348  1.00  0.00    -0.097 OA 
ENDBRANCH  20  23
ENDBRANCH   2  20
BRANCH   4  26
HETATM   26  C   UNL     3     -10.717   7.436  71.308  1.00  0.00    -0.221 C  
HETATM   27  H   UNL     3     -10.463   7.218  73.312  1.00  0.00     0.000 HD 
HETATM   28  O   UNL     3     -10.377   7.882  72.638  1.00  0.00    -0.256 OA 
BRANCH  26  29
HETATM   29  C   UNL     3     -12.073   6.736  71.295  1.00  0.00    -0.370 C  
HETATM   30  O   UNL     3     -12.614   6.725  69.968  1.00  0.00    -0.414 OA 
HETATM   31  H   UNL     3     -13.458   6.289  69.960  1.00  0.00     0.000 HD 
ENDBRANCH  26  29
ENDBRANCH   4  26
TORSDOF 4
ENDMDL
MODEL       62
REMARK 921   NORMALIZED FREE ENERGY PREDICTED BY IDOCK:   -4.28 KCAL/MOL
REMARK 922        TOTAL FREE ENERGY PREDICTED BY IDOCK:   -6.16 KCAL/MOL
REMARK 923 INTER-LIGAND FREE ENERGY PREDICTED BY IDOCK:   -5.05 KCAL/MOL
REMARK 924 INTRA-LIGAND FREE ENERGY PREDICTED BY IDOCK:   -1.11 KCAL/MOL
REMARK 927      BINDING AFFINITY PREDICTED BY RF-SCORE:    0.00 PKD
ROOT
HETATM    1 ZN   UNL     1     -10.598  11.267  70.488  1.00  0.00    -0.438 Zn 
HETATM    2  C   UNL     2     -11.499   8.058  69.995  1.00  0.00     0.070 C  
HETATM    3  O   UNL     2     -11.716   6.638  70.213  1.00  0.00    -0.389 OA 
HETATM    4  C   UNL     3      -9.210   5.105  68.769  1.00  0.00    -0.119 C  
HETATM    5  H   UNL     2     -10.448   8.340  73.995  1.00  0.00     0.000 HD 
HETATM    6  O   UNL     3      -9.456   3.713  69.028  1.00  0.00    -0.164 OA 
HETATM    7  O   UNL     3      -8.026   4.785  72.164  1.00  0.00    -0.101 OA 
HETATM    8  C   UNL     3      -8.351   5.583  69.932  1.00  0.00    -0.105 C  
HETATM    9  C   UNL     2     -11.382   6.297  71.497  1.00  0.00    -0.296 C  
HETATM   10  O   UNL     2     -11.127   9.832  71.566  1.00  0.00    -0.343 OA 
HETATM   11  C   UNL     3      -9.073   3.434  70.311  1.00  0.00    -0.131 C  
HETATM   12  C   UNL     2     -10.988   7.524  72.197  1.00  0.00    -0.250 C  
HETATM   13  O   UNL     2     -10.703   7.546  73.541  1.00  0.00    -0.378 OA 
HETATM   14  O   UNL     2     -11.525   5.200  72.014  1.00  0.00     0.026 OA 
HETATM   15  C   UNL     2     -11.133   8.588  71.379  1.00  0.00    -0.265 C  
HETATM   16  O   UNL     3      -7.880   6.755  69.933  1.00  0.00    -0.110 OA 
HETATM   17  H   UNL     3      -7.604   5.559  72.521  1.00  0.00     0.000 HD 
HETATM   18  C   UNL     3      -8.422   4.625  70.861  1.00  0.00    -0.098 C  
HETATM   19  O   UNL     3      -9.212   2.338  70.845  1.00  0.00    -0.099 OA 
ENDROOT
BRANCH   2  20
HETATM   20  C   UNL     2     -10.528   8.253  68.775  1.00  0.00    -0.177 C  
HETATM   21  O   UNL     2     -11.153   7.799  67.559  1.00  0.00    -0.519 OA 
HETATM   22  H   UNL     2     -10.566   7.917  66.822  1.00  0.00     0.000 HD 
BRANCH  20  23
HETATM   23  C   UNL     2      -9.898   9.604  68.414  1.00  0.00    -0.153 C  
HETATM   24  H   UNL     2      -8.370  10.797  69.019  1.00  0.00     0.000 HD 
HETATM   25  O   UNL     2      -8.761   9.961  69.243  1.00  0.00    -0.144 OA 
ENDBRANCH  20  23
ENDBRANCH   2  20
BRANCH   4  26
HETATM   26  C   UNL     3      -8.837   5.289  67.281  1.00  0.00    -0.105 C  
HETATM   27  H   UNL     3      -7.248   5.041  66.038  1.00  0.00     0.000 HD 
HETATM   28  O   UNL     3      -7.478   4.929  66.952  1.00  0.00    -0.084 OA 
BRANCH  26  29
HETATM   29  C   UNL     3      -9.825   4.625  66.326  1.00  0.00    -0.226 C  
HETATM   30  O   UNL     3     -11.150   5.114  66.563  1.00  0.00    -0.457 OA 
HETATM   31  H   UNL     3     -11.765   4.700  65.969  1.00  0.00     0.000 HD 
ENDBRANCH  26  29
ENDBRANCH   4  26
TORSDOF 4
ENDMDL
MODEL       63
REMARK 921   NORMALIZED FREE ENERGY PREDICTED BY IDOCK:   -4.28 KCAL/MOL
REMARK 922        TOTAL FREE ENERGY PREDICTED BY IDOCK:   -6.16 KCAL/MOL
REMARK 923 INTER-LIGAND FREE ENERGY PREDICTED BY IDOCK:   -5.39 KCAL/MOL
REMARK 924 INTRA-LIGAND FREE ENERGY PREDICTED BY IDOCK:   -0.77 KCAL/MOL
REMARK 927      BINDING AFFINITY PREDICTED BY RF-SCORE:    0.00 PKD
ROOT
HETATM    1 ZN   UNL     1     -10.569  10.565  63.699  1.00  0.00    -0.323 Zn 
HETATM    2  C   UNL     2     -10.866  11.861  66.794  1.00  0.00    -0.266 C  
HETATM    3  O   UNL     2     -11.230  12.742  67.890  1.00  0.00    -0.244 OA 
HETATM    4  C   UNL     3      -8.621  14.643  68.434  1.00  0.00    -0.169 C  
HETATM    5  H   UNL     2     -13.372  14.111  64.377  1.00  0.00     0.000 HD 
HETATM    6  O   UNL     3      -9.034  15.506  69.506  1.00  0.00    -0.268 OA 
HETATM    7  O   UNL     3     -10.594  17.094  66.665  1.00  0.00    -0.277 OA 
HETATM    8  C   UNL     3      -8.995  15.384  67.157  1.00  0.00    -0.218 C  
HETATM    9  C   UNL     2     -12.055  13.741  67.446  1.00  0.00    -0.343 C  
HETATM   10  O   UNL     2     -11.805  11.644  64.598  1.00  0.00    -0.174 OA 
HETATM   11  C   UNL     3      -9.826  16.495  68.990  1.00  0.00    -0.266 C  
HETATM   12  C   UNL     2     -12.315  13.503  66.022  1.00  0.00    -0.433 C  
HETATM   13  O   UNL     2     -13.203  14.264  65.299  1.00  0.00    -0.704 OA 
HETATM   14  O   UNL     2     -12.597  14.591  68.134  1.00  0.00     0.105 OA 
HETATM   15  C   UNL     2     -11.714  12.362  65.627  1.00  0.00    -0.414 C  
HETATM   16  O   UNL     3      -8.659  14.919  66.032  1.00  0.00     0.133 OA 
HETATM   17  H   UNL     3     -10.586  17.015  65.717  1.00  0.00     0.000 HD 
HETATM   18  C   UNL     3      -9.813  16.373  67.530  1.00  0.00    -0.239 C  
HETATM   19  O   UNL     3     -10.379  17.355  69.668  1.00  0.00    -0.153 OA 
ENDROOT
BRANCH   2  20
HETATM   20  C   UNL     2      -9.300  11.794  66.681  1.00  0.00    -0.198 C  
HETATM   21  O   UNL     2      -8.730  11.292  67.906  1.00  0.00    -0.130 OA 
HETATM   22  H   UNL     2      -7.783  11.252  67.838  1.00  0.00     0.000 HD 
BRANCH  20  23
HETATM   23  C   UNL     2      -8.572  11.032  65.567  1.00  0.00    -0.102 C  
HETATM   24  H   UNL     2      -8.599   9.201  64.688  1.00  0.00     0.000 HD 
HETATM   25  O   UNL     2      -9.049   9.673  65.378  1.00  0.00    -0.183 OA 
ENDBRANCH  20  23
ENDBRANCH   2  20
BRANCH   4  26
HETATM   26  C   UNL     3      -7.209  14.093  68.736  1.00  0.00    -0.120 C  
HETATM   27  H   UNL     3      -5.355  14.040  67.908  1.00  0.00     0.000 HD 
HETATM   28  O   UNL     3      -6.222  14.378  67.721  1.00  0.00    -0.154 OA 
BRANCH  26  29
HETATM   29  C   UNL     3      -6.697  14.480  70.121  1.00  0.00    -0.089 C  
HETATM   30  O   UNL     3      -6.129  15.795  70.092  1.00  0.00    -0.163 OA 
HETATM   31  H   UNL     3      -5.811  16.036  70.954  1.00  0.00     0.000 HD 
ENDBRANCH  26  29
ENDBRANCH   4  26
TORSDOF 4
ENDMDL
MODEL       64
REMARK 921   NORMALIZED FREE ENERGY PREDICTED BY IDOCK:   -4.26 KCAL/MOL
REMARK 922        TOTAL FREE ENERGY PREDICTED BY IDOCK:   -6.14 KCAL/MOL
REMARK 923 INTER-LIGAND FREE ENERGY PREDICTED BY IDOCK:   -5.18 KCAL/MOL
REMARK 924 INTRA-LIGAND FREE ENERGY PREDICTED BY IDOCK:   -0.96 KCAL/MOL
REMARK 927      BINDING AFFINITY PREDICTED BY RF-SCORE:    0.00 PKD
ROOT
HETATM    1 ZN   UNL     1      -8.571   8.154  64.951  1.00  0.00    -0.140 Zn 
HETATM    2  C   UNL     2      -8.969   9.774  67.878  1.00  0.00    -0.118 C  
HETATM    3  O   UNL     2      -8.717  10.293  69.211  1.00  0.00    -0.160 OA 
HETATM    4  C   UNL     3     -10.238   8.263  71.280  1.00  0.00    -0.202 C  
HETATM    5  H   UNL     2      -5.023   8.507  67.810  1.00  0.00     0.000 HD 
HETATM    6  O   UNL     3      -9.945   8.803  72.580  1.00  0.00    -0.245 OA 
HETATM    7  O   UNL     3      -6.890   7.030  71.832  1.00  0.00    -0.059 OA 
HETATM    8  C   UNL     3      -9.121   7.267  70.999  1.00  0.00    -0.153 C  
HETATM    9  C   UNL     2      -7.442   9.987  69.609  1.00  0.00    -0.134 C  
HETATM   10  O   UNL     2      -7.446   8.942  66.222  1.00  0.00    -0.089 OA 
HETATM   11  C   UNL     3      -8.674   8.435  72.928  1.00  0.00    -0.170 C  
HETATM   12  C   UNL     2      -6.782   9.297  68.497  1.00  0.00    -0.058 C  
HETATM   13  O   UNL     2      -5.451   8.954  68.529  1.00  0.00    -0.037 OA 
HETATM   14  O   UNL     2      -6.900  10.349  70.642  1.00  0.00    -0.328 OA 
HETATM   15  C   UNL     2      -7.611   9.236  67.434  1.00  0.00    -0.088 C  
HETATM   16  O   UNL     3      -9.160   6.545  69.963  1.00  0.00    -0.149 OA 
HETATM   17  H   UNL     3      -6.565   6.429  71.171  1.00  0.00     0.000 HD 
HETATM   18  C   UNL     3      -8.172   7.509  71.909  1.00  0.00    -0.106 C  
HETATM   19  O   UNL     3      -8.115   8.793  73.960  1.00  0.00    -0.366 OA 
ENDROOT
BRANCH   2  20
HETATM   20  C   UNL     2     -10.232   8.839  67.916  1.00  0.00    -0.219 C  
HETATM   21  O   UNL     2     -11.413   9.605  68.227  1.00  0.00    -0.502 OA 
HETATM   22  H   UNL     2     -12.176   9.039  68.250  1.00  0.00     0.000 HD 
BRANCH  20  23
HETATM   23  C   UNL     2     -10.643   7.938  66.745  1.00  0.00    -0.163 C  
HETATM   24  H   UNL     2     -11.501   6.125  66.430  1.00  0.00     0.000 HD 
HETATM   25  O   UNL     2     -11.246   6.683  67.156  1.00  0.00    -0.392 OA 
ENDBRANCH  20  23
ENDBRANCH   2  20
BRANCH   4  26
HETATM   26  C   UNL     3     -11.743   7.925  71.196  1.00  0.00    -0.285 C  
HETATM   27  H   UNL     3     -13.050   6.498  71.817  1.00  0.00     0.000 HD 
HETATM   28  O   UNL     3     -12.125   6.705  71.869  1.00  0.00    -0.326 OA 
BRANCH  26  29
HETATM   29  C   UNL     3     -12.644   9.084  71.614  1.00  0.00    -0.348 C  
HETATM   30  O   UNL     3     -12.108  10.326  71.140  1.00  0.00    -0.341 OA 
HETATM   31  H   UNL     3     -12.669  11.047  71.399  1.00  0.00     0.000 HD 
ENDBRANCH  26  29
ENDBRANCH   4  26
TORSDOF 4
ENDMDL
MODEL       65
REMARK 921   NORMALIZED FREE ENERGY PREDICTED BY IDOCK:   -4.25 KCAL/MOL
REMARK 922        TOTAL FREE ENERGY PREDICTED BY IDOCK:   -6.13 KCAL/MOL
REMARK 923 INTER-LIGAND FREE ENERGY PREDICTED BY IDOCK:   -5.63 KCAL/MOL
REMARK 924 INTRA-LIGAND FREE ENERGY PREDICTED BY IDOCK:   -0.49 KCAL/MOL
REMARK 927      BINDING AFFINITY PREDICTED BY RF-SCORE:    0.00 PKD
ROOT
HETATM    1 ZN   UNL     1     -13.100  11.279  69.128  1.00  0.00    -0.133 Zn 
HETATM    2  C   UNL     2     -10.127   9.752  69.546  1.00  0.00    -0.217 C  
HETATM    3  O   UNL     2      -8.933   8.965  69.288  1.00  0.00    -0.140 OA 
HETATM    4  C   UNL     3      -9.499   6.008  70.573  1.00  0.00    -0.168 C  
HETATM    5  H   UNL     2     -11.034   9.384  65.518  1.00  0.00     0.000 HD 
HETATM    6  O   UNL     3      -8.306   5.263  70.276  1.00  0.00    -0.102 OA 
HETATM    7  O   UNL     3     -10.054   5.105  67.122  1.00  0.00    -0.176 OA 
HETATM    8  C   UNL     3     -10.429   5.761  69.392  1.00  0.00    -0.290 C  
HETATM    9  C   UNL     2      -8.903   8.559  67.980  1.00  0.00    -0.142 C  
HETATM   10  O   UNL     2     -11.682  10.759  68.023  1.00  0.00    -0.528 OA 
HETATM   11  C   UNL     3      -8.355   4.862  68.969  1.00  0.00    -0.082 C  
HETATM   12  C   UNL     2     -10.073   9.134  67.308  1.00  0.00    -0.233 C  
HETATM   13  O   UNL     2     -10.277   9.012  65.954  1.00  0.00    -0.165 OA 
HETATM   14  O   UNL     2      -7.997   7.952  67.432  1.00  0.00    -0.118 OA 
HETATM   15  C   UNL     2     -10.761   9.915  68.167  1.00  0.00    -0.233 C  
HETATM   16  O   UNL     3     -11.611   6.205  69.411  1.00  0.00    -0.372 OA 
HETATM   17  H   UNL     3     -10.909   5.334  66.775  1.00  0.00     0.000 HD 
HETATM   18  C   UNL     3      -9.672   5.217  68.434  1.00  0.00    -0.147 C  
HETATM   19  O   UNL     3      -7.452   4.255  68.404  1.00  0.00    -0.063 OA 
ENDROOT
BRANCH   2  20
HETATM   20  C   UNL     2     -10.930   9.102  70.730  1.00  0.00    -0.270 C  
HETATM   21  O   UNL     2     -10.119   9.058  71.921  1.00  0.00    -0.339 OA 
HETATM   22  H   UNL     2     -10.605   8.665  72.636  1.00  0.00     0.000 HD 
BRANCH  20  23
HETATM   23  C   UNL     2     -12.294   9.621  71.202  1.00  0.00    -0.339 C  
HETATM   24  H   UNL     2     -13.205  11.389  71.615  1.00  0.00     0.000 HD 
HETATM   25  O   UNL     2     -12.360  11.067  71.323  1.00  0.00    -0.353 OA 
ENDBRANCH  20  23
ENDBRANCH   2  20
BRANCH   4  26
HETATM   26  C   UNL     3      -9.891   5.776  72.049  1.00  0.00    -0.155 C  
HETATM   27  H   UNL     3      -9.478   6.513  73.897  1.00  0.00     0.000 HD 
HETATM   28  O   UNL     3      -9.237   6.655  72.990  1.00  0.00    -0.132 OA 
BRANCH  26  29
HETATM   29  C   UNL     3     -11.400   5.759  72.275  1.00  0.00    -0.278 C  
HETATM   30  O   UNL     3     -11.723   4.951  73.414  1.00  0.00    -0.461 OA 
HETATM   31  H   UNL     3     -12.663   4.941  73.554  1.00  0.00     0.000 HD 
ENDBRANCH  26  29
ENDBRANCH   4  26
TORSDOF 4
ENDMDL
MODEL       66
REMARK 921   NORMALIZED FREE ENERGY PREDICTED BY IDOCK:   -4.25 KCAL/MOL
REMARK 922        TOTAL FREE ENERGY PREDICTED BY IDOCK:   -6.12 KCAL/MOL
REMARK 923 INTER-LIGAND FREE ENERGY PREDICTED BY IDOCK:   -5.32 KCAL/MOL
REMARK 924 INTRA-LIGAND FREE ENERGY PREDICTED BY IDOCK:   -0.80 KCAL/MOL
REMARK 927      BINDING AFFINITY PREDICTED BY RF-SCORE:    0.00 PKD
ROOT
HETATM    1 ZN   UNL     1     -11.932  11.206  64.018  1.00  0.00    -0.312 Zn 
HETATM    2  C   UNL     2     -10.925  12.027  67.127  1.00  0.00    -0.270 C  
HETATM    3  O   UNL     2     -10.282  12.721  68.229  1.00  0.00    -0.233 OA 
HETATM    4  C   UNL     3      -7.524  11.073  68.856  1.00  0.00    -0.123 C  
HETATM    5  H   UNL     2      -9.782  15.183  64.694  1.00  0.00     0.000 HD 
HETATM    6  O   UNL     3      -6.916  11.805  69.933  1.00  0.00     0.059 OA 
HETATM    7  O   UNL     3      -6.002  13.826  67.085  1.00  0.00    -0.362 OA 
HETATM    8  C   UNL     3      -6.960  11.691  67.583  1.00  0.00    -0.095 C  
HETATM    9  C   UNL     2      -9.676  13.866  67.783  1.00  0.00    -0.225 C  
HETATM   10  O   UNL     2     -11.443  12.778  64.908  1.00  0.00    -0.302 OA 
HETATM   11  C   UNL     3      -6.305  12.914  69.416  1.00  0.00    -0.109 C  
HETATM   12  C   UNL     2      -9.964  13.994  66.351  1.00  0.00    -0.294 C  
HETATM   13  O   UNL     2      -9.596  15.100  65.622  1.00  0.00    -0.334 OA 
HETATM   14  O   UNL     2      -9.121  14.706  68.473  1.00  0.00    -0.179 OA 
HETATM   15  C   UNL     2     -10.771  12.988  65.950  1.00  0.00    -0.276 C  
HETATM   16  O   UNL     3      -7.231  11.185  66.458  1.00  0.00    -0.138 OA 
HETATM   17  H   UNL     3      -6.050  13.775  66.137  1.00  0.00     0.000 HD 
HETATM   18  C   UNL     3      -6.379  12.836  67.955  1.00  0.00    -0.118 C  
HETATM   19  O   UNL     3      -5.746  13.769  70.096  1.00  0.00    -0.113 OA 
ENDROOT
BRANCH   2  20
HETATM   20  C   UNL     2     -10.371  10.559  67.045  1.00  0.00    -0.237 C  
HETATM   21  O   UNL     2     -11.259   9.649  67.724  1.00  0.00    -0.504 OA 
HETATM   22  H   UNL     2     -10.924   8.762  67.675  1.00  0.00     0.000 HD 
BRANCH  20  23
HETATM   23  C   UNL     2     -10.033   9.863  65.721  1.00  0.00    -0.277 C  
HETATM   24  H   UNL     2      -9.082   8.194  65.062  1.00  0.00     0.000 HD 
HETATM   25  O   UNL     2      -9.292   8.625  65.882  1.00  0.00    -0.219 OA 
ENDBRANCH  20  23
ENDBRANCH   2  20
BRANCH   4  26
HETATM   26  C   UNL     3      -7.484   9.563  69.179  1.00  0.00    -0.074 C  
HETATM   27  H   UNL     3      -6.132   8.071  69.457  1.00  0.00     0.000 HD 
HETATM   28  O   UNL     3      -6.157   8.999  69.259  1.00  0.00    -0.041 OA 
BRANCH  26  29
HETATM   29  C   UNL     3      -8.312   9.188  70.404  1.00  0.00    -0.185 C  
HETATM   30  O   UNL     3      -9.552   9.906  70.406  1.00  0.00    -0.354 OA 
HETATM   31  H   UNL     3     -10.067   9.672  71.169  1.00  0.00     0.000 HD 
ENDBRANCH  26  29
ENDBRANCH   4  26
TORSDOF 4
ENDMDL
MODEL       67
REMARK 921   NORMALIZED FREE ENERGY PREDICTED BY IDOCK:   -4.24 KCAL/MOL
REMARK 922        TOTAL FREE ENERGY PREDICTED BY IDOCK:   -6.11 KCAL/MOL
REMARK 923 INTER-LIGAND FREE ENERGY PREDICTED BY IDOCK:   -5.67 KCAL/MOL
REMARK 924 INTRA-LIGAND FREE ENERGY PREDICTED BY IDOCK:   -0.44 KCAL/MOL
REMARK 927      BINDING AFFINITY PREDICTED BY RF-SCORE:    0.00 PKD
ROOT
HETATM    1 ZN   UNL     1     -11.719  11.368  62.587  1.00  0.00    -0.614 Zn 
HETATM    2  C   UNL     2      -9.672  11.878  65.214  1.00  0.00    -0.192 C  
HETATM    3  O   UNL     2      -8.638  11.678  66.215  1.00  0.00    -0.175 OA 
HETATM    4  C   UNL     3     -10.171  10.606  68.902  1.00  0.00    -0.201 C  
HETATM    5  H   UNL     2      -8.264   8.468  63.325  1.00  0.00     0.000 HD 
HETATM    6  O   UNL     3      -9.111  10.404  69.852  1.00  0.00    -0.075 OA 
HETATM    7  O   UNL     3      -8.852   7.417  67.841  1.00  0.00    -0.132 OA 
HETATM    8  C   UNL     3     -10.325   9.271  68.184  1.00  0.00    -0.215 C  
HETATM    9  C   UNL     2      -7.947  10.523  65.963  1.00  0.00    -0.149 C  
HETATM   10  O   UNL     2     -10.003  10.814  63.090  1.00  0.00    -0.330 OA 
HETATM   11  C   UNL     3      -8.486   9.222  69.563  1.00  0.00    -0.144 C  
HETATM   12  C   UNL     2      -8.477   9.948  64.723  1.00  0.00    -0.172 C  
HETATM   13  O   UNL     2      -7.921   8.840  64.128  1.00  0.00    -0.138 OA 
HETATM   14  O   UNL     2      -6.971  10.116  66.573  1.00  0.00    -0.093 OA 
HETATM   15  C   UNL     2      -9.423  10.760  64.204  1.00  0.00    -0.268 C  
HETATM   16  O   UNL     3     -11.260   9.102  67.352  1.00  0.00     0.103 OA 
HETATM   17  H   UNL     3      -9.342   6.985  67.151  1.00  0.00     0.000 HD 
HETATM   18  C   UNL     3      -9.240   8.556  68.498  1.00  0.00    -0.135 C  
HETATM   19  O   UNL     3      -7.502   8.802  70.165  1.00  0.00    -0.050 OA 
ENDROOT
BRANCH   2  20
HETATM   20  C   UNL     2     -11.064  12.023  65.928  1.00  0.00    -0.324 C  
HETATM   21  O   UNL     2     -11.081  13.200  66.759  1.00  0.00    -0.278 OA 
HETATM   22  H   UNL     2     -11.923  13.287  67.191  1.00  0.00     0.000 HD 
BRANCH  20  23
HETATM   23  C   UNL     2     -12.396  12.058  65.168  1.00  0.00     0.119 C  
HETATM   24  H   UNL     2     -13.846  13.390  64.672  1.00  0.00     0.000 HD 
HETATM   25  O   UNL     2     -13.021  13.368  65.142  1.00  0.00    -0.710 OA 
ENDBRANCH  20  23
ENDBRANCH   2  20
BRANCH   4  26
HETATM   26  C   UNL     3     -11.331  11.363  69.585  1.00  0.00    -0.275 C  
HETATM   27  H   UNL     3     -13.073  12.292  69.104  1.00  0.00     0.000 HD 
HETATM   28  O   UNL     3     -12.360  11.827  68.684  1.00  0.00    -0.335 OA 
BRANCH  26  29
HETATM   29  C   UNL     3     -11.936  10.601  70.761  1.00  0.00    -0.374 C  
HETATM   30  O   UNL     3     -12.979   9.730  70.306  1.00  0.00    -0.509 OA 
HETATM   31  H   UNL     3     -13.355   9.256  71.038  1.00  0.00     0.000 HD 
ENDBRANCH  26  29
ENDBRANCH   4  26
TORSDOF 4
ENDMDL
MODEL       68
REMARK 921   NORMALIZED FREE ENERGY PREDICTED BY IDOCK:   -4.21 KCAL/MOL
REMARK 922        TOTAL FREE ENERGY PREDICTED BY IDOCK:   -6.07 KCAL/MOL
REMARK 923 INTER-LIGAND FREE ENERGY PREDICTED BY IDOCK:   -5.02 KCAL/MOL
REMARK 924 INTRA-LIGAND FREE ENERGY PREDICTED BY IDOCK:   -1.05 KCAL/MOL
REMARK 927      BINDING AFFINITY PREDICTED BY RF-SCORE:    0.00 PKD
ROOT
HETATM    1 ZN   UNL     1     -11.214   3.429  73.466  1.00  0.00    -0.149 Zn 
HETATM    2  C   UNL     2     -10.492   6.716  73.312  1.00  0.00    -0.276 C  
HETATM    3  O   UNL     2     -10.527   8.118  72.934  1.00  0.00    -0.340 OA 
HETATM    4  C   UNL     3      -8.161   8.520  70.709  1.00  0.00    -0.120 C  
HETATM    5  H   UNL     2     -13.976   6.215  71.122  1.00  0.00     0.000 HD 
HETATM    6  O   UNL     3      -8.247   9.910  70.353  1.00  0.00    -0.172 OA 
HETATM    7  O   UNL     3     -10.938   8.500  68.403  1.00  0.00    -0.444 OA 
HETATM    8  C   UNL     3      -9.072   7.798  69.726  1.00  0.00    -0.147 C  
HETATM    9  C   UNL     2     -11.575   8.358  72.086  1.00  0.00    -0.374 C  
HETATM   10  O   UNL     2     -12.149   4.999  73.063  1.00  0.00    -0.171 OA 
HETATM   11  C   UNL     3      -9.290  10.073  69.483  1.00  0.00    -0.229 C  
HETATM   12  C   UNL     2     -12.316   7.103  71.927  1.00  0.00    -0.317 C  
HETATM   13  O   UNL     2     -13.497   7.028  71.226  1.00  0.00    -0.333 OA 
HETATM   14  O   UNL     2     -11.922   9.446  71.654  1.00  0.00    -0.347 OA 
HETATM   15  C   UNL     2     -11.769   6.142  72.701  1.00  0.00    -0.151 C  
HETATM   16  O   UNL     3      -9.126   6.536  69.720  1.00  0.00    -0.141 OA 
HETATM   17  H   UNL     3     -11.273   7.640  68.179  1.00  0.00     0.000 HD 
HETATM   18  C   UNL     3      -9.808   8.747  69.138  1.00  0.00    -0.181 C  
HETATM   19  O   UNL     3      -9.652  11.160  69.043  1.00  0.00    -0.175 OA 
ENDROOT
BRANCH   2  20
HETATM   20  C   UNL     2      -9.086   6.116  72.948  1.00  0.00    -0.131 C  
HETATM   21  O   UNL     2      -8.256   6.036  74.123  1.00  0.00    -0.106 OA 
HETATM   22  H   UNL     2      -7.406   5.673  73.903  1.00  0.00     0.000 HD 
BRANCH  20  23
HETATM   23  C   UNL     2      -8.908   4.764  72.247  1.00  0.00    -0.123 C  
HETATM   24  H   UNL     2      -8.868   2.787  72.711  1.00  0.00     0.000 HD 
HETATM   25  O   UNL     2      -8.978   3.625  73.145  1.00  0.00    -0.097 OA 
ENDBRANCH  20  23
ENDBRANCH   2  20
BRANCH   4  26
HETATM   26  C   UNL     3      -6.681   8.148  70.956  1.00  0.00    -0.042 C  
HETATM   27  H   UNL     3      -4.840   8.511  70.177  1.00  0.00     0.000 HD 
HETATM   28  O   UNL     3      -5.749   8.739  70.025  1.00  0.00    -0.028 OA 
BRANCH  26  29
HETATM   29  C   UNL     3      -6.236   8.377  72.397  1.00  0.00    -0.069 C  
HETATM   30  O   UNL     3      -7.341   8.817  73.195  1.00  0.00    -0.356 OA 
HETATM   31  H   UNL     3      -7.064   8.960  74.092  1.00  0.00     0.000 HD 
ENDBRANCH  26  29
ENDBRANCH   4  26
TORSDOF 4
ENDMDL
MODEL       69
REMARK 921   NORMALIZED FREE ENERGY PREDICTED BY IDOCK:   -4.13 KCAL/MOL
REMARK 922        TOTAL FREE ENERGY PREDICTED BY IDOCK:   -5.98 KCAL/MOL
REMARK 923 INTER-LIGAND FREE ENERGY PREDICTED BY IDOCK:   -5.29 KCAL/MOL
REMARK 924 INTRA-LIGAND FREE ENERGY PREDICTED BY IDOCK:   -0.69 KCAL/MOL
REMARK 927      BINDING AFFINITY PREDICTED BY RF-SCORE:    0.00 PKD
ROOT
HETATM    1 ZN   UNL     1     -12.095   6.769  67.174  1.00  0.00    -0.694 Zn 
HETATM    2  C   UNL     2     -10.751   8.922  69.390  1.00  0.00    -0.181 C  
HETATM    3  O   UNL     2      -9.805   9.794  70.064  1.00  0.00    -0.227 OA 
HETATM    4  C   UNL     3      -8.551   8.042  72.528  1.00  0.00    -0.169 C  
HETATM    5  H   UNL     2      -7.998   8.599  66.308  1.00  0.00     0.000 HD 
HETATM    6  O   UNL     3      -7.611   8.935  73.149  1.00  0.00    -0.366 OA 
HETATM    7  O   UNL     3      -5.720   7.768  70.304  1.00  0.00    -0.023 OA 
HETATM    8  C   UNL     3      -7.750   7.285  71.477  1.00  0.00    -0.087 C  
HETATM    9  C   UNL     2      -8.646   9.890  69.341  1.00  0.00    -0.174 C  
HETATM   10  O   UNL     2     -10.757   8.076  67.145  1.00  0.00    -0.322 OA 
HETATM   11  C   UNL     3      -6.469   8.959  72.396  1.00  0.00     0.035 C  
HETATM   12  C   UNL     2      -8.824   9.116  68.108  1.00  0.00    -0.129 C  
HETATM   13  O   UNL     2      -7.883   9.101  67.106  1.00  0.00    -0.101 OA 
HETATM   14  O   UNL     2      -7.690  10.605  69.597  1.00  0.00    -0.146 OA 
HETATM   15  C   UNL     2     -10.075   8.612  68.056  1.00  0.00    -0.196 C  
HETATM   16  O   UNL     3      -8.284   6.343  70.828  1.00  0.00    -0.121 OA 
HETATM   17  H   UNL     3      -5.804   7.112  69.620  1.00  0.00     0.000 HD 
HETATM   18  C   UNL     3      -6.597   7.950  71.342  1.00  0.00    -0.042 C  
HETATM   19  O   UNL     3      -5.502   9.674  72.639  1.00  0.00    -0.228 OA 
ENDROOT
BRANCH   2  20
HETATM   20  C   UNL     2     -11.176   7.765  70.365  1.00  0.00    -0.237 C  
HETATM   21  O   UNL     2     -12.430   8.082  71.002  1.00  0.00    -0.470 OA 
HETATM   22  H   UNL     2     -12.686   7.383  71.591  1.00  0.00     0.000 HD 
BRANCH  20  23
HETATM   23  C   UNL     2     -11.318   6.305  69.921  1.00  0.00    -0.434 C  
HETATM   24  H   UNL     2     -11.292   4.443  70.732  1.00  0.00     0.000 HD 
HETATM   25  O   UNL     2     -11.204   5.348  71.007  1.00  0.00    -0.058 OA 
ENDBRANCH  20  23
ENDBRANCH   2  20
BRANCH   4  26
HETATM   26  C   UNL     3      -9.408   7.364  73.620  1.00  0.00    -0.258 C  
HETATM   27  H   UNL     3     -11.357   6.973  74.041  1.00  0.00     0.000 HD 
HETATM   28  O   UNL     3     -10.830   7.390  73.370  1.00  0.00    -0.388 OA 
BRANCH  26  29
HETATM   29  C   UNL     3      -8.939   5.953  73.963  1.00  0.00    -0.126 C  
HETATM   30  O   UNL     3      -9.681   4.985  73.211  1.00  0.00    -0.142 OA 
HETATM   31  H   UNL     3      -9.389   4.107  73.425  1.00  0.00     0.000 HD 
ENDBRANCH  26  29
ENDBRANCH   4  26
TORSDOF 4
ENDMDL
MODEL       70
REMARK 921   NORMALIZED FREE ENERGY PREDICTED BY IDOCK:   -4.12 KCAL/MOL
REMARK 922        TOTAL FREE ENERGY PREDICTED BY IDOCK:   -5.96 KCAL/MOL
REMARK 923 INTER-LIGAND FREE ENERGY PREDICTED BY IDOCK:   -5.06 KCAL/MOL
REMARK 924 INTRA-LIGAND FREE ENERGY PREDICTED BY IDOCK:   -0.89 KCAL/MOL
REMARK 927      BINDING AFFINITY PREDICTED BY RF-SCORE:    0.00 PKD
ROOT
HETATM    1 ZN   UNL     1     -10.890  12.552  70.211  1.00  0.00    -0.458 Zn 
HETATM    2  C   UNL     2     -11.090  10.230  67.778  1.00  0.00    -0.269 C  
HETATM    3  O   UNL     2     -10.983   8.969  67.064  1.00  0.00    -0.091 OA 
HETATM    4  C   UNL     3      -8.262   9.176  65.256  1.00  0.00    -0.134 C  
HETATM    5  H   UNL     2      -9.970   8.187  71.207  1.00  0.00     0.000 HD 
HETATM    6  O   UNL     3      -8.188   7.906  64.588  1.00  0.00    -0.144 OA 
HETATM    7  O   UNL     3      -6.906   7.072  67.858  1.00  0.00    -0.071 OA 
HETATM    8  C   UNL     3      -7.483   8.993  66.552  1.00  0.00    -0.089 C  
HETATM    9  C   UNL     2     -10.534   7.983  67.901  1.00  0.00    -0.197 C  
HETATM   10  O   UNL     2     -11.052  10.689  70.132  1.00  0.00    -0.288 OA 
HETATM   11  C   UNL     3      -7.704   6.977  65.468  1.00  0.00    -0.105 C  
HETATM   12  C   UNL     2     -10.389   8.566  69.239  1.00  0.00    -0.221 C  
HETATM   13  O   UNL     2     -10.064   7.810  70.341  1.00  0.00    -0.192 OA 
HETATM   14  O   UNL     2     -10.414   6.799  67.627  1.00  0.00    -0.178 OA 
HETATM   15  C   UNL     2     -10.794   9.853  69.228  1.00  0.00    -0.227 C  
HETATM   16  O   UNL     3      -7.279   9.978  67.315  1.00  0.00    -0.085 OA 
HETATM   17  H   UNL     3      -6.649   7.525  68.653  1.00  0.00     0.000 HD 
HETATM   18  C   UNL     3      -7.308   7.675  66.694  1.00  0.00    -0.088 C  
HETATM   19  O   UNL     3      -7.581   5.784  65.208  1.00  0.00    -0.079 OA 
ENDROOT
BRANCH   2  20
HETATM   20  C   UNL     2     -10.232  11.319  67.038  1.00  0.00    -0.215 C  
HETATM   21  O   UNL     2     -10.934  11.805  65.877  1.00  0.00    -0.293 OA 
HETATM   22  H   UNL     2     -10.415  12.464  65.430  1.00  0.00     0.000 HD 
BRANCH  20  23
HETATM   23  C   UNL     2      -9.698  12.578  67.731  1.00  0.00    -0.202 C  
HETATM   24  H   UNL     2     -10.405  14.292  68.561  1.00  0.00     0.000 HD 
HETATM   25  O   UNL     2     -10.736  13.512  68.131  1.00  0.00    -0.239 OA 
ENDBRANCH  20  23
ENDBRANCH   2  20
BRANCH   4  26
HETATM   26  C   UNL     3      -7.996  10.305  64.236  1.00  0.00    -0.132 C  
HETATM   27  H   UNL     3      -6.626  10.836  62.832  1.00  0.00     0.000 HD 
HETATM   28  O   UNL     3      -6.789  10.143  63.459  1.00  0.00    -0.133 OA 
BRANCH  26  29
HETATM   29  C   UNL     3      -9.192  10.595  63.334  1.00  0.00    -0.270 C  
HETATM   30  O   UNL     3      -9.375  12.009  63.191  1.00  0.00    -0.664 OA 
HETATM   31  H   UNL     3     -10.120  12.189  62.629  1.00  0.00     0.000 HD 
ENDBRANCH  26  29
ENDBRANCH   4  26
TORSDOF 4
ENDMDL
MODEL       71
REMARK 921   NORMALIZED FREE ENERGY PREDICTED BY IDOCK:   -4.11 KCAL/MOL
REMARK 922        TOTAL FREE ENERGY PREDICTED BY IDOCK:   -5.95 KCAL/MOL
REMARK 923 INTER-LIGAND FREE ENERGY PREDICTED BY IDOCK:   -4.98 KCAL/MOL
REMARK 924 INTRA-LIGAND FREE ENERGY PREDICTED BY IDOCK:   -0.96 KCAL/MOL
REMARK 927      BINDING AFFINITY PREDICTED BY RF-SCORE:    0.00 PKD
ROOT
HETATM    1 ZN   UNL     1     -11.211  13.917  65.016  1.00  0.00    -0.298 Zn 
HETATM    2  C   UNL     2      -9.403  12.719  67.595  1.00  0.00    -0.191 C  
HETATM    3  O   UNL     2      -8.528  11.875  68.390  1.00  0.00    -0.162 OA 
HETATM    4  C   UNL     3     -10.491   9.972  70.190  1.00  0.00    -0.284 C  
HETATM    5  H   UNL     2      -8.360  10.415  64.311  1.00  0.00     0.000 HD 
HETATM    6  O   UNL     3      -9.585   9.146  70.941  1.00  0.00    -0.239 OA 
HETATM    7  O   UNL     3      -9.590   7.482  67.737  1.00  0.00    -0.139 OA 
HETATM    8  C   UNL     3     -10.777   9.195  68.912  1.00  0.00    -0.141 C  
HETATM    9  C   UNL     2      -8.007  10.869  67.620  1.00  0.00    -0.114 C  
HETATM   10  O   UNL     2      -9.669  12.875  65.216  1.00  0.00    -0.136 OA 
HETATM   11  C   UNL     3      -9.128   8.147  70.124  1.00  0.00    -0.147 C  
HETATM   12  C   UNL     2      -8.485  11.065  66.248  1.00  0.00    -0.165 C  
HETATM   13  O   UNL     2      -8.051  10.289  65.199  1.00  0.00    -0.145 OA 
HETATM   14  O   UNL     2      -7.178  10.045  67.972  1.00  0.00    -0.081 OA 
HETATM   15  C   UNL     2      -9.228  12.189  66.173  1.00  0.00    -0.155 C  
HETATM   16  O   UNL     3     -11.633   9.623  68.087  1.00  0.00     0.179 OA 
HETATM   17  H   UNL     3     -10.065   7.532  66.915  1.00  0.00     0.000 HD 
HETATM   18  C   UNL     3      -9.860   8.224  68.857  1.00  0.00    -0.180 C  
HETATM   19  O   UNL     3      -8.295   7.313  70.463  1.00  0.00    -0.129 OA 
ENDROOT
BRANCH   2  20
HETATM   20  C   UNL     2     -10.823  12.771  68.265  1.00  0.00    -0.248 C  
HETATM   21  O   UNL     2     -10.828  13.710  69.359  1.00  0.00    -0.420 OA 
HETATM   22  H   UNL     2     -11.686  13.740  69.764  1.00  0.00     0.000 HD 
BRANCH  20  23
HETATM   23  C   UNL     2     -12.108  13.071  67.484  1.00  0.00    -0.224 C  
HETATM   24  H   UNL     2     -13.018  14.639  66.568  1.00  0.00     0.000 HD 
HETATM   25  O   UNL     2     -12.222  14.453  67.052  1.00  0.00    -0.400 OA 
ENDBRANCH  20  23
ENDBRANCH   2  20
BRANCH   4  26
HETATM   26  C   UNL     3     -11.583  10.521  71.135  1.00  0.00    -0.140 C  
HETATM   27  H   UNL     3     -13.083  11.891  71.142  1.00  0.00     0.000 HD 
HETATM   28  O   UNL     3     -12.412  11.555  70.562  1.00  0.00    -0.318 OA 
BRANCH  26  29
HETATM   29  C   UNL     3     -12.436   9.425  71.769  1.00  0.00    -0.391 C  
HETATM   30  O   UNL     3     -11.647   8.639  72.670  1.00  0.00    -0.315 OA 
HETATM   31  H   UNL     3     -12.178   7.957  73.064  1.00  0.00     0.000 HD 
ENDBRANCH  26  29
ENDBRANCH   4  26
TORSDOF 4
ENDMDL
MODEL       72
REMARK 921   NORMALIZED FREE ENERGY PREDICTED BY IDOCK:   -4.10 KCAL/MOL
REMARK 922        TOTAL FREE ENERGY PREDICTED BY IDOCK:   -5.93 KCAL/MOL
REMARK 923 INTER-LIGAND FREE ENERGY PREDICTED BY IDOCK:   -5.20 KCAL/MOL
REMARK 924 INTRA-LIGAND FREE ENERGY PREDICTED BY IDOCK:   -0.74 KCAL/MOL
REMARK 927      BINDING AFFINITY PREDICTED BY RF-SCORE:    0.00 PKD
ROOT
HETATM    1 ZN   UNL     1      -6.055   6.918  65.544  1.00  0.00    -0.029 Zn 
HETATM    2  C   UNL     2      -6.989   9.579  67.387  1.00  0.00    -0.084 C  
HETATM    3  O   UNL     2      -7.547  10.386  68.459  1.00  0.00    -0.088 OA 
HETATM    4  C   UNL     3     -10.518  11.313  67.445  1.00  0.00    -0.212 C  
HETATM    5  H   UNL     2      -7.639   6.257  69.780  1.00  0.00     0.000 HD 
HETATM    6  O   UNL     3     -11.035  12.088  68.540  1.00  0.00    -0.214 OA 
HETATM    7  O   UNL     3     -11.611   8.720  69.705  1.00  0.00    -0.437 OA 
HETATM    8  C   UNL     3     -10.969   9.884  67.716  1.00  0.00    -0.217 C  
HETATM    9  C   UNL     2      -7.979   9.586  69.483  1.00  0.00    -0.110 C  
HETATM   10  O   UNL     2      -6.334   7.271  67.360  1.00  0.00    -0.050 OA 
HETATM   11  C   UNL     3     -11.477  11.230  69.510  1.00  0.00    -0.307 C  
HETATM   12  C   UNL     2      -7.652   8.200  69.134  1.00  0.00    -0.096 C  
HETATM   13  O   UNL     2      -7.850   7.155  70.005  1.00  0.00    -0.108 OA 
HETATM   14  O   UNL     2      -8.423   9.961  70.556  1.00  0.00    -0.153 OA 
HETATM   15  C   UNL     2      -6.988   8.163  67.959  1.00  0.00    -0.077 C  
HETATM   16  O   UNL     3     -10.753   8.978  66.864  1.00  0.00    -0.215 OA 
HETATM   17  H   UNL     3     -11.555   7.834  69.364  1.00  0.00     0.000 HD 
HETATM   18  C   UNL     3     -11.390   9.865  68.985  1.00  0.00    -0.023 C  
HETATM   19  O   UNL     3     -11.923  11.592  70.594  1.00  0.00    -0.361 OA 
ENDROOT
BRANCH   2  20
HETATM   20  C   UNL     2      -7.741   9.906  66.047  1.00  0.00    -0.108 C  
HETATM   21  O   UNL     2      -7.546  11.287  65.687  1.00  0.00    -0.362 OA 
HETATM   22  H   UNL     2      -8.001  11.484  64.876  1.00  0.00     0.000 HD 
BRANCH  20  23
HETATM   23  C   UNL     2      -7.514   9.124  64.747  1.00  0.00    -0.106 C  
HETATM   24  H   UNL     2      -8.085   7.375  63.887  1.00  0.00     0.000 HD 
HETATM   25  O   UNL     2      -8.225   7.859  64.692  1.00  0.00    -0.144 OA 
ENDBRANCH  20  23
ENDBRANCH   2  20
BRANCH   4  26
HETATM   26  C   UNL     3     -10.774  12.068  66.121  1.00  0.00    -0.275 C  
HETATM   27  H   UNL     3     -12.310  12.546  64.880  1.00  0.00     0.000 HD 
HETATM   28  O   UNL     3     -12.153  12.082  65.694  1.00  0.00    -0.508 OA 
BRANCH  26  29
HETATM   29  C   UNL     3     -10.182  13.474  66.106  1.00  0.00    -0.302 C  
HETATM   30  O   UNL     3      -9.997  13.922  64.758  1.00  0.00    -0.609 OA 
HETATM   31  H   UNL     3      -9.629  14.797  64.749  1.00  0.00     0.000 HD 
ENDBRANCH  26  29
ENDBRANCH   4  26
TORSDOF 4
ENDMDL
MODEL       73
REMARK 921   NORMALIZED FREE ENERGY PREDICTED BY IDOCK:   -4.09 KCAL/MOL
REMARK 922        TOTAL FREE ENERGY PREDICTED BY IDOCK:   -5.93 KCAL/MOL
REMARK 923 INTER-LIGAND FREE ENERGY PREDICTED BY IDOCK:   -4.79 KCAL/MOL
REMARK 924 INTRA-LIGAND FREE ENERGY PREDICTED BY IDOCK:   -1.14 KCAL/MOL
REMARK 927      BINDING AFFINITY PREDICTED BY RF-SCORE:    0.00 PKD
ROOT
HETATM    1 ZN   UNL     1      -6.339   5.779  66.955  1.00  0.00    -0.027 Zn 
HETATM    2  C   UNL     2      -8.664   5.356  69.356  1.00  0.00    -0.105 C  
HETATM    3  O   UNL     2      -9.900   5.463  70.111  1.00  0.00    -0.176 OA 
HETATM    4  C   UNL     3      -9.353   7.699  72.439  1.00  0.00    -0.160 C  
HETATM    5  H   UNL     2     -10.556   7.411  66.293  1.00  0.00     0.000 HD 
HETATM    6  O   UNL     3     -10.603   7.784  73.143  1.00  0.00    -0.359 OA 
HETATM    7  O   UNL     3     -11.275   9.816  70.236  1.00  0.00    -0.254 OA 
HETATM    8  C   UNL     3      -9.440   8.749  71.340  1.00  0.00    -0.259 C  
HETATM    9  C   UNL     2     -10.824   6.195  69.413  1.00  0.00    -0.353 C  
HETATM   10  O   UNL     2      -8.207   5.832  67.050  1.00  0.00    -0.102 OA 
HETATM   11  C   UNL     3     -11.466   8.552  72.409  1.00  0.00    -0.349 C  
HETATM   12  C   UNL     2     -10.230   6.545  68.119  1.00  0.00    -0.168 C  
HETATM   13  O   UNL     2     -10.941   7.184  67.131  1.00  0.00    -0.342 OA 
HETATM   14  O   UNL     2     -11.983   6.398  69.739  1.00  0.00    -0.257 OA 
HETATM   15  C   UNL     2      -9.003   5.993  68.010  1.00  0.00    -0.112 C  
HETATM   16  O   UNL     3      -8.437   8.987  70.609  1.00  0.00    -0.158 OA 
HETATM   17  H   UNL     3     -10.795  10.178  69.500  1.00  0.00     0.000 HD 
HETATM   18  C   UNL     3     -10.726   9.109  71.274  1.00  0.00    -0.331 C  
HETATM   19  O   UNL     3     -12.633   8.762  72.722  1.00  0.00    -0.316 OA 
ENDROOT
BRANCH   2  20
HETATM   20  C   UNL     2      -7.475   5.900  70.228  1.00  0.00    -0.089 C  
HETATM   21  O   UNL     2      -6.924   4.844  71.039  1.00  0.00    -0.044 OA 
HETATM   22  H   UNL     2      -6.206   5.173  71.566  1.00  0.00     0.000 HD 
BRANCH  20  23
HETATM   23  C   UNL     2      -6.257   6.615  69.631  1.00  0.00    -0.041 C  
HETATM   24  H   UNL     2      -4.465   6.155  68.793  1.00  0.00     0.000 HD 
HETATM   25  O   UNL     2      -5.220   5.713  69.163  1.00  0.00    -0.003 OA 
ENDBRANCH  20  23
ENDBRANCH   2  20
BRANCH   4  26
HETATM   26  C   UNL     3      -8.198   7.605  73.461  1.00  0.00    -0.161 C  
HETATM   27  H   UNL     3      -7.312   8.724  74.908  1.00  0.00     0.000 HD 
HETATM   28  O   UNL     3      -8.022   8.782  74.280  1.00  0.00    -0.378 OA 
BRANCH  26  29
HETATM   29  C   UNL     3      -8.254   6.345  74.319  1.00  0.00    -0.124 C  
HETATM   30  O   UNL     3      -8.871   5.276  73.592  1.00  0.00    -0.122 OA 
HETATM   31  H   UNL     3      -8.906   4.491  74.127  1.00  0.00     0.000 HD 
ENDBRANCH  26  29
ENDBRANCH   4  26
TORSDOF 4
ENDMDL
MODEL       74
REMARK 921   NORMALIZED FREE ENERGY PREDICTED BY IDOCK:   -4.09 KCAL/MOL
REMARK 922        TOTAL FREE ENERGY PREDICTED BY IDOCK:   -5.93 KCAL/MOL
REMARK 923 INTER-LIGAND FREE ENERGY PREDICTED BY IDOCK:   -5.04 KCAL/MOL
REMARK 924 INTRA-LIGAND FREE ENERGY PREDICTED BY IDOCK:   -0.89 KCAL/MOL
REMARK 927      BINDING AFFINITY PREDICTED BY RF-SCORE:    0.00 PKD
ROOT
HETATM    1 ZN   UNL     1     -11.253  10.619  65.723  1.00  0.00    -0.181 Zn 
HETATM    2  C   UNL     2      -9.073   9.283  67.918  1.00  0.00    -0.127 C  
HETATM    3  O   UNL     2      -8.160   8.355  68.561  1.00  0.00    -0.119 OA 
HETATM    4  C   UNL     3      -9.888   6.852  70.900  1.00  0.00    -0.185 C  
HETATM    5  H   UNL     2      -9.146   6.701  64.677  1.00  0.00     0.000 HD 
HETATM    6  O   UNL     3      -8.953   5.935  71.492  1.00  0.00    -0.142 OA 
HETATM    7  O   UNL     3      -9.928   4.146  68.512  1.00  0.00    -0.064 OA 
HETATM    8  C   UNL     3     -10.567   6.069  69.784  1.00  0.00    -0.289 C  
HETATM    9  C   UNL     2      -7.973   7.248  67.777  1.00  0.00    -0.115 C  
HETATM   10  O   UNL     2      -9.863   9.368  65.654  1.00  0.00    -0.296 OA 
HETATM   11  C   UNL     3      -8.838   4.843  70.675  1.00  0.00    -0.117 C  
HETATM   12  C   UNL     2      -8.727   7.450  66.535  1.00  0.00    -0.140 C  
HETATM   13  O   UNL     2      -8.657   6.571  65.481  1.00  0.00    -0.151 OA 
HETATM   14  O   UNL     2      -7.205   6.326  67.998  1.00  0.00    -0.082 OA 
HETATM   15  C   UNL     2      -9.307   8.669  66.540  1.00  0.00    -0.200 C  
HETATM   16  O   UNL     3     -11.525   6.582  69.140  1.00  0.00    -0.306 OA 
HETATM   17  H   UNL     3     -10.570   4.228  67.816  1.00  0.00     0.000 HD 
HETATM   18  C   UNL     3      -9.827   4.970  69.602  1.00  0.00    -0.220 C  
HETATM   19  O   UNL     3      -8.069   3.909  70.883  1.00  0.00    -0.064 OA 
ENDROOT
BRANCH   2  20
HETATM   20  C   UNL     2     -10.278   9.578  68.883  1.00  0.00    -0.199 C  
HETATM   21  O   UNL     2      -9.798  10.082  70.145  1.00  0.00    -0.330 OA 
HETATM   22  H   UNL     2     -10.526  10.260  70.728  1.00  0.00     0.000 HD 
BRANCH  20  23
HETATM   23  C   UNL     2     -11.445  10.500  68.509  1.00  0.00    -0.215 C  
HETATM   24  H   UNL     2     -11.760  12.278  67.580  1.00  0.00     0.000 HD 
HETATM   25  O   UNL     2     -11.037  11.707  67.812  1.00  0.00    -0.217 OA 
ENDBRANCH  20  23
ENDBRANCH   2  20
BRANCH   4  26
HETATM   26  C   UNL     3     -10.646   7.601  72.019  1.00  0.00    -0.220 C  
HETATM   27  H   UNL     3     -12.345   8.683  72.287  1.00  0.00     0.000 HD 
HETATM   28  O   UNL     3     -11.879   8.224  71.599  1.00  0.00    -0.273 OA 
BRANCH  26  29
HETATM   29  C   UNL     3     -10.860   6.754  73.271  1.00  0.00    -0.272 C  
HETATM   30  O   UNL     3     -11.679   5.619  72.969  1.00  0.00    -0.516 OA 
HETATM   31  H   UNL     3     -11.812   5.092  73.749  1.00  0.00     0.000 HD 
ENDBRANCH  26  29
ENDBRANCH   4  26
TORSDOF 4
ENDMDL
MODEL       75
REMARK 921   NORMALIZED FREE ENERGY PREDICTED BY IDOCK:   -4.07 KCAL/MOL
REMARK 922        TOTAL FREE ENERGY PREDICTED BY IDOCK:   -5.91 KCAL/MOL
REMARK 923 INTER-LIGAND FREE ENERGY PREDICTED BY IDOCK:   -5.22 KCAL/MOL
REMARK 924 INTRA-LIGAND FREE ENERGY PREDICTED BY IDOCK:   -0.68 KCAL/MOL
REMARK 927      BINDING AFFINITY PREDICTED BY RF-SCORE:    0.00 PKD
ROOT
HETATM    1 ZN   UNL     1      -9.484  12.888  63.670  1.00  0.00    -0.544 Zn 
HETATM    2  C   UNL     2     -10.495  10.908  66.202  1.00  0.00    -0.229 C  
HETATM    3  O   UNL     2     -10.781  10.419  67.540  1.00  0.00    -0.245 OA 
HETATM    4  C   UNL     3      -8.276   8.474  68.350  1.00  0.00    -0.123 C  
HETATM    5  H   UNL     2      -9.623  14.581  67.913  1.00  0.00     0.000 HD 
HETATM    6  O   UNL     3      -8.592   8.033  69.682  1.00  0.00    -0.132 OA 
HETATM    7  O   UNL     3      -7.269  11.332  70.312  1.00  0.00    -0.397 OA 
HETATM    8  C   UNL     3      -7.454   9.742  68.533  1.00  0.00    -0.079 C  
HETATM    9  C   UNL     2     -10.523  11.392  68.468  1.00  0.00    -0.203 C  
HETATM   10  O   UNL     2     -10.124  13.142  65.411  1.00  0.00    -0.289 OA 
HETATM   11  C   UNL     3      -8.282   9.037  70.558  1.00  0.00    -0.168 C  
HETATM   12  C   UNL     2     -10.111  12.600  67.746  1.00  0.00    -0.220 C  
HETATM   13  O   UNL     2      -9.891  13.799  68.381  1.00  0.00    -0.224 OA 
HETATM   14  O   UNL     2     -10.736  11.322  69.668  1.00  0.00    -0.164 OA 
HETATM   15  C   UNL     2     -10.173  12.385  66.414  1.00  0.00    -0.234 C  
HETATM   16  O   UNL     3      -6.935  10.312  67.532  1.00  0.00    -0.083 OA 
HETATM   17  H   UNL     3      -6.832  12.023  69.827  1.00  0.00     0.000 HD 
HETATM   18  C   UNL     3      -7.609  10.102  69.811  1.00  0.00    -0.170 C  
HETATM   19  O   UNL     3      -8.493   8.981  71.766  1.00  0.00    -0.351 OA 
ENDROOT
BRANCH   2  20
HETATM   20  C   UNL     2      -9.460   9.950  65.510  1.00  0.00    -0.252 C  
HETATM   21  O   UNL     2     -10.009   8.623  65.387  1.00  0.00    -0.258 OA 
HETATM   22  H   UNL     2      -9.383   8.044  64.969  1.00  0.00     0.000 HD 
BRANCH  20  23
HETATM   23  C   UNL     2      -8.830  10.243  64.143  1.00  0.00    -0.222 C  
HETATM   24  H   UNL     2      -9.408  10.555  62.221  1.00  0.00     0.000 HD 
HETATM   25  O   UNL     2      -9.798  10.373  63.067  1.00  0.00    -0.293 OA 
ENDBRANCH  20  23
ENDBRANCH   2  20
BRANCH   4  26
HETATM   26  C   UNL     3      -7.825   7.261  67.505  1.00  0.00    -0.112 C  
HETATM   27  H   UNL     3      -8.621   5.811  66.325  1.00  0.00     0.000 HD 
HETATM   28  O   UNL     3      -8.898   6.556  66.844  1.00  0.00    -0.116 OA 
BRANCH  26  29
HETATM   29  C   UNL     3      -6.705   7.595  66.525  1.00  0.00    -0.058 C  
HETATM   30  O   UNL     3      -7.052   7.159  65.205  1.00  0.00    -0.057 OA 
HETATM   31  H   UNL     3      -6.354   7.367  64.595  1.00  0.00     0.000 HD 
ENDBRANCH  26  29
ENDBRANCH   4  26
TORSDOF 4
ENDMDL
MODEL       76
REMARK 921   NORMALIZED FREE ENERGY PREDICTED BY IDOCK:   -4.06 KCAL/MOL
REMARK 922        TOTAL FREE ENERGY PREDICTED BY IDOCK:   -5.89 KCAL/MOL
REMARK 923 INTER-LIGAND FREE ENERGY PREDICTED BY IDOCK:   -4.99 KCAL/MOL
REMARK 924 INTRA-LIGAND FREE ENERGY PREDICTED BY IDOCK:   -0.90 KCAL/MOL
REMARK 927      BINDING AFFINITY PREDICTED BY RF-SCORE:    0.00 PKD
ROOT
HETATM    1 ZN   UNL     1     -11.085  16.990  66.420  1.00  0.00    -0.273 Zn 
HETATM    2  C   UNL     2      -9.681  14.712  68.468  1.00  0.00    -0.225 C  
HETATM    3  O   UNL     2      -8.714  13.810  69.068  1.00  0.00     0.071 OA 
HETATM    4  C   UNL     3      -9.373  10.839  67.861  1.00  0.00    -0.150 C  
HETATM    5  H   UNL     2      -6.596  16.184  66.123  1.00  0.00     0.000 HD 
HETATM    6  O   UNL     3      -8.384   9.989  68.465  1.00  0.00    -0.108 OA 
HETATM    7  O   UNL     3      -6.486  11.522  65.805  1.00  0.00    -0.346 OA 
HETATM    8  C   UNL     3      -8.748  11.317  66.558  1.00  0.00    -0.178 C  
HETATM    9  C   UNL     2      -7.492  13.950  68.466  1.00  0.00    -0.122 C  
HETATM   10  O   UNL     2      -9.356  16.595  67.017  1.00  0.00    -0.216 OA 
HETATM   11  C   UNL     3      -7.201  10.154  67.798  1.00  0.00    -0.087 C  
HETATM   12  C   UNL     2      -7.606  15.021  67.470  1.00  0.00    -0.192 C  
HETATM   13  O   UNL     2      -6.523  15.491  66.768  1.00  0.00    -0.124 OA 
HETATM   14  O   UNL     2      -6.457  13.393  68.793  1.00  0.00    -0.085 OA 
HETATM   15  C   UNL     2      -8.845  15.555  67.507  1.00  0.00    -0.182 C  
HETATM   16  O   UNL     3      -9.425  12.007  65.744  1.00  0.00    -0.236 OA 
HETATM   17  H   UNL     3      -6.647  12.080  65.052  1.00  0.00     0.000 HD 
HETATM   18  C   UNL     3      -7.448  11.014  66.638  1.00  0.00    -0.146 C  
HETATM   19  O   UNL     3      -6.152   9.604  68.117  1.00  0.00    -0.053 OA 
ENDROOT
BRANCH   2  20
HETATM   20  C   UNL     2     -10.912  13.884  67.950  1.00  0.00    -0.250 C  
HETATM   21  O   UNL     2     -11.595  13.258  69.053  1.00  0.00    -0.270 OA 
HETATM   22  H   UNL     2     -12.339  12.757  68.740  1.00  0.00     0.000 HD 
BRANCH  20  23
HETATM   23  C   UNL     2     -12.027  14.490  67.089  1.00  0.00    -0.345 C  
HETATM   24  H   UNL     2     -12.419  14.880  65.135  1.00  0.00     0.000 HD 
HETATM   25  O   UNL     2     -11.728  14.505  65.668  1.00  0.00    -0.345 OA 
ENDBRANCH  20  23
ENDBRANCH   2  20
BRANCH   4  26
HETATM   26  C   UNL     3     -10.758  10.162  67.962  1.00  0.00    -0.260 C  
HETATM   27  H   UNL     3     -12.655  10.398  67.272  1.00  0.00     0.000 HD 
HETATM   28  O   UNL     3     -11.804  10.815  67.210  1.00  0.00    -0.298 OA 
BRANCH  26  29
HETATM   29  C   UNL     3     -10.720   8.666  67.661  1.00  0.00    -0.124 C  
HETATM   30  O   UNL     3     -10.260   8.440  66.323  1.00  0.00    -0.442 OA 
HETATM   31  H   UNL     3     -10.236   7.509  66.135  1.00  0.00     0.000 HD 
ENDBRANCH  26  29
ENDBRANCH   4  26
TORSDOF 4
ENDMDL
MODEL       77
REMARK 921   NORMALIZED FREE ENERGY PREDICTED BY IDOCK:   -4.05 KCAL/MOL
REMARK 922        TOTAL FREE ENERGY PREDICTED BY IDOCK:   -5.87 KCAL/MOL
REMARK 923 INTER-LIGAND FREE ENERGY PREDICTED BY IDOCK:   -4.94 KCAL/MOL
REMARK 924 INTRA-LIGAND FREE ENERGY PREDICTED BY IDOCK:   -0.93 KCAL/MOL
REMARK 927      BINDING AFFINITY PREDICTED BY RF-SCORE:    0.00 PKD
ROOT
HETATM    1 ZN   UNL     1      -9.419   9.305  63.798  1.00  0.00    -0.321 Zn 
HETATM    2  C   UNL     2     -10.646   8.610  66.858  1.00  0.00    -0.200 C  
HETATM    3  O   UNL     2     -10.983   8.726  68.267  1.00  0.00    -0.027 OA 
HETATM    4  C   UNL     3      -8.716   7.006  69.887  1.00  0.00    -0.142 C  
HETATM    5  H   UNL     2      -9.354  12.546  67.021  1.00  0.00     0.000 HD 
HETATM    6  O   UNL     3      -9.078   7.166  71.269  1.00  0.00    -0.150 OA 
HETATM    7  O   UNL     3      -7.384  10.283  70.605  1.00  0.00    -0.433 OA 
HETATM    8  C   UNL     3      -7.753   8.148  69.590  1.00  0.00    -0.101 C  
HETATM    9  C   UNL     2     -10.613   9.954  68.747  1.00  0.00    -0.222 C  
HETATM   10  O   UNL     2     -10.021  10.295  65.268  1.00  0.00    -0.290 OA 
HETATM   11  C   UNL     3      -8.653   8.395  71.692  1.00  0.00    -0.170 C  
HETATM   12  C   UNL     2     -10.067  10.725  67.626  1.00  0.00    -0.176 C  
HETATM   13  O   UNL     2      -9.708  12.046  67.747  1.00  0.00    -0.183 OA 
HETATM   14  O   UNL     2     -10.830  10.387  69.867  1.00  0.00    -0.268 OA 
HETATM   15  C   UNL     2     -10.155  10.008  66.486  1.00  0.00    -0.232 C  
HETATM   16  O   UNL     3      -7.174   8.216  68.470  1.00  0.00    -0.084 OA 
HETATM   17  H   UNL     3      -6.871  10.675  69.907  1.00  0.00     0.000 HD 
HETATM   18  C   UNL     3      -7.863   8.999  70.616  1.00  0.00    -0.133 C  
HETATM   19  O   UNL     3      -8.866   8.846  72.813  1.00  0.00    -0.324 OA 
ENDROOT
BRANCH   2  20
HETATM   20  C   UNL     2      -9.729   7.352  66.646  1.00  0.00    -0.194 C  
HETATM   21  O   UNL     2     -10.529   6.196  66.331  1.00  0.00    -0.421 OA 
HETATM   22  H   UNL     2      -9.975   5.435  66.203  1.00  0.00     0.000 HD 
BRANCH  20  23
HETATM   23  C   UNL     2      -8.574   7.318  65.637  1.00  0.00    -0.109 C  
HETATM   24  H   UNL     2      -7.565   5.968  64.503  1.00  0.00     0.000 HD 
HETATM   25  O   UNL     2      -8.280   5.990  65.129  1.00  0.00    -0.133 OA 
ENDBRANCH  20  23
ENDBRANCH   2  20
BRANCH   4  26
HETATM   26  C   UNL     3      -8.410   5.518  69.608  1.00  0.00    -0.102 C  
HETATM   27  H   UNL     3      -7.354   3.976  70.406  1.00  0.00     0.000 HD 
HETATM   28  O   UNL     3      -7.542   4.891  70.577  1.00  0.00    -0.060 OA 
BRANCH  26  29
HETATM   29  C   UNL     3      -9.663   4.680  69.373  1.00  0.00    -0.202 C  
HETATM   30  O   UNL     3     -10.819   5.523  69.298  1.00  0.00    -0.269 OA 
HETATM   31  H   UNL     3     -11.599   5.001  69.152  1.00  0.00     0.000 HD 
ENDBRANCH  26  29
ENDBRANCH   4  26
TORSDOF 4
ENDMDL
MODEL       78
REMARK 921   NORMALIZED FREE ENERGY PREDICTED BY IDOCK:   -4.04 KCAL/MOL
REMARK 922        TOTAL FREE ENERGY PREDICTED BY IDOCK:   -5.86 KCAL/MOL
REMARK 923 INTER-LIGAND FREE ENERGY PREDICTED BY IDOCK:   -4.87 KCAL/MOL
REMARK 924 INTRA-LIGAND FREE ENERGY PREDICTED BY IDOCK:   -1.00 KCAL/MOL
REMARK 927      BINDING AFFINITY PREDICTED BY RF-SCORE:    0.00 PKD
ROOT
HETATM    1 ZN   UNL     1     -11.878  10.738  71.315  1.00  0.00    -0.282 Zn 
HETATM    2  C   UNL     2     -11.478   7.528  70.371  1.00  0.00    -0.198 C  
HETATM    3  O   UNL     2     -11.144   6.115  70.399  1.00  0.00    -0.309 OA 
HETATM    4  C   UNL     3      -8.207   5.848  68.978  1.00  0.00    -0.103 C  
HETATM    5  H   UNL     2     -10.716   7.617  74.445  1.00  0.00     0.000 HD 
HETATM    6  O   UNL     3      -7.911   4.443  69.048  1.00  0.00    -0.069 OA 
HETATM    7  O   UNL     3      -7.079   5.518  72.392  1.00  0.00    -0.079 OA 
HETATM    8  C   UNL     3      -7.624   6.443  70.253  1.00  0.00    -0.096 C  
HETATM    9  C   UNL     2     -10.739   5.746  71.655  1.00  0.00    -0.256 C  
HETATM   10  O   UNL     2     -11.849   9.073  72.169  1.00  0.00    -0.358 OA 
HETATM   11  C   UNL     3      -7.484   4.149  70.314  1.00  0.00    -0.045 C  
HETATM   12  C   UNL     2     -10.859   6.920  72.525  1.00  0.00    -0.244 C  
HETATM   13  O   UNL     2     -10.639   6.856  73.881  1.00  0.00    -0.369 OA 
HETATM   14  O   UNL     2     -10.467   4.614  72.023  1.00  0.00    -0.192 OA 
HETATM   15  C   UNL     2     -11.377   7.956  71.833  1.00  0.00    -0.276 C  
HETATM   16  O   UNL     3      -7.635   7.693  70.432  1.00  0.00    -0.084 OA 
HETATM   17  H   UNL     3      -6.991   6.335  72.870  1.00  0.00     0.000 HD 
HETATM   18  C   UNL     3      -7.350   5.407  71.052  1.00  0.00    -0.083 C  
HETATM   19  O   UNL     3      -7.210   3.017  70.700  1.00  0.00    -0.033 OA 
ENDROOT
BRANCH   2  20
HETATM   20  C   UNL     2     -10.623   8.242  69.262  1.00  0.00    -0.181 C  
HETATM   21  O   UNL     2     -11.153   7.949  67.955  1.00  0.00    -0.471 OA 
HETATM   22  H   UNL     2     -10.636   8.380  67.285  1.00  0.00     0.000 HD 
BRANCH  20  23
HETATM   23  C   UNL     2     -10.358   9.752  69.251  1.00  0.00    -0.215 C  
HETATM   24  H   UNL     2     -11.365  11.485  68.922  1.00  0.00     0.000 HD 
HETATM   25  O   UNL     2     -11.528  10.550  68.929  1.00  0.00    -0.255 OA 
ENDBRANCH  20  23
ENDBRANCH   2  20
BRANCH   4  26
HETATM   26  C   UNL     3      -7.894   6.365  67.557  1.00  0.00    -0.105 C  
HETATM   27  H   UNL     3      -6.323   6.535  66.279  1.00  0.00     0.000 HD 
HETATM   28  O   UNL     3      -6.515   6.218  67.153  1.00  0.00    -0.048 OA 
BRANCH  26  29
HETATM   29  C   UNL     3      -8.837   5.811  66.493  1.00  0.00    -0.126 C  
HETATM   30  O   UNL     3      -9.468   6.882  65.781  1.00  0.00    -0.390 OA 
HETATM   31  H   UNL     3     -10.056   6.537  65.119  1.00  0.00     0.000 HD 
ENDBRANCH  26  29
ENDBRANCH   4  26
TORSDOF 4
ENDMDL
MODEL       79
REMARK 921   NORMALIZED FREE ENERGY PREDICTED BY IDOCK:   -4.04 KCAL/MOL
REMARK 922        TOTAL FREE ENERGY PREDICTED BY IDOCK:   -5.86 KCAL/MOL
REMARK 923 INTER-LIGAND FREE ENERGY PREDICTED BY IDOCK:   -4.88 KCAL/MOL
REMARK 924 INTRA-LIGAND FREE ENERGY PREDICTED BY IDOCK:   -0.98 KCAL/MOL
REMARK 927      BINDING AFFINITY PREDICTED BY RF-SCORE:    0.00 PKD
ROOT
HETATM    1 ZN   UNL     1      -8.963   6.017  64.021  1.00  0.00    -0.315 Zn 
HETATM    2  C   UNL     2      -9.787   7.931  66.668  1.00  0.00    -0.241 C  
HETATM    3  O   UNL     2      -9.682   8.826  67.808  1.00  0.00    -0.148 OA 
HETATM    4  C   UNL     3      -9.675   6.915  70.466  1.00  0.00    -0.172 C  
HETATM    5  H   UNL     2      -5.796   8.732  65.888  1.00  0.00     0.000 HD 
HETATM    6  O   UNL     3      -9.550   7.838  71.560  1.00  0.00    -0.153 OA 
HETATM    7  O   UNL     3      -6.134   7.616  70.415  1.00  0.00    -0.030 OA 
HETATM    8  C   UNL     3      -8.247   6.539  70.094  1.00  0.00    -0.129 C  
HETATM    9  C   UNL     2      -8.397   9.278  67.943  1.00  0.00    -0.116 C  
HETATM   10  O   UNL     2      -8.265   7.539  64.856  1.00  0.00    -0.132 OA 
HETATM   11  C   UNL     3      -8.241   8.224  71.658  1.00  0.00    -0.137 C  
HETATM   12  C   UNL     2      -7.613   8.731  66.831  1.00  0.00    -0.090 C  
HETATM   13  O   UNL     2      -6.304   9.087  66.608  1.00  0.00    -0.064 OA 
HETATM   14  O   UNL     2      -8.001  10.102  68.752  1.00  0.00    -0.093 OA 
HETATM   15  C   UNL     2      -8.411   8.015  66.012  1.00  0.00    -0.136 C  
HETATM   16  O   UNL     3      -8.031   5.651  69.222  1.00  0.00    -0.093 OA 
HETATM   17  H   UNL     3      -5.627   7.098  69.799  1.00  0.00     0.000 HD 
HETATM   18  C   UNL     3      -7.459   7.426  70.710  1.00  0.00    -0.078 C  
HETATM   19  O   UNL     3      -7.829   9.052  72.464  1.00  0.00    -0.336 OA 
ENDROOT
BRANCH   2  20
HETATM   20  C   UNL     2     -10.370   6.551  67.144  1.00  0.00    -0.247 C  
HETATM   21  O   UNL     2     -11.732   6.708  67.586  1.00  0.00    -0.576 OA 
HETATM   22  H   UNL     2     -12.084   5.874  67.874  1.00  0.00     0.000 HD 
BRANCH  20  23
HETATM   23  C   UNL     2     -10.384   5.298  66.260  1.00  0.00    -0.239 C  
HETATM   24  H   UNL     2      -9.127   3.813  65.681  1.00  0.00     0.000 HD 
HETATM   25  O   UNL     2      -9.118   4.589  66.228  1.00  0.00    -0.116 OA 
ENDBRANCH  20  23
ENDBRANCH   2  20
BRANCH   4  26
HETATM   26  C   UNL     3     -10.786   5.890  70.787  1.00  0.00    -0.283 C  
HETATM   27  H   UNL     3     -11.084   4.228  71.917  1.00  0.00     0.000 HD 
HETATM   28  O   UNL     3     -10.402   4.858  71.720  1.00  0.00    -0.201 OA 
BRANCH  26  29
HETATM   29  C   UNL     3     -12.102   6.541  71.203  1.00  0.00    -0.258 C  
HETATM   30  O   UNL     3     -12.095   6.823  72.608  1.00  0.00    -0.498 OA 
HETATM   31  H   UNL     3     -12.914   7.229  72.867  1.00  0.00     0.000 HD 
ENDBRANCH  26  29
ENDBRANCH   4  26
TORSDOF 4
ENDMDL
MODEL       80
REMARK 921   NORMALIZED FREE ENERGY PREDICTED BY IDOCK:   -4.02 KCAL/MOL
REMARK 922        TOTAL FREE ENERGY PREDICTED BY IDOCK:   -5.84 KCAL/MOL
REMARK 923 INTER-LIGAND FREE ENERGY PREDICTED BY IDOCK:   -5.39 KCAL/MOL
REMARK 924 INTRA-LIGAND FREE ENERGY PREDICTED BY IDOCK:   -0.44 KCAL/MOL
REMARK 927      BINDING AFFINITY PREDICTED BY RF-SCORE:    0.00 PKD
ROOT
HETATM    1 ZN   UNL     1     -12.200  11.908  62.911  1.00  0.00    -0.501 Zn 
HETATM    2  C   UNL     2     -11.946  13.318  65.961  1.00  0.00    -0.423 C  
HETATM    3  O   UNL     2     -11.663  14.273  67.018  1.00  0.00    -0.366 OA 
HETATM    4  C   UNL     3      -8.777  13.395  68.289  1.00  0.00    -0.172 C  
HETATM    5  H   UNL     2     -11.072  16.325  63.244  1.00  0.00     0.000 HD 
HETATM    6  O   UNL     3      -8.532  14.375  69.312  1.00  0.00     0.007 OA 
HETATM    7  O   UNL     3      -7.571  16.182  66.338  1.00  0.00    -0.205 OA 
HETATM    8  C   UNL     3      -8.139  13.962  67.029  1.00  0.00     0.008 C  
HETATM    9  C   UNL     2     -11.239  15.462  66.487  1.00  0.00    -0.162 C  
HETATM   10  O   UNL     2     -12.211  13.648  63.600  1.00  0.00    -0.614 OA 
HETATM   11  C   UNL     3      -8.083  15.522  68.717  1.00  0.00    -0.170 C  
HETATM   12  C   UNL     2     -11.292  15.341  65.026  1.00  0.00    -0.358 C  
HETATM   13  O   UNL     2     -11.038  16.403  64.190  1.00  0.00    -0.809 OA 
HETATM   14  O   UNL     2     -11.000  16.487  67.105  1.00  0.00    -0.202 OA 
HETATM   15  C   UNL     2     -11.789  14.135  64.680  1.00  0.00    -0.431 C  
HETATM   16  O   UNL     3      -8.098  13.272  65.972  1.00  0.00     1.212 OA 
HETATM   17  H   UNL     3      -7.441  16.004  65.413  1.00  0.00     0.000 HD 
HETATM   18  C   UNL     3      -7.882  15.248  67.292  1.00  0.00    -0.209 C  
HETATM   19  O   UNL     3      -7.841  16.560  69.325  1.00  0.00    -0.229 OA 
ENDROOT
BRANCH   2  20
HETATM   20  C   UNL     2     -11.094  12.018  66.195  1.00  0.00    -0.322 C  
HETATM   21  O   UNL     2     -11.767  11.138  67.118  1.00  0.00    -0.501 OA 
HETATM   22  H   UNL     2     -11.252  10.353  67.259  1.00  0.00     0.000 HD 
BRANCH  20  23
HETATM   23  C   UNL     2     -10.624  11.108  65.054  1.00  0.00    -0.273 C  
HETATM   24  H   UNL     2      -9.178   9.730  64.686  1.00  0.00     0.000 HD 
HETATM   25  O   UNL     2      -9.469  10.294  65.392  1.00  0.00    -0.194 OA 
ENDBRANCH  20  23
ENDBRANCH   2  20
BRANCH   4  26
HETATM   26  C   UNL     3      -8.483  11.986  68.852  1.00  0.00     0.177 C  
HETATM   27  H   UNL     3      -8.897  10.038  68.451  1.00  0.00     0.000 HD 
HETATM   28  O   UNL     3      -9.078  10.903  68.105  1.00  0.00    -0.144 OA 
BRANCH  26  29
HETATM   29  C   UNL     3      -6.998  11.733  69.094  1.00  0.00    -0.091 C  
HETATM   30  O   UNL     3      -6.560  12.426  70.269  1.00  0.00    -0.423 OA 
HETATM   31  H   UNL     3      -5.635  12.269  70.419  1.00  0.00     0.000 HD 
ENDBRANCH  26  29
ENDBRANCH   4  26
TORSDOF 4
ENDMDL
MODEL       81
REMARK 921   NORMALIZED FREE ENERGY PREDICTED BY IDOCK:   -4.01 KCAL/MOL
REMARK 922        TOTAL FREE ENERGY PREDICTED BY IDOCK:   -5.82 KCAL/MOL
REMARK 923 INTER-LIGAND FREE ENERGY PREDICTED BY IDOCK:   -4.85 KCAL/MOL
REMARK 924 INTRA-LIGAND FREE ENERGY PREDICTED BY IDOCK:   -0.97 KCAL/MOL
REMARK 927      BINDING AFFINITY PREDICTED BY RF-SCORE:    0.00 PKD
ROOT
HETATM    1 ZN   UNL     1      -6.153   6.613  74.490  1.00  0.00    -0.062 Zn 
HETATM    2  C   UNL     2      -8.578   6.105  72.207  1.00  0.00    -0.119 C  
HETATM    3  O   UNL     2      -9.261   5.940  70.936  1.00  0.00    -0.151 OA 
HETATM    4  C   UNL     3     -10.612   8.841  70.247  1.00  0.00    -0.216 C  
HETATM    5  H   UNL     2      -5.007   6.035  70.103  1.00  0.00     0.000 HD 
HETATM    6  O   UNL     3     -11.255   8.635  68.978  1.00  0.00     0.135 OA 
HETATM    7  O   UNL     3      -7.820   9.102  67.973  1.00  0.00    -0.098 OA 
HETATM    8  C   UNL     3      -9.208   9.325  69.910  1.00  0.00    -0.195 C  
HETATM    9  C   UNL     2      -8.359   5.944  69.905  1.00  0.00    -0.121 C  
HETATM   10  O   UNL     2      -6.250   5.920  72.754  1.00  0.00    -0.050 OA 
HETATM   11  C   UNL     3     -10.306   8.683  67.994  1.00  0.00    -0.223 C  
HETATM   12  C   UNL     2      -7.018   6.051  70.488  1.00  0.00    -0.059 C  
HETATM   13  O   UNL     2      -5.876   5.966  69.727  1.00  0.00    -0.022 OA 
HETATM   14  O   UNL     2      -8.607   5.748  68.726  1.00  0.00    -0.109 OA 
HETATM   15  C   UNL     2      -7.098   6.052  71.835  1.00  0.00    -0.086 C  
HETATM   16  O   UNL     3      -8.425   9.694  70.830  1.00  0.00    -0.253 OA 
HETATM   17  H   UNL     3      -6.995   9.358  68.371  1.00  0.00     0.000 HD 
HETATM   18  C   UNL     3      -9.035   9.078  68.607  1.00  0.00    -0.137 C  
HETATM   19  O   UNL     3     -10.539   8.485  66.806  1.00  0.00    -0.283 OA 
ENDROOT
BRANCH   2  20
HETATM   20  C   UNL     2      -9.175   7.348  72.959  1.00  0.00    -0.165 C  
HETATM   21  O   UNL     2     -10.541   7.094  73.343  1.00  0.00    -0.325 OA 
HETATM   22  H   UNL     2     -10.902   7.846  73.798  1.00  0.00     0.000 HD 
BRANCH  20  23
HETATM   23  C   UNL     2      -8.526   7.967  74.203  1.00  0.00    -0.233 C  
HETATM   24  H   UNL     2      -6.978   9.194  74.678  1.00  0.00     0.000 HD 
HETATM   25  O   UNL     2      -7.381   8.811  73.908  1.00  0.00    -0.391 OA 
ENDBRANCH  20  23
ENDBRANCH   2  20
BRANCH   4  26
HETATM   26  C   UNL     3     -11.580   9.582  71.196  1.00  0.00    -0.367 C  
HETATM   27  H   UNL     3     -12.457  11.403  71.405  1.00  0.00     0.000 HD 
HETATM   28  O   UNL     3     -11.862  10.948  70.822  1.00  0.00    -0.333 OA 
BRANCH  26  29
HETATM   29  C   UNL     3     -12.870   8.810  71.461  1.00  0.00    -0.325 C  
HETATM   30  O   UNL     3     -13.033   8.582  72.866  1.00  0.00    -0.667 OA 
HETATM   31  H   UNL     3     -13.836   8.101  73.031  1.00  0.00     0.000 HD 
ENDBRANCH  26  29
ENDBRANCH   4  26
TORSDOF 4
ENDMDL
MODEL       82
REMARK 921   NORMALIZED FREE ENERGY PREDICTED BY IDOCK:   -3.99 KCAL/MOL
REMARK 922        TOTAL FREE ENERGY PREDICTED BY IDOCK:   -5.80 KCAL/MOL
REMARK 923 INTER-LIGAND FREE ENERGY PREDICTED BY IDOCK:   -4.90 KCAL/MOL
REMARK 924 INTRA-LIGAND FREE ENERGY PREDICTED BY IDOCK:   -0.90 KCAL/MOL
REMARK 927      BINDING AFFINITY PREDICTED BY RF-SCORE:    0.00 PKD
ROOT
HETATM    1 ZN   UNL     1     -12.190   6.630  69.189  1.00  0.00    -0.578 Zn 
HETATM    2  C   UNL     2     -10.871   8.814  66.989  1.00  0.00     0.039 C  
HETATM    3  O   UNL     2      -9.991   9.412  66.000  1.00  0.00    -0.293 OA 
HETATM    4  C   UNL     3      -7.998  11.417  67.651  1.00  0.00    -0.123 C  
HETATM    5  H   UNL     2      -8.732   5.295  66.515  1.00  0.00     0.000 HD 
HETATM    6  O   UNL     3      -7.138  11.967  66.639  1.00  0.00    -0.060 OA 
HETATM    7  O   UNL     3      -5.633   8.730  67.181  1.00  0.00    -0.037 OA 
HETATM    8  C   UNL     3      -7.284  10.168  68.149  1.00  0.00    -0.081 C  
HETATM    9  C   UNL     2      -9.025   8.519  65.618  1.00  0.00    -0.160 C  
HETATM   10  O   UNL     2     -11.142   6.522  67.642  1.00  0.00    -0.325 OA 
HETATM   11  C   UNL     3      -6.181  11.039  66.329  1.00  0.00    -0.126 C  
HETATM   12  C   UNL     2      -9.286   7.256  66.315  1.00  0.00    -0.108 C  
HETATM   13  O   UNL     2      -8.563   6.114  66.064  1.00  0.00    -0.134 OA 
HETATM   14  O   UNL     2      -8.185   8.689  64.749  1.00  0.00    -0.145 OA 
HETATM   15  C   UNL     2     -10.411   7.359  67.053  1.00  0.00    -0.333 C  
HETATM   16  O   UNL     3      -7.749   9.517  69.126  1.00  0.00    -0.075 OA 
HETATM   17  H   UNL     3      -5.722   8.002  67.785  1.00  0.00     0.000 HD 
HETATM   18  C   UNL     3      -6.318   9.915  67.259  1.00  0.00    -0.068 C  
HETATM   19  O   UNL     3      -5.333  11.194  65.456  1.00  0.00    -0.207 OA 
ENDROOT
BRANCH   2  20
HETATM   20  C   UNL     2     -10.887   9.711  68.279  1.00  0.00    -0.182 C  
HETATM   21  O   UNL     2     -12.026  10.594  68.262  1.00  0.00    -0.793 OA 
HETATM   22  H   UNL     2     -12.035  11.136  69.041  1.00  0.00     0.000 HD 
BRANCH  20  23
HETATM   23  C   UNL     2     -10.856   9.136  69.700  1.00  0.00    -0.197 C  
HETATM   24  H   UNL     2     -10.788   9.791  71.621  1.00  0.00     0.000 HD 
HETATM   25  O   UNL     2     -10.807  10.147  70.741  1.00  0.00    -0.307 OA 
ENDBRANCH  20  23
ENDBRANCH   2  20
BRANCH   4  26
HETATM   26  C   UNL     3      -8.497  12.555  68.570  1.00  0.00    -0.061 C  
HETATM   27  H   UNL     3      -7.812  14.257  69.444  1.00  0.00     0.000 HD 
HETATM   28  O   UNL     3      -7.505  13.557  68.880  1.00  0.00    -0.094 OA 
BRANCH  26  29
HETATM   29  C   UNL     3      -9.791  13.199  68.080  1.00  0.00    -0.231 C  
HETATM   30  O   UNL     3     -10.225  12.580  66.863  1.00  0.00    -0.224 OA 
HETATM   31  H   UNL     3     -11.031  12.981  66.558  1.00  0.00     0.000 HD 
ENDBRANCH  26  29
ENDBRANCH   4  26
TORSDOF 4
ENDMDL
MODEL       83
REMARK 921   NORMALIZED FREE ENERGY PREDICTED BY IDOCK:   -3.98 KCAL/MOL
REMARK 922        TOTAL FREE ENERGY PREDICTED BY IDOCK:   -5.79 KCAL/MOL
REMARK 923 INTER-LIGAND FREE ENERGY PREDICTED BY IDOCK:   -5.00 KCAL/MOL
REMARK 924 INTRA-LIGAND FREE ENERGY PREDICTED BY IDOCK:   -0.79 KCAL/MOL
REMARK 927      BINDING AFFINITY PREDICTED BY RF-SCORE:    0.00 PKD
ROOT
HETATM    1 ZN   UNL     1      -6.463   8.133  74.508  1.00  0.00    -0.088 Zn 
HETATM    2  C   UNL     2      -7.007   7.602  71.226  1.00  0.00    -0.050 C  
HETATM    3  O   UNL     2      -7.196   7.836  69.805  1.00  0.00    -0.064 OA 
HETATM    4  C   UNL     3     -10.432   7.859  69.310  1.00  0.00    -0.216 C  
HETATM    5  H   UNL     2      -5.926  11.589  71.567  1.00  0.00     0.000 HD 
HETATM    6  O   UNL     3     -10.569   8.112  67.902  1.00  0.00    -0.212 OA 
HETATM    7  O   UNL     3      -9.938  11.432  69.173  1.00  0.00    -0.393 OA 
HETATM    8  C   UNL     3     -10.443   9.232  69.968  1.00  0.00    -0.226 C  
HETATM    9  C   UNL     2      -6.988   9.157  69.507  1.00  0.00    -0.051 C  
HETATM   10  O   UNL     2      -6.001   8.985  72.908  1.00  0.00    -0.198 OA 
HETATM   11  C   UNL     3     -10.381   9.449  67.680  1.00  0.00    -0.246 C  
HETATM   12  C   UNL     2      -6.584   9.834  70.744  1.00  0.00    -0.088 C  
HETATM   13  O   UNL     2      -6.188  11.150  70.766  1.00  0.00    -0.355 OA 
HETATM   14  O   UNL     2      -6.993   9.656  68.394  1.00  0.00    -0.064 OA 
HETATM   15  C   UNL     2      -6.492   8.940  71.751  1.00  0.00    -0.063 C  
HETATM   16  O   UNL     3     -10.443   9.333  71.227  1.00  0.00    -0.299 OA 
HETATM   17  H   UNL     3      -9.865  11.864  70.016  1.00  0.00     0.000 HD 
HETATM   18  C   UNL     3     -10.269  10.116  68.979  1.00  0.00    -0.206 C  
HETATM   19  O   UNL     3     -10.381   9.966  66.567  1.00  0.00    -0.228 OA 
ENDROOT
BRANCH   2  20
HETATM   20  C   UNL     2      -8.307   6.950  71.822  1.00  0.00    -0.108 C  
HETATM   21  O   UNL     2      -8.555   5.672  71.204  1.00  0.00    -0.125 OA 
HETATM   22  H   UNL     2      -9.341   5.278  71.563  1.00  0.00     0.000 HD 
BRANCH  20  23
HETATM   23  C   UNL     2      -8.511   6.708  73.322  1.00  0.00    -0.119 C  
HETATM   24  H   UNL     2      -9.040   7.743  74.987  1.00  0.00     0.000 HD 
HETATM   25  O   UNL     2      -8.913   7.893  74.057  1.00  0.00    -0.267 OA 
ENDBRANCH  20  23
ENDBRANCH   2  20
BRANCH   4  26
HETATM   26  C   UNL     3     -11.368   6.697  69.713  1.00  0.00    -0.354 C  
HETATM   27  H   UNL     3     -11.344   4.671  69.874  1.00  0.00     0.000 HD 
HETATM   28  O   UNL     3     -10.770   5.385  69.626  1.00  0.00    -0.308 OA 
BRANCH  26  29
HETATM   29  C   UNL     3     -12.036   6.905  71.068  1.00  0.00    -0.380 C  
HETATM   30  O   UNL     3     -11.554   5.943  72.014  1.00  0.00    -0.288 OA 
HETATM   31  H   UNL     3     -11.970   6.073  72.858  1.00  0.00     0.000 HD 
ENDBRANCH  26  29
ENDBRANCH   4  26
TORSDOF 4
ENDMDL
MODEL       84
REMARK 921   NORMALIZED FREE ENERGY PREDICTED BY IDOCK:   -3.96 KCAL/MOL
REMARK 922        TOTAL FREE ENERGY PREDICTED BY IDOCK:   -5.76 KCAL/MOL
REMARK 923 INTER-LIGAND FREE ENERGY PREDICTED BY IDOCK:   -5.00 KCAL/MOL
REMARK 924 INTRA-LIGAND FREE ENERGY PREDICTED BY IDOCK:   -0.76 KCAL/MOL
REMARK 927      BINDING AFFINITY PREDICTED BY RF-SCORE:    0.00 PKD
ROOT
HETATM    1 ZN   UNL     1     -10.387  11.503  62.396  1.00  0.00    -0.530 Zn 
HETATM    2  C   UNL     2      -8.184  10.564  64.766  1.00  0.00    -0.100 C  
HETATM    3  O   UNL     2      -7.316   9.744  65.593  1.00  0.00    -0.097 OA 
HETATM    4  C   UNL     3      -8.998   9.116  68.331  1.00  0.00    -0.133 C  
HETATM    5  H   UNL     2      -8.742   7.239  62.354  1.00  0.00     0.000 HD 
HETATM    6  O   UNL     3      -8.112   8.290  69.104  1.00  0.00    -0.116 OA 
HETATM    7  O   UNL     3      -9.471   5.895  66.771  1.00  0.00    -0.132 OA 
HETATM    8  C   UNL     3      -9.829   8.145  67.502  1.00  0.00    -0.177 C  
HETATM    9  C   UNL     2      -7.294   8.455  65.130  1.00  0.00    -0.081 C  
HETATM   10  O   UNL     2      -9.130  10.133  62.604  1.00  0.00    -0.238 OA 
HETATM   11  C   UNL     3      -8.161   7.015  68.610  1.00  0.00    -0.122 C  
HETATM   12  C   UNL     2      -8.116   8.403  63.917  1.00  0.00    -0.143 C  
HETATM   13  O   UNL     2      -8.209   7.274  63.139  1.00  0.00    -0.064 OA 
HETATM   14  O   UNL     2      -6.601   7.545  65.558  1.00  0.00    -0.044 OA 
HETATM   15  C   UNL     2      -8.578   9.636  63.619  1.00  0.00    -0.209 C  
HETATM   16  O   UNL     3     -10.780   8.571  66.789  1.00  0.00    -0.238 OA 
HETATM   17  H   UNL     3     -10.153   5.860  66.109  1.00  0.00     0.000 HD 
HETATM   18  C   UNL     3      -9.212   6.962  67.591  1.00  0.00    -0.119 C  
HETATM   19  O   UNL     3      -7.470   6.091  69.028  1.00  0.00    -0.082 OA 
ENDROOT
BRANCH   2  20
HETATM   20  C   UNL     2      -9.280  11.235  65.670  1.00  0.00    -0.213 C  
HETATM   21  O   UNL     2      -8.791  12.478  66.211  1.00  0.00    -0.413 OA 
HETATM   22  H   UNL     2      -9.454  12.884  66.758  1.00  0.00     0.000 HD 
BRANCH  20  23
HETATM   23  C   UNL     2     -10.697  11.551  65.175  1.00  0.00    -0.289 C  
HETATM   24  H   UNL     2     -11.672  12.993  64.128  1.00  0.00     0.000 HD 
HETATM   25  O   UNL     2     -10.795  12.797  64.435  1.00  0.00    -0.323 OA 
ENDBRANCH  20  23
ENDBRANCH   2  20
BRANCH   4  26
HETATM   26  C   UNL     3      -9.596  10.213  69.239  1.00  0.00    -0.225 C  
HETATM   27  H   UNL     3     -10.100  12.180  69.169  1.00  0.00     0.000 HD 
HETATM   28  O   UNL     3      -9.733  11.506  68.611  1.00  0.00    -0.197 OA 
BRANCH  26  29
HETATM   29  C   UNL     3     -10.899   9.792  69.913  1.00  0.00    -0.272 C  
HETATM   30  O   UNL     3     -12.011  10.043  69.046  1.00  0.00    -0.442 OA 
HETATM   31  H   UNL     3     -12.822   9.781  69.466  1.00  0.00     0.000 HD 
ENDBRANCH  26  29
ENDBRANCH   4  26
TORSDOF 4
ENDMDL
MODEL       85
REMARK 921   NORMALIZED FREE ENERGY PREDICTED BY IDOCK:   -3.95 KCAL/MOL
REMARK 922        TOTAL FREE ENERGY PREDICTED BY IDOCK:   -5.75 KCAL/MOL
REMARK 923 INTER-LIGAND FREE ENERGY PREDICTED BY IDOCK:   -4.51 KCAL/MOL
REMARK 924 INTRA-LIGAND FREE ENERGY PREDICTED BY IDOCK:   -1.24 KCAL/MOL
REMARK 927      BINDING AFFINITY PREDICTED BY RF-SCORE:    0.00 PKD
ROOT
HETATM    1 ZN   UNL     1      -8.158   4.763  70.826  1.00  0.00    -0.069 Zn 
HETATM    2  C   UNL     2      -8.513   8.076  71.323  1.00  0.00    -0.122 C  
HETATM    3  O   UNL     2      -9.096   9.404  71.391  1.00  0.00    -0.285 OA 
HETATM    4  C   UNL     3      -8.200  10.932  68.638  1.00  0.00    -0.146 C  
HETATM    5  H   UNL     2     -12.324   6.626  70.578  1.00  0.00     0.000 HD 
HETATM    6  O   UNL     3      -8.814  12.228  68.741  1.00  0.00    -0.026 OA 
HETATM    7  O   UNL     3     -11.595  10.199  67.654  1.00  0.00    -0.574 OA 
HETATM    8  C   UNL     3      -9.221  10.061  67.917  1.00  0.00    -0.137 C  
HETATM    9  C   UNL     2     -10.435   9.353  71.107  1.00  0.00    -0.322 C  
HETATM   10  O   UNL     2      -9.563   5.920  71.259  1.00  0.00    -0.165 OA 
HETATM   11  C   UNL     3     -10.138  12.110  68.415  1.00  0.00    -0.209 C  
HETATM   12  C   UNL     2     -10.793   7.946  70.902  1.00  0.00    -0.234 C  
HETATM   13  O   UNL     2     -12.092   7.537  70.711  1.00  0.00    -0.259 OA 
HETATM   14  O   UNL     2     -11.221  10.285  71.159  1.00  0.00    -0.277 OA 
HETATM   15  C   UNL     2      -9.716   7.160  71.112  1.00  0.00    -0.168 C  
HETATM   16  O   UNL     3      -8.925   8.880  67.584  1.00  0.00    -0.133 OA 
HETATM   17  H   UNL     3     -11.746   9.312  67.346  1.00  0.00     0.000 HD 
HETATM   18  C   UNL     3     -10.370  10.744  67.941  1.00  0.00    -0.185 C  
HETATM   19  O   UNL     3     -10.941  13.036  68.464  1.00  0.00    -0.243 OA 
ENDROOT
BRANCH   2  20
HETATM   20  C   UNL     2      -7.319   8.085  70.302  1.00  0.00    -0.060 C  
HETATM   21  O   UNL     2      -6.146   8.666  70.906  1.00  0.00    -0.033 OA 
HETATM   22  H   UNL     2      -5.425   8.672  70.288  1.00  0.00     0.000 HD 
BRANCH  20  23
HETATM   23  C   UNL     2      -6.812   6.823  69.593  1.00  0.00    -0.055 C  
HETATM   24  H   UNL     2      -5.662   5.197  69.989  1.00  0.00     0.000 HD 
HETATM   25  O   UNL     2      -5.975   5.979  70.428  1.00  0.00    -0.027 OA 
ENDBRANCH  20  23
ENDBRANCH   2  20
BRANCH   4  26
HETATM   26  C   UNL     3      -6.731  11.098  68.190  1.00  0.00    -0.059 C  
HETATM   27  H   UNL     3      -5.661  11.770  66.599  1.00  0.00     0.000 HD 
HETATM   28  O   UNL     3      -6.564  11.668  66.874  1.00  0.00    -0.133 OA 
BRANCH  26  29
HETATM   29  C   UNL     3      -5.869  11.827  69.216  1.00  0.00    -0.070 C  
HETATM   30  O   UNL     3      -6.439  11.702  70.524  1.00  0.00    -0.519 OA 
HETATM   31  H   UNL     3      -5.901  12.156  71.163  1.00  0.00     0.000 HD 
ENDBRANCH  26  29
ENDBRANCH   4  26
TORSDOF 4
ENDMDL
MODEL       86
REMARK 921   NORMALIZED FREE ENERGY PREDICTED BY IDOCK:   -3.93 KCAL/MOL
REMARK 922        TOTAL FREE ENERGY PREDICTED BY IDOCK:   -5.73 KCAL/MOL
REMARK 923 INTER-LIGAND FREE ENERGY PREDICTED BY IDOCK:   -5.15 KCAL/MOL
REMARK 924 INTRA-LIGAND FREE ENERGY PREDICTED BY IDOCK:   -0.58 KCAL/MOL
REMARK 927      BINDING AFFINITY PREDICTED BY RF-SCORE:    0.00 PKD
ROOT
HETATM    1 ZN   UNL     1      -6.472   4.840  69.710  1.00  0.00    -0.025 Zn 
HETATM    2  C   UNL     2      -9.379   6.185  68.666  1.00  0.00    -0.121 C  
HETATM    3  O   UNL     2     -10.338   7.090  68.057  1.00  0.00    -0.172 OA 
HETATM    4  C   UNL     3     -11.517   8.937  70.490  1.00  0.00    -0.200 C  
HETATM    5  H   UNL     2      -6.384   8.459  66.922  1.00  0.00     0.000 HD 
HETATM    6  O   UNL     3     -12.442   9.824  69.839  1.00  0.00     0.209 OA 
HETATM    7  O   UNL     3      -9.283  11.409  69.099  1.00  0.00    -0.405 OA 
HETATM    8  C   UNL     3     -10.182   9.668  70.475  1.00  0.00    -0.287 C  
HETATM    9  C   UNL     2      -9.690   8.102  67.400  1.00  0.00    -0.170 C  
HETATM   10  O   UNL     2      -7.016   5.960  68.314  1.00  0.00    -0.067 OA 
HETATM   11  C   UNL     3     -11.732  10.824  69.231  1.00  0.00    -0.303 C  
HETATM   12  C   UNL     2      -8.249   7.850  67.506  1.00  0.00    -0.124 C  
HETATM   13  O   UNL     2      -7.317   8.622  66.853  1.00  0.00    -0.078 OA 
HETATM   14  O   UNL     2     -10.210   8.974  66.723  1.00  0.00    -0.256 OA 
HETATM   15  C   UNL     2      -8.029   6.689  68.159  1.00  0.00    -0.110 C  
HETATM   16  O   UNL     3      -9.183   9.180  71.074  1.00  0.00    -0.244 OA 
HETATM   17  H   UNL     3      -8.371  11.316  69.348  1.00  0.00     0.000 HD 
HETATM   18  C   UNL     3     -10.326  10.682  69.614  1.00  0.00    -0.145 C  
HETATM   19  O   UNL     3     -12.240  11.706  68.546  1.00  0.00    -0.485 OA 
ENDROOT
BRANCH   2  20
HETATM   20  C   UNL     2      -9.671   6.080  70.207  1.00  0.00    -0.165 C  
HETATM   21  O   UNL     2     -10.903   5.369  70.436  1.00  0.00    -0.251 OA 
HETATM   22  H   UNL     2     -11.080   5.306  71.367  1.00  0.00     0.000 HD 
BRANCH  20  23
HETATM   23  C   UNL     2      -8.677   5.479  71.209  1.00  0.00    -0.131 C  
HETATM   24  H   UNL     2      -7.733   3.717  71.566  1.00  0.00     0.000 HD 
HETATM   25  O   UNL     2      -8.348   4.089  70.945  1.00  0.00    -0.069 OA 
ENDBRANCH  20  23
ENDBRANCH   2  20
BRANCH   4  26
HETATM   26  C   UNL     3     -12.175   8.358  71.762  1.00  0.00    -0.330 C  
HETATM   27  H   UNL     3     -13.636   7.050  72.295  1.00  0.00     0.000 HD 
HETATM   28  O   UNL     3     -13.232   7.406  71.513  1.00  0.00    -0.363 OA 
BRANCH  26  29
HETATM   29  C   UNL     3     -11.165   7.805  72.763  1.00  0.00    -0.398 C  
HETATM   30  O   UNL     3     -11.445   6.428  73.042  1.00  0.00    -0.464 OA 
HETATM   31  H   UNL     3     -10.816   6.083  73.665  1.00  0.00     0.000 HD 
ENDBRANCH  26  29
ENDBRANCH   4  26
TORSDOF 4
ENDMDL
MODEL       87
REMARK 921   NORMALIZED FREE ENERGY PREDICTED BY IDOCK:   -3.92 KCAL/MOL
REMARK 922        TOTAL FREE ENERGY PREDICTED BY IDOCK:   -5.72 KCAL/MOL
REMARK 923 INTER-LIGAND FREE ENERGY PREDICTED BY IDOCK:   -4.96 KCAL/MOL
REMARK 924 INTRA-LIGAND FREE ENERGY PREDICTED BY IDOCK:   -0.76 KCAL/MOL
REMARK 927      BINDING AFFINITY PREDICTED BY RF-SCORE:    0.00 PKD
ROOT
HETATM    1 ZN   UNL     1      -5.927   7.298  67.384  1.00  0.00    -0.025 Zn 
HETATM    2  C   UNL     2      -7.411   9.353  69.604  1.00  0.00    -0.077 C  
HETATM    3  O   UNL     2      -8.220   9.832  70.711  1.00  0.00    -0.251 OA 
HETATM    4  C   UNL     3     -11.040  10.855  69.398  1.00  0.00    -0.260 C  
HETATM    5  H   UNL     2      -8.163   5.502  70.942  1.00  0.00     0.000 HD 
HETATM    6  O   UNL     3     -11.811  11.298  70.528  1.00  0.00    -0.338 OA 
HETATM    7  O   UNL     3     -12.270   7.722  70.703  1.00  0.00    -0.496 OA 
HETATM    8  C   UNL     3     -11.398   9.386  69.221  1.00  0.00     0.152 C  
HETATM    9  C   UNL     2      -8.751   8.777  71.405  1.00  0.00    -0.214 C  
HETATM   10  O   UNL     2      -6.552   7.161  69.142  1.00  0.00    -0.042 OA 
HETATM   11  C   UNL     3     -12.335  10.202  71.155  1.00  0.00    -0.385 C  
HETATM   12  C   UNL     2      -8.241   7.543  70.799  1.00  0.00    -0.110 C  
HETATM   13  O   UNL     2      -8.493   6.302  71.334  1.00  0.00    -0.126 OA 
HETATM   14  O   UNL     2      -9.409   8.845  72.431  1.00  0.00    -0.342 OA 
HETATM   15  C   UNL     2      -7.381   7.839  69.803  1.00  0.00    -0.080 C  
HETATM   16  O   UNL     3     -10.953   8.739  68.232  1.00  0.00    -0.027 OA 
HETATM   17  H   UNL     3     -12.073   6.957  70.174  1.00  0.00     0.000 HD 
HETATM   18  C   UNL     3     -12.032   9.023  70.340  1.00  0.00     0.083 C  
HETATM   19  O   UNL     3     -12.996  10.253  72.188  1.00  0.00    -0.416 OA 
ENDROOT
BRANCH   2  20
HETATM   20  C   UNL     2      -7.942   9.978  68.264  1.00  0.00    -0.097 C  
HETATM   21  O   UNL     2      -7.695  11.398  68.240  1.00  0.00    -0.109 OA 
HETATM   22  H   UNL     2      -8.016  11.776  67.430  1.00  0.00     0.000 HD 
BRANCH  20  23
HETATM   23  C   UNL     2      -7.512   9.481  66.878  1.00  0.00    -0.094 C  
HETATM   24  H   UNL     2      -8.043   8.066  65.521  1.00  0.00     0.000 HD 
HETATM   25  O   UNL     2      -8.309   8.374  66.380  1.00  0.00    -0.109 OA 
ENDBRANCH  20  23
ENDBRANCH   2  20
BRANCH   4  26
HETATM   26  C   UNL     3     -11.127  11.912  68.274  1.00  0.00    -0.239 C  
HETATM   27  H   UNL     3     -11.866  12.117  66.393  1.00  0.00     0.000 HD 
HETATM   28  O   UNL     3     -11.812  11.468  67.083  1.00  0.00    -0.595 OA 
BRANCH  26  29
HETATM   29  C   UNL     3     -11.674  13.254  68.752  1.00  0.00    -0.329 C  
HETATM   30  O   UNL     3     -10.704  13.925  69.565  1.00  0.00    -0.441 OA 
HETATM   31  H   UNL     3     -11.045  14.761  69.862  1.00  0.00     0.000 HD 
ENDBRANCH  26  29
ENDBRANCH   4  26
TORSDOF 4
ENDMDL
MODEL       88
REMARK 921   NORMALIZED FREE ENERGY PREDICTED BY IDOCK:   -3.89 KCAL/MOL
REMARK 922        TOTAL FREE ENERGY PREDICTED BY IDOCK:   -5.68 KCAL/MOL
REMARK 923 INTER-LIGAND FREE ENERGY PREDICTED BY IDOCK:   -4.47 KCAL/MOL
REMARK 924 INTRA-LIGAND FREE ENERGY PREDICTED BY IDOCK:   -1.22 KCAL/MOL
REMARK 927      BINDING AFFINITY PREDICTED BY RF-SCORE:    0.00 PKD
ROOT
HETATM    1 ZN   UNL     1     -10.129   3.866  73.552  1.00  0.00    -0.113 Zn 
HETATM    2  C   UNL     2      -9.304   6.676  71.886  1.00  0.00    -0.147 C  
HETATM    3  O   UNL     2      -9.394   7.851  71.037  1.00  0.00    -0.150 OA 
HETATM    4  C   UNL     3      -8.167   6.970  68.133  1.00  0.00    -0.120 C  
HETATM    5  H   UNL     2     -13.414   6.291  71.498  1.00  0.00     0.000 HD 
HETATM    6  O   UNL     3      -8.295   8.152  67.326  1.00  0.00    -0.119 OA 
HETATM    7  O   UNL     3     -11.652   6.831  67.202  1.00  0.00    -0.725 OA 
HETATM    8  C   UNL     3      -9.458   6.193  67.913  1.00  0.00    -0.115 C  
HETATM    9  C   UNL     2     -10.682   8.033  70.609  1.00  0.00    -0.228 C  
HETATM   10  O   UNL     2     -11.031   5.389  72.944  1.00  0.00    -0.246 OA 
HETATM   11  C   UNL     3      -9.593   8.256  66.907  1.00  0.00    -0.207 C  
HETATM   12  C   UNL     2     -11.510   6.994  71.230  1.00  0.00    -0.286 C  
HETATM   13  O   UNL     2     -12.877   6.964  71.096  1.00  0.00    -0.354 OA 
HETATM   14  O   UNL     2     -11.099   8.971  69.949  1.00  0.00    -0.223 OA 
HETATM   15  C   UNL     2     -10.758   6.238  72.058  1.00  0.00    -0.228 C  
HETATM   16  O   UNL     3      -9.600   5.043  68.415  1.00  0.00    -0.130 OA 
HETATM   17  H   UNL     3     -12.112   6.042  67.468  1.00  0.00     0.000 HD 
HETATM   18  C   UNL     3     -10.302   7.041  67.317  1.00  0.00    -0.261 C  
HETATM   19  O   UNL     3     -10.027   9.194  66.246  1.00  0.00    -0.270 OA 
ENDROOT
BRANCH   2  20
HETATM   20  C   UNL     2      -8.231   5.691  71.297  1.00  0.00    -0.125 C  
HETATM   21  O   UNL     2      -6.920   6.287  71.351  1.00  0.00    -0.071 OA 
HETATM   22  H   UNL     2      -6.272   5.692  70.995  1.00  0.00     0.000 HD 
BRANCH  20  23
HETATM   23  C   UNL     2      -8.035   4.260  71.812  1.00  0.00    -0.087 C  
HETATM   24  H   UNL     2      -7.739   3.288  73.571  1.00  0.00     0.000 HD 
HETATM   25  O   UNL     2      -7.860   4.174  73.251  1.00  0.00    -0.083 OA 
ENDBRANCH  20  23
ENDBRANCH   2  20
BRANCH   4  26
HETATM   26  C   UNL     3      -6.753   6.375  67.946  1.00  0.00    -0.064 C  
HETATM   27  H   UNL     3      -5.673   5.347  66.566  1.00  0.00     0.000 HD 
HETATM   28  O   UNL     3      -6.542   5.712  66.681  1.00  0.00    -0.052 OA 
BRANCH  26  29
HETATM   29  C   UNL     3      -5.637   7.375  68.233  1.00  0.00    -0.026 C  
HETATM   30  O   UNL     3      -6.038   8.286  69.263  1.00  0.00    -0.037 OA 
HETATM   31  H   UNL     3      -5.343   8.909  69.442  1.00  0.00     0.000 HD 
ENDBRANCH  26  29
ENDBRANCH   4  26
TORSDOF 4
ENDMDL
MODEL       89
REMARK 921   NORMALIZED FREE ENERGY PREDICTED BY IDOCK:   -3.89 KCAL/MOL
REMARK 922        TOTAL FREE ENERGY PREDICTED BY IDOCK:   -5.68 KCAL/MOL
REMARK 923 INTER-LIGAND FREE ENERGY PREDICTED BY IDOCK:   -4.95 KCAL/MOL
REMARK 924 INTRA-LIGAND FREE ENERGY PREDICTED BY IDOCK:   -0.72 KCAL/MOL
REMARK 927      BINDING AFFINITY PREDICTED BY RF-SCORE:    0.00 PKD
ROOT
HETATM    1 ZN   UNL     1     -10.721   7.631  73.435  1.00  0.00    -0.245 Zn 
HETATM    2  C   UNL     2     -11.309   7.194  70.146  1.00  0.00    -0.241 C  
HETATM    3  O   UNL     2     -11.242   6.674  68.792  1.00  0.00    -0.248 OA 
HETATM    4  C   UNL     3      -9.256   8.687  67.143  1.00  0.00    -0.144 C  
HETATM    5  H   UNL     2      -8.921   4.010  71.305  1.00  0.00     0.000 HD 
HETATM    6  O   UNL     3      -9.205   8.124  65.822  1.00  0.00    -0.139 OA 
HETATM    7  O   UNL     3      -6.887   6.002  67.597  1.00  0.00    -0.056 OA 
HETATM    8  C   UNL     3      -8.103   8.040  67.899  1.00  0.00    -0.129 C  
HETATM    9  C   UNL     2     -10.423   5.578  68.741  1.00  0.00    -0.191 C  
HETATM   10  O   UNL     2     -10.627   6.207  72.224  1.00  0.00    -0.203 OA 
HETATM   11  C   UNL     3      -8.348   7.058  65.835  1.00  0.00    -0.141 C  
HETATM   12  C   UNL     2      -9.966   5.300  70.106  1.00  0.00    -0.243 C  
HETATM   13  O   UNL     2      -9.217   4.190  70.420  1.00  0.00    -0.100 OA 
HETATM   14  O   UNL     2     -10.222   4.869  67.768  1.00  0.00    -0.135 OA 
HETATM   15  C   UNL     2     -10.537   6.165  70.970  1.00  0.00    -0.246 C  
HETATM   16  O   UNL     3      -7.823   8.416  69.072  1.00  0.00    -0.098 OA 
HETATM   17  H   UNL     3      -6.469   5.969  68.451  1.00  0.00     0.000 HD 
HETATM   18  C   UNL     3      -7.704   7.007  67.150  1.00  0.00    -0.108 C  
HETATM   19  O   UNL     3      -8.138   6.335  64.866  1.00  0.00    -0.126 OA 
ENDROOT
BRANCH   2  20
HETATM   20  C   UNL     2     -10.883   8.706  70.143  1.00  0.00    -0.233 C  
HETATM   21  O   UNL     2     -11.932   9.521  69.583  1.00  0.00    -0.372 OA 
HETATM   22  H   UNL     2     -11.674  10.435  69.581  1.00  0.00     0.000 HD 
BRANCH  20  23
HETATM   23  C   UNL     2     -10.436   9.453  71.406  1.00  0.00    -0.288 C  
HETATM   24  H   UNL     2      -8.866   9.491  72.693  1.00  0.00     0.000 HD 
HETATM   25  O   UNL     2      -9.143   9.028  71.911  1.00  0.00    -0.365 OA 
ENDBRANCH  20  23
ENDBRANCH   2  20
BRANCH   4  26
HETATM   26  C   UNL     3      -9.478  10.213  67.039  1.00  0.00    -0.167 C  
HETATM   27  H   UNL     3      -8.464  11.951  67.325  1.00  0.00     0.000 HD 
HETATM   28  O   UNL     3      -8.328  11.013  67.389  1.00  0.00    -0.123 OA 
BRANCH  26  29
HETATM   29  C   UNL     3     -10.058  10.646  65.696  1.00  0.00    -0.272 C  
HETATM   30  O   UNL     3      -9.014  11.103  64.828  1.00  0.00    -0.339 OA 
HETATM   31  H   UNL     3      -9.376  11.372  63.991  1.00  0.00     0.000 HD 
ENDBRANCH  26  29
ENDBRANCH   4  26
TORSDOF 4
ENDMDL
MODEL       90
REMARK 921   NORMALIZED FREE ENERGY PREDICTED BY IDOCK:   -3.89 KCAL/MOL
REMARK 922        TOTAL FREE ENERGY PREDICTED BY IDOCK:   -5.67 KCAL/MOL
REMARK 923 INTER-LIGAND FREE ENERGY PREDICTED BY IDOCK:   -4.82 KCAL/MOL
REMARK 924 INTRA-LIGAND FREE ENERGY PREDICTED BY IDOCK:   -0.85 KCAL/MOL
REMARK 927      BINDING AFFINITY PREDICTED BY RF-SCORE:    0.00 PKD
ROOT
HETATM    1 ZN   UNL     1     -13.192  10.209  72.850  1.00  0.00    -0.501 Zn 
HETATM    2  C   UNL     2     -11.847   8.111  70.582  1.00  0.00    -0.088 C  
HETATM    3  O   UNL     2     -11.105   7.009  69.994  1.00  0.00    -0.265 OA 
HETATM    4  C   UNL     3      -8.215   8.244  69.079  1.00  0.00    -0.119 C  
HETATM    5  H   UNL     2     -11.168   6.369  74.282  1.00  0.00     0.000 HD 
HETATM    6  O   UNL     3      -7.513   7.118  68.525  1.00  0.00    -0.100 OA 
HETATM    7  O   UNL     3      -7.059   6.575  72.065  1.00  0.00    -0.078 OA 
HETATM    8  C   UNL     3      -7.844   8.259  70.556  1.00  0.00    -0.087 C  
HETATM    9  C   UNL     2     -10.616   6.187  70.974  1.00  0.00    -0.246 C  
HETATM   10  O   UNL     2     -12.672   8.412  72.815  1.00  0.00    -0.249 OA 
HETATM   11  C   UNL     3      -7.025   6.359  69.553  1.00  0.00    -0.071 C  
HETATM   12  C   UNL     2     -11.085   6.701  72.264  1.00  0.00    -0.258 C  
HETATM   13  O   UNL     2     -10.864   6.036  73.446  1.00  0.00    -0.258 OA 
HETATM   14  O   UNL     2     -10.020   5.135  70.804  1.00  0.00    -0.187 OA 
HETATM   15  C   UNL     2     -11.886   7.771  72.071  1.00  0.00    -0.307 C  
HETATM   16  O   UNL     3      -8.228   9.206  71.298  1.00  0.00    -0.290 OA 
HETATM   17  H   UNL     3      -7.222   7.039  72.878  1.00  0.00     0.000 HD 
HETATM   18  C   UNL     3      -7.277   7.074  70.806  1.00  0.00    -0.071 C  
HETATM   19  O   UNL     3      -6.427   5.299  69.398  1.00  0.00    -0.032 OA 
ENDROOT
BRANCH   2  20
HETATM   20  C   UNL     2     -11.237   9.471  70.083  1.00  0.00    -0.234 C  
HETATM   21  O   UNL     2     -11.478   9.641  68.673  1.00  0.00    -0.481 OA 
HETATM   22  H   UNL     2     -11.110  10.463  68.371  1.00  0.00     0.000 HD 
BRANCH  20  23
HETATM   23  C   UNL     2     -11.589  10.826  70.709  1.00  0.00    -0.224 C  
HETATM   24  H   UNL     2     -13.223  11.982  71.052  1.00  0.00     0.000 HD 
HETATM   25  O   UNL     2     -13.005  11.143  70.664  1.00  0.00    -0.221 OA 
ENDBRANCH  20  23
ENDBRANCH   2  20
BRANCH   4  26
HETATM   26  C   UNL     3      -8.062   9.456  68.134  1.00  0.00    -0.110 C  
HETATM   27  H   UNL     3      -6.953  11.148  67.948  1.00  0.00     0.000 HD 
HETATM   28  O   UNL     3      -7.047  10.403  68.529  1.00  0.00    -0.071 OA 
BRANCH  26  29
HETATM   29  C   UNL     3      -7.900   9.060  66.669  1.00  0.00    -0.100 C  
HETATM   30  O   UNL     3      -9.160   8.654  66.122  1.00  0.00    -0.174 OA 
HETATM   31  H   UNL     3      -9.059   8.407  65.210  1.00  0.00     0.000 HD 
ENDBRANCH  26  29
ENDBRANCH   4  26
TORSDOF 4
ENDMDL
MODEL       91
REMARK 921   NORMALIZED FREE ENERGY PREDICTED BY IDOCK:   -3.84 KCAL/MOL
REMARK 922        TOTAL FREE ENERGY PREDICTED BY IDOCK:   -5.61 KCAL/MOL
REMARK 923 INTER-LIGAND FREE ENERGY PREDICTED BY IDOCK:   -4.94 KCAL/MOL
REMARK 924 INTRA-LIGAND FREE ENERGY PREDICTED BY IDOCK:   -0.67 KCAL/MOL
REMARK 927      BINDING AFFINITY PREDICTED BY RF-SCORE:    0.00 PKD
ROOT
HETATM    1 ZN   UNL     1     -10.969   8.867  67.255  1.00  0.00    -0.253 Zn 
HETATM    2  C   UNL     2     -10.645   8.259  70.553  1.00  0.00    -0.219 C  
HETATM    3  O   UNL     2     -10.077   8.157  71.886  1.00  0.00    -0.188 OA 
HETATM    4  C   UNL     3      -9.146   5.039  72.242  1.00  0.00    -0.131 C  
HETATM    5  H   UNL     2      -7.216  10.301  69.433  1.00  0.00     0.000 HD 
HETATM    6  O   UNL     3      -8.576   4.992  73.560  1.00  0.00    -0.109 OA 
HETATM    7  O   UNL     3      -5.862   6.417  71.653  1.00  0.00    -0.034 OA 
HETATM    8  C   UNL     3      -7.984   5.363  71.313  1.00  0.00    -0.110 C  
HETATM    9  C   UNL     2      -8.818   8.695  71.911  1.00  0.00    -0.205 C  
HETATM   10  O   UNL     2      -9.942   9.554  68.660  1.00  0.00    -0.158 OA 
HETATM   11  C   UNL     3      -7.312   5.513  73.507  1.00  0.00    -0.091 C  
HETATM   12  C   UNL     2      -8.538   9.236  70.577  1.00  0.00    -0.233 C  
HETATM   13  O   UNL     2      -7.398   9.950  70.297  1.00  0.00    -0.143 OA 
HETATM   14  O   UNL     2      -8.110   8.833  72.895  1.00  0.00    -0.404 OA 
HETATM   15  C   UNL     2      -9.618   9.085  69.781  1.00  0.00    -0.175 C  
HETATM   16  O   UNL     3      -8.153   5.369  70.062  1.00  0.00    -0.083 OA 
HETATM   17  H   UNL     3      -5.649   6.583  70.742  1.00  0.00     0.000 HD 
HETATM   18  C   UNL     3      -6.983   5.769  72.103  1.00  0.00    -0.082 C  
HETATM   19  O   UNL     3      -6.590   5.661  74.488  1.00  0.00    -0.070 OA 
ENDROOT
BRANCH   2  20
HETATM   20  C   UNL     2     -11.063   6.828  70.056  1.00  0.00    -0.315 C  
HETATM   21  O   UNL     2     -12.499   6.720  69.990  1.00  0.00    -0.546 OA 
HETATM   22  H   UNL     2     -12.751   5.854  69.690  1.00  0.00     0.000 HD 
BRANCH  20  23
HETATM   23  C   UNL     2     -10.561   6.216  68.743  1.00  0.00    -0.273 C  
HETATM   24  H   UNL     2     -10.964   6.307  66.754  1.00  0.00     0.000 HD 
HETATM   25  O   UNL     2     -11.275   6.686  67.568  1.00  0.00    -0.319 OA 
ENDBRANCH  20  23
ENDBRANCH   2  20
BRANCH   4  26
HETATM   26  C   UNL     3     -10.096   3.835  72.054  1.00  0.00    -0.139 C  
HETATM   27  H   UNL     3     -10.018   1.817  71.833  1.00  0.00     0.000 HD 
HETATM   28  O   UNL     3      -9.434   2.556  71.947  1.00  0.00    -0.102 OA 
BRANCH  26  29
HETATM   29  C   UNL     3     -11.216   3.786  73.089  1.00  0.00    -0.055 C  
HETATM   30  O   UNL     3     -11.667   5.111  73.397  1.00  0.00    -0.498 OA 
HETATM   31  H   UNL     3     -12.365   5.080  74.042  1.00  0.00     0.000 HD 
ENDBRANCH  26  29
ENDBRANCH   4  26
TORSDOF 4
ENDMDL
MODEL       92
REMARK 921   NORMALIZED FREE ENERGY PREDICTED BY IDOCK:   -3.76 KCAL/MOL
REMARK 922        TOTAL FREE ENERGY PREDICTED BY IDOCK:   -5.52 KCAL/MOL
REMARK 923 INTER-LIGAND FREE ENERGY PREDICTED BY IDOCK:   -4.91 KCAL/MOL
REMARK 924 INTRA-LIGAND FREE ENERGY PREDICTED BY IDOCK:   -0.61 KCAL/MOL
REMARK 927      BINDING AFFINITY PREDICTED BY RF-SCORE:    0.00 PKD
ROOT
HETATM    1 ZN   UNL     1      -8.624  14.134  67.322  1.00  0.00    -0.145 Zn 
HETATM    2  C   UNL     2     -10.778  11.545  67.397  1.00  0.00    -0.232 C  
HETATM    3  O   UNL     2     -11.765  10.586  67.863  1.00  0.00    -0.453 OA 
HETATM    4  C   UNL     3     -10.089   7.915  68.744  1.00  0.00    -0.193 C  
HETATM    5  H   UNL     2     -11.409  13.647  70.913  1.00  0.00     0.000 HD 
HETATM    6  O   UNL     3     -11.100   7.007  69.214  1.00  0.00    -0.204 OA 
HETATM    7  O   UNL     3     -10.694   9.175  72.072  1.00  0.00    -0.341 OA 
HETATM    8  C   UNL     3      -9.647   8.695  69.974  1.00  0.00    -0.170 C  
HETATM    9  C   UNL     2     -12.194  10.916  69.121  1.00  0.00    -0.110 C  
HETATM   10  O   UNL     2     -10.195  13.710  68.248  1.00  0.00    -0.231 OA 
HETATM   11  C   UNL     3     -11.459   7.374  70.482  1.00  0.00    -0.255 C  
HETATM   12  C   UNL     2     -11.534  12.169  69.502  1.00  0.00    -0.265 C  
HETATM   13  O   UNL     2     -11.837  12.836  70.666  1.00  0.00    -0.209 OA 
HETATM   14  O   UNL     2     -13.075  10.357  69.755  1.00  0.00    -0.015 OA 
HETATM   15  C   UNL     2     -10.771  12.617  68.484  1.00  0.00    -0.248 C  
HETATM   16  O   UNL     3      -8.683   9.507  69.899  1.00  0.00    -0.172 OA 
HETATM   17  H   UNL     3     -10.113   9.873  72.353  1.00  0.00     0.000 HD 
HETATM   18  C   UNL     3     -10.564   8.450  70.916  1.00  0.00    -0.204 C  
HETATM   19  O   UNL     3     -12.343   6.824  71.131  1.00  0.00    -0.371 OA 
ENDROOT
BRANCH   2  20
HETATM   20  C   UNL     2      -9.460  10.785  67.007  1.00  0.00    -0.164 C  
HETATM   21  O   UNL     2      -9.494  10.403  65.618  1.00  0.00    -0.185 OA 
HETATM   22  H   UNL     2      -8.696   9.943  65.382  1.00  0.00     0.000 HD 
BRANCH  20  23
HETATM   23  C   UNL     2      -8.059  11.373  67.219  1.00  0.00    -0.148 C  
HETATM   24  H   UNL     2      -6.181  11.175  66.472  1.00  0.00     0.000 HD 
HETATM   25  O   UNL     2      -7.049  10.811  66.341  1.00  0.00    -0.122 OA 
ENDBRANCH  20  23
ENDBRANCH   2  20
BRANCH   4  26
HETATM   26  C   UNL     3      -9.124   7.160  67.802  1.00  0.00    -0.127 C  
HETATM   27  H   UNL     3      -8.559   7.143  65.850  1.00  0.00     0.000 HD 
HETATM   28  O   UNL     3      -9.152   7.607  66.429  1.00  0.00    -0.161 OA 
BRANCH  26  29
HETATM   29  C   UNL     3      -7.694   7.100  68.329  1.00  0.00    -0.120 C  
HETATM   30  O   UNL     3      -6.821   7.861  67.486  1.00  0.00    -0.066 OA 
HETATM   31  H   UNL     3      -5.930   7.824  67.814  1.00  0.00     0.000 HD 
ENDBRANCH  26  29
ENDBRANCH   4  26
TORSDOF 4
ENDMDL
MODEL       93
REMARK 921   NORMALIZED FREE ENERGY PREDICTED BY IDOCK:   -3.75 KCAL/MOL
REMARK 922        TOTAL FREE ENERGY PREDICTED BY IDOCK:   -5.51 KCAL/MOL
REMARK 923 INTER-LIGAND FREE ENERGY PREDICTED BY IDOCK:   -4.68 KCAL/MOL
REMARK 924 INTRA-LIGAND FREE ENERGY PREDICTED BY IDOCK:   -0.83 KCAL/MOL
REMARK 927      BINDING AFFINITY PREDICTED BY RF-SCORE:    0.00 PKD
ROOT
HETATM    1 ZN   UNL     1      -9.259  11.556  66.149  1.00  0.00    -0.175 Zn 
HETATM    2  C   UNL     2      -7.890   8.595  66.993  1.00  0.00    -0.096 C  
HETATM    3  O   UNL     2      -7.423   7.222  66.918  1.00  0.00    -0.092 OA 
HETATM    4  C   UNL     3      -9.765   5.390  68.287  1.00  0.00    -0.135 C  
HETATM    5  H   UNL     2      -8.595   8.398  62.913  1.00  0.00     0.000 HD 
HETATM    6  O   UNL     3      -9.269   4.045  68.172  1.00  0.00    -0.130 OA 
HETATM    7  O   UNL     3     -10.556   4.623  64.849  1.00  0.00    -0.467 OA 
HETATM    8  C   UNL     3     -10.579   5.626  67.022  1.00  0.00    -0.285 C  
HETATM    9  C   UNL     2      -7.574   6.735  65.647  1.00  0.00    -0.090 C  
HETATM   10  O   UNL     2      -8.402  10.159  65.247  1.00  0.00    -0.146 OA 
HETATM   11  C   UNL     3      -9.479   3.611  66.892  1.00  0.00    -0.187 C  
HETATM   12  C   UNL     2      -8.098   7.821  64.813  1.00  0.00    -0.131 C  
HETATM   13  O   UNL     2      -8.255   7.695  63.453  1.00  0.00    -0.085 OA 
HETATM   14  O   UNL     2      -7.204   5.645  65.241  1.00  0.00    -0.064 OA 
HETATM   15  C   UNL     2      -8.208   8.952  65.542  1.00  0.00    -0.129 C  
HETATM   16  O   UNL     3     -11.234   6.696  66.880  1.00  0.00    -0.391 OA 
HETATM   17  H   UNL     3     -11.065   5.284  64.393  1.00  0.00     0.000 HD 
HETATM   18  C   UNL     3     -10.263   4.629  66.189  1.00  0.00    -0.277 C  
HETATM   19  O   UNL     3      -9.111   2.520  66.469  1.00  0.00    -0.141 OA 
ENDROOT
BRANCH   2  20
HETATM   20  C   UNL     2      -8.990   8.709  68.109  1.00  0.00    -0.141 C  
HETATM   21  O   UNL     2      -8.420   8.436  69.404  1.00  0.00    -0.122 OA 
HETATM   22  H   UNL     2      -9.085   8.504  70.079  1.00  0.00     0.000 HD 
BRANCH  20  23
HETATM   23  C   UNL     2      -9.850   9.962  68.314  1.00  0.00    -0.147 C  
HETATM   24  H   UNL     2      -9.612  11.960  68.587  1.00  0.00     0.000 HD 
HETATM   25  O   UNL     2      -9.079  11.184  68.461  1.00  0.00    -0.165 OA 
ENDBRANCH  20  23
ENDBRANCH   2  20
BRANCH   4  26
HETATM   26  C   UNL     3     -10.301   5.615  69.719  1.00  0.00    -0.282 C  
HETATM   27  H   UNL     3      -9.634   6.179  71.554  1.00  0.00     0.000 HD 
HETATM   28  O   UNL     3      -9.305   6.040  70.674  1.00  0.00    -0.158 OA 
BRANCH  26  29
HETATM   29  C   UNL     3     -11.526   6.523  69.766  1.00  0.00    -0.379 C  
HETATM   30  O   UNL     3     -11.252   7.688  70.553  1.00  0.00    -0.265 OA 
HETATM   31  H   UNL     3     -12.015   8.253  70.582  1.00  0.00     0.000 HD 
ENDBRANCH  26  29
ENDBRANCH   4  26
TORSDOF 4
ENDMDL
MODEL       94
REMARK 921   NORMALIZED FREE ENERGY PREDICTED BY IDOCK:   -3.74 KCAL/MOL
REMARK 922        TOTAL FREE ENERGY PREDICTED BY IDOCK:   -5.50 KCAL/MOL
REMARK 923 INTER-LIGAND FREE ENERGY PREDICTED BY IDOCK:   -4.72 KCAL/MOL
REMARK 924 INTRA-LIGAND FREE ENERGY PREDICTED BY IDOCK:   -0.77 KCAL/MOL
REMARK 927      BINDING AFFINITY PREDICTED BY RF-SCORE:    0.00 PKD
ROOT
HETATM    1 ZN   UNL     1      -6.208   4.538  69.883  1.00  0.00    -0.019 Zn 
HETATM    2  C   UNL     2      -7.678   7.139  71.439  1.00  0.00    -0.093 C  
HETATM    3  O   UNL     2      -8.549   7.912  72.309  1.00  0.00    -0.122 OA 
HETATM    4  C   UNL     3     -11.038   8.920  70.437  1.00  0.00    -0.239 C  
HETATM    5  H   UNL     2      -9.064   3.737  73.360  1.00  0.00     0.000 HD 
HETATM    6  O   UNL     3     -11.878   9.659  71.341  1.00  0.00    -0.350 OA 
HETATM    7  O   UNL     3     -12.801   6.258  72.122  1.00  0.00    -0.470 OA 
HETATM    8  C   UNL     3     -11.554   7.489  70.491  1.00  0.00    -0.200 C  
HETATM    9  C   UNL     2      -9.287   7.079  73.107  1.00  0.00    -0.149 C  
HETATM   10  O   UNL     2      -7.053   4.825  71.528  1.00  0.00    -0.051 OA 
HETATM   11  C   UNL     3     -12.608   8.771  72.082  1.00  0.00    -0.399 C  
HETATM   12  C   UNL     2      -8.868   5.703  72.825  1.00  0.00    -0.122 C  
HETATM   13  O   UNL     2      -9.335   4.629  73.543  1.00  0.00    -0.121 OA 
HETATM   14  O   UNL     2     -10.050   7.420  73.997  1.00  0.00    -0.269 OA 
HETATM   15  C   UNL     2      -7.863   5.702  71.923  1.00  0.00    -0.106 C  
HETATM   16  O   UNL     3     -11.078   6.612  69.717  1.00  0.00    -0.287 OA 
HETATM   17  H   UNL     3     -12.639   5.385  71.780  1.00  0.00     0.000 HD 
HETATM   18  C   UNL     3     -12.359   7.426  71.557  1.00  0.00    -0.353 C  
HETATM   19  O   UNL     3     -13.376   9.098  72.981  1.00  0.00    -0.270 OA 
ENDROOT
BRANCH   2  20
HETATM   20  C   UNL     2      -7.962   7.527  69.944  1.00  0.00    -0.123 C  
HETATM   21  O   UNL     2      -7.494   8.864  69.675  1.00  0.00    -0.067 OA 
HETATM   22  H   UNL     2      -7.665   9.098  68.771  1.00  0.00     0.000 HD 
BRANCH  20  23
HETATM   23  C   UNL     2      -7.472   6.692  68.754  1.00  0.00    -0.096 C  
HETATM   24  H   UNL     2      -6.937   6.952  66.812  1.00  0.00     0.000 HD 
HETATM   25  O   UNL     2      -7.240   7.469  67.549  1.00  0.00    -0.085 OA 
ENDBRANCH  20  23
ENDBRANCH   2  20
BRANCH   4  26
HETATM   26  C   UNL     3     -10.856   9.729  69.133  1.00  0.00    -0.207 C  
HETATM   27  H   UNL     3      -9.772  11.290  68.414  1.00  0.00     0.000 HD 
HETATM   28  O   UNL     3      -9.884  10.793  69.216  1.00  0.00    -0.205 OA 
BRANCH  26  29
HETATM   29  C   UNL     3     -10.603   8.850  67.912  1.00  0.00    -0.183 C  
HETATM   30  O   UNL     3      -9.432   9.292  67.215  1.00  0.00    -0.138 OA 
HETATM   31  H   UNL     3      -9.274   8.745  66.455  1.00  0.00     0.000 HD 
ENDBRANCH  26  29
ENDBRANCH   4  26
TORSDOF 4
ENDMDL
MODEL       95
REMARK 921   NORMALIZED FREE ENERGY PREDICTED BY IDOCK:   -3.74 KCAL/MOL
REMARK 922        TOTAL FREE ENERGY PREDICTED BY IDOCK:   -5.49 KCAL/MOL
REMARK 923 INTER-LIGAND FREE ENERGY PREDICTED BY IDOCK:   -4.88 KCAL/MOL
REMARK 924 INTRA-LIGAND FREE ENERGY PREDICTED BY IDOCK:   -0.61 KCAL/MOL
REMARK 927      BINDING AFFINITY PREDICTED BY RF-SCORE:    0.00 PKD
ROOT
HETATM    1 ZN   UNL     1      -5.128  13.873  67.443  1.00  0.00    -0.098 Zn 
HETATM    2  C   UNL     2      -6.142  10.743  68.168  1.00  0.00    -0.050 C  
HETATM    3  O   UNL     2      -6.623   9.381  68.017  1.00  0.00    -0.061 OA 
HETATM    4  C   UNL     3      -9.841   9.483  68.613  1.00  0.00    -0.162 C  
HETATM    5  H   UNL     2      -5.789  10.894  64.040  1.00  0.00     0.000 HD 
HETATM    6  O   UNL     3     -10.273   8.124  68.433  1.00  0.00    -0.199 OA 
HETATM    7  O   UNL     3     -10.062   9.269  65.016  1.00  0.00    -0.245 OA 
HETATM    8  C   UNL     3      -9.992  10.136  67.245  1.00  0.00    -0.195 C  
HETATM    9  C   UNL     2      -6.725   9.054  66.691  1.00  0.00    -0.075 C  
HETATM   10  O   UNL     2      -5.129  12.218  66.570  1.00  0.00    -0.324 OA 
HETATM   11  C   UNL     3     -10.384   7.876  67.092  1.00  0.00    -0.328 C  
HETATM   12  C   UNL     2      -6.241  10.199  65.912  1.00  0.00    -0.096 C  
HETATM   13  O   UNL     2      -6.103  10.153  64.545  1.00  0.00    -0.117 OA 
HETATM   14  O   UNL     2      -7.023   7.962  66.236  1.00  0.00    -0.061 OA 
HETATM   15  C   UNL     2      -5.803  11.170  66.741  1.00  0.00    -0.111 C  
HETATM   16  O   UNL     3      -9.785  11.374  67.106  1.00  0.00    -0.180 OA 
HETATM   17  H   UNL     3      -9.923  10.087  64.551  1.00  0.00     0.000 HD 
HETATM   18  C   UNL     3     -10.168   9.135  66.376  1.00  0.00    -0.230 C  
HETATM   19  O   UNL     3     -10.680   6.783  66.619  1.00  0.00    -0.245 OA 
ENDROOT
BRANCH   2  20
HETATM   20  C   UNL     2      -7.167  11.563  69.031  1.00  0.00    -0.106 C  
HETATM   21  O   UNL     2      -6.620  11.831  70.337  1.00  0.00    -0.503 OA 
HETATM   22  H   UNL     2      -7.240  12.327  70.859  1.00  0.00     0.000 HD 
BRANCH  20  23
HETATM   23  C   UNL     2      -7.769  12.897  68.575  1.00  0.00    -0.109 C  
HETATM   24  H   UNL     2      -7.482  14.888  68.857  1.00  0.00     0.000 HD 
HETATM   25  O   UNL     2      -7.110  14.061  69.140  1.00  0.00    -0.111 OA 
ENDBRANCH  20  23
ENDBRANCH   2  20
BRANCH   4  26
HETATM   26  C   UNL     3     -10.453  10.045  69.915  1.00  0.00    -0.274 C  
HETATM   27  H   UNL     3     -11.934  11.298  70.518  1.00  0.00     0.000 HD 
HETATM   28  O   UNL     3     -11.558  10.953  69.718  1.00  0.00    -0.264 OA 
BRANCH  26  29
HETATM   29  C   UNL     3     -10.809   8.961  70.928  1.00  0.00    -0.248 C  
HETATM   30  O   UNL     3     -12.031   8.313  70.554  1.00  0.00    -0.486 OA 
HETATM   31  H   UNL     3     -12.253   7.639  71.185  1.00  0.00     0.000 HD 
ENDBRANCH  26  29
ENDBRANCH   4  26
TORSDOF 4
ENDMDL
MODEL       96
REMARK 921   NORMALIZED FREE ENERGY PREDICTED BY IDOCK:   -3.74 KCAL/MOL
REMARK 922        TOTAL FREE ENERGY PREDICTED BY IDOCK:   -5.49 KCAL/MOL
REMARK 923 INTER-LIGAND FREE ENERGY PREDICTED BY IDOCK:   -4.37 KCAL/MOL
REMARK 924 INTRA-LIGAND FREE ENERGY PREDICTED BY IDOCK:   -1.13 KCAL/MOL
REMARK 927      BINDING AFFINITY PREDICTED BY RF-SCORE:    0.00 PKD
ROOT
HETATM    1 ZN   UNL     1      -6.376   4.322  74.545  1.00  0.00    -0.034 Zn 
HETATM    2  C   UNL     2      -9.123   4.102  72.607  1.00  0.00    -0.109 C  
HETATM    3  O   UNL     2      -9.980   3.948  71.444  1.00  0.00    -0.183 OA 
HETATM    4  C   UNL     3     -10.786   6.978  70.503  1.00  0.00    -0.251 C  
HETATM    5  H   UNL     2      -5.936   3.018  70.187  1.00  0.00     0.000 HD 
HETATM    6  O   UNL     3     -11.614   6.776  69.345  1.00  0.00    -0.199 OA 
HETATM    7  O   UNL     3      -8.310   6.364  67.948  1.00  0.00    -0.117 OA 
HETATM    8  C   UNL     3      -9.367   7.102  69.964  1.00  0.00    -0.154 C  
HETATM    9  C   UNL     2      -9.234   3.639  70.338  1.00  0.00    -0.146 C  
HETATM   10  O   UNL     2      -6.831   3.476  72.939  1.00  0.00    -0.035 OA 
HETATM   11  C   UNL     3     -10.806   6.504  68.274  1.00  0.00    -0.288 C  
HETATM   12  C   UNL     2      -7.836   3.515  70.764  1.00  0.00    -0.050 C  
HETATM   13  O   UNL     2      -6.841   3.098  69.912  1.00  0.00    -0.033 OA 
HETATM   14  O   UNL     2      -9.664   3.370  69.228  1.00  0.00    -0.128 OA 
HETATM   15  C   UNL     2      -7.744   3.686  72.100  1.00  0.00    -0.059 C  
HETATM   16  O   UNL     3      -8.416   7.393  70.743  1.00  0.00    -0.128 OA 
HETATM   17  H   UNL     3      -7.407   6.478  68.223  1.00  0.00     0.000 HD 
HETATM   18  C   UNL     3      -9.415   6.678  68.697  1.00  0.00    -0.128 C  
HETATM   19  O   UNL     3     -11.223   6.229  67.153  1.00  0.00    -0.334 OA 
ENDROOT
BRANCH   2  20
HETATM   20  C   UNL     2      -9.354   5.522  73.237  1.00  0.00    -0.131 C  
HETATM   21  O   UNL     2     -10.704   5.640  73.726  1.00  0.00    -0.273 OA 
HETATM   22  H   UNL     2     -10.844   6.499  74.107  1.00  0.00     0.000 HD 
BRANCH  20  23
HETATM   23  C   UNL     2      -8.478   6.093  74.359  1.00  0.00    -0.121 C  
HETATM   24  H   UNL     2      -6.740   7.121  74.579  1.00  0.00     0.000 HD 
HETATM   25  O   UNL     2      -7.282   6.767  73.884  1.00  0.00    -0.083 OA 
ENDBRANCH  20  23
ENDBRANCH   2  20
BRANCH   4  26
HETATM   26  C   UNL     3     -11.456   8.014  71.433  1.00  0.00    -0.258 C  
HETATM   27  H   UNL     3     -11.639  10.027  71.634  1.00  0.00     0.000 HD 
HETATM   28  O   UNL     3     -11.228   9.391  71.063  1.00  0.00    -0.283 OA 
BRANCH  26  29
HETATM   29  C   UNL     3     -12.941   7.747  71.660  1.00  0.00    -0.345 C  
HETATM   30  O   UNL     3     -13.141   6.403  72.115  1.00  0.00    -0.494 OA 
HETATM   31  H   UNL     3     -14.066   6.237  72.256  1.00  0.00     0.000 HD 
ENDBRANCH  26  29
ENDBRANCH   4  26
TORSDOF 4
ENDMDL
MODEL       97
REMARK 921   NORMALIZED FREE ENERGY PREDICTED BY IDOCK:   -3.73 KCAL/MOL
REMARK 922        TOTAL FREE ENERGY PREDICTED BY IDOCK:   -5.48 KCAL/MOL
REMARK 923 INTER-LIGAND FREE ENERGY PREDICTED BY IDOCK:   -4.86 KCAL/MOL
REMARK 924 INTRA-LIGAND FREE ENERGY PREDICTED BY IDOCK:   -0.62 KCAL/MOL
REMARK 927      BINDING AFFINITY PREDICTED BY RF-SCORE:    0.00 PKD
ROOT
HETATM    1 ZN   UNL     1     -12.760   9.481  69.821  1.00  0.00    -0.467 Zn 
HETATM    2  C   UNL     2     -11.463   6.371  69.872  1.00  0.00    -0.415 C  
HETATM    3  O   UNL     2     -10.774   5.173  70.318  1.00  0.00    -0.229 OA 
HETATM    4  C   UNL     3      -7.768   5.321  69.030  1.00  0.00    -0.082 C  
HETATM    5  H   UNL     2     -11.071   7.827  73.733  1.00  0.00     0.000 HD 
HETATM    6  O   UNL     3      -7.122   4.131  69.513  1.00  0.00    -0.048 OA 
HETATM    7  O   UNL     3      -6.863   6.304  72.384  1.00  0.00    -0.067 OA 
HETATM    8  C   UNL     3      -7.463   6.392  70.069  1.00  0.00    -0.091 C  
HETATM    9  C   UNL     2     -10.386   5.303  71.625  1.00  0.00    -0.216 C  
HETATM   10  O   UNL     2     -12.364   8.204  71.131  1.00  0.00    -0.294 OA 
HETATM   11  C   UNL     3      -6.733   4.340  70.808  1.00  0.00    -0.035 C  
HETATM   12  C   UNL     2     -10.876   6.598  72.108  1.00  0.00    -0.229 C  
HETATM   13  O   UNL     2     -10.754   6.989  73.420  1.00  0.00    -0.321 OA 
HETATM   14  O   UNL     2      -9.858   4.444  72.312  1.00  0.00    -0.157 OA 
HETATM   15  C   UNL     2     -11.592   7.211  71.141  1.00  0.00    -0.301 C  
HETATM   16  O   UNL     3      -7.814   7.588  69.869  1.00  0.00    -0.103 OA 
HETATM   17  H   UNL     3      -7.029   7.215  72.598  1.00  0.00     0.000 HD 
HETATM   18  C   UNL     3      -6.990   5.744  71.139  1.00  0.00    -0.067 C  
HETATM   19  O   UNL     3      -6.203   3.486  71.511  1.00  0.00    -0.014 OA 
ENDROOT
BRANCH   2  20
HETATM   20  C   UNL     2     -10.741   6.942  68.599  1.00  0.00    -0.216 C  
HETATM   21  O   UNL     2     -11.437   6.538  67.404  1.00  0.00    -0.740 OA 
HETATM   22  H   UNL     2     -11.000   6.883  66.634  1.00  0.00     0.000 HD 
BRANCH  20  23
HETATM   23  C   UNL     2     -10.449   8.434  68.399  1.00  0.00    -0.164 C  
HETATM   24  H   UNL     2     -10.332   9.788  66.890  1.00  0.00     0.000 HD 
HETATM   25  O   UNL     2     -10.513   8.863  67.013  1.00  0.00    -0.274 OA 
ENDBRANCH  20  23
ENDBRANCH   2  20
BRANCH   4  26
HETATM   26  C   UNL     3      -7.491   5.474  67.518  1.00  0.00    -0.084 C  
HETATM   27  H   UNL     3      -5.960   5.288  66.195  1.00  0.00     0.000 HD 
HETATM   28  O   UNL     3      -6.130   5.194  67.124  1.00  0.00    -0.028 OA 
BRANCH  26  29
HETATM   29  C   UNL     3      -8.481   4.709  66.645  1.00  0.00    -0.105 C  
HETATM   30  O   UNL     3      -8.798   3.446  67.241  1.00  0.00    -0.113 OA 
HETATM   31  H   UNL     3      -9.415   2.970  66.698  1.00  0.00     0.000 HD 
ENDBRANCH  26  29
ENDBRANCH   4  26
TORSDOF 4
ENDMDL
MODEL       98
REMARK 921   NORMALIZED FREE ENERGY PREDICTED BY IDOCK:   -3.72 KCAL/MOL
REMARK 922        TOTAL FREE ENERGY PREDICTED BY IDOCK:   -5.47 KCAL/MOL
REMARK 923 INTER-LIGAND FREE ENERGY PREDICTED BY IDOCK:   -4.56 KCAL/MOL
REMARK 924 INTRA-LIGAND FREE ENERGY PREDICTED BY IDOCK:   -0.92 KCAL/MOL
REMARK 927      BINDING AFFINITY PREDICTED BY RF-SCORE:    0.00 PKD
ROOT
HETATM    1 ZN   UNL     1     -11.172   9.339  72.744  1.00  0.00    -0.239 Zn 
HETATM    2  C   UNL     2      -8.960   8.411  70.378  1.00  0.00    -0.148 C  
HETATM    3  O   UNL     2      -8.350   8.163  69.083  1.00  0.00    -0.127 OA 
HETATM    4  C   UNL     3      -8.849   4.994  68.435  1.00  0.00    -0.102 C  
HETATM    5  H   UNL     2     -11.982  10.424  68.378  1.00  0.00     0.000 HD 
HETATM    6  O   UNL     3      -8.249   4.802  67.143  1.00  0.00    -0.106 OA 
HETATM    7  O   UNL     3     -11.410   6.301  66.252  1.00  0.00    -0.561 OA 
HETATM    8  C   UNL     3     -10.299   5.362  68.152  1.00  0.00    -0.145 C  
HETATM    9  C   UNL     2      -9.145   8.650  68.080  1.00  0.00    -0.140 C  
HETATM   10  O   UNL     2     -10.778   9.852  70.988  1.00  0.00    -0.309 OA 
HETATM   11  C   UNL     3      -9.106   5.280  66.189  1.00  0.00    -0.148 C  
HETATM   12  C   UNL     2     -10.299   9.305  68.704  1.00  0.00    -0.205 C  
HETATM   13  O   UNL     2     -11.234  10.000  67.975  1.00  0.00    -0.244 OA 
HETATM   14  O   UNL     2      -8.877   8.670  66.889  1.00  0.00    -0.127 OA 
HETATM   15  C   UNL     2     -10.180   9.269  70.048  1.00  0.00    -0.215 C  
HETATM   16  O   UNL     3     -11.119   5.492  69.104  1.00  0.00    -0.153 OA 
HETATM   17  H   UNL     3     -12.223   6.544  66.680  1.00  0.00     0.000 HD 
HETATM   18  C   UNL     3     -10.359   5.655  66.849  1.00  0.00    -0.259 C  
HETATM   19  O   UNL     3      -8.849   5.308  64.989  1.00  0.00    -0.154 OA 
ENDROOT
BRANCH   2  20
HETATM   20  C   UNL     2      -9.118   7.049  71.146  1.00  0.00    -0.153 C  
HETATM   21  O   UNL     2      -7.824   6.509  71.479  1.00  0.00    -0.098 OA 
HETATM   22  H   UNL     2      -7.919   5.686  71.944  1.00  0.00     0.000 HD 
BRANCH  20  23
HETATM   23  C   UNL     2      -9.948   6.901  72.427  1.00  0.00    -0.165 C  
HETATM   24  H   UNL     2     -10.169   7.812  74.228  1.00  0.00     0.000 HD 
HETATM   25  O   UNL     2      -9.655   7.904  73.435  1.00  0.00    -0.281 OA 
ENDBRANCH  20  23
ENDBRANCH   2  20
BRANCH   4  26
HETATM   26  C   UNL     3      -8.412   3.848  69.375  1.00  0.00    -0.064 C  
HETATM   27  H   UNL     3      -8.938   3.014  71.152  1.00  0.00     0.000 HD 
HETATM   28  O   UNL     3      -9.206   3.718  70.574  1.00  0.00    -0.111 OA 
BRANCH  26  29
HETATM   29  C   UNL     3      -8.272   2.506  68.663  1.00  0.00    -0.056 C  
HETATM   30  O   UNL     3      -9.515   2.133  68.056  1.00  0.00    -0.245 OA 
HETATM   31  H   UNL     3      -9.428   1.298  67.612  1.00  0.00     0.000 HD 
ENDBRANCH  26  29
ENDBRANCH   4  26
TORSDOF 4
ENDMDL
MODEL       99
REMARK 921   NORMALIZED FREE ENERGY PREDICTED BY IDOCK:   -3.72 KCAL/MOL
REMARK 922        TOTAL FREE ENERGY PREDICTED BY IDOCK:   -5.47 KCAL/MOL
REMARK 923 INTER-LIGAND FREE ENERGY PREDICTED BY IDOCK:   -4.47 KCAL/MOL
REMARK 924 INTRA-LIGAND FREE ENERGY PREDICTED BY IDOCK:   -1.00 KCAL/MOL
REMARK 927      BINDING AFFINITY PREDICTED BY RF-SCORE:    0.00 PKD
ROOT
HETATM    1 ZN   UNL     1      -9.682  10.330  70.895  1.00  0.00    -0.305 Zn 
HETATM    2  C   UNL     2     -10.510   9.099  67.871  1.00  0.00    -0.237 C  
HETATM    3  O   UNL     2     -10.778   8.168  66.788  1.00  0.00    -0.278 OA 
HETATM    4  C   UNL     3      -8.065   8.098  64.958  1.00  0.00    -0.155 C  
HETATM    5  H   UNL     2     -10.215   5.819  70.388  1.00  0.00     0.000 HD 
HETATM    6  O   UNL     3      -8.369   7.154  63.917  1.00  0.00     0.022 OA 
HETATM    7  O   UNL     3      -7.534   4.957  66.657  1.00  0.00    -0.084 OA 
HETATM    8  C   UNL     3      -7.431   7.275  66.072  1.00  0.00    -0.080 C  
HETATM    9  C   UNL     2     -10.692   6.877  67.236  1.00  0.00    -0.351 C  
HETATM   10  O   UNL     2     -10.417   8.738  70.241  1.00  0.00    -0.196 OA 
HETATM   11  C   UNL     3      -8.233   5.890  64.422  1.00  0.00    -0.099 C  
HETATM   12  C   UNL     2     -10.421   6.922  68.676  1.00  0.00    -0.195 C  
HETATM   13  O   UNL     2     -10.391   5.790  69.456  1.00  0.00    -0.212 OA 
HETATM   14  O   UNL     2     -10.940   5.870  66.592  1.00  0.00    -0.287 OA 
HETATM   15  C   UNL     2     -10.401   8.203  69.102  1.00  0.00    -0.220 C  
HETATM   16  O   UNL     3      -6.956   7.848  67.092  1.00  0.00    -0.071 OA 
HETATM   17  H   UNL     3      -7.177   5.027  67.536  1.00  0.00     0.000 HD 
HETATM   18  C   UNL     3      -7.683   5.996  65.775  1.00  0.00    -0.097 C  
HETATM   19  O   UNL     3      -8.481   4.869  63.788  1.00  0.00    -0.125 OA 
ENDROOT
BRANCH   2  20
HETATM   20  C   UNL     2      -9.328  10.047  67.458  1.00  0.00    -0.144 C  
HETATM   21  O   UNL     2      -9.743  10.935  66.402  1.00  0.00    -0.190 OA 
HETATM   22  H   UNL     2      -9.028  11.509  66.152  1.00  0.00     0.000 HD 
BRANCH  20  23
HETATM   23  C   UNL     2      -8.586  10.944  68.457  1.00  0.00    -0.152 C  
HETATM   24  H   UNL     2      -8.643  12.855  69.142  1.00  0.00     0.000 HD 
HETATM   25  O   UNL     2      -9.102  12.300  68.523  1.00  0.00    -0.166 OA 
ENDBRANCH  20  23
ENDBRANCH   2  20
BRANCH   4  26
HETATM   26  C   UNL     3      -7.420   9.356  64.334  1.00  0.00    -0.110 C  
HETATM   27  H   UNL     3      -5.714   9.914  63.381  1.00  0.00     0.000 HD 
HETATM   28  O   UNL     3      -6.110   9.141  63.765  1.00  0.00    -0.085 OA 
BRANCH  26  29
HETATM   29  C   UNL     3      -8.335  10.072  63.345  1.00  0.00    -0.170 C  
HETATM   30  O   UNL     3      -9.709   9.834  63.676  1.00  0.00    -0.485 OA 
HETATM   31  H   UNL     3     -10.278  10.281  63.061  1.00  0.00     0.000 HD 
ENDBRANCH  26  29
ENDBRANCH   4  26
TORSDOF 4
ENDMDL
MODEL      100
REMARK 921   NORMALIZED FREE ENERGY PREDICTED BY IDOCK:   -3.72 KCAL/MOL
REMARK 922        TOTAL FREE ENERGY PREDICTED BY IDOCK:   -5.47 KCAL/MOL
REMARK 923 INTER-LIGAND FREE ENERGY PREDICTED BY IDOCK:   -4.72 KCAL/MOL
REMARK 924 INTRA-LIGAND FREE ENERGY PREDICTED BY IDOCK:   -0.74 KCAL/MOL
REMARK 927      BINDING AFFINITY PREDICTED BY RF-SCORE:    0.00 PKD
ROOT
HETATM    1 ZN   UNL     1      -8.213   4.207  69.022  1.00  0.00    -0.067 Zn 
HETATM    2  C   UNL     2      -7.486   7.469  68.599  1.00  0.00    -0.101 C  
HETATM    3  O   UNL     2      -7.550   8.918  68.688  1.00  0.00    -0.093 OA 
HETATM    4  C   UNL     3      -9.043   9.930  65.956  1.00  0.00    -0.158 C  
HETATM    5  H   UNL     2     -10.461   7.334  71.483  1.00  0.00     0.000 HD 
HETATM    6  O   UNL     3      -9.100  11.360  66.098  1.00  0.00    -0.199 OA 
HETATM    7  O   UNL     3     -11.864  10.321  68.174  1.00  0.00    -0.737 OA 
HETATM    8  C   UNL     3     -10.338   9.415  66.568  1.00  0.00    -0.198 C  
HETATM    9  C   UNL     2      -8.540   9.301  69.552  1.00  0.00    -0.147 C  
HETATM   10  O   UNL     2      -8.468   5.784  69.996  1.00  0.00    -0.120 OA 
HETATM   11  C   UNL     3     -10.127  11.673  66.946  1.00  0.00    -0.211 C  
HETATM   12  C   UNL     2      -9.130   8.084  70.121  1.00  0.00    -0.151 C  
HETATM   13  O   UNL     2     -10.078   8.121  71.115  1.00  0.00    -0.180 OA 
HETATM   14  O   UNL     2      -8.794  10.442  69.903  1.00  0.00    -0.059 OA 
HETATM   15  C   UNL     2      -8.478   6.996  69.660  1.00  0.00    -0.134 C  
HETATM   16  O   UNL     3     -10.629   8.188  66.499  1.00  0.00    -0.190 OA 
HETATM   17  H   UNL     3     -12.339   9.521  68.371  1.00  0.00     0.000 HD 
HETATM   18  C   UNL     3     -10.857  10.441  67.251  1.00  0.00    -0.264 C  
HETATM   19  O   UNL     3     -10.392  12.815  67.309  1.00  0.00    -0.230 OA 
ENDROOT
BRANCH   2  20
HETATM   20  C   UNL     2      -7.644   7.034  67.098  1.00  0.00    -0.107 C  
HETATM   21  O   UNL     2      -6.400   7.208  66.392  1.00  0.00    -0.044 OA 
HETATM   22  H   UNL     2      -6.496   6.945  65.484  1.00  0.00     0.000 HD 
BRANCH  20  23
HETATM   23  C   UNL     2      -8.146   5.648  66.676  1.00  0.00    -0.105 C  
HETATM   24  H   UNL     2      -7.473   3.734  66.582  1.00  0.00     0.000 HD 
HETATM   25  O   UNL     2      -7.162   4.592  66.843  1.00  0.00    -0.073 OA 
ENDBRANCH  20  23
ENDBRANCH   2  20
BRANCH   4  26
HETATM   26  C   UNL     3      -8.555   9.578  64.533  1.00  0.00    -0.187 C  
HETATM   27  H   UNL     3      -8.066   7.950  63.420  1.00  0.00     0.000 HD 
HETATM   28  O   UNL     3      -8.365   8.167  64.294  1.00  0.00    -0.131 OA 
BRANCH  26  29
HETATM   29  C   UNL     3      -9.403  10.209  63.433  1.00  0.00    -0.294 C  
HETATM   30  O   UNL     3      -9.567   9.294  62.343  1.00  0.00    -0.546 OA 
HETATM   31  H   UNL     3     -10.095   9.687  61.659  1.00  0.00     0.000 HD 
ENDBRANCH  26  29
ENDBRANCH   4  26
TORSDOF 4
ENDMDL
MODEL      101
REMARK 921   NORMALIZED FREE ENERGY PREDICTED BY IDOCK:   -3.70 KCAL/MOL
REMARK 922        TOTAL FREE ENERGY PREDICTED BY IDOCK:   -5.45 KCAL/MOL
REMARK 923 INTER-LIGAND FREE ENERGY PREDICTED BY IDOCK:   -4.68 KCAL/MOL
REMARK 924 INTRA-LIGAND FREE ENERGY PREDICTED BY IDOCK:   -0.77 KCAL/MOL
REMARK 927      BINDING AFFINITY PREDICTED BY RF-SCORE:    0.00 PKD
ROOT
HETATM    1 ZN   UNL     1      -5.712  11.636  68.251  1.00  0.00    -0.046 Zn 
HETATM    2  C   UNL     2      -9.067  11.917  68.122  1.00  0.00    -0.190 C  
HETATM    3  O   UNL     2     -10.460  11.663  67.797  1.00  0.00    -0.181 OA 
HETATM    4  C   UNL     3     -11.201  13.687  65.333  1.00  0.00    -0.298 C  
HETATM    5  H   UNL     2      -8.163   8.293  66.324  1.00  0.00     0.000 HD 
HETATM    6  O   UNL     3     -12.575  13.387  65.034  1.00  0.00    -0.539 OA 
HETATM    7  O   UNL     3     -10.866  10.686  63.355  1.00  0.00    -0.408 OA 
HETATM    8  C   UNL     3     -10.385  12.766  64.436  1.00  0.00    -0.364 C  
HETATM    9  C   UNL     2     -10.579  10.502  67.080  1.00  0.00    -0.253 C  
HETATM   10  O   UNL     2      -7.157  10.471  68.006  1.00  0.00    -0.083 OA 
HETATM   11  C   UNL     3     -12.618  12.238  64.293  1.00  0.00    -0.372 C  
HETATM   12  C   UNL     2      -9.242   9.911  66.965  1.00  0.00    -0.142 C  
HETATM   13  O   UNL     2      -9.029   8.676  66.399  1.00  0.00    -0.142 OA 
HETATM   14  O   UNL     2     -11.620   9.974  66.725  1.00  0.00     0.442 OA 
HETATM   15  C   UNL     2      -8.346  10.660  67.642  1.00  0.00    -0.114 C  
HETATM   16  O   UNL     3      -9.127  12.871  64.395  1.00  0.00     0.900 OA 
HETATM   17  H   UNL     3      -9.974  10.438  63.143  1.00  0.00     0.000 HD 
HETATM   18  C   UNL     3     -11.243  11.854  63.966  1.00  0.00    -0.396 C  
HETATM   19  O   UNL     3     -13.657  11.694  63.931  1.00  0.00    -0.254 OA 
ENDROOT
BRANCH   2  20
HETATM   20  C   UNL     2      -8.659  13.336  67.583  1.00  0.00    -0.196 C  
HETATM   21  O   UNL     2      -9.379  14.366  68.288  1.00  0.00    -0.193 OA 
HETATM   22  H   UNL     2      -9.133  15.223  67.961  1.00  0.00     0.000 HD 
BRANCH  20  23
HETATM   23  C   UNL     2      -7.208  13.830  67.539  1.00  0.00    -0.158 C  
HETATM   24  H   UNL     2      -5.641  14.107  68.802  1.00  0.00     0.000 HD 
HETATM   25  O   UNL     2      -6.540  13.801  68.829  1.00  0.00    -0.087 OA 
ENDBRANCH  20  23
ENDBRANCH   2  20
BRANCH   4  26
HETATM   26  C   UNL     3     -11.017  15.220  65.399  1.00  0.00    -0.372 C  
HETATM   27  H   UNL     3      -9.531  16.599  65.538  1.00  0.00     0.000 HD 
HETATM   28  O   UNL     3      -9.644  15.658  65.497  1.00  0.00    -0.307 OA 
BRANCH  26  29
HETATM   29  C   UNL     3     -11.749  15.962  64.285  1.00  0.00    -0.132 C  
HETATM   30  O   UNL     3     -11.207  17.279  64.125  1.00  0.00    -0.797 OA 
HETATM   31  H   UNL     3     -11.663  17.741  63.431  1.00  0.00     0.000 HD 
ENDBRANCH  26  29
ENDBRANCH   4  26
TORSDOF 4
ENDMDL
MODEL      102
REMARK 921   NORMALIZED FREE ENERGY PREDICTED BY IDOCK:   -3.70 KCAL/MOL
REMARK 922        TOTAL FREE ENERGY PREDICTED BY IDOCK:   -5.44 KCAL/MOL
REMARK 923 INTER-LIGAND FREE ENERGY PREDICTED BY IDOCK:   -4.91 KCAL/MOL
REMARK 924 INTRA-LIGAND FREE ENERGY PREDICTED BY IDOCK:   -0.54 KCAL/MOL
REMARK 927      BINDING AFFINITY PREDICTED BY RF-SCORE:    0.00 PKD
ROOT
HETATM    1 ZN   UNL     1      -7.829   8.237  66.399  1.00  0.00    -0.082 Zn 
HETATM    2  C   UNL     2      -8.511   9.941  69.225  1.00  0.00    -0.158 C  
HETATM    3  O   UNL     2      -9.095  10.316  70.501  1.00  0.00     0.279 OA 
HETATM    4  C   UNL     3     -11.454  12.481  69.820  1.00  0.00    -0.141 C  
HETATM    5  H   UNL     2     -10.449   6.296  69.601  1.00  0.00     0.000 HD 
HETATM    6  O   UNL     3     -12.012  12.805  71.104  1.00  0.00     0.017 OA 
HETATM    7  O   UNL     3     -13.610   9.644  70.403  1.00  0.00    -0.459 OA 
HETATM    8  C   UNL     3     -12.276  11.304  69.311  1.00  0.00    -0.222 C  
HETATM    9  C   UNL     2      -9.924   9.325  70.955  1.00  0.00    -0.293 C  
HETATM   10  O   UNL     2      -8.425   7.812  68.121  1.00  0.00    -0.123 OA 
HETATM   11  C   UNL     3     -12.852  11.793  71.482  1.00  0.00    -0.345 C  
HETATM   12  C   UNL     2      -9.860   8.216  69.999  1.00  0.00    -0.182 C  
HETATM   13  O   UNL     2     -10.490   7.015  70.221  1.00  0.00    -0.201 OA 
HETATM   14  O   UNL     2     -10.501   9.302  72.031  1.00  0.00    -0.250 OA 
HETATM   15  C   UNL     2      -8.972   8.499  69.022  1.00  0.00    -0.146 C  
HETATM   16  O   UNL     3     -12.088  10.855  68.145  1.00  0.00    -0.563 OA 
HETATM   17  H   UNL     3     -13.686   9.036  69.676  1.00  0.00     0.000 HD 
HETATM   18  C   UNL     3     -12.969  10.856  70.363  1.00  0.00    -0.103 C  
HETATM   19  O   UNL     3     -13.436  11.754  72.560  1.00  0.00    -0.184 OA 
ENDROOT
BRANCH   2  20
HETATM   20  C   UNL     2      -8.839  11.048  68.159  1.00  0.00    -0.141 C  
HETATM   21  O   UNL     2      -8.243  12.304  68.541  1.00  0.00    -0.216 OA 
HETATM   22  H   UNL     2      -8.442  12.973  67.897  1.00  0.00     0.000 HD 
BRANCH  20  23
HETATM   23  C   UNL     2      -8.516  10.897  66.667  1.00  0.00    -0.151 C  
HETATM   24  H   UNL     2      -9.451  11.050  64.871  1.00  0.00     0.000 HD 
HETATM   25  O   UNL     2      -9.651  11.143  65.795  1.00  0.00    -0.204 OA 
ENDBRANCH  20  23
ENDBRANCH   2  20
BRANCH   4  26
HETATM   26  C   UNL     3     -11.217  13.783  69.023  1.00  0.00    -0.272 C  
HETATM   27  H   UNL     3      -9.729  15.108  68.624  1.00  0.00     0.000 HD 
HETATM   28  O   UNL     3      -9.875  14.308  69.114  1.00  0.00    -0.125 OA 
BRANCH  26  29
HETATM   29  C   UNL     3     -11.670  13.689  67.569  1.00  0.00    -0.371 C  
HETATM   30  O   UNL     3     -10.606  14.076  66.691  1.00  0.00    -0.272 OA 
HETATM   31  H   UNL     3     -10.888  14.018  65.785  1.00  0.00     0.000 HD 
ENDBRANCH  26  29
ENDBRANCH   4  26
TORSDOF 4
ENDMDL
MODEL      103
REMARK 921   NORMALIZED FREE ENERGY PREDICTED BY IDOCK:   -3.60 KCAL/MOL
REMARK 922        TOTAL FREE ENERGY PREDICTED BY IDOCK:   -5.32 KCAL/MOL
REMARK 923 INTER-LIGAND FREE ENERGY PREDICTED BY IDOCK:   -4.35 KCAL/MOL
REMARK 924 INTRA-LIGAND FREE ENERGY PREDICTED BY IDOCK:   -0.98 KCAL/MOL
REMARK 927      BINDING AFFINITY PREDICTED BY RF-SCORE:    0.00 PKD
ROOT
HETATM    1 ZN   UNL     1     -11.404   4.575  66.828  1.00  0.00    -0.230 Zn 
HETATM    2  C   UNL     2     -10.964   7.214  68.877  1.00  0.00    -0.070 C  
HETATM    3  O   UNL     2     -10.574   8.521  69.375  1.00  0.00    -0.221 OA 
HETATM    4  C   UNL     3      -7.762   8.075  70.991  1.00  0.00    -0.085 C  
HETATM    5  H   UNL     2      -9.858   8.513  65.099  1.00  0.00     0.000 HD 
HETATM    6  O   UNL     3      -7.407   9.392  71.446  1.00  0.00    -0.325 OA 
HETATM    7  O   UNL     3      -6.332   9.508  68.002  1.00  0.00    -0.056 OA 
HETATM    8  C   UNL     3      -7.095   7.929  69.630  1.00  0.00    -0.061 C  
HETATM    9  C   UNL     2     -10.048   9.281  68.364  1.00  0.00    -0.191 C  
HETATM   10  O   UNL     2     -11.238   6.428  66.626  1.00  0.00    -0.245 OA 
HETATM   11  C   UNL     3      -6.862  10.083  70.399  1.00  0.00    -0.136 C  
HETATM   12  C   UNL     2     -10.138   8.498  67.127  1.00  0.00    -0.262 C  
HETATM   13  O   UNL     2      -9.800   9.020  65.900  1.00  0.00    -0.276 OA 
HETATM   14  O   UNL     2      -9.702  10.448  68.441  1.00  0.00    -0.150 OA 
HETATM   15  C   UNL     2     -10.753   7.322  67.368  1.00  0.00    -0.288 C  
HETATM   16  O   UNL     3      -7.138   6.825  69.017  1.00  0.00    -0.082 OA 
HETATM   17  H   UNL     3      -6.235   8.908  67.271  1.00  0.00     0.000 HD 
HETATM   18  C   UNL     3      -6.713   9.159  69.272  1.00  0.00    -0.049 C  
HETATM   19  O   UNL     3      -6.512  11.257  70.461  1.00  0.00    -0.289 OA 
ENDROOT
BRANCH   2  20
HETATM   20  C   UNL     2     -10.235   6.101  69.713  1.00  0.00    -0.195 C  
HETATM   21  O   UNL     2     -10.960   5.833  70.929  1.00  0.00    -0.276 OA 
HETATM   22  H   UNL     2     -10.520   5.160  71.435  1.00  0.00     0.000 HD 
BRANCH  20  23
HETATM   23  C   UNL     2      -9.891   4.718  69.147  1.00  0.00    -0.184 C  
HETATM   24  H   UNL     2      -9.639   2.811  69.799  1.00  0.00     0.000 HD 
HETATM   25  O   UNL     2      -9.853   3.668  70.150  1.00  0.00    -0.170 OA 
ENDBRANCH  20  23
ENDBRANCH   2  20
BRANCH   4  26
HETATM   26  C   UNL     3      -7.592   7.071  72.153  1.00  0.00    -0.091 C  
HETATM   27  H   UNL     3      -6.149   6.372  73.401  1.00  0.00     0.000 HD 
HETATM   28  O   UNL     3      -6.253   6.988  72.687  1.00  0.00    -0.052 OA 
BRANCH  26  29
HETATM   29  C   UNL     3      -8.615   7.264  73.269  1.00  0.00    -0.136 C  
HETATM   30  O   UNL     3      -9.753   7.985  72.782  1.00  0.00    -0.228 OA 
HETATM   31  H   UNL     3     -10.389   8.106  73.477  1.00  0.00     0.000 HD 
ENDBRANCH  26  29
ENDBRANCH   4  26
TORSDOF 4
ENDMDL
MODEL      104
REMARK 921   NORMALIZED FREE ENERGY PREDICTED BY IDOCK:   -3.59 KCAL/MOL
REMARK 922        TOTAL FREE ENERGY PREDICTED BY IDOCK:   -5.31 KCAL/MOL
REMARK 923 INTER-LIGAND FREE ENERGY PREDICTED BY IDOCK:   -4.54 KCAL/MOL
REMARK 924 INTRA-LIGAND FREE ENERGY PREDICTED BY IDOCK:   -0.77 KCAL/MOL
REMARK 927      BINDING AFFINITY PREDICTED BY RF-SCORE:    0.00 PKD
ROOT
HETATM    1 ZN   UNL     1      -9.915  12.081  69.635  1.00  0.00    -0.404 Zn 
HETATM    2  C   UNL     2     -10.638   9.536  67.550  1.00  0.00    -0.275 C  
HETATM    3  O   UNL     2     -10.836   8.194  67.030  1.00  0.00    -0.265 OA 
HETATM    4  C   UNL     3      -8.110   7.448  65.377  1.00  0.00    -0.133 C  
HETATM    5  H   UNL     2     -10.145   7.829  71.295  1.00  0.00     0.000 HD 
HETATM    6  O   UNL     3      -8.344   6.112  64.901  1.00  0.00    -0.140 OA 
HETATM    7  O   UNL     3      -7.386   5.499  68.328  1.00  0.00    -0.070 OA 
HETATM    8  C   UNL     3      -7.432   7.279  66.730  1.00  0.00    -0.092 C  
HETATM    9  C   UNL     2     -10.668   7.267  68.025  1.00  0.00    -0.146 C  
HETATM   10  O   UNL     2     -10.538  10.326  69.813  1.00  0.00    -0.242 OA 
HETATM   11  C   UNL     3      -8.129   5.239  65.932  1.00  0.00    -0.110 C  
HETATM   12  C   UNL     2     -10.411   7.994  69.272  1.00  0.00    -0.215 C  
HETATM   13  O   UNL     2     -10.312   7.359  70.487  1.00  0.00    -0.210 OA 
HETATM   14  O   UNL     2     -10.844   6.063  67.929  1.00  0.00    -0.283 OA 
HETATM   15  C   UNL     2     -10.479   9.324  69.054  1.00  0.00    -0.216 C  
HETATM   16  O   UNL     3      -7.003   8.289  67.356  1.00  0.00    -0.072 OA 
HETATM   17  H   UNL     3      -7.040   5.991  69.064  1.00  0.00     0.000 HD 
HETATM   18  C   UNL     3      -7.597   5.996  67.068  1.00  0.00    -0.096 C  
HETATM   19  O   UNL     3      -8.303   4.027  65.852  1.00  0.00    -0.108 OA 
ENDROOT
BRANCH   2  20
HETATM   20  C   UNL     2      -9.518  10.255  66.715  1.00  0.00    -0.163 C  
HETATM   21  O   UNL     2      -9.915  10.366  65.334  1.00  0.00    -0.261 OA 
HETATM   22  H   UNL     2      -9.238  10.800  64.830  1.00  0.00     0.000 HD 
BRANCH  20  23
HETATM   23  C   UNL     2      -8.961  11.637  67.077  1.00  0.00    -0.182 C  
HETATM   24  H   UNL     2      -7.640  12.469  68.376  1.00  0.00     0.000 HD 
HETATM   25  O   UNL     2      -7.985  11.613  68.152  1.00  0.00    -0.125 OA 
ENDBRANCH  20  23
ENDBRANCH   2  20
BRANCH   4  26
HETATM   26  C   UNL     3      -7.546   8.309  64.224  1.00  0.00    -0.122 C  
HETATM   27  H   UNL     3      -8.200   9.412  62.648  1.00  0.00     0.000 HD 
HETATM   28  O   UNL     3      -8.547   8.883  63.357  1.00  0.00    -0.178 OA 
BRANCH  26  29
HETATM   29  C   UNL     3      -6.556   9.370  64.695  1.00  0.00    -0.084 C  
HETATM   30  O   UNL     3      -6.907  10.651  64.157  1.00  0.00    -0.349 OA 
HETATM   31  H   UNL     3      -6.290  11.312  64.451  1.00  0.00     0.000 HD 
ENDBRANCH  26  29
ENDBRANCH   4  26
TORSDOF 4
ENDMDL
MODEL      105
REMARK 921   NORMALIZED FREE ENERGY PREDICTED BY IDOCK:   -3.56 KCAL/MOL
REMARK 922        TOTAL FREE ENERGY PREDICTED BY IDOCK:   -5.27 KCAL/MOL
REMARK 923 INTER-LIGAND FREE ENERGY PREDICTED BY IDOCK:   -4.46 KCAL/MOL
REMARK 924 INTRA-LIGAND FREE ENERGY PREDICTED BY IDOCK:   -0.80 KCAL/MOL
REMARK 927      BINDING AFFINITY PREDICTED BY RF-SCORE:    0.00 PKD
ROOT
HETATM    1 ZN   UNL     1     -11.908  11.769  69.217  1.00  0.00    -0.206 Zn 
HETATM    2  C   UNL     2      -9.254   9.717  68.905  1.00  0.00    -0.155 C  
HETATM    3  O   UNL     2      -8.283   8.796  68.340  1.00  0.00    -0.115 OA 
HETATM    4  C   UNL     3      -9.216   5.803  69.283  1.00  0.00    -0.117 C  
HETATM    5  H   UNL     2     -10.784  10.184  65.081  1.00  0.00     0.000 HD 
HETATM    6  O   UNL     3      -8.242   4.929  68.686  1.00  0.00    -0.084 OA 
HETATM    7  O   UNL     3     -10.423   5.594  65.887  1.00  0.00    -0.443 OA 
HETATM    8  C   UNL     3     -10.335   5.915  68.257  1.00  0.00    -0.214 C  
HETATM    9  C   UNL     2      -8.520   8.614  67.003  1.00  0.00    -0.110 C  
HETATM   10  O   UNL     2     -10.789  11.211  67.825  1.00  0.00    -0.206 OA 
HETATM   11  C   UNL     3      -8.555   4.766  67.364  1.00  0.00    -0.104 C  
HETATM   12  C   UNL     2      -9.641   9.481  66.627  1.00  0.00    -0.188 C  
HETATM   13  O   UNL     2     -10.057   9.623  65.325  1.00  0.00    -0.237 OA 
HETATM   14  O   UNL     2      -7.835   7.964  66.229  1.00  0.00    -0.089 OA 
HETATM   15  C   UNL     2     -10.037  10.212  67.691  1.00  0.00    -0.190 C  
HETATM   16  O   UNL     3     -11.395   6.542  68.539  1.00  0.00    -0.258 OA 
HETATM   17  H   UNL     3     -11.258   6.018  65.727  1.00  0.00     0.000 HD 
HETATM   18  C   UNL     3      -9.842   5.420  67.117  1.00  0.00    -0.158 C  
HETATM   19  O   UNL     3      -7.875   4.119  66.574  1.00  0.00    -0.092 OA 
ENDROOT
BRANCH   2  20
HETATM   20  C   UNL     2      -9.988   9.023  70.108  1.00  0.00    -0.189 C  
HETATM   21  O   UNL     2      -9.181   9.100  71.300  1.00  0.00    -0.246 OA 
HETATM   22  H   UNL     2      -9.625   8.680  72.027  1.00  0.00     0.000 HD 
BRANCH  20  23
HETATM   23  C   UNL     2     -11.401   9.410  70.564  1.00  0.00    -0.274 C  
HETATM   24  H   UNL     2     -12.918   8.648  71.678  1.00  0.00     0.000 HD 
HETATM   25  O   UNL     2     -12.043   8.408  71.396  1.00  0.00    -0.291 OA 
ENDBRANCH  20  23
ENDBRANCH   2  20
BRANCH   4  26
HETATM   26  C   UNL     3      -9.428   5.398  70.758  1.00  0.00    -0.167 C  
HETATM   27  H   UNL     3     -10.386   3.980  71.855  1.00  0.00     0.000 HD 
HETATM   28  O   UNL     3     -10.255   4.229  70.948  1.00  0.00    -0.140 OA 
BRANCH  26  29
HETATM   29  C   UNL     3      -8.125   5.279  71.543  1.00  0.00    -0.116 C  
HETATM   30  O   UNL     3      -7.209   6.306  71.145  1.00  0.00    -0.075 OA 
HETATM   31  H   UNL     3      -6.398   6.233  71.634  1.00  0.00     0.000 HD 
ENDBRANCH  26  29
ENDBRANCH   4  26
TORSDOF 4
ENDMDL
MODEL      106
REMARK 921   NORMALIZED FREE ENERGY PREDICTED BY IDOCK:   -3.56 KCAL/MOL
REMARK 922        TOTAL FREE ENERGY PREDICTED BY IDOCK:   -5.27 KCAL/MOL
REMARK 923 INTER-LIGAND FREE ENERGY PREDICTED BY IDOCK:   -4.30 KCAL/MOL
REMARK 924 INTRA-LIGAND FREE ENERGY PREDICTED BY IDOCK:   -0.96 KCAL/MOL
REMARK 927      BINDING AFFINITY PREDICTED BY RF-SCORE:    0.00 PKD
ROOT
HETATM    1 ZN   UNL     1      -7.800   3.706  71.610  1.00  0.00    -0.050 Zn 
HETATM    2  C   UNL     2      -9.923   5.093  69.391  1.00  0.00    -0.222 C  
HETATM    3  O   UNL     2     -10.452   5.687  68.175  1.00  0.00    -0.201 OA 
HETATM    4  C   UNL     3     -10.438   8.923  68.665  1.00  0.00    -0.193 C  
HETATM    5  H   UNL     2      -6.444   4.293  67.285  1.00  0.00     0.000 HD 
HETATM    6  O   UNL     3     -10.948   9.466  67.435  1.00  0.00    -0.210 OA 
HETATM    7  O   UNL     3      -7.515   8.783  66.552  1.00  0.00    -0.083 OA 
HETATM    8  C   UNL     3      -8.928   8.865  68.482  1.00  0.00    -0.134 C  
HETATM    9  C   UNL     2      -9.502   5.679  67.188  1.00  0.00    -0.117 C  
HETATM   10  O   UNL     2      -7.948   3.777  69.745  1.00  0.00    -0.051 OA 
HETATM   11  C   UNL     3      -9.943   9.458  66.506  1.00  0.00    -0.269 C  
HETATM   12  C   UNL     2      -8.313   5.006  67.720  1.00  0.00    -0.105 C  
HETATM   13  O   UNL     2      -7.214   4.728  66.941  1.00  0.00    -0.074 OA 
HETATM   14  O   UNL     2      -9.659   6.033  66.031  1.00  0.00    -0.109 OA 
HETATM   15  C   UNL     2      -8.553   4.565  68.973  1.00  0.00    -0.083 C  
HETATM   16  O   UNL     3      -8.184   8.524  69.444  1.00  0.00    -0.110 OA 
HETATM   17  H   UNL     3      -6.713   8.516  66.987  1.00  0.00     0.000 HD 
HETATM   18  C   UNL     3      -8.707   9.045  67.176  1.00  0.00    -0.116 C  
HETATM   19  O   UNL     3     -10.087   9.808  65.339  1.00  0.00    -0.305 OA 
ENDROOT
BRANCH   2  20
HETATM   20  C   UNL     2     -10.064   6.118  70.573  1.00  0.00    -0.189 C  
HETATM   21  O   UNL     2     -11.454   6.332  70.888  1.00  0.00    -0.327 OA 
HETATM   22  H   UNL     2     -11.539   6.952  71.603  1.00  0.00     0.000 HD 
BRANCH  20  23
HETATM   23  C   UNL     2      -9.377   5.931  71.932  1.00  0.00    -0.151 C  
HETATM   24  H   UNL     2      -9.378   4.623  73.486  1.00  0.00     0.000 HD 
HETATM   25  O   UNL     2      -9.804   4.739  72.644  1.00  0.00    -0.142 OA 
ENDBRANCH  20  23
ENDBRANCH   2  20
BRANCH   4  26
HETATM   26  C   UNL     3     -11.142   9.612  69.856  1.00  0.00    -0.235 C  
HETATM   27  H   UNL     3     -10.999   9.738  71.880  1.00  0.00     0.000 HD 
HETATM   28  O   UNL     3     -10.567   9.315  71.148  1.00  0.00    -0.279 OA 
BRANCH  26  29
HETATM   29  C   UNL     3     -11.312  11.116  69.666  1.00  0.00    -0.294 C  
HETATM   30  O   UNL     3     -12.624  11.409  69.170  1.00  0.00    -0.255 OA 
HETATM   31  H   UNL     3     -12.730  12.346  69.052  1.00  0.00     0.000 HD 
ENDBRANCH  26  29
ENDBRANCH   4  26
TORSDOF 4
ENDMDL
MODEL      107
REMARK 921   NORMALIZED FREE ENERGY PREDICTED BY IDOCK:   -3.55 KCAL/MOL
REMARK 922        TOTAL FREE ENERGY PREDICTED BY IDOCK:   -5.26 KCAL/MOL
REMARK 923 INTER-LIGAND FREE ENERGY PREDICTED BY IDOCK:   -4.76 KCAL/MOL
REMARK 924 INTRA-LIGAND FREE ENERGY PREDICTED BY IDOCK:   -0.50 KCAL/MOL
REMARK 927      BINDING AFFINITY PREDICTED BY RF-SCORE:    0.00 PKD
ROOT
HETATM    1 ZN   UNL     1     -11.029   8.470  66.492  1.00  0.00    -0.260 Zn 
HETATM    2  C   UNL     2      -8.599  10.673  65.721  1.00  0.00    -0.181 C  
HETATM    3  O   UNL     2      -7.378  11.457  65.787  1.00  0.00     0.185 OA 
HETATM    4  C   UNL     3      -8.230  14.363  67.029  1.00  0.00    -0.109 C  
HETATM    5  H   UNL     2      -7.169   8.487  68.940  1.00  0.00     0.000 HD 
HETATM    6  O   UNL     3      -6.993  15.092  67.094  1.00  0.00    -0.229 OA 
HETATM    7  O   UNL     3      -6.757  13.012  70.035  1.00  0.00    -0.357 OA 
HETATM    8  C   UNL     3      -8.353  13.662  68.376  1.00  0.00    -0.147 C  
HETATM    9  C   UNL     2      -6.611  11.057  66.850  1.00  0.00    -0.112 C  
HETATM   10  O   UNL     2      -9.195   8.629  66.828  1.00  0.00    -0.151 OA 
HETATM   11  C   UNL     3      -6.294  14.668  68.191  1.00  0.00    -0.140 C  
HETATM   12  C   UNL     2      -7.293   9.928  67.491  1.00  0.00    -0.090 C  
HETATM   13  O   UNL     2      -6.728   9.218  68.524  1.00  0.00    -0.057 OA 
HETATM   14  O   UNL     2      -5.495  11.464  67.130  1.00  0.00    -0.057 OA 
HETATM   15  C   UNL     2      -8.411   9.613  66.804  1.00  0.00    -0.117 C  
HETATM   16  O   UNL     3      -9.401  13.019  68.663  1.00  0.00    -0.123 OA 
HETATM   17  H   UNL     3      -7.312  12.418  70.528  1.00  0.00     0.000 HD 
HETATM   18  C   UNL     3      -7.149  13.752  68.950  1.00  0.00    -0.107 C  
HETATM   19  O   UNL     3      -5.171  15.065  68.484  1.00  0.00    -0.090 OA 
ENDROOT
BRANCH   2  20
HETATM   20  C   UNL     2      -9.837  11.639  65.747  1.00  0.00    -0.239 C  
HETATM   21  O   UNL     2      -9.886  12.424  64.539  1.00  0.00    -0.469 OA 
HETATM   22  H   UNL     2     -10.635  13.008  64.554  1.00  0.00     0.000 HD 
BRANCH  20  23
HETATM   23  C   UNL     2     -11.276  11.152  65.958  1.00  0.00     0.034 C  
HETATM   24  H   UNL     2     -13.156  11.914  66.062  1.00  0.00     0.000 HD 
HETATM   25  O   UNL     2     -12.265  12.215  65.931  1.00  0.00    -0.604 OA 
ENDBRANCH  20  23
ENDBRANCH   2  20
BRANCH   4  26
HETATM   26  C   UNL     3      -9.324  15.268  66.419  1.00  0.00    -0.296 C  
HETATM   27  H   UNL     3     -11.345  15.339  66.220  1.00  0.00     0.000 HD 
HETATM   28  O   UNL     3     -10.673  14.783  66.595  1.00  0.00    -0.297 OA 
BRANCH  26  29
HETATM   29  C   UNL     3      -9.206  16.727  66.848  1.00  0.00    -0.232 C  
HETATM   30  O   UNL     3      -8.780  17.537  65.745  1.00  0.00    -0.514 OA 
HETATM   31  H   UNL     3      -8.707  18.446  66.013  1.00  0.00     0.000 HD 
ENDBRANCH  26  29
ENDBRANCH   4  26
TORSDOF 4
ENDMDL
MODEL      108
REMARK 921   NORMALIZED FREE ENERGY PREDICTED BY IDOCK:   -3.50 KCAL/MOL
REMARK 922        TOTAL FREE ENERGY PREDICTED BY IDOCK:   -5.20 KCAL/MOL
REMARK 923 INTER-LIGAND FREE ENERGY PREDICTED BY IDOCK:   -4.33 KCAL/MOL
REMARK 924 INTRA-LIGAND FREE ENERGY PREDICTED BY IDOCK:   -0.86 KCAL/MOL
REMARK 927      BINDING AFFINITY PREDICTED BY RF-SCORE:    0.00 PKD
ROOT
HETATM    1 ZN   UNL     1     -10.942   7.396  74.498  1.00  0.00    -0.302 Zn 
HETATM    2  C   UNL     2      -8.917   5.978  72.209  1.00  0.00    -0.141 C  
HETATM    3  O   UNL     2      -7.829   5.776  71.269  1.00  0.00    -0.106 OA 
HETATM    4  C   UNL     3      -9.054   6.433  68.305  1.00  0.00    -0.114 C  
HETATM    5  H   UNL     2      -7.016   9.463  73.401  1.00  0.00     0.000 HD 
HETATM    6  O   UNL     3      -7.941   6.240  67.416  1.00  0.00    -0.107 OA 
HETATM    7  O   UNL     3      -7.247   9.529  68.733  1.00  0.00    -0.071 OA 
HETATM    8  C   UNL     3      -9.003   7.904  68.698  1.00  0.00    -0.134 C  
HETATM    9  C   UNL     2      -6.959   6.834  71.311  1.00  0.00    -0.074 C  
HETATM   10  O   UNL     2      -9.140   7.540  74.016  1.00  0.00    -0.242 OA 
HETATM   11  C   UNL     3      -7.133   7.343  67.483  1.00  0.00    -0.088 C  
HETATM   12  C   UNL     2      -7.429   7.755  72.351  1.00  0.00    -0.085 C  
HETATM   13  O   UNL     2      -6.712   8.866  72.728  1.00  0.00    -0.304 OA 
HETATM   14  O   UNL     2      -5.906   6.929  70.702  1.00  0.00    -0.026 OA 
HETATM   15  C   UNL     2      -8.518   7.244  72.964  1.00  0.00    -0.122 C  
HETATM   16  O   UNL     3      -9.925   8.406  69.399  1.00  0.00    -0.182 OA 
HETATM   17  H   UNL     3      -7.681  10.180  69.273  1.00  0.00     0.000 HD 
HETATM   18  C   UNL     3      -7.800   8.346  68.316  1.00  0.00    -0.110 C  
HETATM   19  O   UNL     3      -6.071   7.452  66.879  1.00  0.00    -0.043 OA 
ENDROOT
BRANCH   2  20
HETATM   20  C   UNL     2     -10.286   5.897  71.442  1.00  0.00    -0.218 C  
HETATM   21  O   UNL     2     -10.454   4.592  70.853  1.00  0.00    -0.123 OA 
HETATM   22  H   UNL     2     -11.282   4.543  70.389  1.00  0.00     0.000 HD 
BRANCH  20  23
HETATM   23  C   UNL     2     -11.636   6.207  72.101  1.00  0.00    -0.317 C  
HETATM   24  H   UNL     2     -12.768   7.819  72.598  1.00  0.00     0.000 HD 
HETATM   25  O   UNL     2     -11.932   7.626  72.190  1.00  0.00    -0.296 OA 
ENDBRANCH  20  23
ENDBRANCH   2  20
BRANCH   4  26
HETATM   26  C   UNL     3     -10.301   5.734  67.720  1.00  0.00    -0.213 C  
HETATM   27  H   UNL     3     -12.097   6.202  66.892  1.00  0.00     0.000 HD 
HETATM   28  O   UNL     3     -11.331   6.632  67.252  1.00  0.00    -0.324 OA 
BRANCH  26  29
HETATM   29  C   UNL     3      -9.963   4.689  66.660  1.00  0.00    -0.236 C  
HETATM   30  O   UNL     3      -9.673   5.325  65.410  1.00  0.00    -0.353 OA 
HETATM   31  H   UNL     3      -9.463   4.675  64.750  1.00  0.00     0.000 HD 
ENDBRANCH  26  29
ENDBRANCH   4  26
TORSDOF 4
ENDMDL
MODEL      109
REMARK 921   NORMALIZED FREE ENERGY PREDICTED BY IDOCK:   -3.50 KCAL/MOL
REMARK 922        TOTAL FREE ENERGY PREDICTED BY IDOCK:   -5.19 KCAL/MOL
REMARK 923 INTER-LIGAND FREE ENERGY PREDICTED BY IDOCK:   -4.40 KCAL/MOL
REMARK 924 INTRA-LIGAND FREE ENERGY PREDICTED BY IDOCK:   -0.79 KCAL/MOL
REMARK 927      BINDING AFFINITY PREDICTED BY RF-SCORE:    0.00 PKD
ROOT
HETATM    1 ZN   UNL     1      -8.862   5.017  67.448  1.00  0.00    -0.106 Zn 
HETATM    2  C   UNL     2      -8.471   7.948  69.062  1.00  0.00    -0.131 C  
HETATM    3  O   UNL     2      -8.712   9.083  69.936  1.00  0.00    -0.137 OA 
HETATM    4  C   UNL     3      -9.960  11.443  68.041  1.00  0.00    -0.182 C  
HETATM    5  H   UNL     2     -11.747   6.114  70.820  1.00  0.00     0.000 HD 
HETATM    6  O   UNL     3     -10.199  12.531  68.949  1.00  0.00    -0.131 OA 
HETATM    7  O   UNL     3     -13.062  10.425  69.580  1.00  0.00    -0.550 OA 
HETATM    8  C   UNL     3     -11.253  10.639  68.029  1.00  0.00    -0.307 C  
HETATM    9  C   UNL     2      -9.841   8.877  70.685  1.00  0.00    -0.212 C  
HETATM   10  O   UNL     2      -9.418   5.744  69.081  1.00  0.00    -0.124 OA 
HETATM   11  C   UNL     3     -11.353  12.277  69.639  1.00  0.00    -0.137 C  
HETATM   12  C   UNL     2     -10.352   7.541  70.362  1.00  0.00    -0.214 C  
HETATM   13  O   UNL     2     -11.415   6.979  71.028  1.00  0.00    -0.273 OA 
HETATM   14  O   UNL     2     -10.266   9.606  71.567  1.00  0.00    -0.145 OA 
HETATM   15  C   UNL     2      -9.526   6.929  69.487  1.00  0.00    -0.146 C  
HETATM   16  O   UNL     3     -11.389   9.666  67.234  1.00  0.00     0.095 OA 
HETATM   17  H   UNL     3     -13.462   9.645  69.211  1.00  0.00     0.000 HD 
HETATM   18  C   UNL     3     -11.968  11.075  69.071  1.00  0.00    -0.293 C  
HETATM   19  O   UNL     3     -11.792  12.998  70.529  1.00  0.00    -0.255 OA 
ENDROOT
BRANCH   2  20
HETATM   20  C   UNL     2      -8.389   8.448  67.574  1.00  0.00    -0.129 C  
HETATM   21  O   UNL     2      -7.014   8.537  67.151  1.00  0.00    -0.072 OA 
HETATM   22  H   UNL     2      -6.965   8.840  66.251  1.00  0.00     0.000 HD 
BRANCH  20  23
HETATM   23  C   UNL     2      -9.114   7.754  66.415  1.00  0.00    -0.175 C  
HETATM   24  H   UNL     2      -8.792   7.276  64.468  1.00  0.00     0.000 HD 
HETATM   25  O   UNL     2      -8.343   7.706  65.186  1.00  0.00    -0.138 OA 
ENDBRANCH  20  23
ENDBRANCH   2  20
BRANCH   4  26
HETATM   26  C   UNL     3      -9.261  11.981  66.773  1.00  0.00    -0.201 C  
HETATM   27  H   UNL     3      -9.330  13.584  65.525  1.00  0.00     0.000 HD 
HETATM   28  O   UNL     3      -9.759  13.253  66.304  1.00  0.00    -0.276 OA 
BRANCH  26  29
HETATM   29  C   UNL     3      -7.739  11.998  66.886  1.00  0.00    -0.078 C  
HETATM   30  O   UNL     3      -7.329  11.470  68.153  1.00  0.00    -0.084 OA 
HETATM   31  H   UNL     3      -6.381  11.481  68.224  1.00  0.00     0.000 HD 
ENDBRANCH  26  29
ENDBRANCH   4  26
TORSDOF 4
ENDMDL
MODEL      110
REMARK 921   NORMALIZED FREE ENERGY PREDICTED BY IDOCK:   -3.48 KCAL/MOL
REMARK 922        TOTAL FREE ENERGY PREDICTED BY IDOCK:   -5.17 KCAL/MOL
REMARK 923 INTER-LIGAND FREE ENERGY PREDICTED BY IDOCK:   -4.30 KCAL/MOL
REMARK 924 INTRA-LIGAND FREE ENERGY PREDICTED BY IDOCK:   -0.87 KCAL/MOL
REMARK 927      BINDING AFFINITY PREDICTED BY RF-SCORE:    0.00 PKD
ROOT
HETATM    1 ZN   UNL     1     -11.027   5.783  65.568  1.00  0.00    -0.448 Zn 
HETATM    2  C   UNL     2      -8.615   5.554  67.909  1.00  0.00    -0.104 C  
HETATM    3  O   UNL     2      -7.779   5.041  68.980  1.00  0.00    -0.078 OA 
HETATM    4  C   UNL     3      -8.941   6.350  71.746  1.00  0.00    -0.139 C  
HETATM    5  H   UNL     2     -10.332   1.788  67.677  1.00  0.00     0.000 HD 
HETATM    6  O   UNL     3      -8.100   5.801  72.774  1.00  0.00    -0.108 OA 
HETATM    7  O   UNL     3     -10.378   3.066  72.173  1.00  0.00    -0.120 OA 
HETATM    8  C   UNL     3     -10.107   5.379  71.622  1.00  0.00    -0.203 C  
HETATM    9  C   UNL     2      -8.117   3.746  69.271  1.00  0.00    -0.054 C  
HETATM   10  O   UNL     2     -10.061   4.402  66.380  1.00  0.00    -0.232 OA 
HETATM   11  C   UNL     3      -8.511   4.523  73.037  1.00  0.00    -0.099 C  
HETATM   12  C   UNL     2      -9.169   3.339  68.334  1.00  0.00    -0.178 C  
HETATM   13  O   UNL     2      -9.651   2.053  68.283  1.00  0.00    -0.207 OA 
HETATM   14  O   UNL     2      -7.551   3.012  70.065  1.00  0.00    -0.044 OA 
HETATM   15  C   UNL     2      -9.421   4.337  67.461  1.00  0.00    -0.178 C  
HETATM   16  O   UNL     3     -11.080   5.648  70.862  1.00  0.00    -0.237 OA 
HETATM   17  H   UNL     3     -11.175   2.905  71.681  1.00  0.00     0.000 HD 
HETATM   18  C   UNL     3      -9.740   4.274  72.280  1.00  0.00    -0.152 C  
HETATM   19  O   UNL     3      -7.951   3.772  73.830  1.00  0.00    -0.083 OA 
ENDROOT
BRANCH   2  20
HETATM   20  C   UNL     2      -9.337   6.862  68.395  1.00  0.00    -0.129 C  
HETATM   21  O   UNL     2      -8.373   7.908  68.630  1.00  0.00    -0.126 OA 
HETATM   22  H   UNL     2      -8.810   8.699  68.925  1.00  0.00     0.000 HD 
BRANCH  20  23
HETATM   23  C   UNL     2     -10.467   7.538  67.609  1.00  0.00    -0.250 C  
HETATM   24  H   UNL     2     -10.729   8.577  65.884  1.00  0.00     0.000 HD 
HETATM   25  O   UNL     2     -10.029   8.159  66.371  1.00  0.00    -0.240 OA 
ENDBRANCH  20  23
ENDBRANCH   2  20
BRANCH   4  26
HETATM   26  C   UNL     3      -9.099   7.870  71.974  1.00  0.00    -0.148 C  
HETATM   27  H   UNL     3     -10.291   9.173  72.979  1.00  0.00     0.000 HD 
HETATM   28  O   UNL     3     -10.195   8.239  72.838  1.00  0.00    -0.295 OA 
BRANCH  26  29
HETATM   29  C   UNL     3      -7.804   8.550  72.412  1.00  0.00    -0.052 C  
HETATM   30  O   UNL     3      -7.749   8.640  73.841  1.00  0.00    -0.399 OA 
HETATM   31  H   UNL     3      -6.943   9.063  74.113  1.00  0.00     0.000 HD 
ENDBRANCH  26  29
ENDBRANCH   4  26
TORSDOF 4
ENDMDL
MODEL      111
REMARK 921   NORMALIZED FREE ENERGY PREDICTED BY IDOCK:   -3.46 KCAL/MOL
REMARK 922        TOTAL FREE ENERGY PREDICTED BY IDOCK:   -5.15 KCAL/MOL
REMARK 923 INTER-LIGAND FREE ENERGY PREDICTED BY IDOCK:   -4.69 KCAL/MOL
REMARK 924 INTRA-LIGAND FREE ENERGY PREDICTED BY IDOCK:   -0.46 KCAL/MOL
REMARK 927      BINDING AFFINITY PREDICTED BY RF-SCORE:    0.00 PKD
ROOT
HETATM    1 ZN   UNL     1     -12.699  11.731  68.949  1.00  0.00    -0.243 Zn 
HETATM    2  C   UNL     2      -9.471  11.145  68.181  1.00  0.00    -0.180 C  
HETATM    3  O   UNL     2      -8.274  10.792  67.439  1.00  0.00    -0.114 OA 
HETATM    4  C   UNL     3      -7.609   7.681  68.211  1.00  0.00    -0.114 C  
HETATM    5  H   UNL     2     -11.542  10.962  64.595  1.00  0.00     0.000 HD 
HETATM    6  O   UNL     3      -6.435   7.373  67.442  1.00  0.00    -0.055 OA 
HETATM    7  O   UNL     3      -9.032   7.036  64.957  1.00  0.00    -0.342 OA 
HETATM    8  C   UNL     3      -8.784   7.294  67.323  1.00  0.00    -0.121 C  
HETATM    9  C   UNL     2      -8.578  10.560  66.124  1.00  0.00    -0.150 C  
HETATM   10  O   UNL     2     -11.647  11.792  67.403  1.00  0.00    -0.445 OA 
HETATM   11  C   UNL     3      -6.813   7.122  66.151  1.00  0.00    -0.057 C  
HETATM   12  C   UNL     2     -10.010  10.822  65.945  1.00  0.00    -0.250 C  
HETATM   13  O   UNL     2     -10.615  10.793  64.711  1.00  0.00    -0.310 OA 
HETATM   14  O   UNL     2      -7.783  10.322  65.229  1.00  0.00    -0.141 OA 
HETATM   15  C   UNL     2     -10.548  11.257  67.104  1.00  0.00    -0.235 C  
HETATM   16  O   UNL     3      -9.964   7.352  67.769  1.00  0.00    -0.152 OA 
HETATM   17  H   UNL     3      -9.982   7.031  64.923  1.00  0.00     0.000 HD 
HETATM   18  C   UNL     3      -8.277   7.115  66.098  1.00  0.00    -0.128 C  
HETATM   19  O   UNL     3      -6.026   6.884  65.240  1.00  0.00    -0.034 OA 
ENDROOT
BRANCH   2  20
HETATM   20  C   UNL     2      -9.642  10.156  69.390  1.00  0.00    -0.232 C  
HETATM   21  O   UNL     2      -8.567  10.328  70.334  1.00  0.00    -0.321 OA 
HETATM   22  H   UNL     2      -8.670   9.730  71.065  1.00  0.00     0.000 HD 
BRANCH  20  23
HETATM   23  C   UNL     2     -10.912  10.093  70.248  1.00  0.00    -0.317 C  
HETATM   24  H   UNL     2     -11.536   9.303  72.012  1.00  0.00     0.000 HD 
HETATM   25  O   UNL     2     -10.749   9.343  71.481  1.00  0.00    -0.346 OA 
ENDBRANCH  20  23
ENDBRANCH   2  20
BRANCH   4  26
HETATM   26  C   UNL     3      -7.416   7.182  69.660  1.00  0.00    -0.098 C  
HETATM   27  H   UNL     3      -6.637   7.813  71.428  1.00  0.00     0.000 HD 
HETATM   28  O   UNL     3      -6.756   8.120  70.537  1.00  0.00    -0.037 OA 
BRANCH  26  29
HETATM   29  C   UNL     3      -8.701   6.653  70.291  1.00  0.00    -0.147 C  
HETATM   30  O   UNL     3      -8.877   5.267  69.974  1.00  0.00    -0.116 OA 
HETATM   31  H   UNL     3      -9.677   4.939  70.367  1.00  0.00     0.000 HD 
ENDBRANCH  26  29
ENDBRANCH   4  26
TORSDOF 4
ENDMDL
MODEL      112
REMARK 921   NORMALIZED FREE ENERGY PREDICTED BY IDOCK:   -3.45 KCAL/MOL
REMARK 922        TOTAL FREE ENERGY PREDICTED BY IDOCK:   -5.13 KCAL/MOL
REMARK 923 INTER-LIGAND FREE ENERGY PREDICTED BY IDOCK:   -4.73 KCAL/MOL
REMARK 924 INTRA-LIGAND FREE ENERGY PREDICTED BY IDOCK:   -0.40 KCAL/MOL
REMARK 927      BINDING AFFINITY PREDICTED BY RF-SCORE:    0.00 PKD
ROOT
HETATM    1 ZN   UNL     1     -10.674   8.324  66.871  1.00  0.00    -0.233 Zn 
HETATM    2  C   UNL     2     -10.531  11.079  68.806  1.00  0.00    -0.198 C  
HETATM    3  O   UNL     2     -10.608  12.463  69.241  1.00  0.00    -0.043 OA 
HETATM    4  C   UNL     3      -7.553  13.632  69.094  1.00  0.00     0.140 C  
HETATM    5  H   UNL     2     -12.328  12.271  65.265  1.00  0.00     0.000 HD 
HETATM    6  O   UNL     3      -7.682  15.001  69.512  1.00  0.00    -0.197 OA 
HETATM    7  O   UNL     3      -8.770  15.193  66.075  1.00  0.00    -0.437 OA 
HETATM    8  C   UNL     3      -7.721  13.657  67.581  1.00  0.00    -0.178 C  
HETATM    9  C   UNL     2     -11.119  13.250  68.243  1.00  0.00    -0.266 C  
HETATM   10  O   UNL     2     -11.532   9.987  66.919  1.00  0.00     0.144 OA 
HETATM   11  C   UNL     3      -8.165  15.733  68.462  1.00  0.00    -0.166 C  
HETATM   12  C   UNL     2     -11.461  12.374  67.117  1.00  0.00    -0.357 C  
HETATM   13  O   UNL     2     -12.106  12.837  65.995  1.00  0.00    -0.436 OA 
HETATM   14  O   UNL     2     -11.381  14.439  68.322  1.00  0.00    -0.261 OA 
HETATM   15  C   UNL     2     -11.220  11.087  67.443  1.00  0.00    -0.285 C  
HETATM   16  O   UNL     3      -7.553  12.603  66.906  1.00  0.00    -0.040 OA 
HETATM   17  H   UNL     3      -8.801  14.628  65.311  1.00  0.00     0.000 HD 
HETATM   18  C   UNL     3      -8.214  14.864  67.284  1.00  0.00    -0.209 C  
HETATM   19  O   UNL     3      -8.436  16.928  68.527  1.00  0.00    -0.238 OA 
ENDROOT
BRANCH   2  20
HETATM   20  C   UNL     2      -9.053  10.569  68.957  1.00  0.00    -0.181 C  
HETATM   21  O   UNL     2      -8.711  10.429  70.351  1.00  0.00    -0.251 OA 
HETATM   22  H   UNL     2      -7.817  10.120  70.442  1.00  0.00     0.000 HD 
BRANCH  20  23
HETATM   23  C   UNL     2      -8.537   9.285  68.295  1.00  0.00    -0.125 C  
HETATM   24  H   UNL     2      -6.776   8.457  67.715  1.00  0.00     0.000 HD 
HETATM   25  O   UNL     2      -7.096   9.252  68.125  1.00  0.00    -0.075 OA 
ENDBRANCH  20  23
ENDBRANCH   2  20
BRANCH   4  26
HETATM   26  C   UNL     3      -6.354  12.986  69.824  1.00  0.00    -0.063 C  
HETATM   27  H   UNL     3      -4.693  11.891  69.410  1.00  0.00     0.000 HD 
HETATM   28  O   UNL     3      -5.430  12.287  68.962  1.00  0.00    -0.061 OA 
BRANCH  26  29
HETATM   29  C   UNL     3      -5.617  13.956  70.743  1.00  0.00    -0.180 C  
HETATM   30  O   UNL     3      -5.914  13.665  72.114  1.00  0.00    -0.533 OA 
HETATM   31  H   UNL     3      -5.455  14.268  72.686  1.00  0.00     0.000 HD 
ENDBRANCH  26  29
ENDBRANCH   4  26
TORSDOF 4
ENDMDL
MODEL      113
REMARK 921   NORMALIZED FREE ENERGY PREDICTED BY IDOCK:   -3.37 KCAL/MOL
REMARK 922        TOTAL FREE ENERGY PREDICTED BY IDOCK:   -5.04 KCAL/MOL
REMARK 923 INTER-LIGAND FREE ENERGY PREDICTED BY IDOCK:   -4.51 KCAL/MOL
REMARK 924 INTRA-LIGAND FREE ENERGY PREDICTED BY IDOCK:   -0.53 KCAL/MOL
REMARK 927      BINDING AFFINITY PREDICTED BY RF-SCORE:    0.00 PKD
ROOT
HETATM    1 ZN   UNL     1     -10.428  13.610  64.736  1.00  0.00    -0.279 Zn 
HETATM    2  C   UNL     2      -9.904  15.293  67.607  1.00  0.00    -0.217 C  
HETATM    3  O   UNL     2      -9.615  16.366  68.542  1.00  0.00    -0.215 OA 
HETATM    4  C   UNL     3      -6.446  16.073  69.310  1.00  0.00    -0.169 C  
HETATM    5  H   UNL     2     -10.043  18.162  64.619  1.00  0.00     0.000 HD 
HETATM    6  O   UNL     3      -6.204  17.163  70.216  1.00  0.00    -0.054 OA 
HETATM    7  O   UNL     3      -6.094  18.845  67.024  1.00  0.00    -0.167 OA 
HETATM    8  C   UNL     3      -6.141  16.629  67.925  1.00  0.00    -0.128 C  
HETATM    9  C   UNL     2      -9.501  17.559  67.879  1.00  0.00    -0.277 C  
HETATM   10  O   UNL     2     -10.622  15.377  65.320  1.00  0.00    -0.368 OA 
HETATM   11  C   UNL     3      -6.068  18.313  69.488  1.00  0.00    -0.253 C  
HETATM   12  C   UNL     2      -9.781  17.309  66.461  1.00  0.00    -0.288 C  
HETATM   13  O   UNL     2      -9.862  18.324  65.537  1.00  0.00    -0.334 OA 
HETATM   14  O   UNL     2      -9.340  18.657  68.387  1.00  0.00    -0.313 OA 
HETATM   15  C   UNL     2     -10.113  16.014  66.277  1.00  0.00    -0.313 C  
HETATM   16  O   UNL     3      -6.163  15.868  66.918  1.00  0.00    -0.302 OA 
HETATM   17  H   UNL     3      -6.094  18.613  66.102  1.00  0.00     0.000 HD 
HETATM   18  C   UNL     3      -6.070  17.956  68.068  1.00  0.00    -0.169 C  
HETATM   19  O   UNL     3      -5.909  19.424  69.985  1.00  0.00    -0.244 OA 
ENDROOT
BRANCH   2  20
HETATM   20  C   UNL     2      -8.813  14.171  67.752  1.00  0.00    -0.185 C  
HETATM   21  O   UNL     2      -9.193  13.232  68.776  1.00  0.00    -0.386 OA 
HETATM   22  H   UNL     2      -8.534  12.554  68.864  1.00  0.00     0.000 HD 
BRANCH  20  23
HETATM   23  C   UNL     2      -8.342  13.304  66.578  1.00  0.00     0.408 C  
HETATM   24  H   UNL     2      -7.145  11.700  66.237  1.00  0.00     0.000 HD 
HETATM   25  O   UNL     2      -7.436  12.237  66.964  1.00  0.00    -0.140 OA 
ENDBRANCH  20  23
ENDBRANCH   2  20
BRANCH   4  26
HETATM   26  C   UNL     3      -5.821  14.783  69.885  1.00  0.00    -0.123 C  
HETATM   27  H   UNL     3      -6.326  13.204  71.060  1.00  0.00     0.000 HD 
HETATM   28  O   UNL     3      -6.710  13.997  70.707  1.00  0.00     0.141 OA 
BRANCH  26  29
HETATM   29  C   UNL     3      -5.149  13.916  68.824  1.00  0.00    -0.076 C  
HETATM   30  O   UNL     3      -5.605  12.562  68.926  1.00  0.00    -0.061 OA 
HETATM   31  H   UNL     3      -5.187  12.023  68.265  1.00  0.00     0.000 HD 
ENDBRANCH  26  29
ENDBRANCH   4  26
TORSDOF 4
ENDMDL
MODEL      114
REMARK 921   NORMALIZED FREE ENERGY PREDICTED BY IDOCK:   -3.37 KCAL/MOL
REMARK 922        TOTAL FREE ENERGY PREDICTED BY IDOCK:   -5.03 KCAL/MOL
REMARK 923 INTER-LIGAND FREE ENERGY PREDICTED BY IDOCK:   -4.22 KCAL/MOL
REMARK 924 INTRA-LIGAND FREE ENERGY PREDICTED BY IDOCK:   -0.81 KCAL/MOL
REMARK 927      BINDING AFFINITY PREDICTED BY RF-SCORE:    0.00 PKD
ROOT
HETATM    1 ZN   UNL     1      -8.942   2.079  72.151  1.00  0.00    -0.061 Zn 
HETATM    2  C   UNL     2      -8.230   5.356  71.820  1.00  0.00    -0.119 C  
HETATM    3  O   UNL     2      -8.282   6.799  71.973  1.00  0.00    -0.105 OA 
HETATM    4  C   UNL     3      -9.941   7.928  69.387  1.00  0.00    -0.189 C  
HETATM    5  H   UNL     2     -11.016   5.103  74.880  1.00  0.00     0.000 HD 
HETATM    6  O   UNL     3      -9.983   9.350  69.592  1.00  0.00    -0.177 OA 
HETATM    7  O   UNL     3     -12.615   8.229  71.794  1.00  0.00    -0.308 OA 
HETATM    8  C   UNL     3     -11.197   7.389  70.058  1.00  0.00    -0.180 C  
HETATM    9  C   UNL     2      -9.214   7.146  72.915  1.00  0.00    -0.142 C  
HETATM   10  O   UNL     2      -9.128   3.614  73.205  1.00  0.00    -0.098 OA 
HETATM   11  C   UNL     3     -10.953   9.629  70.516  1.00  0.00    -0.313 C  
HETATM   12  C   UNL     2      -9.771   5.908  73.468  1.00  0.00    -0.160 C  
HETATM   13  O   UNL     2     -10.654   5.904  74.521  1.00  0.00    -0.189 OA 
HETATM   14  O   UNL     2      -9.440   8.272  73.328  1.00  0.00    -0.246 OA 
HETATM   15  C   UNL     2      -9.154   4.839  72.921  1.00  0.00    -0.118 C  
HETATM   16  O   UNL     3     -11.497   6.167  69.957  1.00  0.00    -0.406 OA 
HETATM   17  H   UNL     3     -13.079   7.422  71.988  1.00  0.00     0.000 HD 
HETATM   18  C   UNL     3     -11.668   8.386  70.815  1.00  0.00    -0.202 C  
HETATM   19  O   UNL     3     -11.190  10.755  70.943  1.00  0.00    -0.085 OA 
ENDROOT
BRANCH   2  20
HETATM   20  C   UNL     2      -8.485   4.984  70.315  1.00  0.00    -0.099 C  
HETATM   21  O   UNL     2      -7.278   5.154  69.545  1.00  0.00    -0.054 OA 
HETATM   22  H   UNL     2      -7.433   4.929  68.635  1.00  0.00     0.000 HD 
BRANCH  20  23
HETATM   23  C   UNL     2      -9.048   3.629  69.870  1.00  0.00    -0.122 C  
HETATM   24  H   UNL     2      -9.928   2.791  68.243  1.00  0.00     0.000 HD 
HETATM   25  O   UNL     2      -9.579   3.630  68.518  1.00  0.00    -0.162 OA 
ENDBRANCH  20  23
ENDBRANCH   2  20
BRANCH   4  26
HETATM   26  C   UNL     3      -9.547   7.635  67.922  1.00  0.00    -0.144 C  
HETATM   27  H   UNL     3     -10.332   7.748  66.052  1.00  0.00     0.000 HD 
HETATM   28  O   UNL     3     -10.575   7.928  66.952  1.00  0.00    -0.341 OA 
BRANCH  26  29
HETATM   29  C   UNL     3      -8.218   8.268  67.519  1.00  0.00    -0.122 C  
HETATM   30  O   UNL     3      -7.139   7.665  68.244  1.00  0.00    -0.075 OA 
HETATM   31  H   UNL     3      -6.312   8.060  67.993  1.00  0.00     0.000 HD 
ENDBRANCH  26  29
ENDBRANCH   4  26
TORSDOF 4
ENDMDL
MODEL      115
REMARK 921   NORMALIZED FREE ENERGY PREDICTED BY IDOCK:   -3.35 KCAL/MOL
REMARK 922        TOTAL FREE ENERGY PREDICTED BY IDOCK:   -5.02 KCAL/MOL
REMARK 923 INTER-LIGAND FREE ENERGY PREDICTED BY IDOCK:   -4.25 KCAL/MOL
REMARK 924 INTRA-LIGAND FREE ENERGY PREDICTED BY IDOCK:   -0.76 KCAL/MOL
REMARK 927      BINDING AFFINITY PREDICTED BY RF-SCORE:    0.00 PKD
ROOT
HETATM    1 ZN   UNL     1      -6.014  10.920  71.524  1.00  0.00    -0.076 Zn 
HETATM    2  C   UNL     2      -8.797   9.264  70.597  1.00  0.00    -0.237 C  
HETATM    3  O   UNL     2      -9.697   8.194  70.200  1.00  0.00    -0.174 OA 
HETATM    4  C   UNL     3      -9.923   8.362  66.939  1.00  0.00    -0.271 C  
HETATM    5  H   UNL     2      -5.942   6.354  71.346  1.00  0.00     0.000 HD 
HETATM    6  O   UNL     3     -10.801   7.278  66.593  1.00  0.00    -0.220 OA 
HETATM    7  O   UNL     3      -7.675   5.540  67.083  1.00  0.00    -0.098 OA 
HETATM    8  C   UNL     3      -8.520   7.771  66.891  1.00  0.00    -0.125 C  
HETATM    9  C   UNL     2      -9.052   6.987  70.245  1.00  0.00    -0.156 C  
HETATM   10  O   UNL     2      -6.663   9.173  71.689  1.00  0.00    -0.220 OA 
HETATM   11  C   UNL     3     -10.088   6.111  66.626  1.00  0.00    -0.162 C  
HETATM   12  C   UNL     2      -7.695   7.225  70.747  1.00  0.00    -0.092 C  
HETATM   13  O   UNL     2      -6.821   6.200  71.022  1.00  0.00    -0.062 OA 
HETATM   14  O   UNL     2      -9.552   5.892  70.047  1.00  0.00    -0.157 OA 
HETATM   15  C   UNL     2      -7.538   8.530  71.054  1.00  0.00    -0.090 C  
HETATM   16  O   UNL     3      -7.512   8.515  67.049  1.00  0.00    -0.083 OA 
HETATM   17  H   UNL     3      -6.761   5.757  67.227  1.00  0.00     0.000 HD 
HETATM   18  C   UNL     3      -8.680   6.444  66.850  1.00  0.00    -0.115 C  
HETATM   19  O   UNL     3     -10.578   5.003  66.432  1.00  0.00    -0.300 OA 
ENDROOT
BRANCH   2  20
HETATM   20  C   UNL     2      -8.733  10.339  69.454  1.00  0.00    -0.156 C  
HETATM   21  O   UNL     2      -9.884  11.204  69.513  1.00  0.00    -0.424 OA 
HETATM   22  H   UNL     2      -9.845  11.854  68.821  1.00  0.00     0.000 HD 
BRANCH  20  23
HETATM   23  C   UNL     2      -7.541  11.284  69.258  1.00  0.00    -0.019 C  
HETATM   24  H   UNL     2      -7.131  13.084  68.411  1.00  0.00     0.000 HD 
HETATM   25  O   UNL     2      -7.869  12.498  68.532  1.00  0.00    -0.137 OA 
ENDBRANCH  20  23
ENDBRANCH   2  20
BRANCH   4  26
HETATM   26  C   UNL     3     -10.355   9.633  66.175  1.00  0.00    -0.132 C  
HETATM   27  H   UNL     3     -11.237  11.430  66.527  1.00  0.00     0.000 HD 
HETATM   28  O   UNL     3     -10.972  10.648  66.996  1.00  0.00    -0.269 OA 
BRANCH  26  29
HETATM   29  C   UNL     3      -9.243  10.226  65.315  1.00  0.00    -0.199 C  
HETATM   30  O   UNL     3      -8.703  11.398  65.939  1.00  0.00    -0.279 OA 
HETATM   31  H   UNL     3      -8.010  11.767  65.404  1.00  0.00     0.000 HD 
ENDBRANCH  26  29
ENDBRANCH   4  26
TORSDOF 4
ENDMDL
MODEL      116
REMARK 921   NORMALIZED FREE ENERGY PREDICTED BY IDOCK:   -3.22 KCAL/MOL
REMARK 922        TOTAL FREE ENERGY PREDICTED BY IDOCK:   -4.86 KCAL/MOL
REMARK 923 INTER-LIGAND FREE ENERGY PREDICTED BY IDOCK:   -4.12 KCAL/MOL
REMARK 924 INTRA-LIGAND FREE ENERGY PREDICTED BY IDOCK:   -0.73 KCAL/MOL
REMARK 927      BINDING AFFINITY PREDICTED BY RF-SCORE:    0.00 PKD
ROOT
HETATM    1 ZN   UNL     1     -10.707   4.119  69.704  1.00  0.00    -0.115 Zn 
HETATM    2  C   UNL     2      -8.666   6.797  69.588  1.00  0.00    -0.137 C  
HETATM    3  O   UNL     2      -8.188   8.168  69.625  1.00  0.00    -0.116 OA 
HETATM    4  C   UNL     3      -8.004   9.152  66.509  1.00  0.00    -0.100 C  
HETATM    5  H   UNL     2     -12.312   8.208  70.965  1.00  0.00     0.000 HD 
HETATM    6  O   UNL     3      -7.549  10.513  66.598  1.00  0.00    -0.109 OA 
HETATM    7  O   UNL     3     -11.063  10.880  67.339  1.00  0.00    -0.293 OA 
HETATM    8  C   UNL     3      -9.524   9.236  66.529  1.00  0.00    -0.202 C  
HETATM    9  C   UNL     2      -9.199   9.016  69.992  1.00  0.00    -0.180 C  
HETATM   10  O   UNL     2     -10.678   5.828  70.465  1.00  0.00    -0.267 OA 
HETATM   11  C   UNL     3      -8.611  11.307  66.935  1.00  0.00    -0.150 C  
HETATM   12  C   UNL     2     -10.384   8.200  70.275  1.00  0.00    -0.209 C  
HETATM   13  O   UNL     2     -11.544   8.737  70.782  1.00  0.00    -0.281 OA 
HETATM   14  O   UNL     2      -9.101  10.216  70.192  1.00  0.00    -0.107 OA 
HETATM   15  C   UNL     2     -10.086   6.890  70.141  1.00  0.00    -0.182 C  
HETATM   16  O   UNL     3     -10.220   8.196  66.358  1.00  0.00    -0.239 OA 
HETATM   17  H   UNL     3     -11.848  10.343  67.329  1.00  0.00     0.000 HD 
HETATM   18  C   UNL     3      -9.820  10.480  66.921  1.00  0.00    -0.193 C  
HETATM   19  O   UNL     3      -8.527  12.513  67.142  1.00  0.00    -0.179 OA 
ENDROOT
BRANCH   2  20
HETATM   20  C   UNL     2      -8.395   6.193  68.163  1.00  0.00    -0.114 C  
HETATM   21  O   UNL     2      -7.139   5.487  68.148  1.00  0.00    -0.064 OA 
HETATM   22  H   UNL     2      -6.975   5.122  67.286  1.00  0.00     0.000 HD 
BRANCH  20  23
HETATM   23  C   UNL     2      -9.380   5.259  67.448  1.00  0.00    -0.116 C  
HETATM   24  H   UNL     2      -9.939   3.306  67.475  1.00  0.00     0.000 HD 
HETATM   25  O   UNL     2      -9.330   3.885  67.917  1.00  0.00    -0.151 OA 
ENDBRANCH  20  23
ENDBRANCH   2  20
BRANCH   4  26
HETATM   26  C   UNL     3      -7.190   8.412  65.424  1.00  0.00    -0.082 C  
HETATM   27  H   UNL     3      -6.458   6.558  65.029  1.00  0.00     0.000 HD 
HETATM   28  O   UNL     3      -6.958   7.013  65.696  1.00  0.00    -0.054 OA 
BRANCH  26  29
HETATM   29  C   UNL     3      -7.744   8.611  64.016  1.00  0.00    -0.134 C  
HETATM   30  O   UNL     3      -8.549   7.489  63.635  1.00  0.00    -0.350 OA 
HETATM   31  H   UNL     3      -8.894   7.613  62.759  1.00  0.00     0.000 HD 
ENDBRANCH  26  29
ENDBRANCH   4  26
TORSDOF 4
ENDMDL
MODEL      117
REMARK 921   NORMALIZED FREE ENERGY PREDICTED BY IDOCK:   -3.21 KCAL/MOL
REMARK 922        TOTAL FREE ENERGY PREDICTED BY IDOCK:   -4.83 KCAL/MOL
REMARK 923 INTER-LIGAND FREE ENERGY PREDICTED BY IDOCK:   -4.35 KCAL/MOL
REMARK 924 INTRA-LIGAND FREE ENERGY PREDICTED BY IDOCK:   -0.48 KCAL/MOL
REMARK 927      BINDING AFFINITY PREDICTED BY RF-SCORE:    0.00 PKD
ROOT
HETATM    1 ZN   UNL     1     -13.276  14.117  68.814  1.00  0.00    -0.460 Zn 
HETATM    2  C   UNL     2     -10.374  13.888  67.117  1.00  0.00    -0.265 C  
HETATM    3  O   UNL     2      -9.419  13.682  66.042  1.00  0.00    -0.209 OA 
HETATM    4  C   UNL     3      -8.283  10.633  66.408  1.00  0.00    -0.146 C  
HETATM    5  H   UNL     2     -13.377  13.601  64.274  1.00  0.00     0.000 HD 
HETATM    6  O   UNL     3      -7.362  10.470  65.317  1.00  0.00    -0.134 OA 
HETATM    7  O   UNL     3     -10.531   9.943  63.669  1.00  0.00     0.003 OA 
HETATM    8  C   UNL     3      -9.627  10.154  65.874  1.00  0.00    -0.218 C  
HETATM    9  C   UNL     2     -10.072  13.459  64.859  1.00  0.00    -0.233 C  
HETATM   10  O   UNL     2     -12.731  14.331  67.037  1.00  0.00    -0.020 OA 
HETATM   11  C   UNL     3      -8.077  10.220  64.177  1.00  0.00    -0.138 C  
HETATM   12  C   UNL     2     -11.511  13.578  65.116  1.00  0.00    -0.301 C  
HETATM   13  O   UNL     2     -12.446  13.524  64.109  1.00  0.00    -0.624 OA 
HETATM   14  O   UNL     2      -9.556  13.330  63.761  1.00  0.00     0.461 OA 
HETATM   15  C   UNL     2     -11.724  13.921  66.404  1.00  0.00    -0.383 C  
HETATM   16  O   UNL     3     -10.625  10.078  66.644  1.00  0.00    -0.198 OA 
HETATM   17  H   UNL     3     -11.445   9.842  63.910  1.00  0.00     0.000 HD 
HETATM   18  C   UNL     3      -9.486  10.065  64.548  1.00  0.00    -0.296 C  
HETATM   19  O   UNL     3      -7.573  10.091  63.066  1.00  0.00    -0.129 OA 
ENDROOT
BRANCH   2  20
HETATM   20  C   UNL     2     -10.096  12.851  68.265  1.00  0.00    -0.242 C  
HETATM   21  O   UNL     2      -9.095  13.361  69.168  1.00  0.00    -0.268 OA 
HETATM   22  H   UNL     2      -8.926  12.734  69.862  1.00  0.00     0.000 HD 
BRANCH  20  23
HETATM   23  C   UNL     2     -11.197  12.290  69.173  1.00  0.00    -0.242 C  
HETATM   24  H   UNL     2     -11.439  10.847  70.581  1.00  0.00     0.000 HD 
HETATM   25  O   UNL     2     -10.757  11.195  70.018  1.00  0.00    -0.049 OA 
ENDBRANCH  20  23
ENDBRANCH   2  20
BRANCH   4  26
HETATM   26  C   UNL     3      -7.631  10.113  67.708  1.00  0.00    -0.090 C  
HETATM   27  H   UNL     3      -6.556   8.523  68.376  1.00  0.00     0.000 HD 
HETATM   28  O   UNL     3      -6.958   8.843  67.577  1.00  0.00    -0.073 OA 
BRANCH  26  29
HETATM   29  C   UNL     3      -6.729  11.143  68.382  1.00  0.00    -0.060 C  
HETATM   30  O   UNL     3      -5.352  10.842  68.126  1.00  0.00    -0.037 OA 
HETATM   31  H   UNL     3      -4.790  11.483  68.545  1.00  0.00     0.000 HD 
ENDBRANCH  26  29
ENDBRANCH   4  26
TORSDOF 4
ENDMDL
MODEL      118
REMARK 921   NORMALIZED FREE ENERGY PREDICTED BY IDOCK:   -3.19 KCAL/MOL
REMARK 922        TOTAL FREE ENERGY PREDICTED BY IDOCK:   -4.82 KCAL/MOL
REMARK 923 INTER-LIGAND FREE ENERGY PREDICTED BY IDOCK:   -3.90 KCAL/MOL
REMARK 924 INTRA-LIGAND FREE ENERGY PREDICTED BY IDOCK:   -0.92 KCAL/MOL
REMARK 927      BINDING AFFINITY PREDICTED BY RF-SCORE:    0.00 PKD
ROOT
HETATM    1 ZN   UNL     1      -6.148  12.996  67.733  1.00  0.00    -0.065 Zn 
HETATM    2  C   UNL     2      -8.372  10.503  67.293  1.00  0.00    -0.122 C  
HETATM    3  O   UNL     2      -9.590   9.714  67.366  1.00  0.00    -0.142 OA 
HETATM    4  C   UNL     3      -9.104   7.510  69.736  1.00  0.00    -0.140 C  
HETATM    5  H   UNL     2     -10.472  13.594  69.089  1.00  0.00     0.000 HD 
HETATM    6  O   UNL     3     -10.336   6.770  69.784  1.00  0.00    -0.189 OA 
HETATM    7  O   UNL     3     -11.212   9.744  71.634  1.00  0.00    -0.331 OA 
HETATM    8  C   UNL     3      -9.285   8.653  70.726  1.00  0.00    -0.185 C  
HETATM    9  C   UNL     2     -10.575  10.415  68.009  1.00  0.00    -0.221 C  
HETATM   10  O   UNL     2      -8.013  12.843  67.684  1.00  0.00    -0.141 OA 
HETATM   11  C   UNL     3     -11.263   7.510  70.465  1.00  0.00    -0.269 C  
HETATM   12  C   UNL     2     -10.041  11.742  68.331  1.00  0.00    -0.201 C  
HETATM   13  O   UNL     2     -10.817  12.735  68.880  1.00  0.00    -0.238 OA 
HETATM   14  O   UNL     2     -11.733  10.060  68.161  1.00  0.00    -0.096 OA 
HETATM   15  C   UNL     2      -8.788  11.865  67.846  1.00  0.00    -0.172 C  
HETATM   16  O   UNL     3      -8.321   9.426  70.986  1.00  0.00    -0.294 OA 
HETATM   17  H   UNL     3     -10.776  10.511  71.987  1.00  0.00     0.000 HD 
HETATM   18  C   UNL     3     -10.591   8.693  71.009  1.00  0.00    -0.221 C  
HETATM   19  O   UNL     3     -12.431   7.169  70.623  1.00  0.00    -0.250 OA 
ENDROOT
BRANCH   2  20
HETATM   20  C   UNL     2      -7.192   9.697  67.945  1.00  0.00    -0.081 C  
HETATM   21  O   UNL     2      -6.920   8.503  67.184  1.00  0.00    -0.072 OA 
HETATM   22  H   UNL     2      -6.207   8.016  67.578  1.00  0.00     0.000 HD 
BRANCH  20  23
HETATM   23  C   UNL     2      -5.813  10.308  68.225  1.00  0.00    -0.041 C  
HETATM   24  H   UNL     2      -4.352  11.316  67.239  1.00  0.00     0.000 HD 
HETATM   25  O   UNL     2      -5.205  10.937  67.066  1.00  0.00    -0.042 OA 
ENDBRANCH  20  23
ENDBRANCH   2  20
BRANCH   4  26
HETATM   26  C   UNL     3      -7.916   6.523  69.758  1.00  0.00    -0.120 C  
HETATM   27  H   UNL     3      -5.902   6.526  70.034  1.00  0.00     0.000 HD 
HETATM   28  O   UNL     3      -6.633   7.132  70.021  1.00  0.00    -0.047 OA 
BRANCH  26  29
HETATM   29  C   UNL     3      -8.148   5.321  70.668  1.00  0.00    -0.108 C  
HETATM   30  O   UNL     3      -8.223   5.741  72.036  1.00  0.00    -0.111 OA 
HETATM   31  H   UNL     3      -8.368   4.992  72.603  1.00  0.00     0.000 HD 
ENDBRANCH  26  29
ENDBRANCH   4  26
TORSDOF 4
ENDMDL
MODEL      119
REMARK 921   NORMALIZED FREE ENERGY PREDICTED BY IDOCK:   -3.19 KCAL/MOL
REMARK 922        TOTAL FREE ENERGY PREDICTED BY IDOCK:   -4.81 KCAL/MOL
REMARK 923 INTER-LIGAND FREE ENERGY PREDICTED BY IDOCK:   -4.05 KCAL/MOL
REMARK 924 INTRA-LIGAND FREE ENERGY PREDICTED BY IDOCK:   -0.75 KCAL/MOL
REMARK 927      BINDING AFFINITY PREDICTED BY RF-SCORE:    0.00 PKD
ROOT
HETATM    1 ZN   UNL     1      -8.660   4.606  73.234  1.00  0.00    -0.096 Zn 
HETATM    2  C   UNL     2      -8.761   7.886  72.469  1.00  0.00    -0.154 C  
HETATM    3  O   UNL     2      -9.221   9.172  71.973  1.00  0.00    -0.339 OA 
HETATM    4  C   UNL     3      -7.847   9.554  69.027  1.00  0.00    -0.077 C  
HETATM    5  H   UNL     2     -12.568   6.427  71.717  1.00  0.00     0.000 HD 
HETATM    6  O   UNL     3      -8.344  10.824  68.571  1.00  0.00    -0.123 OA 
HETATM    7  O   UNL     3     -11.145   8.659  67.865  1.00  0.00    -0.481 OA 
HETATM    8  C   UNL     3      -8.846   8.526  68.515  1.00  0.00    -0.139 C  
HETATM    9  C   UNL     2     -10.512   9.077  71.527  1.00  0.00    -0.339 C  
HETATM   10  O   UNL     2      -9.993   5.900  73.013  1.00  0.00    -0.169 OA 
HETATM   11  C   UNL     3      -9.621  10.652  68.112  1.00  0.00    -0.157 C  
HETATM   12  C   UNL     2     -10.972   7.708  71.781  1.00  0.00    -0.239 C  
HETATM   13  O   UNL     2     -12.270   7.314  71.554  1.00  0.00    -0.313 OA 
HETATM   14  O   UNL     2     -11.208   9.997  71.126  1.00  0.00    -0.350 OA 
HETATM   15  C   UNL     2     -10.009   7.007  72.416  1.00  0.00    -0.165 C  
HETATM   16  O   UNL     3      -8.623   7.292  68.670  1.00  0.00    -0.128 OA 
HETATM   17  H   UNL     3     -11.339   7.728  67.871  1.00  0.00     0.000 HD 
HETATM   18  C   UNL     3      -9.920   9.218  68.122  1.00  0.00    -0.177 C  
HETATM   19  O   UNL     3     -10.333  11.566  67.709  1.00  0.00    -0.177 OA 
ENDROOT
BRANCH   2  20
HETATM   20  C   UNL     2      -7.453   7.472  71.702  1.00  0.00    -0.083 C  
HETATM   21  O   UNL     2      -6.402   8.425  71.955  1.00  0.00    -0.053 OA 
HETATM   22  H   UNL     2      -5.611   8.175  71.491  1.00  0.00     0.000 HD 
BRANCH  20  23
HETATM   23  C   UNL     2      -6.787   6.100  71.862  1.00  0.00    -0.065 C  
HETATM   24  H   UNL     2      -6.077   4.899  73.338  1.00  0.00     0.000 HD 
HETATM   25  O   UNL     2      -6.489   5.749  73.239  1.00  0.00    -0.064 OA 
ENDBRANCH  20  23
ENDBRANCH   2  20
BRANCH   4  26
HETATM   26  C   UNL     3      -6.324   9.484  68.777  1.00  0.00    -0.047 C  
HETATM   27  H   UNL     3      -4.815   8.122  68.768  1.00  0.00     0.000 HD 
HETATM   28  O   UNL     3      -5.751   8.166  68.922  1.00  0.00    -0.033 OA 
BRANCH  26  29
HETATM   29  C   UNL     3      -5.901  10.121  67.457  1.00  0.00    -0.049 C  
HETATM   30  O   UNL     3      -5.243   9.157  66.626  1.00  0.00    -0.037 OA 
HETATM   31  H   UNL     3      -4.980   9.554  65.804  1.00  0.00     0.000 HD 
ENDBRANCH  26  29
ENDBRANCH   4  26
TORSDOF 4
ENDMDL
MODEL      120
REMARK 921   NORMALIZED FREE ENERGY PREDICTED BY IDOCK:   -3.12 KCAL/MOL
REMARK 922        TOTAL FREE ENERGY PREDICTED BY IDOCK:   -4.73 KCAL/MOL
REMARK 923 INTER-LIGAND FREE ENERGY PREDICTED BY IDOCK:   -3.94 KCAL/MOL
REMARK 924 INTRA-LIGAND FREE ENERGY PREDICTED BY IDOCK:   -0.79 KCAL/MOL
REMARK 927      BINDING AFFINITY PREDICTED BY RF-SCORE:    0.00 PKD
ROOT
HETATM    1 ZN   UNL     1     -11.602   5.473  66.991  1.00  0.00    -0.454 Zn 
HETATM    2  C   UNL     2      -9.093   6.585  68.946  1.00  0.00    -0.131 C  
HETATM    3  O   UNL     2      -8.336   7.382  69.895  1.00  0.00    -0.130 OA 
HETATM    4  C   UNL     3      -6.509   9.430  68.111  1.00  0.00    -0.054 C  
HETATM    5  H   UNL     2     -12.439   8.775  70.038  1.00  0.00     0.000 HD 
HETATM    6  O   UNL     3      -5.797  10.206  69.089  1.00  0.00    -0.038 OA 
HETATM    7  O   UNL     3      -9.023  11.825  69.098  1.00  0.00    -0.362 OA 
HETATM    8  C   UNL     3      -7.790  10.207  67.838  1.00  0.00    -0.101 C  
HETATM    9  C   UNL     2      -9.134   8.342  70.458  1.00  0.00    -0.147 C  
HETATM   10  O   UNL     2     -11.461   6.416  68.601  1.00  0.00    -0.254 OA 
HETATM   11  C   UNL     3      -6.640  11.162  69.585  1.00  0.00    -0.139 C  
HETATM   12  C   UNL     2     -10.490   8.160  69.928  1.00  0.00    -0.226 C  
HETATM   13  O   UNL     2     -11.561   8.892  70.381  1.00  0.00    -0.219 OA 
HETATM   14  O   UNL     2      -8.818   9.116  71.347  1.00  0.00    -0.298 OA 
HETATM   15  C   UNL     2     -10.527   7.084  69.113  1.00  0.00    -0.207 C  
HETATM   16  O   UNL     3      -8.584   9.825  66.934  1.00  0.00    -0.123 OA 
HETATM   17  H   UNL     3      -9.831  11.795  68.597  1.00  0.00     0.000 HD 
HETATM   18  C   UNL     3      -7.885  11.116  68.814  1.00  0.00    -0.142 C  
HETATM   19  O   UNL     3      -6.337  11.945  70.479  1.00  0.00    -0.216 OA 
ENDROOT
BRANCH   2  20
HETATM   20  C   UNL     2      -8.383   6.634  67.545  1.00  0.00    -0.121 C  
HETATM   21  O   UNL     2      -7.350   5.631  67.472  1.00  0.00    -0.074 OA 
HETATM   22  H   UNL     2      -6.921   5.660  66.625  1.00  0.00     0.000 HD 
BRANCH  20  23
HETATM   23  C   UNL     2      -9.140   6.516  66.217  1.00  0.00    -0.148 C  
HETATM   24  H   UNL     2     -10.085   5.101  65.107  1.00  0.00     0.000 HD 
HETATM   25  O   UNL     2      -9.615   5.174  65.930  1.00  0.00    -0.158 OA 
ENDBRANCH  20  23
ENDBRANCH   2  20
BRANCH   4  26
HETATM   26  C   UNL     3      -5.526   8.965  67.013  1.00  0.00    -0.041 C  
HETATM   27  H   UNL     3      -5.157   7.342  65.848  1.00  0.00     0.000 HD 
HETATM   28  O   UNL     3      -5.761   7.628  66.522  1.00  0.00    -0.034 OA 
BRANCH  26  29
HETATM   29  C   UNL     3      -5.398   9.956  65.861  1.00  0.00    -0.045 C  
HETATM   30  O   UNL     3      -6.359   9.659  64.840  1.00  0.00    -0.080 OA 
HETATM   31  H   UNL     3      -6.280  10.277  64.123  1.00  0.00     0.000 HD 
ENDBRANCH  26  29
ENDBRANCH   4  26
TORSDOF 4
ENDMDL
MODEL      121
REMARK 921   NORMALIZED FREE ENERGY PREDICTED BY IDOCK:   -3.10 KCAL/MOL
REMARK 922        TOTAL FREE ENERGY PREDICTED BY IDOCK:   -4.71 KCAL/MOL
REMARK 923 INTER-LIGAND FREE ENERGY PREDICTED BY IDOCK:   -3.74 KCAL/MOL
REMARK 924 INTRA-LIGAND FREE ENERGY PREDICTED BY IDOCK:   -0.96 KCAL/MOL
REMARK 927      BINDING AFFINITY PREDICTED BY RF-SCORE:    0.00 PKD
ROOT
HETATM    1 ZN   UNL     1      -7.636   7.625  73.670  1.00  0.00    -0.092 Zn 
HETATM    2  C   UNL     2      -6.617   7.290  70.476  1.00  0.00    -0.047 C  
HETATM    3  O   UNL     2      -6.325   7.588  69.085  1.00  0.00    -0.034 OA 
HETATM    4  C   UNL     3      -8.832   6.388  67.354  1.00  0.00    -0.104 C  
HETATM    5  H   UNL     2      -7.465  11.316  70.981  1.00  0.00     0.000 HD 
HETATM    6  O   UNL     3      -8.510   6.722  65.994  1.00  0.00    -0.131 OA 
HETATM    7  O   UNL     3      -9.817   9.859  67.213  1.00  0.00    -0.168 OA 
HETATM    8  C   UNL     3      -9.649   7.564  67.873  1.00  0.00    -0.143 C  
HETATM    9  C   UNL     2      -6.573   8.907  68.816  1.00  0.00    -0.054 C  
HETATM   10  O   UNL     2      -6.985   8.762  72.334  1.00  0.00    -0.260 OA 
HETATM   11  C   UNL     3      -8.810   8.041  65.785  1.00  0.00    -0.132 C  
HETATM   12  C   UNL     2      -6.986   9.547  70.070  1.00  0.00    -0.081 C  
HETATM   13  O   UNL     2      -7.198  10.902  70.169  1.00  0.00    -0.121 OA 
HETATM   14  O   UNL     2      -6.354   9.485  67.764  1.00  0.00    -0.057 OA 
HETATM   15  C   UNL     2      -6.933   8.656  71.082  1.00  0.00    -0.078 C  
HETATM   16  O   UNL     3     -10.172   7.517  69.021  1.00  0.00    -0.194 OA 
HETATM   17  H   UNL     3     -10.254  10.188  67.990  1.00  0.00     0.000 HD 
HETATM   18  C   UNL     3      -9.484   8.549  66.983  1.00  0.00    -0.173 C  
HETATM   19  O   UNL     3      -8.593   8.635  64.735  1.00  0.00    -0.172 OA 
ENDROOT
BRANCH   2  20
HETATM   20  C   UNL     2      -7.660   6.117  70.548  1.00  0.00    -0.096 C  
HETATM   21  O   UNL     2      -7.137   4.941  69.900  1.00  0.00    -0.051 OA 
HETATM   22  H   UNL     2      -7.768   4.232  69.944  1.00  0.00     0.000 HD 
BRANCH  20  23
HETATM   23  C   UNL     2      -8.259   5.608  71.865  1.00  0.00    -0.119 C  
HETATM   24  H   UNL     2      -9.747   6.086  73.162  1.00  0.00     0.000 HD 
HETATM   25  O   UNL     2      -9.376   6.401  72.346  1.00  0.00    -0.142 OA 
ENDBRANCH  20  23
ENDBRANCH   2  20
BRANCH   4  26
HETATM   26  C   UNL     3      -9.292   4.915  67.422  1.00  0.00    -0.132 C  
HETATM   27  H   UNL     3     -10.314   3.665  68.656  1.00  0.00     0.000 HD 
HETATM   28  O   UNL     3     -10.031   4.570  68.614  1.00  0.00    -0.132 OA 
BRANCH  26  29
HETATM   29  C   UNL     3     -10.031   4.457  66.169  1.00  0.00    -0.238 C  
HETATM   30  O   UNL     3     -11.167   5.296  65.927  1.00  0.00    -0.796 OA 
HETATM   31  H   UNL     3     -11.627   5.011  65.146  1.00  0.00     0.000 HD 
ENDBRANCH  26  29
ENDBRANCH   4  26
TORSDOF 4
ENDMDL
MODEL      122
REMARK 921   NORMALIZED FREE ENERGY PREDICTED BY IDOCK:   -3.07 KCAL/MOL
REMARK 922        TOTAL FREE ENERGY PREDICTED BY IDOCK:   -4.67 KCAL/MOL
REMARK 923 INTER-LIGAND FREE ENERGY PREDICTED BY IDOCK:   -4.24 KCAL/MOL
REMARK 924 INTRA-LIGAND FREE ENERGY PREDICTED BY IDOCK:   -0.42 KCAL/MOL
REMARK 927      BINDING AFFINITY PREDICTED BY RF-SCORE:    0.00 PKD
ROOT
HETATM    1 ZN   UNL     1      -7.639  15.464  71.124  1.00  0.00     0.479 Zn 
HETATM    2  C   UNL     2      -8.043  14.837  67.838  1.00  0.00    -0.141 C  
HETATM    3  O   UNL     2      -8.664  14.576  66.551  1.00  0.00    -0.187 OA 
HETATM    4  C   UNL     3      -8.547  11.331  66.129  1.00  0.00    -0.156 C  
HETATM    5  H   UNL     2     -11.836  15.610  69.321  1.00  0.00     0.000 HD 
HETATM    6  O   UNL     3      -9.187  11.121  64.859  1.00  0.00    -0.209 OA 
HETATM    7  O   UNL     3     -12.034  11.534  67.041  1.00  0.00    -0.556 OA 
HETATM    8  C   UNL     3      -9.663  11.237  67.161  1.00  0.00    -0.181 C  
HETATM    9  C   UNL     2     -10.027  14.666  66.652  1.00  0.00    -0.274 C  
HETATM   10  O   UNL     2      -8.958  15.795  69.838  1.00  0.00    -0.083 OA 
HETATM   11  C   UNL     3     -10.542  11.193  65.037  1.00  0.00    -0.273 C  
HETATM   12  C   UNL     2     -10.347  15.062  68.027  1.00  0.00    -0.236 C  
HETATM   13  O   UNL     2     -11.628  15.353  68.430  1.00  0.00    -0.341 OA 
HETATM   14  O   UNL     2     -10.827  14.579  65.734  1.00  0.00    -0.296 OA 
HETATM   15  C   UNL     2      -9.210  15.264  68.726  1.00  0.00    -0.203 C  
HETATM   16  O   UNL     3      -9.392  11.277  68.394  1.00  0.00    -0.170 OA 
HETATM   17  H   UNL     3     -12.206  11.604  67.973  1.00  0.00     0.000 HD 
HETATM   18  C   UNL     3     -10.808  11.301  66.474  1.00  0.00    -0.265 C  
HETATM   19  O   UNL     3     -11.358  11.109  64.125  1.00  0.00    -0.191 OA 
ENDROOT
BRANCH   2  20
HETATM   20  C   UNL     2      -7.134  13.618  68.233  1.00  0.00    -0.110 C  
HETATM   21  O   UNL     2      -5.867  13.694  67.551  1.00  0.00    -0.320 OA 
HETATM   22  H   UNL     2      -5.318  12.957  67.790  1.00  0.00     0.000 HD 
BRANCH  20  23
HETATM   23  C   UNL     2      -6.780  13.272  69.685  1.00  0.00     0.071 C  
HETATM   24  H   UNL     2      -6.145  11.679  70.773  1.00  0.00     0.000 HD 
HETATM   25  O   UNL     2      -6.365  11.894  69.874  1.00  0.00    -0.144 OA 
ENDBRANCH  20  23
ENDBRANCH   2  20
BRANCH   4  26
HETATM   26  C   UNL     3      -7.241  10.507  66.185  1.00  0.00    -0.136 C  
HETATM   27  H   UNL     3      -5.243  10.782  66.432  1.00  0.00     0.000 HD 
HETATM   28  O   UNL     3      -6.046  11.288  66.397  1.00  0.00    -0.140 OA 
BRANCH  26  29
HETATM   29  C   UNL     3      -7.310   9.336  67.160  1.00  0.00    -0.091 C  
HETATM   30  O   UNL     3      -7.718   8.144  66.478  1.00  0.00    -0.090 OA 
HETATM   31  H   UNL     3      -7.761   7.415  67.086  1.00  0.00     0.000 HD 
ENDBRANCH  26  29
ENDBRANCH   4  26
TORSDOF 4
ENDMDL
MODEL      123
REMARK 921   NORMALIZED FREE ENERGY PREDICTED BY IDOCK:   -3.07 KCAL/MOL
REMARK 922        TOTAL FREE ENERGY PREDICTED BY IDOCK:   -4.66 KCAL/MOL
REMARK 923 INTER-LIGAND FREE ENERGY PREDICTED BY IDOCK:   -3.89 KCAL/MOL
REMARK 924 INTRA-LIGAND FREE ENERGY PREDICTED BY IDOCK:   -0.77 KCAL/MOL
REMARK 927      BINDING AFFINITY PREDICTED BY RF-SCORE:    0.00 PKD
ROOT
HETATM    1 ZN   UNL     1      -5.210  18.822  67.757  1.00  0.00    -0.152 Zn 
HETATM    2  C   UNL     2      -8.218  17.604  66.850  1.00  0.00    -0.225 C  
HETATM    3  O   UNL     2      -9.646  17.338  66.822  1.00  0.00    -0.252 OA 
HETATM    4  C   UNL     3     -10.067  14.474  68.349  1.00  0.00    -0.241 C  
HETATM    5  H   UNL     2      -8.984  20.495  69.720  1.00  0.00     0.000 HD 
HETATM    6  O   UNL     3     -11.489  14.265  68.314  1.00  0.00    -0.272 OA 
HETATM    7  O   UNL     3     -11.171  16.587  71.059  1.00  0.00    -0.392 OA 
HETATM    8  C   UNL     3      -9.804  15.219  69.650  1.00  0.00    -0.216 C  
HETATM    9  C   UNL     2     -10.292  18.104  67.756  1.00  0.00    -0.399 C  
HETATM   10  O   UNL     2      -6.990  19.389  67.880  1.00  0.00    -0.237 OA 
HETATM   11  C   UNL     3     -12.067  15.032  69.288  1.00  0.00    -0.247 C  
HETATM   12  C   UNL     2      -9.291  18.963  68.397  1.00  0.00    -0.350 C  
HETATM   13  O   UNL     2      -9.631  19.938  69.305  1.00  0.00    -0.240 OA 
HETATM   14  O   UNL     2     -11.498  18.171  67.926  1.00  0.00     0.347 OA 
HETATM   15  C   UNL     2      -8.082  18.768  67.829  1.00  0.00    -0.255 C  
HETATM   16  O   UNL     3      -8.619  15.457  70.017  1.00  0.00    -0.022 OA 
HETATM   17  H   UNL     3     -10.477  16.983  71.574  1.00  0.00     0.000 HD 
HETATM   18  C   UNL     3     -10.997  15.643  70.081  1.00  0.00    -0.339 C  
HETATM   19  O   UNL     3     -13.277  15.112  69.470  1.00  0.00     0.483 OA 
ENDROOT
BRANCH   2  20
HETATM   20  C   UNL     2      -7.444  16.257  67.088  1.00  0.00    -0.203 C  
HETATM   21  O   UNL     2      -7.619  15.373  65.964  1.00  0.00     0.337 OA 
HETATM   22  H   UNL     2      -7.152  14.558  66.108  1.00  0.00     0.000 HD 
BRANCH  20  23
HETATM   23  C   UNL     2      -5.946  16.196  67.407  1.00  0.00    -0.146 C  
HETATM   24  H   UNL     2      -4.666  15.139  68.577  1.00  0.00     0.000 HD 
HETATM   25  O   UNL     2      -5.594  15.177  68.380  1.00  0.00    -0.093 OA 
ENDBRANCH  20  23
ENDBRANCH   2  20
BRANCH   4  26
HETATM   26  C   UNL     3      -9.350  13.169  67.935  1.00  0.00    -0.215 C  
HETATM   27  H   UNL     3      -8.790  11.387  68.734  1.00  0.00     0.000 HD 
HETATM   28  O   UNL     3      -9.230  12.188  68.988  1.00  0.00     0.148 OA 
BRANCH  26  29
HETATM   29  C   UNL     3      -9.923  12.544  66.667  1.00  0.00    -0.236 C  
HETATM   30  O   UNL     3      -9.416  13.217  65.508  1.00  0.00    -0.477 OA 
HETATM   31  H   UNL     3      -9.773  12.827  64.718  1.00  0.00     0.000 HD 
ENDBRANCH  26  29
ENDBRANCH   4  26
TORSDOF 4
ENDMDL
MODEL      124
REMARK 921   NORMALIZED FREE ENERGY PREDICTED BY IDOCK:   -3.06 KCAL/MOL
REMARK 922        TOTAL FREE ENERGY PREDICTED BY IDOCK:   -4.66 KCAL/MOL
REMARK 923 INTER-LIGAND FREE ENERGY PREDICTED BY IDOCK:   -3.97 KCAL/MOL
REMARK 924 INTRA-LIGAND FREE ENERGY PREDICTED BY IDOCK:   -0.69 KCAL/MOL
REMARK 927      BINDING AFFINITY PREDICTED BY RF-SCORE:    0.00 PKD
ROOT
HETATM    1 ZN   UNL     1      -6.476   1.512  72.525  1.00  0.00    -0.010 Zn 
HETATM    2  C   UNL     2      -9.065   2.611  70.670  1.00  0.00    -0.117 C  
HETATM    3  O   UNL     2      -9.830   3.254  69.616  1.00  0.00    -0.042 OA 
HETATM    4  C   UNL     3     -10.747   6.164  70.803  1.00  0.00    -0.266 C  
HETATM    5  H   UNL     2      -5.661   3.369  68.429  1.00  0.00     0.000 HD 
HETATM    6  O   UNL     3     -11.479   6.767  69.723  1.00  0.00    -0.304 OA 
HETATM    7  O   UNL     3      -8.069   7.367  68.701  1.00  0.00    -0.121 OA 
HETATM    8  C   UNL     3      -9.304   6.609  70.606  1.00  0.00    -0.162 C  
HETATM    9  C   UNL     2      -8.992   3.742  68.648  1.00  0.00    -0.124 C  
HETATM   10  O   UNL     2      -6.768   1.920  70.722  1.00  0.00    -0.027 OA 
HETATM   11  C   UNL     3     -10.585   7.260  68.812  1.00  0.00    -0.181 C  
HETATM   12  C   UNL     2      -7.622   3.370  69.015  1.00  0.00    -0.052 C  
HETATM   13  O   UNL     2      -6.548   3.610  68.192  1.00  0.00    -0.040 OA 
HETATM   14  O   UNL     2      -9.328   4.264  67.597  1.00  0.00    -0.139 OA 
HETATM   15  C   UNL     2      -7.632   2.627  70.142  1.00  0.00    -0.043 C  
HETATM   16  O   UNL     3      -8.427   6.321  71.468  1.00  0.00    -0.128 OA 
HETATM   17  H   UNL     3      -7.195   7.273  69.064  1.00  0.00     0.000 HD 
HETATM   18  C   UNL     3      -9.239   7.116  69.370  1.00  0.00    -0.148 C  
HETATM   19  O   UNL     3     -10.907   7.784  67.750  1.00  0.00    -0.160 OA 
ENDROOT
BRANCH   2  20
HETATM   20  C   UNL     2      -9.422   3.276  72.048  1.00  0.00    -0.134 C  
HETATM   21  O   UNL     2     -10.515   2.575  72.674  1.00  0.00    -0.160 OA 
HETATM   22  H   UNL     2     -10.731   2.977  73.507  1.00  0.00     0.000 HD 
BRANCH  20  23
HETATM   23  C   UNL     2      -8.396   3.485  73.169  1.00  0.00    -0.079 C  
HETATM   24  H   UNL     2      -8.189   4.557  74.881  1.00  0.00     0.000 HD 
HETATM   25  O   UNL     2      -8.824   4.428  74.187  1.00  0.00    -0.102 OA 
ENDBRANCH  20  23
ENDBRANCH   2  20
BRANCH   4  26
HETATM   26  C   UNL     3     -11.538   6.341  72.117  1.00  0.00    -0.319 C  
HETATM   27  H   UNL     3     -12.255   5.228  73.659  1.00  0.00     0.000 HD 
HETATM   28  O   UNL     3     -11.769   5.119  72.850  1.00  0.00    -0.283 OA 
BRANCH  26  29
HETATM   29  C   UNL     3     -10.961   7.423  73.026  1.00  0.00    -0.374 C  
HETATM   30  O   UNL     3     -10.570   6.860  74.284  1.00  0.00    -0.451 OA 
HETATM   31  H   UNL     3     -10.210   7.533  74.849  1.00  0.00     0.000 HD 
ENDBRANCH  26  29
ENDBRANCH   4  26
TORSDOF 4
ENDMDL
MODEL      125
REMARK 921   NORMALIZED FREE ENERGY PREDICTED BY IDOCK:   -3.01 KCAL/MOL
REMARK 922        TOTAL FREE ENERGY PREDICTED BY IDOCK:   -4.59 KCAL/MOL
REMARK 923 INTER-LIGAND FREE ENERGY PREDICTED BY IDOCK:   -3.91 KCAL/MOL
REMARK 924 INTRA-LIGAND FREE ENERGY PREDICTED BY IDOCK:   -0.69 KCAL/MOL
REMARK 927      BINDING AFFINITY PREDICTED BY RF-SCORE:    0.00 PKD
ROOT
HETATM    1 ZN   UNL     1     -10.965   5.866  65.612  1.00  0.00    -0.455 Zn 
HETATM    2  C   UNL     2      -8.302   6.074  67.664  1.00  0.00    -0.108 C  
HETATM    3  O   UNL     2      -7.485   6.084  68.866  1.00  0.00    -0.082 OA 
HETATM    4  C   UNL     3      -7.081   9.233  69.664  1.00  0.00    -0.061 C  
HETATM    5  H   UNL     2     -11.445   4.745  70.017  1.00  0.00     0.000 HD 
HETATM    6  O   UNL     3      -6.288   9.191  70.863  1.00  0.00    -0.055 OA 
HETATM    7  O   UNL     3      -9.581   8.462  72.152  1.00  0.00    -0.240 OA 
HETATM    8  C   UNL     3      -8.528   9.215  70.140  1.00  0.00    -0.176 C  
HETATM    9  C   UNL     2      -8.239   5.746  69.958  1.00  0.00    -0.115 C  
HETATM   10  O   UNL     2     -10.488   5.164  67.280  1.00  0.00    -0.196 OA 
HETATM   11  C   UNL     3      -7.106   8.880  71.915  1.00  0.00     0.035 C  
HETATM   12  C   UNL     2      -9.592   5.435  69.486  1.00  0.00    -0.149 C  
HETATM   13  O   UNL     2     -10.569   4.947  70.322  1.00  0.00    -0.184 OA 
HETATM   14  O   UNL     2      -7.831   5.588  71.097  1.00  0.00    -0.103 OA 
HETATM   15  C   UNL     2      -9.644   5.524  68.141  1.00  0.00    -0.119 C  
HETATM   16  O   UNL     3      -9.470   9.350  69.310  1.00  0.00    -0.154 OA 
HETATM   17  H   UNL     3     -10.477   8.453  71.837  1.00  0.00     0.000 HD 
HETATM   18  C   UNL     3      -8.488   8.866  71.430  1.00  0.00    -0.153 C  
HETATM   19  O   UNL     3      -6.710   8.716  73.065  1.00  0.00    -0.233 OA 
ENDROOT
BRANCH   2  20
HETATM   20  C   UNL     2      -8.210   7.478  66.964  1.00  0.00    -0.124 C  
HETATM   21  O   UNL     2      -6.955   7.610  66.268  1.00  0.00    -0.063 OA 
HETATM   22  H   UNL     2      -6.900   8.458  65.844  1.00  0.00     0.000 HD 
BRANCH  20  23
HETATM   23  C   UNL     2      -9.264   7.991  65.975  1.00  0.00    -0.120 C  
HETATM   24  H   UNL     2     -11.168   8.698  65.990  1.00  0.00     0.000 HD 
HETATM   25  O   UNL     2     -10.515   8.379  66.602  1.00  0.00    -0.294 OA 
ENDBRANCH  20  23
ENDBRANCH   2  20
BRANCH   4  26
HETATM   26  C   UNL     3      -6.496  10.292  68.703  1.00  0.00    -0.052 C  
HETATM   27  H   UNL     3      -6.455  10.732  66.720  1.00  0.00     0.000 HD 
HETATM   28  O   UNL     3      -6.814  10.081  67.310  1.00  0.00    -0.080 OA 
BRANCH  26  29
HETATM   29  C   UNL     3      -6.808  11.724  69.125  1.00  0.00    -0.106 C  
HETATM   30  O   UNL     3      -6.418  11.938  70.487  1.00  0.00    -0.519 OA 
HETATM   31  H   UNL     3      -6.613  12.830  70.749  1.00  0.00     0.000 HD 
ENDBRANCH  26  29
ENDBRANCH   4  26
TORSDOF 4
ENDMDL
MODEL      126
REMARK 921   NORMALIZED FREE ENERGY PREDICTED BY IDOCK:   -2.87 KCAL/MOL
REMARK 922        TOTAL FREE ENERGY PREDICTED BY IDOCK:   -4.42 KCAL/MOL
REMARK 923 INTER-LIGAND FREE ENERGY PREDICTED BY IDOCK:   -3.71 KCAL/MOL
REMARK 924 INTRA-LIGAND FREE ENERGY PREDICTED BY IDOCK:   -0.71 KCAL/MOL
REMARK 927      BINDING AFFINITY PREDICTED BY RF-SCORE:    0.00 PKD
ROOT
HETATM    1 ZN   UNL     1     -11.028   6.683  66.565  1.00  0.00    -0.241 Zn 
HETATM    2  C   UNL     2     -10.185   9.071  68.787  1.00  0.00    -0.208 C  
HETATM    3  O   UNL     2      -9.638  10.289  69.360  1.00  0.00    -0.213 OA 
HETATM    4  C   UNL     3      -6.759   9.457  70.679  1.00  0.00    -0.097 C  
HETATM    5  H   UNL     2      -9.269  10.621  65.053  1.00  0.00     0.000 HD 
HETATM    6  O   UNL     3      -6.250  10.691  71.213  1.00  0.00    -0.329 OA 
HETATM    7  O   UNL     3      -5.447  11.038  67.711  1.00  0.00    -0.040 OA 
HETATM    8  C   UNL     3      -6.220   9.383  69.257  1.00  0.00    -0.041 C  
HETATM    9  C   UNL     2      -9.127  11.092  68.376  1.00  0.00    -0.168 C  
HETATM   10  O   UNL     2     -10.709   8.526  66.510  1.00  0.00    -0.099 OA 
HETATM   11  C   UNL     3      -5.728  11.428  70.185  1.00  0.00    -0.129 C  
HETATM   12  C   UNL     2      -9.387  10.440  67.088  1.00  0.00    -0.157 C  
HETATM   13  O   UNL     2      -9.101  11.043  65.886  1.00  0.00    -0.186 OA 
HETATM   14  O   UNL     2      -8.670  12.214  68.523  1.00  0.00    -0.157 OA 
HETATM   15  C   UNL     2     -10.087   9.302  67.280  1.00  0.00    -0.231 C  
HETATM   16  O   UNL     3      -6.413   8.349  68.558  1.00  0.00    -0.052 OA 
HETATM   17  H   UNL     3      -5.464  10.503  66.925  1.00  0.00     0.000 HD 
HETATM   18  C   UNL     3      -5.755  10.605  68.974  1.00  0.00    -0.040 C  
HETATM   19  O   UNL     3      -5.268  12.558  70.317  1.00  0.00    -0.089 OA 
ENDROOT
BRANCH   2  20
HETATM   20  C   UNL     2      -9.498   7.828  69.457  1.00  0.00    -0.160 C  
HETATM   21  O   UNL     2     -10.094   7.557  70.741  1.00  0.00    -0.193 OA 
HETATM   22  H   UNL     2      -9.679   6.805  71.147  1.00  0.00     0.000 HD 
BRANCH  20  23
HETATM   23  C   UNL     2      -9.395   6.458  68.775  1.00  0.00    -0.125 C  
HETATM   24  H   UNL     2     -10.587   4.883  68.305  1.00  0.00     0.000 HD 
HETATM   25  O   UNL     2     -10.651   5.731  68.727  1.00  0.00    -0.231 OA 
ENDBRANCH  20  23
ENDBRANCH   2  20
BRANCH   4  26
HETATM   26  C   UNL     3      -6.591   8.338  71.731  1.00  0.00    -0.064 C  
HETATM   27  H   UNL     3      -6.103   6.369  71.835  1.00  0.00     0.000 HD 
HETATM   28  O   UNL     3      -6.206   7.056  71.189  1.00  0.00    -0.036 OA 
BRANCH  26  29
HETATM   29  C   UNL     3      -5.684   8.736  72.892  1.00  0.00    -0.083 C  
HETATM   30  O   UNL     3      -6.469   9.093  74.036  1.00  0.00    -0.338 OA 
HETATM   31  H   UNL     3      -5.904   9.341  74.759  1.00  0.00     0.000 HD 
ENDBRANCH  26  29
ENDBRANCH   4  26
TORSDOF 4
ENDMDL
MODEL      127
REMARK 921   NORMALIZED FREE ENERGY PREDICTED BY IDOCK:   -2.86 KCAL/MOL
REMARK 922        TOTAL FREE ENERGY PREDICTED BY IDOCK:   -4.41 KCAL/MOL
REMARK 923 INTER-LIGAND FREE ENERGY PREDICTED BY IDOCK:   -3.71 KCAL/MOL
REMARK 924 INTRA-LIGAND FREE ENERGY PREDICTED BY IDOCK:   -0.70 KCAL/MOL
REMARK 927      BINDING AFFINITY PREDICTED BY RF-SCORE:    0.00 PKD
ROOT
HETATM    1 ZN   UNL     1     -10.400   2.707  67.088  1.00  0.00    -0.361 Zn 
HETATM    2  C   UNL     2      -7.884   4.754  67.999  1.00  0.00    -0.082 C  
HETATM    3  O   UNL     2      -6.984   5.554  68.812  1.00  0.00    -0.057 OA 
HETATM    4  C   UNL     3      -8.075   8.634  68.609  1.00  0.00    -0.117 C  
HETATM    5  H   UNL     2      -9.469   3.263  71.528  1.00  0.00     0.000 HD 
HETATM    6  O   UNL     3      -7.170   9.381  69.440  1.00  0.00    -0.061 OA 
HETATM    7  O   UNL     3      -9.370   7.921  71.903  1.00  0.00    -0.139 OA 
HETATM    8  C   UNL     3      -9.209   8.209  69.533  1.00  0.00    -0.158 C  
HETATM    9  C   UNL     2      -7.261   5.383  70.142  1.00  0.00    -0.067 C  
HETATM   10  O   UNL     2      -9.350   2.958  68.616  1.00  0.00    -0.166 OA 
HETATM   11  C   UNL     3      -7.522   9.191  70.749  1.00  0.00    -0.122 C  
HETATM   12  C   UNL     2      -8.336   4.391  70.248  1.00  0.00    -0.073 C  
HETATM   13  O   UNL     2      -8.773   3.905  71.458  1.00  0.00    -0.094 OA 
HETATM   14  O   UNL     2      -6.636   5.853  71.078  1.00  0.00    -0.042 OA 
HETATM   15  C   UNL     2      -8.663   3.930  69.022  1.00  0.00    -0.093 C  
HETATM   16  O   UNL     3     -10.222   7.618  69.064  1.00  0.00    -0.196 OA 
HETATM   17  H   UNL     3     -10.181   7.427  71.921  1.00  0.00     0.000 HD 
HETATM   18  C   UNL     3      -8.773   8.428  70.778  1.00  0.00    -0.150 C  
HETATM   19  O   UNL     3      -6.902   9.655  71.700  1.00  0.00    -0.309 OA 
ENDROOT
BRANCH   2  20
HETATM   20  C   UNL     2      -8.631   5.687  66.980  1.00  0.00    -0.109 C  
HETATM   21  O   UNL     2      -7.762   6.029  65.883  1.00  0.00    -0.091 OA 
HETATM   22  H   UNL     2      -8.214   6.594  65.267  1.00  0.00     0.000 HD 
BRANCH  20  23
HETATM   23  C   UNL     2      -9.965   5.312  66.323  1.00  0.00    -0.192 C  
HETATM   24  H   UNL     2     -10.687   3.995  64.955  1.00  0.00     0.000 HD 
HETATM   25  O   UNL     2      -9.860   4.228  65.362  1.00  0.00    -0.184 OA 
ENDBRANCH  20  23
ENDBRANCH   2  20
BRANCH   4  26
HETATM   26  C   UNL     3      -8.278   9.384  67.274  1.00  0.00    -0.117 C  
HETATM   27  H   UNL     3      -7.662   9.302  65.339  1.00  0.00     0.000 HD 
HETATM   28  O   UNL     3      -7.537   8.841  66.160  1.00  0.00    -0.091 OA 
BRANCH  26  29
HETATM   29  C   UNL     3      -9.747   9.579  66.911  1.00  0.00    -0.182 C  
HETATM   30  O   UNL     3     -10.003   9.083  65.591  1.00  0.00    -0.457 OA 
HETATM   31  H   UNL     3     -10.918   9.204  65.366  1.00  0.00     0.000 HD 
ENDBRANCH  26  29
ENDBRANCH   4  26
TORSDOF 4
ENDMDL
MODEL      128
REMARK 921   NORMALIZED FREE ENERGY PREDICTED BY IDOCK:   -2.84 KCAL/MOL
REMARK 922        TOTAL FREE ENERGY PREDICTED BY IDOCK:   -4.38 KCAL/MOL
REMARK 923 INTER-LIGAND FREE ENERGY PREDICTED BY IDOCK:   -3.74 KCAL/MOL
REMARK 924 INTRA-LIGAND FREE ENERGY PREDICTED BY IDOCK:   -0.65 KCAL/MOL
REMARK 927      BINDING AFFINITY PREDICTED BY RF-SCORE:    0.00 PKD
ROOT
HETATM    1 ZN   UNL     1      -8.804   5.818  68.339  1.00  0.00    -0.108 Zn 
HETATM    2  C   UNL     2      -8.719   8.641  66.503  1.00  0.00    -0.126 C  
HETATM    3  O   UNL     2      -8.255   9.876  65.895  1.00  0.00    -0.119 OA 
HETATM    4  C   UNL     3      -9.453  12.303  67.736  1.00  0.00    -0.197 C  
HETATM    5  H   UNL     2      -4.847   8.052  67.858  1.00  0.00     0.000 HD 
HETATM    6  O   UNL     3      -8.953  13.497  67.110  1.00  0.00    -0.210 OA 
HETATM    7  O   UNL     3      -6.073  12.416  68.999  1.00  0.00    -0.066 OA 
HETATM    8  C   UNL     3      -8.405  11.926  68.774  1.00  0.00     0.020 C  
HETATM    9  C   UNL     2      -6.937  10.092  66.199  1.00  0.00    -0.107 C  
HETATM   10  O   UNL     2      -7.485   6.834  67.485  1.00  0.00    -0.093 OA 
HETATM   11  C   UNL     3      -7.647  13.669  67.479  1.00  0.00    -0.170 C  
HETATM   12  C   UNL     2      -6.467   8.945  66.982  1.00  0.00    -0.061 C  
HETATM   13  O   UNL     2      -5.151   8.795  67.351  1.00  0.00    -0.033 OA 
HETATM   14  O   UNL     2      -6.236  10.997  65.775  1.00  0.00    -0.104 OA 
HETATM   15  C   UNL     2      -7.454   8.031  67.101  1.00  0.00    -0.092 C  
HETATM   16  O   UNL     3      -8.614  10.966  69.567  1.00  0.00     0.014 OA 
HETATM   17  H   UNL     3      -5.863  11.759  69.653  1.00  0.00     0.000 HD 
HETATM   18  C   UNL     3      -7.322  12.656  68.487  1.00  0.00    -0.115 C  
HETATM   19  O   UNL     3      -6.929  14.571  67.061  1.00  0.00    -0.101 OA 
ENDROOT
BRANCH   2  20
HETATM   20  C   UNL     2      -9.970   8.946  67.404  1.00  0.00    -0.209 C  
HETATM   21  O   UNL     2     -11.161   9.031  66.597  1.00  0.00     0.089 OA 
HETATM   22  H   UNL     2     -11.917   9.215  67.142  1.00  0.00     0.000 HD 
BRANCH  20  23
HETATM   23  C   UNL     2     -10.369   8.079  68.604  1.00  0.00    -0.200 C  
HETATM   24  H   UNL     2     -11.233   6.279  68.979  1.00  0.00     0.000 HD 
HETATM   25  O   UNL     2     -10.986   6.816  68.236  1.00  0.00    -0.237 OA 
ENDBRANCH  20  23
ENDBRANCH   2  20
BRANCH   4  26
HETATM   26  C   UNL     3     -10.956  12.481  68.045  1.00  0.00    -0.232 C  
HETATM   27  H   UNL     3     -12.762  11.791  67.417  1.00  0.00     0.000 HD 
HETATM   28  O   UNL     3     -11.838  11.682  67.227  1.00  0.00    -0.609 OA 
BRANCH  26  29
HETATM   29  C   UNL     3     -11.289  12.320  69.526  1.00  0.00    -0.187 C  
HETATM   30  O   UNL     3     -11.263  13.593  70.183  1.00  0.00    -0.485 OA 
HETATM   31  H   UNL     3     -11.470  13.492  71.104  1.00  0.00     0.000 HD 
ENDBRANCH  26  29
ENDBRANCH   4  26
TORSDOF 4
ENDMDL
MODEL      129
REMARK 921   NORMALIZED FREE ENERGY PREDICTED BY IDOCK:   -2.83 KCAL/MOL
REMARK 922        TOTAL FREE ENERGY PREDICTED BY IDOCK:   -4.37 KCAL/MOL
REMARK 923 INTER-LIGAND FREE ENERGY PREDICTED BY IDOCK:   -3.62 KCAL/MOL
REMARK 924 INTRA-LIGAND FREE ENERGY PREDICTED BY IDOCK:   -0.74 KCAL/MOL
REMARK 927      BINDING AFFINITY PREDICTED BY RF-SCORE:    0.00 PKD
ROOT
HETATM    1 ZN   UNL     1      -6.293   5.631  74.468  1.00  0.00    -0.056 Zn 
HETATM    2  C   UNL     2      -9.047   6.080  72.581  1.00  0.00    -0.137 C  
HETATM    3  O   UNL     2     -10.029   5.938  71.519  1.00  0.00    -0.175 OA 
HETATM    4  C   UNL     3      -9.390   8.319  69.366  1.00  0.00    -0.155 C  
HETATM    5  H   UNL     2      -7.173   2.707  71.067  1.00  0.00     0.000 HD 
HETATM    6  O   UNL     3     -10.368   8.126  68.331  1.00  0.00    -0.205 OA 
HETATM    7  O   UNL     3      -7.919   5.613  67.483  1.00  0.00    -0.101 OA 
HETATM    8  C   UNL     3      -8.182   7.497  68.936  1.00  0.00    -0.128 C  
HETATM    9  C   UNL     2      -9.694   4.895  70.696  1.00  0.00    -0.201 C  
HETATM   10  O   UNL     2      -7.326   4.579  73.316  1.00  0.00    -0.077 OA 
HETATM   11  C   UNL     3      -9.957   7.096  67.530  1.00  0.00    -0.167 C  
HETATM   12  C   UNL     2      -8.487   4.266  71.242  1.00  0.00    -0.097 C  
HETATM   13  O   UNL     2      -7.954   3.115  70.714  1.00  0.00    -0.049 OA 
HETATM   14  O   UNL     2     -10.355   4.471  69.762  1.00  0.00    -0.116 OA 
HETATM   15  C   UNL     2      -8.133   4.871  72.396  1.00  0.00    -0.111 C  
HETATM   16  O   UNL     3      -7.109   7.548  69.599  1.00  0.00    -0.061 OA 
HETATM   17  H   UNL     3      -7.045   5.356  67.757  1.00  0.00     0.000 HD 
HETATM   18  C   UNL     3      -8.611   6.700  67.951  1.00  0.00    -0.118 C  
HETATM   19  O   UNL     3     -10.611   6.656  66.589  1.00  0.00    -0.227 OA 
ENDROOT
BRANCH   2  20
HETATM   20  C   UNL     2      -8.467   7.540  72.558  1.00  0.00    -0.116 C  
HETATM   21  O   UNL     2      -9.513   8.499  72.807  1.00  0.00    -0.257 OA 
HETATM   22  H   UNL     2      -9.162   9.382  72.793  1.00  0.00     0.000 HD 
BRANCH  20  23
HETATM   23  C   UNL     2      -7.300   7.991  73.445  1.00  0.00    -0.137 C  
HETATM   24  H   UNL     2      -5.270   7.949  73.451  1.00  0.00     0.000 HD 
HETATM   25  O   UNL     2      -5.992   7.669  72.902  1.00  0.00    -0.047 OA 
ENDBRANCH  20  23
ENDBRANCH   2  20
BRANCH   4  26
HETATM   26  C   UNL     3      -9.330   9.817  69.739  1.00  0.00    -0.226 C  
HETATM   27  H   UNL     3      -8.134  11.121  70.739  1.00  0.00     0.000 HD 
HETATM   28  O   UNL     3      -8.171  10.200  70.510  1.00  0.00    -0.069 OA 
BRANCH  26  29
HETATM   29  C   UNL     3      -9.521  10.743  68.542  1.00  0.00    -0.181 C  
HETATM   30  O   UNL     3      -9.695  12.096  68.981  1.00  0.00    -0.413 OA 
HETATM   31  H   UNL     3      -9.814  12.672  68.235  1.00  0.00     0.000 HD 
ENDBRANCH  26  29
ENDBRANCH   4  26
TORSDOF 4
ENDMDL
MODEL      130
REMARK 921   NORMALIZED FREE ENERGY PREDICTED BY IDOCK:   -2.76 KCAL/MOL
REMARK 922        TOTAL FREE ENERGY PREDICTED BY IDOCK:   -4.28 KCAL/MOL
REMARK 923 INTER-LIGAND FREE ENERGY PREDICTED BY IDOCK:   -3.54 KCAL/MOL
REMARK 924 INTRA-LIGAND FREE ENERGY PREDICTED BY IDOCK:   -0.74 KCAL/MOL
REMARK 927      BINDING AFFINITY PREDICTED BY RF-SCORE:    0.00 PKD
ROOT
HETATM    1 ZN   UNL     1      -9.342   8.095  66.825  1.00  0.00    -0.129 Zn 
HETATM    2  C   UNL     2      -9.223  10.816  68.809  1.00  0.00    -0.189 C  
HETATM    3  O   UNL     2      -9.628  11.986  69.568  1.00  0.00     0.692 OA 
HETATM    4  C   UNL     3      -8.951  14.573  67.679  1.00  0.00    -0.193 C  
HETATM    5  H   UNL     2     -13.248  10.036  68.193  1.00  0.00     0.000 HD 
HETATM    6  O   UNL     3      -9.385  15.699  68.460  1.00  0.00    -0.187 OA 
HETATM    7  O   UNL     3     -12.514  14.521  67.100  1.00  0.00    -0.567 OA 
HETATM    8  C   UNL     3     -10.160  14.177  66.842  1.00  0.00    -0.258 C  
HETATM    9  C   UNL     2     -10.990  12.128  69.537  1.00  0.00     0.032 C  
HETATM   10  O   UNL     2     -10.523   8.979  67.976  1.00  0.00    -0.220 OA 
HETATM   11  C   UNL     3     -10.746  15.802  68.360  1.00  0.00    -0.281 C  
HETATM   12  C   UNL     2     -11.539  10.992  68.792  1.00  0.00    -0.318 C  
HETATM   13  O   UNL     2     -12.891  10.772  68.676  1.00  0.00     0.454 OA 
HETATM   14  O   UNL     2     -11.644  12.963  70.141  1.00  0.00    -0.200 OA 
HETATM   15  C   UNL     2     -10.546  10.152  68.430  1.00  0.00    -0.217 C  
HETATM   16  O   UNL     3     -10.058  13.272  65.967  1.00  0.00    -0.288 OA 
HETATM   17  H   UNL     3     -12.812  13.884  66.461  1.00  0.00     0.000 HD 
HETATM   18  C   UNL     3     -11.205  14.819  67.375  1.00  0.00    -0.339 C  
HETATM   19  O   UNL     3     -11.416  16.633  68.963  1.00  0.00    -0.183 OA 
ENDROOT
BRANCH   2  20
HETATM   20  C   UNL     2      -8.193  11.246  67.703  1.00  0.00    -0.120 C  
HETATM   21  O   UNL     2      -6.857  11.266  68.244  1.00  0.00    -0.061 OA 
HETATM   22  H   UNL     2      -6.234  11.526  67.575  1.00  0.00     0.000 HD 
BRANCH  20  23
HETATM   23  C   UNL     2      -8.061  10.526  66.355  1.00  0.00    -0.135 C  
HETATM   24  H   UNL     2      -6.837   9.186  65.443  1.00  0.00     0.000 HD 
HETATM   25  O   UNL     2      -6.919   9.632  66.278  1.00  0.00    -0.088 OA 
ENDBRANCH  20  23
ENDBRANCH   2  20
BRANCH   4  26
HETATM   26  C   UNL     3      -7.551  14.865  67.097  1.00  0.00    -0.110 C  
HETATM   27  H   UNL     3      -6.564  16.327  66.088  1.00  0.00     0.000 HD 
HETATM   28  O   UNL     3      -7.425  16.148  66.446  1.00  0.00    -0.165 OA 
BRANCH  26  29
HETATM   29  C   UNL     3      -6.424  14.650  68.104  1.00  0.00    -0.137 C  
HETATM   30  O   UNL     3      -5.452  13.740  67.575  1.00  0.00    -0.336 OA 
HETATM   31  H   UNL     3      -4.751  13.606  68.202  1.00  0.00     0.000 HD 
ENDBRANCH  26  29
ENDBRANCH   4  26
TORSDOF 4
ENDMDL
MODEL      131
REMARK 921   NORMALIZED FREE ENERGY PREDICTED BY IDOCK:   -2.75 KCAL/MOL
REMARK 922        TOTAL FREE ENERGY PREDICTED BY IDOCK:   -4.27 KCAL/MOL
REMARK 923 INTER-LIGAND FREE ENERGY PREDICTED BY IDOCK:   -3.53 KCAL/MOL
REMARK 924 INTRA-LIGAND FREE ENERGY PREDICTED BY IDOCK:   -0.74 KCAL/MOL
REMARK 927      BINDING AFFINITY PREDICTED BY RF-SCORE:    0.00 PKD
ROOT
HETATM    1 ZN   UNL     1      -7.398   6.005  63.808  1.00  0.00    -0.044 Zn 
HETATM    2  C   UNL     2      -7.734   7.166  66.953  1.00  0.00    -0.106 C  
HETATM    3  O   UNL     2      -8.328   7.609  68.202  1.00  0.00    -0.123 OA 
HETATM    4  C   UNL     3      -8.415  10.878  68.059  1.00  0.00    -0.130 C  
HETATM    5  H   UNL     2     -11.514   5.921  65.794  1.00  0.00     0.000 HD 
HETATM    6  O   UNL     3      -9.025  11.267  69.301  1.00  0.00     0.050 OA 
HETATM    7  O   UNL     3     -11.909  10.310  67.350  1.00  0.00    -0.225 OA 
HETATM    8  C   UNL     3      -9.568  10.724  67.076  1.00  0.00    -0.169 C  
HETATM    9  C   UNL     2      -9.684   7.420  68.179  1.00  0.00    -0.151 C  
HETATM   10  O   UNL     2      -8.649   5.823  65.188  1.00  0.00    -0.149 OA 
HETATM   11  C   UNL     3     -10.377  11.083  69.198  1.00  0.00    -0.188 C  
HETATM   12  C   UNL     2     -10.022   6.773  66.907  1.00  0.00    -0.191 C  
HETATM   13  O   UNL     2     -11.294   6.340  66.617  1.00  0.00    -0.165 OA 
HETATM   14  O   UNL     2     -10.458   7.616  69.103  1.00  0.00    -0.215 OA 
HETATM   15  C   UNL     2      -8.898   6.522  66.203  1.00  0.00    -0.150 C  
HETATM   16  O   UNL     3      -9.336  10.487  65.857  1.00  0.00    -0.168 OA 
HETATM   17  H   UNL     3     -12.107  10.069  66.452  1.00  0.00     0.000 HD 
HETATM   18  C   UNL     3     -10.683  10.711  67.814  1.00  0.00    -0.257 C  
HETATM   19  O   UNL     3     -11.167  11.274  70.117  1.00  0.00    -0.224 OA 
ENDROOT
BRANCH   2  20
HETATM   20  C   UNL     2      -6.923   8.351  66.315  1.00  0.00    -0.073 C  
HETATM   21  O   UNL     2      -5.669   8.528  67.004  1.00  0.00    -0.040 OA 
HETATM   22  H   UNL     2      -5.179   9.245  66.618  1.00  0.00     0.000 HD 
BRANCH  20  23
HETATM   23  C   UNL     2      -6.566   8.417  64.825  1.00  0.00    -0.068 C  
HETATM   24  H   UNL     2      -6.217   9.810  63.390  1.00  0.00     0.000 HD 
HETATM   25  O   UNL     2      -6.438   9.769  64.313  1.00  0.00    -0.105 OA 
ENDBRANCH  20  23
ENDBRANCH   2  20
BRANCH   4  26
HETATM   26  C   UNL     3      -7.170  11.757  67.805  1.00  0.00    -0.097 C  
HETATM   27  H   UNL     3      -6.670  13.523  66.934  1.00  0.00     0.000 HD 
HETATM   28  O   UNL     3      -7.435  12.983  67.089  1.00  0.00    -0.115 OA 
BRANCH  26  29
HETATM   29  C   UNL     3      -6.357  12.026  69.068  1.00  0.00    -0.085 C  
HETATM   30  O   UNL     3      -6.830  13.210  69.722  1.00  0.00    -0.340 OA 
HETATM   31  H   UNL     3      -6.323  13.377  70.508  1.00  0.00     0.000 HD 
ENDBRANCH  26  29
ENDBRANCH   4  26
TORSDOF 4
ENDMDL
MODEL      132
REMARK 921   NORMALIZED FREE ENERGY PREDICTED BY IDOCK:   -2.73 KCAL/MOL
REMARK 922        TOTAL FREE ENERGY PREDICTED BY IDOCK:   -4.25 KCAL/MOL
REMARK 923 INTER-LIGAND FREE ENERGY PREDICTED BY IDOCK:   -3.41 KCAL/MOL
REMARK 924 INTRA-LIGAND FREE ENERGY PREDICTED BY IDOCK:   -0.85 KCAL/MOL
REMARK 927      BINDING AFFINITY PREDICTED BY RF-SCORE:    0.00 PKD
ROOT
HETATM    1 ZN   UNL     1      -7.887  16.227  67.656  1.00  0.00    -0.127 Zn 
HETATM    2  C   UNL     2      -9.531  13.331  68.166  1.00  0.00    -0.222 C  
HETATM    3  O   UNL     2      -9.808  11.941  68.487  1.00  0.00    -0.208 OA 
HETATM    4  C   UNL     3      -9.962  10.361  65.625  1.00  0.00    -0.272 C  
HETATM    5  H   UNL     2      -5.675  12.706  69.553  1.00  0.00     0.000 HD 
HETATM    6  O   UNL     3     -10.216   8.994  65.993  1.00  0.00    -0.225 OA 
HETATM    7  O   UNL     3      -6.661   9.245  66.570  1.00  0.00    -0.066 OA 
HETATM    8  C   UNL     3      -8.445  10.484  65.566  1.00  0.00    -0.173 C  
HETATM    9  C   UNL     2      -8.674  11.322  68.942  1.00  0.00    -0.046 C  
HETATM   10  O   UNL     2      -7.646  14.708  68.722  1.00  0.00    -0.124 OA 
HETATM   11  C   UNL     3      -9.040   8.428  66.405  1.00  0.00    -0.187 C  
HETATM   12  C   UNL     2      -7.607  12.326  68.994  1.00  0.00     0.103 C  
HETATM   13  O   UNL     2      -6.366  12.055  69.519  1.00  0.00    -0.106 OA 
HETATM   14  O   UNL     2      -8.595  10.180  69.366  1.00  0.00    -0.154 OA 
HETATM   15  C   UNL     2      -8.093  13.535  68.638  1.00  0.00    -0.055 C  
HETATM   16  O   UNL     3      -7.910  11.555  65.162  1.00  0.00     0.624 OA 
HETATM   17  H   UNL     3      -5.961   9.869  66.412  1.00  0.00     0.000 HD 
HETATM   18  C   UNL     3      -7.962   9.389  66.163  1.00  0.00    -0.110 C  
HETATM   19  O   UNL     3      -8.945   7.284  66.837  1.00  0.00    -0.125 OA 
ENDROOT
BRANCH   2  20
HETATM   20  C   UNL     2      -9.935  13.609  66.673  1.00  0.00    -0.283 C  
HETATM   21  O   UNL     2     -11.352  13.848  66.574  1.00  0.00    -0.314 OA 
HETATM   22  H   UNL     2     -11.596  14.015  65.671  1.00  0.00     0.000 HD 
BRANCH  20  23
HETATM   23  C   UNL     2      -9.289  14.708  65.821  1.00  0.00    -0.023 C  
HETATM   24  H   UNL     2      -9.349  16.728  65.619  1.00  0.00     0.000 HD 
HETATM   25  O   UNL     2      -9.749  16.047  66.146  1.00  0.00    -0.278 OA 
ENDBRANCH  20  23
ENDBRANCH   2  20
BRANCH   4  26
HETATM   26  C   UNL     3     -10.910  10.764  64.474  1.00  0.00     0.070 C  
HETATM   27  H   UNL     3     -12.481  12.004  64.121  1.00  0.00     0.000 HD 
HETATM   28  O   UNL     3     -11.898  11.756  64.828  1.00  0.00    -0.228 OA 
BRANCH  26  29
HETATM   29  C   UNL     3     -10.174  11.157  63.197  1.00  0.00    -0.294 C  
HETATM   30  O   UNL     3      -9.838  12.549  63.225  1.00  0.00    -0.581 OA 
HETATM   31  H   UNL     3      -9.379  12.794  62.429  1.00  0.00     0.000 HD 
ENDBRANCH  26  29
ENDBRANCH   4  26
TORSDOF 4
ENDMDL
MODEL      133
REMARK 921   NORMALIZED FREE ENERGY PREDICTED BY IDOCK:   -2.66 KCAL/MOL
REMARK 922        TOTAL FREE ENERGY PREDICTED BY IDOCK:   -4.16 KCAL/MOL
REMARK 923 INTER-LIGAND FREE ENERGY PREDICTED BY IDOCK:   -3.62 KCAL/MOL
REMARK 924 INTRA-LIGAND FREE ENERGY PREDICTED BY IDOCK:   -0.54 KCAL/MOL
REMARK 927      BINDING AFFINITY PREDICTED BY RF-SCORE:    0.00 PKD
ROOT
HETATM    1 ZN   UNL     1      -6.340   7.961  73.934  1.00  0.00    -0.072 Zn 
HETATM    2  C   UNL     2      -6.889   7.898  70.611  1.00  0.00    -0.041 C  
HETATM    3  O   UNL     2      -7.533   8.050  69.317  1.00  0.00    -0.089 OA 
HETATM    4  C   UNL     3      -8.752   5.108  68.559  1.00  0.00    -0.097 C  
HETATM    5  H   UNL     2     -10.062  10.007  72.245  1.00  0.00     0.000 HD 
HETATM    6  O   UNL     3      -9.392   5.312  67.288  1.00  0.00    -0.114 OA 
HETATM    7  O   UNL     3     -11.867   6.634  69.560  1.00  0.00    -0.658 OA 
HETATM    8  C   UNL     3      -9.831   5.376  69.599  1.00  0.00    -0.193 C  
HETATM    9  C   UNL     2      -8.739   8.683  69.455  1.00  0.00    -0.139 C  
HETATM   10  O   UNL     2      -7.376   8.936  72.718  1.00  0.00    -0.349 OA 
HETATM   11  C   UNL     3     -10.601   5.916  67.501  1.00  0.00    -0.273 C  
HETATM   12  C   UNL     2      -8.900   9.031  70.871  1.00  0.00    -0.240 C  
HETATM   13  O   UNL     2      -9.957   9.781  71.329  1.00  0.00    -0.059 OA 
HETATM   14  O   UNL     2      -9.483   9.028  68.551  1.00  0.00    -0.143 OA 
HETATM   15  C   UNL     2      -7.797   8.674  71.563  1.00  0.00    -0.125 C  
HETATM   16  O   UNL     3      -9.597   5.174  70.823  1.00  0.00    -0.160 OA 
HETATM   17  H   UNL     3     -12.016   6.672  70.498  1.00  0.00     0.000 HD 
HETATM   18  C   UNL     3     -10.832   5.976  68.946  1.00  0.00    -0.331 C  
HETATM   19  O   UNL     3     -11.357   6.271  66.603  1.00  0.00    -0.165 OA 
ENDROOT
BRANCH   2  20
HETATM   20  C   UNL     2      -6.573   6.379  70.858  1.00  0.00    -0.053 C  
HETATM   21  O   UNL     2      -5.229   6.072  70.437  1.00  0.00    -0.012 OA 
HETATM   22  H   UNL     2      -5.039   5.153  70.587  1.00  0.00     0.000 HD 
BRANCH  20  23
HETATM   23  C   UNL     2      -6.721   5.705  72.227  1.00  0.00    -0.071 C  
HETATM   24  H   UNL     2      -5.803   5.689  74.039  1.00  0.00     0.000 HD 
HETATM   25  O   UNL     2      -5.711   6.107  73.191  1.00  0.00    -0.036 OA 
ENDBRANCH  20  23
ENDBRANCH   2  20
BRANCH   4  26
HETATM   26  C   UNL     3      -7.903   3.819  68.501  1.00  0.00    -0.067 C  
HETATM   27  H   UNL     3      -8.047   1.893  67.866  1.00  0.00     0.000 HD 
HETATM   28  O   UNL     3      -8.569   2.686  67.902  1.00  0.00    -0.080 OA 
BRANCH  26  29
HETATM   29  C   UNL     3      -6.525   4.033  67.882  1.00  0.00    -0.038 C  
HETATM   30  O   UNL     3      -5.659   2.937  68.202  1.00  0.00    -0.017 OA 
HETATM   31  H   UNL     3      -4.801   3.071  67.817  1.00  0.00     0.000 HD 
ENDBRANCH  26  29
ENDBRANCH   4  26
TORSDOF 4
ENDMDL
MODEL      134
REMARK 921   NORMALIZED FREE ENERGY PREDICTED BY IDOCK:   -2.55 KCAL/MOL
REMARK 922        TOTAL FREE ENERGY PREDICTED BY IDOCK:   -4.02 KCAL/MOL
REMARK 923 INTER-LIGAND FREE ENERGY PREDICTED BY IDOCK:   -3.66 KCAL/MOL
REMARK 924 INTRA-LIGAND FREE ENERGY PREDICTED BY IDOCK:   -0.36 KCAL/MOL
REMARK 927      BINDING AFFINITY PREDICTED BY RF-SCORE:    0.00 PKD
ROOT
HETATM    1 ZN   UNL     1     -11.607  12.059  65.165  1.00  0.00    -0.294 Zn 
HETATM    2  C   UNL     2      -8.493  10.849  65.600  1.00  0.00    -0.139 C  
HETATM    3  O   UNL     2      -7.279  10.073  65.419  1.00  0.00    -0.125 OA 
HETATM    4  C   UNL     3      -7.456   7.596  67.551  1.00  0.00    -0.104 C  
HETATM    5  H   UNL     2      -9.825   9.287  61.999  1.00  0.00     0.000 HD 
HETATM    6  O   UNL     3      -6.249   6.849  67.322  1.00  0.00    -0.034 OA 
HETATM    7  O   UNL     3      -8.330   5.705  64.603  1.00  0.00    -0.135 OA 
HETATM    8  C   UNL     3      -8.493   6.976  66.624  1.00  0.00    -0.121 C  
HETATM    9  C   UNL     2      -7.367   9.306  64.288  1.00  0.00    -0.106 C  
HETATM   10  O   UNL     2     -10.289  11.302  64.075  1.00  0.00    -0.309 OA 
HETATM   11  C   UNL     3      -6.417   6.084  66.200  1.00  0.00    -0.046 C  
HETATM   12  C   UNL     2      -8.648   9.610  63.642  1.00  0.00    -0.209 C  
HETATM   13  O   UNL     2      -8.996   9.091  62.417  1.00  0.00    -0.216 OA 
HETATM   14  O   UNL     2      -6.484   8.605  63.818  1.00  0.00    -0.079 OA 
HETATM   15  C   UNL     2      -9.293  10.576  64.328  1.00  0.00    -0.267 C  
HETATM   16  O   UNL     3      -9.697   7.356  66.673  1.00  0.00    -0.197 OA 
HETATM   17  H   UNL     3      -9.234   5.787  64.322  1.00  0.00     0.000 HD 
HETATM   18  C   UNL     3      -7.810   6.210  65.766  1.00  0.00    -0.105 C  
HETATM   19  O   UNL     3      -5.539   5.377  65.715  1.00  0.00    -0.013 OA 
ENDROOT
BRANCH   2  20
HETATM   20  C   UNL     2      -9.101  10.538  67.015  1.00  0.00    -0.143 C  
HETATM   21  O   UNL     2      -8.158  10.876  68.051  1.00  0.00    -0.112 OA 
HETATM   22  H   UNL     2      -8.526  10.688  68.907  1.00  0.00     0.000 HD 
BRANCH  20  23
HETATM   23  C   UNL     2     -10.439  11.112  67.497  1.00  0.00    -0.204 C  
HETATM   24  H   UNL     2     -12.101  10.505  68.494  1.00  0.00     0.000 HD 
HETATM   25  O   UNL     2     -11.273  10.149  68.195  1.00  0.00    -0.258 OA 
ENDBRANCH  20  23
ENDBRANCH   2  20
BRANCH   4  26
HETATM   26  C   UNL     3      -7.656   7.787  69.071  1.00  0.00    -0.100 C  
HETATM   27  H   UNL     3      -7.179   9.102  70.545  1.00  0.00     0.000 HD 
HETATM   28  O   UNL     3      -7.056   8.984  69.611  1.00  0.00    -0.055 OA 
BRANCH  26  29
HETATM   29  C   UNL     3      -9.113   7.662  69.507  1.00  0.00    -0.146 C  
HETATM   30  O   UNL     3      -9.476   6.282  69.641  1.00  0.00    -0.145 OA 
HETATM   31  H   UNL     3     -10.383   6.205  69.912  1.00  0.00     0.000 HD 
ENDBRANCH  26  29
ENDBRANCH   4  26
TORSDOF 4
ENDMDL
MODEL      135
REMARK 921   NORMALIZED FREE ENERGY PREDICTED BY IDOCK:   -2.53 KCAL/MOL
REMARK 922        TOTAL FREE ENERGY PREDICTED BY IDOCK:   -4.00 KCAL/MOL
REMARK 923 INTER-LIGAND FREE ENERGY PREDICTED BY IDOCK:   -3.32 KCAL/MOL
REMARK 924 INTRA-LIGAND FREE ENERGY PREDICTED BY IDOCK:   -0.67 KCAL/MOL
REMARK 927      BINDING AFFINITY PREDICTED BY RF-SCORE:    0.00 PKD
ROOT
HETATM    1 ZN   UNL     1      -7.165   5.734  64.690  1.00  0.00    -0.049 Zn 
HETATM    2  C   UNL     2      -8.260   5.980  67.867  1.00  0.00    -0.112 C  
HETATM    3  O   UNL     2      -9.128   6.188  69.014  1.00  0.00    -0.124 OA 
HETATM    4  C   UNL     3      -8.573   9.250  70.029  1.00  0.00    -0.182 C  
HETATM    5  H   UNL     2     -11.641   6.217  65.480  1.00  0.00     0.000 HD 
HETATM    6  O   UNL     3      -9.463   9.415  71.146  1.00  0.00    -0.242 OA 
HETATM    7  O   UNL     3     -11.707   9.899  68.360  1.00  0.00    -0.534 OA 
HETATM    8  C   UNL     3      -9.365   9.712  68.814  1.00  0.00    -0.148 C  
HETATM    9  C   UNL     2     -10.418   6.396  68.604  1.00  0.00    -0.223 C  
HETATM   10  O   UNL     2      -8.799   5.513  65.577  1.00  0.00    -0.153 OA 
HETATM   11  C   UNL     3     -10.723   9.650  70.667  1.00  0.00    -0.322 C  
HETATM   12  C   UNL     2     -10.449   6.264  67.144  1.00  0.00    -0.263 C  
HETATM   13  O   UNL     2     -11.621   6.302  66.426  1.00  0.00     0.453 OA 
HETATM   14  O   UNL     2     -11.395   6.522  69.326  1.00  0.00    -0.335 OA 
HETATM   15  C   UNL     2      -9.225   5.928  66.684  1.00  0.00    -0.140 C  
HETATM   16  O   UNL     3      -8.808   9.784  67.683  1.00  0.00    -0.125 OA 
HETATM   17  H   UNL     3     -11.652   9.992  67.415  1.00  0.00     0.000 HD 
HETATM   18  C   UNL     3     -10.639   9.794  69.212  1.00  0.00    -0.221 C  
HETATM   19  O   UNL     3     -11.714   9.776  71.380  1.00  0.00    -0.365 OA 
ENDROOT
BRANCH   2  20
HETATM   20  C   UNL     2      -7.090   7.028  67.906  1.00  0.00    -0.086 C  
HETATM   21  O   UNL     2      -6.028   6.562  68.762  1.00  0.00    -0.020 OA 
HETATM   22  H   UNL     2      -5.321   7.196  68.786  1.00  0.00     0.000 HD 
BRANCH  20  23
HETATM   23  C   UNL     2      -6.382   7.540  66.646  1.00  0.00    -0.045 C  
HETATM   24  H   UNL     2      -5.598   9.268  65.920  1.00  0.00     0.000 HD 
HETATM   25  O   UNL     2      -6.037   8.950  66.700  1.00  0.00    -0.058 OA 
ENDBRANCH  20  23
ENDBRANCH   2  20
BRANCH   4  26
HETATM   26  C   UNL     3      -7.174   9.786  70.409  1.00  0.00    -0.142 C  
HETATM   27  H   UNL     3      -5.214   9.294  70.194  1.00  0.00     0.000 HD 
HETATM   28  O   UNL     3      -6.074   8.965  69.962  1.00  0.00    -0.036 OA 
BRANCH  26  29
HETATM   29  C   UNL     3      -6.963  11.245  70.017  1.00  0.00     0.192 C  
HETATM   30  O   UNL     3      -6.274  11.329  68.763  1.00  0.00    -0.044 OA 
HETATM   31  H   UNL     3      -6.143  12.237  68.519  1.00  0.00     0.000 HD 
ENDBRANCH  26  29
ENDBRANCH   4  26
TORSDOF 4
ENDMDL
MODEL      136
REMARK 921   NORMALIZED FREE ENERGY PREDICTED BY IDOCK:   -2.53 KCAL/MOL
REMARK 922        TOTAL FREE ENERGY PREDICTED BY IDOCK:   -3.99 KCAL/MOL
REMARK 923 INTER-LIGAND FREE ENERGY PREDICTED BY IDOCK:   -3.33 KCAL/MOL
REMARK 924 INTRA-LIGAND FREE ENERGY PREDICTED BY IDOCK:   -0.66 KCAL/MOL
REMARK 927      BINDING AFFINITY PREDICTED BY RF-SCORE:    0.00 PKD
ROOT
HETATM    1 ZN   UNL     1      -7.386  15.101  67.493  1.00  0.00    -0.100 Zn 
HETATM    2  C   UNL     2      -8.338  12.191  66.087  1.00  0.00     0.324 C  
HETATM    3  O   UNL     2      -9.117  11.010  65.756  1.00  0.00    -0.192 OA 
HETATM    4  C   UNL     3      -7.895   8.575  67.571  1.00  0.00    -0.099 C  
HETATM    5  H   UNL     2     -11.636  13.569  68.186  1.00  0.00     0.000 HD 
HETATM    6  O   UNL     3      -8.706   7.440  67.225  1.00  0.00    -0.120 OA 
HETATM    7  O   UNL     3     -10.850   9.170  69.558  1.00  0.00    -0.264 OA 
HETATM    8  C   UNL     3      -8.594   9.219  68.761  1.00  0.00    -0.131 C  
HETATM    9  C   UNL     2     -10.340  11.058  66.369  1.00  0.00    -0.250 C  
HETATM   10  O   UNL     2      -9.010  14.265  67.088  1.00  0.00    -0.204 OA 
HETATM   11  C   UNL     3      -9.896   7.534  67.894  1.00  0.00    -0.154 C  
HETATM   12  C   UNL     2     -10.428  12.332  67.090  1.00  0.00    -0.219 C  
HETATM   13  O   UNL     2     -11.579  12.744  67.720  1.00  0.00    -0.309 OA 
HETATM   14  O   UNL     2     -11.252  10.258  66.228  1.00  0.00     0.224 OA 
HETATM   15  C   UNL     2      -9.315  13.064  66.872  1.00  0.00    -0.241 C  
HETATM   16  O   UNL     3      -8.057  10.191  69.363  1.00  0.00    -0.133 OA 
HETATM   17  H   UNL     3     -10.795   9.907  70.156  1.00  0.00     0.000 HD 
HETATM   18  C   UNL     3      -9.812   8.670  68.815  1.00  0.00    -0.172 C  
HETATM   19  O   UNL     3     -10.822   6.740  67.761  1.00  0.00    -0.244 OA 
ENDROOT
BRANCH   2  20
HETATM   20  C   UNL     2      -6.969  11.748  66.719  1.00  0.00    -0.047 C  
HETATM   21  O   UNL     2      -5.958  11.635  65.697  1.00  0.00    -0.392 OA 
HETATM   22  H   UNL     2      -5.131  11.368  66.078  1.00  0.00     0.000 HD 
BRANCH  20  23
HETATM   23  C   UNL     2      -6.288  12.509  67.863  1.00  0.00    -0.103 C  
HETATM   24  H   UNL     2      -4.773  13.833  68.139  1.00  0.00     0.000 HD 
HETATM   25  O   UNL     2      -5.194  13.361  67.430  1.00  0.00    -0.330 OA 
ENDBRANCH  20  23
ENDBRANCH   2  20
BRANCH   4  26
HETATM   26  C   UNL     3      -6.407   8.162  67.558  1.00  0.00    -0.056 C  
HETATM   27  H   UNL     3      -4.715   8.420  68.654  1.00  0.00     0.000 HD 
HETATM   28  O   UNL     3      -5.630   8.675  68.662  1.00  0.00    -0.036 OA 
BRANCH  26  29
HETATM   29  C   UNL     3      -6.202   6.658  67.397  1.00  0.00    -0.033 C  
HETATM   30  O   UNL     3      -6.551   5.976  68.608  1.00  0.00    -0.053 OA 
HETATM   31  H   UNL     3      -6.423   5.040  68.507  1.00  0.00     0.000 HD 
ENDBRANCH  26  29
ENDBRANCH   4  26
TORSDOF 4
ENDMDL
MODEL      137
REMARK 921   NORMALIZED FREE ENERGY PREDICTED BY IDOCK:   -2.51 KCAL/MOL
REMARK 922        TOTAL FREE ENERGY PREDICTED BY IDOCK:   -3.98 KCAL/MOL
REMARK 923 INTER-LIGAND FREE ENERGY PREDICTED BY IDOCK:   -3.36 KCAL/MOL
REMARK 924 INTRA-LIGAND FREE ENERGY PREDICTED BY IDOCK:   -0.62 KCAL/MOL
REMARK 927      BINDING AFFINITY PREDICTED BY RF-SCORE:    0.00 PKD
ROOT
HETATM    1 ZN   UNL     1      -7.675   4.127  69.904  1.00  0.00    -0.048 Zn 
HETATM    2  C   UNL     2      -9.282   5.367  67.215  1.00  0.00    -0.111 C  
HETATM    3  O   UNL     2      -9.556   5.829  65.865  1.00  0.00    -0.110 OA 
HETATM    4  C   UNL     3      -9.271   9.089  65.945  1.00  0.00    -0.230 C  
HETATM    5  H   UNL     2      -5.631   3.986  65.819  1.00  0.00     0.000 HD 
HETATM    6  O   UNL     3      -9.530   9.496  64.590  1.00  0.00    -0.228 OA 
HETATM    7  O   UNL     3      -6.095   8.406  64.370  1.00  0.00    -0.064 OA 
HETATM    8  C   UNL     3      -7.765   8.876  66.018  1.00  0.00    -0.098 C  
HETATM    9  C   UNL     2      -8.475   5.602  65.055  1.00  0.00    -0.135 C  
HETATM   10  O   UNL     2      -7.534   3.950  68.047  1.00  0.00    -0.065 OA 
HETATM   11  C   UNL     3      -8.404   9.273  63.846  1.00  0.00    -0.179 C  
HETATM   12  C   UNL     2      -7.457   4.910  65.852  1.00  0.00    -0.082 C  
HETATM   13  O   UNL     2      -6.290   4.434  65.303  1.00  0.00    -0.033 OA 
HETATM   14  O   UNL     2      -8.418   5.804  63.852  1.00  0.00    -0.079 OA 
HETATM   15  C   UNL     2      -7.928   4.671  67.094  1.00  0.00    -0.102 C  
HETATM   16  O   UNL     3      -7.215   8.611  67.124  1.00  0.00    -0.075 OA 
HETATM   17  H   UNL     3      -5.401   8.134  64.959  1.00  0.00     0.000 HD 
HETATM   18  C   UNL     3      -7.333   8.853  64.753  1.00  0.00    -0.097 C  
HETATM   19  O   UNL     3      -8.332   9.468  62.637  1.00  0.00    -0.143 OA 
ENDROOT
BRANCH   2  20
HETATM   20  C   UNL     2      -9.488   6.555  68.221  1.00  0.00    -0.118 C  
HETATM   21  O   UNL     2     -10.833   6.545  68.740  1.00  0.00    -0.251 OA 
HETATM   22  H   UNL     2     -10.958   7.264  69.349  1.00  0.00     0.000 HD 
BRANCH  20  23
HETATM   23  C   UNL     2      -8.595   6.780  69.448  1.00  0.00    -0.132 C  
HETATM   24  H   UNL     2      -8.447   6.156  71.375  1.00  0.00     0.000 HD 
HETATM   25  O   UNL     2      -9.000   6.017  70.615  1.00  0.00    -0.143 OA 
ENDBRANCH  20  23
ENDBRANCH   2  20
BRANCH   4  26
HETATM   26  C   UNL     3     -10.068   9.994  66.910  1.00  0.00    -0.229 C  
HETATM   27  H   UNL     3     -11.271   9.843  68.541  1.00  0.00     0.000 HD 
HETATM   28  O   UNL     3     -10.782   9.287  67.947  1.00  0.00    -0.242 OA 
BRANCH  26  29
HETATM   29  C   UNL     3      -9.234  11.129  67.497  1.00  0.00    -0.153 C  
HETATM   30  O   UNL     3      -9.411  12.326  66.729  1.00  0.00    -0.209 OA 
HETATM   31  H   UNL     3      -8.892  13.032  67.094  1.00  0.00     0.000 HD 
ENDBRANCH  26  29
ENDBRANCH   4  26
TORSDOF 4
ENDMDL
MODEL      138
REMARK 921   NORMALIZED FREE ENERGY PREDICTED BY IDOCK:   -2.50 KCAL/MOL
REMARK 922        TOTAL FREE ENERGY PREDICTED BY IDOCK:   -3.97 KCAL/MOL
REMARK 923 INTER-LIGAND FREE ENERGY PREDICTED BY IDOCK:   -3.68 KCAL/MOL
REMARK 924 INTRA-LIGAND FREE ENERGY PREDICTED BY IDOCK:   -0.29 KCAL/MOL
REMARK 927      BINDING AFFINITY PREDICTED BY RF-SCORE:    0.00 PKD
ROOT
HETATM    1 ZN   UNL     1      -6.089   4.996  64.988  1.00  0.00    -0.022 Zn 
HETATM    2  C   UNL     2      -6.455   7.294  67.425  1.00  0.00    -0.059 C  
HETATM    3  O   UNL     2      -6.866   7.940  68.659  1.00  0.00    -0.059 OA 
HETATM    4  C   UNL     3      -9.438   9.814  67.891  1.00  0.00    -0.130 C  
HETATM    5  H   UNL     2      -8.069   3.783  68.925  1.00  0.00     0.000 HD 
HETATM    6  O   UNL     3      -9.820  10.413  69.141  1.00  0.00    -0.203 OA 
HETATM    7  O   UNL     3     -11.291   7.130  69.440  1.00  0.00    -0.473 OA 
HETATM    8  C   UNL     3     -10.247   8.527  67.801  1.00  0.00    -0.225 C  
HETATM    9  C   UNL     2      -7.551   7.060  69.454  1.00  0.00    -0.099 C  
HETATM   10  O   UNL     2      -6.394   4.970  66.834  1.00  0.00    -0.037 OA 
HETATM   11  C   UNL     3     -10.525   9.494  69.868  1.00  0.00    -0.240 C  
HETATM   12  C   UNL     2      -7.556   5.760  68.776  1.00  0.00    -0.089 C  
HETATM   13  O   UNL     2      -8.066   4.626  69.363  1.00  0.00    -0.069 OA 
HETATM   14  O   UNL     2      -7.959   7.272  70.584  1.00  0.00    -0.097 OA 
HETATM   15  C   UNL     2      -6.844   5.832  67.632  1.00  0.00    -0.060 C  
HETATM   16  O   UNL     3     -10.206   7.823  66.753  1.00  0.00    -0.273 OA 
HETATM   17  H   UNL     3     -11.434   6.367  68.892  1.00  0.00     0.000 HD 
HETATM   18  C   UNL     3     -10.745   8.317  69.024  1.00  0.00    -0.079 C  
HETATM   19  O   UNL     3     -10.938   9.692  71.006  1.00  0.00    -0.315 OA 
ENDROOT
BRANCH   2  20
HETATM   20  C   UNL     2      -7.010   8.110  66.202  1.00  0.00    -0.058 C  
HETATM   21  O   UNL     2      -6.116   9.192  65.874  1.00  0.00    -0.051 OA 
HETATM   22  H   UNL     2      -6.452   9.685  65.135  1.00  0.00     0.000 HD 
BRANCH  20  23
HETATM   23  C   UNL     2      -7.361   7.467  64.855  1.00  0.00    -0.080 C  
HETATM   24  H   UNL     2      -8.551   5.994  64.120  1.00  0.00     0.000 HD 
HETATM   25  O   UNL     2      -8.333   6.393  64.954  1.00  0.00    -0.132 OA 
ENDBRANCH  20  23
ENDBRANCH   2  20
BRANCH   4  26
HETATM   26  C   UNL     3      -9.409  10.899  66.792  1.00  0.00    -0.165 C  
HETATM   27  H   UNL     3     -10.051  11.195  64.887  1.00  0.00     0.000 HD 
HETATM   28  O   UNL     3     -10.068  10.528  65.562  1.00  0.00    -0.264 OA 
BRANCH  26  29
HETATM   29  C   UNL     3      -9.889  12.263  67.281  1.00  0.00    -0.205 C  
HETATM   30  O   UNL     3      -8.932  12.834  68.180  1.00  0.00    -0.192 OA 
HETATM   31  H   UNL     3      -9.231  13.683  68.484  1.00  0.00     0.000 HD 
ENDBRANCH  26  29
ENDBRANCH   4  26
TORSDOF 4
ENDMDL
MODEL      139
REMARK 921   NORMALIZED FREE ENERGY PREDICTED BY IDOCK:   -2.49 KCAL/MOL
REMARK 922        TOTAL FREE ENERGY PREDICTED BY IDOCK:   -3.95 KCAL/MOL
REMARK 923 INTER-LIGAND FREE ENERGY PREDICTED BY IDOCK:   -3.30 KCAL/MOL
REMARK 924 INTRA-LIGAND FREE ENERGY PREDICTED BY IDOCK:   -0.65 KCAL/MOL
REMARK 927      BINDING AFFINITY PREDICTED BY RF-SCORE:    0.00 PKD
ROOT
HETATM    1 ZN   UNL     1      -5.608   5.569  64.859  1.00  0.00    -0.013 Zn 
HETATM    2  C   UNL     2      -8.649   4.923  66.158  1.00  0.00    -0.116 C  
HETATM    3  O   UNL     2      -9.981   5.109  66.708  1.00  0.00    -0.163 OA 
HETATM    4  C   UNL     3      -9.657   4.901  69.959  1.00  0.00    -0.191 C  
HETATM    5  H   UNL     2      -8.614   8.981  65.314  1.00  0.00     0.000 HD 
HETATM    6  O   UNL     3     -10.989   5.111  70.458  1.00  0.00    -0.072 OA 
HETATM    7  O   UNL     3      -9.937   8.495  69.771  1.00  0.00    -0.184 OA 
HETATM    8  C   UNL     3      -9.027   6.286  69.905  1.00  0.00    -0.141 C  
HETATM    9  C   UNL     2     -10.330   6.433  66.675  1.00  0.00    -0.155 C  
HETATM   10  O   UNL     2      -7.279   6.411  64.869  1.00  0.00    -0.061 OA 
HETATM   11  C   UNL     3     -11.260   6.452  70.427  1.00  0.00    -0.372 C  
HETATM   12  C   UNL     2      -9.237   7.166  66.028  1.00  0.00    -0.022 C  
HETATM   13  O   UNL     2      -9.322   8.506  65.733  1.00  0.00    -0.195 OA 
HETATM   14  O   UNL     2     -11.410   6.904  66.991  1.00  0.00    -0.304 OA 
HETATM   15  C   UNL     2      -8.278   6.305  65.627  1.00  0.00    -0.143 C  
HETATM   16  O   UNL     3      -7.808   6.418  69.602  1.00  0.00    -0.103 OA 
HETATM   17  H   UNL     3      -9.141   8.952  69.524  1.00  0.00     0.000 HD 
HETATM   18  C   UNL     3     -10.033   7.156  70.045  1.00  0.00    -0.179 C  
HETATM   19  O   UNL     3     -12.342   6.940  70.738  1.00  0.00    -0.376 OA 
ENDROOT
BRANCH   2  20
HETATM   20  C   UNL     2      -7.746   4.199  67.220  1.00  0.00    -0.088 C  
HETATM   21  O   UNL     2      -8.243   2.872  67.481  1.00  0.00    -0.078 OA 
HETATM   22  H   UNL     2      -7.697   2.435  68.123  1.00  0.00     0.000 HD 
BRANCH  20  23
HETATM   23  C   UNL     2      -6.231   4.026  67.054  1.00  0.00    -0.032 C  
HETATM   24  H   UNL     2      -4.509   4.933  67.634  1.00  0.00     0.000 HD 
HETATM   25  O   UNL     2      -5.447   5.040  67.737  1.00  0.00    -0.011 OA 
ENDBRANCH  20  23
ENDBRANCH   2  20
BRANCH   4  26
HETATM   26  C   UNL     3      -9.027   3.689  70.681  1.00  0.00    -0.097 C  
HETATM   27  H   UNL     3      -9.103   1.658  70.657  1.00  0.00     0.000 HD 
HETATM   28  O   UNL     3      -9.490   2.404  70.214  1.00  0.00    -0.130 OA 
BRANCH  26  29
HETATM   29  C   UNL     3      -7.503   3.739  70.723  1.00  0.00    -0.041 C  
HETATM   30  O   UNL     3      -6.951   2.513  70.227  1.00  0.00    -0.033 OA 
HETATM   31  H   UNL     3      -6.002   2.545  70.253  1.00  0.00     0.000 HD 
ENDBRANCH  26  29
ENDBRANCH   4  26
TORSDOF 4
ENDMDL
MODEL      140
REMARK 921   NORMALIZED FREE ENERGY PREDICTED BY IDOCK:   -2.46 KCAL/MOL
REMARK 922        TOTAL FREE ENERGY PREDICTED BY IDOCK:   -3.91 KCAL/MOL
REMARK 923 INTER-LIGAND FREE ENERGY PREDICTED BY IDOCK:   -3.08 KCAL/MOL
REMARK 924 INTRA-LIGAND FREE ENERGY PREDICTED BY IDOCK:   -0.83 KCAL/MOL
REMARK 927      BINDING AFFINITY PREDICTED BY RF-SCORE:    0.00 PKD
ROOT
HETATM    1 ZN   UNL     1     -12.246   4.710  72.700  1.00  0.00    -0.107 Zn 
HETATM    2  C   UNL     2      -9.215   6.176  72.568  1.00  0.00    -0.137 C  
HETATM    3  O   UNL     2      -8.169   7.162  72.357  1.00  0.00    -0.104 OA 
HETATM    4  C   UNL     3      -6.852   6.477  69.439  1.00  0.00    -0.065 C  
HETATM    5  H   UNL     2     -11.967   9.191  71.844  1.00  0.00     0.000 HD 
HETATM    6  O   UNL     3      -5.842   7.485  69.266  1.00  0.00    -0.025 OA 
HETATM    7  O   UNL     3      -8.832   9.304  68.379  1.00  0.00    -0.128 OA 
HETATM    8  C   UNL     3      -8.114   7.064  68.821  1.00  0.00    -0.121 C  
HETATM    9  C   UNL     2      -8.714   8.366  71.998  1.00  0.00    -0.202 C  
HETATM   10  O   UNL     2     -11.584   6.456  72.824  1.00  0.00    -0.200 OA 
HETATM   11  C   UNL     3      -6.449   8.648  68.879  1.00  0.00    -0.049 C  
HETATM   12  C   UNL     2     -10.173   8.221  72.026  1.00  0.00    -0.269 C  
HETATM   13  O   UNL     2     -11.022   9.284  71.826  1.00  0.00    -0.369 OA 
HETATM   14  O   UNL     2      -8.108   9.412  71.828  1.00  0.00    -0.209 OA 
HETATM   15  C   UNL     2     -10.506   6.983  72.446  1.00  0.00    -0.209 C  
HETATM   16  O   UNL     3      -9.160   6.362  68.726  1.00  0.00    -0.126 OA 
HETATM   17  H   UNL     3      -9.752   9.120  68.227  1.00  0.00     0.000 HD 
HETATM   18  C   UNL     3      -7.867   8.366  68.645  1.00  0.00    -0.116 C  
HETATM   19  O   UNL     3      -5.854   9.707  68.707  1.00  0.00    -0.039 OA 
ENDROOT
BRANCH   2  20
HETATM   20  C   UNL     2      -8.952   4.933  71.643  1.00  0.00    -0.138 C  
HETATM   21  O   UNL     2      -8.046   4.014  72.285  1.00  0.00    -0.082 OA 
HETATM   22  H   UNL     2      -7.887   3.263  71.726  1.00  0.00     0.000 HD 
BRANCH  20  23
HETATM   23  C   UNL     2     -10.075   4.053  71.083  1.00  0.00    -0.041 C  
HETATM   24  H   UNL     2     -10.295   2.350  69.998  1.00  0.00     0.000 HD 
HETATM   25  O   UNL     2      -9.600   2.896  70.345  1.00  0.00    -0.153 OA 
ENDBRANCH  20  23
ENDBRANCH   2  20
BRANCH   4  26
HETATM   26  C   UNL     3      -6.265   5.097  69.068  1.00  0.00    -0.030 C  
HETATM   27  H   UNL     3      -5.939   3.274  69.904  1.00  0.00     0.000 HD 
HETATM   28  O   UNL     3      -6.299   4.122  70.132  1.00  0.00    -0.026 OA 
BRANCH  26  29
HETATM   29  C   UNL     3      -6.848   4.522  67.780  1.00  0.00    -0.055 C  
HETATM   30  O   UNL     3      -8.060   3.810  68.058  1.00  0.00    -0.082 OA 
HETATM   31  H   UNL     3      -8.423   3.452  67.256  1.00  0.00     0.000 HD 
ENDBRANCH  26  29
ENDBRANCH   4  26
TORSDOF 4
ENDMDL
MODEL      141
REMARK 921   NORMALIZED FREE ENERGY PREDICTED BY IDOCK:   -2.27 KCAL/MOL
REMARK 922        TOTAL FREE ENERGY PREDICTED BY IDOCK:   -3.68 KCAL/MOL
REMARK 923 INTER-LIGAND FREE ENERGY PREDICTED BY IDOCK:   -2.78 KCAL/MOL
REMARK 924 INTRA-LIGAND FREE ENERGY PREDICTED BY IDOCK:   -0.90 KCAL/MOL
REMARK 927      BINDING AFFINITY PREDICTED BY RF-SCORE:    0.00 PKD
ROOT
HETATM    1 ZN   UNL     1      -7.165   1.625  72.588  1.00  0.00    -0.019 Zn 
HETATM    2  C   UNL     2      -8.911   3.714  70.603  1.00  0.00    -0.097 C  
HETATM    3  O   UNL     2      -9.260   4.611  69.515  1.00  0.00    -0.102 OA 
HETATM    4  C   UNL     3      -8.898   7.645  70.689  1.00  0.00    -0.145 C  
HETATM    5  H   UNL     2      -5.389   2.900  68.575  1.00  0.00     0.000 HD 
HETATM    6  O   UNL     3      -9.233   8.493  69.578  1.00  0.00    -0.149 OA 
HETATM    7  O   UNL     3      -5.845   7.548  68.765  1.00  0.00    -0.022 OA 
HETATM    8  C   UNL     3      -7.395   7.421  70.584  1.00  0.00    -0.070 C  
HETATM    9  C   UNL     2      -8.239   4.678  68.605  1.00  0.00    -0.082 C  
HETATM   10  O   UNL     2      -7.146   2.098  70.778  1.00  0.00    -0.032 OA 
HETATM   11  C   UNL     3      -8.162   8.540  68.727  1.00  0.00    -0.122 C  
HETATM   12  C   UNL     2      -7.188   3.755  69.046  1.00  0.00    -0.050 C  
HETATM   13  O   UNL     2      -6.069   3.497  68.290  1.00  0.00    -0.029 OA 
HETATM   14  O   UNL     2      -8.254   5.281  67.544  1.00  0.00    -0.100 OA 
HETATM   15  C   UNL     2      -7.584   3.102  70.159  1.00  0.00    -0.044 C  
HETATM   16  O   UNL     3      -6.782   6.793  71.491  1.00  0.00    -0.058 OA 
HETATM   17  H   UNL     3      -5.120   7.090  69.177  1.00  0.00     0.000 HD 
HETATM   18  C   UNL     3      -7.046   7.835  69.361  1.00  0.00    -0.071 C  
HETATM   19  O   UNL     3      -8.163   9.139  67.657  1.00  0.00    -0.108 OA 
ENDROOT
BRANCH   2  20
HETATM   20  C   UNL     2      -9.027   4.483  71.968  1.00  0.00    -0.125 C  
HETATM   21  O   UNL     2     -10.370   4.972  72.156  1.00  0.00    -0.204 OA 
HETATM   22  H   UNL     2     -10.439   5.437  72.981  1.00  0.00     0.000 HD 
BRANCH  20  23
HETATM   23  C   UNL     2      -8.642   3.862  73.315  1.00  0.00    -0.091 C  
HETATM   24  H   UNL     2      -8.928   2.137  74.349  1.00  0.00     0.000 HD 
HETATM   25  O   UNL     2      -9.167   2.523  73.515  1.00  0.00    -0.083 OA 
ENDBRANCH  20  23
ENDBRANCH   2  20
BRANCH   4  26
HETATM   26  C   UNL     3      -9.611   8.163  71.958  1.00  0.00    -0.219 C  
HETATM   27  H   UNL     3      -9.323   9.495  73.465  1.00  0.00     0.000 HD 
HETATM   28  O   UNL     3      -8.884   9.177  72.686  1.00  0.00    -0.102 OA 
BRANCH  26  29
HETATM   29  C   UNL     3     -11.051   8.599  71.704  1.00  0.00    -0.305 C  
HETATM   30  O   UNL     3     -11.082   9.932  71.180  1.00  0.00    -0.350 OA 
HETATM   31  H   UNL     3     -11.979  10.203  71.022  1.00  0.00     0.000 HD 
ENDBRANCH  26  29
ENDBRANCH   4  26
TORSDOF 4
ENDMDL
MODEL      142
REMARK 921   NORMALIZED FREE ENERGY PREDICTED BY IDOCK:   -2.24 KCAL/MOL
REMARK 922        TOTAL FREE ENERGY PREDICTED BY IDOCK:   -3.65 KCAL/MOL
REMARK 923 INTER-LIGAND FREE ENERGY PREDICTED BY IDOCK:   -3.23 KCAL/MOL
REMARK 924 INTRA-LIGAND FREE ENERGY PREDICTED BY IDOCK:   -0.42 KCAL/MOL
REMARK 927      BINDING AFFINITY PREDICTED BY RF-SCORE:    0.00 PKD
ROOT
HETATM    1 ZN   UNL     1     -11.242   4.645  66.543  1.00  0.00    -0.333 Zn 
HETATM    2  C   UNL     2      -8.484   6.326  67.501  1.00  0.00    -0.108 C  
HETATM    3  O   UNL     2      -7.612   7.385  67.979  1.00  0.00    -0.108 OA 
HETATM    4  C   UNL     3      -6.292   8.748  65.311  1.00  0.00    -0.060 C  
HETATM    5  H   UNL     2     -11.694   8.754  68.492  1.00  0.00     0.000 HD 
HETATM    6  O   UNL     3      -5.458   9.797  65.830  1.00  0.00    -0.042 OA 
HETATM    7  O   UNL     3      -8.721  11.335  65.973  1.00  0.00    -0.188 OA 
HETATM    8  C   UNL     3      -7.648   9.396  65.068  1.00  0.00    -0.109 C  
HETATM    9  C   UNL     2      -8.349   8.476  68.357  1.00  0.00    -0.124 C  
HETATM   10  O   UNL     2     -10.858   6.057  67.709  1.00  0.00    -0.281 OA 
HETATM   11  C   UNL     3      -6.251  10.863  66.156  1.00  0.00    -0.130 C  
HETATM   12  C   UNL     2      -9.766   8.134  68.195  1.00  0.00    -0.161 C  
HETATM   13  O   UNL     2     -10.777   8.975  68.597  1.00  0.00    -0.188 OA 
HETATM   14  O   UNL     2      -7.920   9.495  68.873  1.00  0.00    -0.088 OA 
HETATM   15  C   UNL     2      -9.888   6.854  67.786  1.00  0.00    -0.136 C  
HETATM   16  O   UNL     3      -8.574   8.743  64.510  1.00  0.00    -0.167 OA 
HETATM   17  H   UNL     3      -9.605  11.146  65.680  1.00  0.00     0.000 HD 
HETATM   18  C   UNL     3      -7.614  10.572  65.705  1.00  0.00    -0.142 C  
HETATM   19  O   UNL     3      -5.835  11.892  66.678  1.00  0.00    -0.221 OA 
ENDROOT
BRANCH   2  20
HETATM   20  C   UNL     2      -8.056   5.920  66.045  1.00  0.00    -0.115 C  
HETATM   21  O   UNL     2      -6.873   5.097  66.081  1.00  0.00    -0.058 OA 
HETATM   22  H   UNL     2      -6.615   4.852  65.200  1.00  0.00     0.000 HD 
BRANCH  20  23
HETATM   23  C   UNL     2      -8.998   5.213  65.062  1.00  0.00    -0.106 C  
HETATM   24  H   UNL     2      -9.550   3.326  64.552  1.00  0.00     0.000 HD 
HETATM   25  O   UNL     2      -8.967   3.764  65.161  1.00  0.00    -0.122 OA 
ENDBRANCH  20  23
ENDBRANCH   2  20
BRANCH   4  26
HETATM   26  C   UNL     3      -5.507   7.953  64.243  1.00  0.00    -0.040 C  
HETATM   27  H   UNL     3      -5.522   6.131  63.343  1.00  0.00     0.000 HD 
HETATM   28  O   UNL     3      -6.004   6.619  63.999  1.00  0.00    -0.033 OA 
BRANCH  26  29
HETATM   29  C   UNL     3      -5.328   8.718  62.935  1.00  0.00    -0.070 C  
HETATM   30  O   UNL     3      -6.604   9.009  62.351  1.00  0.00    -0.096 OA 
HETATM   31  H   UNL     3      -6.492   9.485  61.536  1.00  0.00     0.000 HD 
ENDBRANCH  26  29
ENDBRANCH   4  26
TORSDOF 4
ENDMDL
MODEL      143
REMARK 921   NORMALIZED FREE ENERGY PREDICTED BY IDOCK:   -2.18 KCAL/MOL
REMARK 922        TOTAL FREE ENERGY PREDICTED BY IDOCK:   -3.57 KCAL/MOL
REMARK 923 INTER-LIGAND FREE ENERGY PREDICTED BY IDOCK:   -5.85 KCAL/MOL
REMARK 924 INTRA-LIGAND FREE ENERGY PREDICTED BY IDOCK:    2.28 KCAL/MOL
REMARK 927      BINDING AFFINITY PREDICTED BY RF-SCORE:    0.00 PKD
ROOT
HETATM    1 ZN   UNL     1      -7.402  19.413  65.692  1.00  0.00    -0.233 Zn 
HETATM    2  C   UNL     2      -9.994  17.632  66.899  1.00  0.00    -0.323 C  
HETATM    3  O   UNL     2     -10.801  16.781  67.757  1.00  0.00    -0.341 OA 
HETATM    4  C   UNL     3     -10.635  13.775  66.472  1.00  0.00    -0.279 C  
HETATM    5  H   UNL     2      -7.153  17.688  69.917  1.00  0.00     0.000 HD 
HETATM    6  O   UNL     3     -11.427  12.970  67.361  1.00  0.00    -0.294 OA 
HETATM    7  O   UNL     3      -8.327  13.222  69.192  1.00  0.00    -0.301 OA 
HETATM    8  C   UNL     3      -9.217  13.704  67.024  1.00  0.00    -0.250 C  
HETATM    9  C   UNL     2     -10.126  16.490  68.912  1.00  0.00    -0.266 C  
HETATM   10  O   UNL     2      -8.006  18.885  67.382  1.00  0.00    -0.244 OA 
HETATM   11  C   UNL     3     -10.684  12.690  68.475  1.00  0.00    -0.248 C  
HETATM   12  C   UNL     2      -8.848  17.210  68.875  1.00  0.00    -0.186 C  
HETATM   13  O   UNL     2      -7.980  17.223  69.941  1.00  0.00     0.863 OA 
HETATM   14  O   UNL     2     -10.561  15.866  69.867  1.00  0.00    -0.286 OA 
HETATM   15  C   UNL     2      -8.775  17.963  67.757  1.00  0.00    -0.250 C  
HETATM   16  O   UNL     3      -8.262  14.234  66.390  1.00  0.00     0.344 OA 
HETATM   17  H   UNL     3      -7.445  13.547  69.048  1.00  0.00     0.000 HD 
HETATM   18  C   UNL     3      -9.325  13.190  68.253  1.00  0.00    -0.201 C  
HETATM   19  O   UNL     3     -11.109  12.067  69.443  1.00  0.00    -0.213 OA 
ENDROOT
BRANCH   2  20
HETATM   20  C   UNL     2      -9.828  16.945  65.496  1.00  0.00     0.107 C  
HETATM   21  O   UNL     2      -8.625  16.151  65.466  1.00  0.00    -0.070 OA 
HETATM   22  H   UNL     2      -8.525  15.736  64.617  1.00  0.00     0.000 HD 
BRANCH  20  23
HETATM   23  C   UNL     2     -10.904  16.052  64.867  1.00  0.00    -0.372 C  
HETATM   24  H   UNL     2     -12.426  16.190  63.529  1.00  0.00     0.000 HD 
HETATM   25  O   UNL     2     -11.759  16.744  63.918  1.00  0.00    -1.076 OA 
ENDBRANCH  20  23
ENDBRANCH   2  20
BRANCH   4  26
HETATM   26  C   UNL     3     -11.014  13.446  65.011  1.00  0.00    -0.316 C  
HETATM   27  H   UNL     3     -10.313  12.383  63.427  1.00  0.00     0.000 HD 
HETATM   28  O   UNL     3     -10.080  12.586  64.325  1.00  0.00    -0.320 OA 
BRANCH  26  29
HETATM   29  C   UNL     3     -12.443  12.931  64.862  1.00  0.00    -0.478 C  
HETATM   30  O   UNL     3     -13.362  13.821  65.507  1.00  0.00    -0.613 OA 
HETATM   31  H   UNL     3     -14.252  13.500  65.414  1.00  0.00     0.000 HD 
ENDBRANCH  26  29
ENDBRANCH   4  26
TORSDOF 4
ENDMDL
MODEL      144
REMARK 921   NORMALIZED FREE ENERGY PREDICTED BY IDOCK:   -2.17 KCAL/MOL
REMARK 922        TOTAL FREE ENERGY PREDICTED BY IDOCK:   -3.55 KCAL/MOL
REMARK 923 INTER-LIGAND FREE ENERGY PREDICTED BY IDOCK:   -3.13 KCAL/MOL
REMARK 924 INTRA-LIGAND FREE ENERGY PREDICTED BY IDOCK:   -0.42 KCAL/MOL
REMARK 927      BINDING AFFINITY PREDICTED BY RF-SCORE:    0.00 PKD
ROOT
HETATM    1 ZN   UNL     1     -11.850   9.312  68.899  1.00  0.00    -0.440 Zn 
HETATM    2  C   UNL     2      -9.630   7.816  70.945  1.00  0.00    -0.167 C  
HETATM    3  O   UNL     2      -8.399   7.238  71.456  1.00  0.00    -0.108 OA 
HETATM    4  C   UNL     3      -8.673   4.002  71.038  1.00  0.00    -0.085 C  
HETATM    5  H   UNL     2      -7.446   9.157  67.686  1.00  0.00     0.000 HD 
HETATM    6  O   UNL     3      -7.431   3.479  71.536  1.00  0.00    -0.045 OA 
HETATM    7  O   UNL     3      -6.462   4.623  68.253  1.00  0.00    -0.036 OA 
HETATM    8  C   UNL     3      -8.435   4.254  69.555  1.00  0.00    -0.071 C  
HETATM    9  C   UNL     2      -7.378   7.420  70.561  1.00  0.00    -0.076 C  
HETATM   10  O   UNL     2      -9.992   9.336  69.125  1.00  0.00    -0.169 OA 
HETATM   11  C   UNL     3      -6.466   3.664  70.584  1.00  0.00    -0.031 C  
HETATM   12  C   UNL     2      -7.906   8.198  69.436  1.00  0.00    -0.105 C  
HETATM   13  O   UNL     2      -7.105   8.653  68.415  1.00  0.00    -0.074 OA 
HETATM   14  O   UNL     2      -6.207   7.120  70.729  1.00  0.00    -0.035 OA 
HETATM   15  C   UNL     2      -9.194   8.530  69.667  1.00  0.00    -0.157 C  
HETATM   16  O   UNL     3      -9.388   4.623  68.812  1.00  0.00    -0.121 OA 
HETATM   17  H   UNL     3      -6.881   4.958  67.468  1.00  0.00     0.000 HD 
HETATM   18  C   UNL     3      -7.112   4.181  69.376  1.00  0.00    -0.050 C  
HETATM   19  O   UNL     3      -5.285   3.371  70.739  1.00  0.00    -0.003 OA 
ENDROOT
BRANCH   2  20
HETATM   20  C   UNL     2     -10.746   6.711  70.909  1.00  0.00    -0.235 C  
HETATM   21  O   UNL     2     -11.196   6.410  72.244  1.00  0.00    -0.250 OA 
HETATM   22  H   UNL     2     -11.871   5.741  72.222  1.00  0.00     0.000 HD 
BRANCH  20  23
HETATM   23  C   UNL     2     -12.030   6.844  70.081  1.00  0.00    -0.145 C  
HETATM   24  H   UNL     2     -13.984   7.333  70.345  1.00  0.00     0.000 HD 
HETATM   25  O   UNL     2     -13.188   7.251  70.857  1.00  0.00    -0.201 OA 
ENDBRANCH  20  23
ENDBRANCH   2  20
BRANCH   4  26
HETATM   26  C   UNL     3      -9.843   3.163  71.598  1.00  0.00    -0.146 C  
HETATM   27  H   UNL     3     -10.265   1.245  72.120  1.00  0.00     0.000 HD 
HETATM   28  O   UNL     3      -9.547   1.761  71.775  1.00  0.00    -0.099 OA 
BRANCH  26  29
HETATM   29  C   UNL     3     -10.456   3.756  72.863  1.00  0.00    -0.165 C  
HETATM   30  O   UNL     3      -9.487   4.546  73.563  1.00  0.00    -0.117 OA 
HETATM   31  H   UNL     3      -9.869   4.915  74.351  1.00  0.00     0.000 HD 
ENDBRANCH  26  29
ENDBRANCH   4  26
TORSDOF 4
ENDMDL
MODEL      145
REMARK 921   NORMALIZED FREE ENERGY PREDICTED BY IDOCK:   -2.04 KCAL/MOL
REMARK 922        TOTAL FREE ENERGY PREDICTED BY IDOCK:   -3.40 KCAL/MOL
REMARK 923 INTER-LIGAND FREE ENERGY PREDICTED BY IDOCK:   -2.98 KCAL/MOL
REMARK 924 INTRA-LIGAND FREE ENERGY PREDICTED BY IDOCK:   -0.42 KCAL/MOL
REMARK 927      BINDING AFFINITY PREDICTED BY RF-SCORE:    0.00 PKD
ROOT
HETATM    1 ZN   UNL     1     -12.086   9.207  70.832  1.00  0.00    -0.269 Zn 
HETATM    2  C   UNL     2      -9.011   8.284  69.811  1.00  0.00    -0.146 C  
HETATM    3  O   UNL     2      -7.936   7.555  69.160  1.00  0.00    -0.116 OA 
HETATM    4  C   UNL     3      -6.681   5.563  71.436  1.00  0.00    -0.056 C  
HETATM    5  H   UNL     2     -11.671   5.944  67.659  1.00  0.00     0.000 HD 
HETATM    6  O   UNL     3      -5.641   4.853  70.744  1.00  0.00    -0.010 OA 
HETATM    7  O   UNL     3      -8.581   3.062  69.656  1.00  0.00    -0.058 OA 
HETATM    8  C   UNL     3      -7.931   4.711  71.264  1.00  0.00    -0.088 C  
HETATM    9  C   UNL     2      -8.445   6.568  68.359  1.00  0.00    -0.120 C  
HETATM   10  O   UNL     2     -11.365   8.315  69.353  1.00  0.00     0.129 OA 
HETATM   11  C   UNL     3      -6.214   3.865  69.990  1.00  0.00    -0.027 C  
HETATM   12  C   UNL     2      -9.908   6.662  68.412  1.00  0.00    -0.138 C  
HETATM   13  O   UNL     2     -10.724   5.884  67.625  1.00  0.00    -0.252 OA 
HETATM   14  O   UNL     2      -7.807   5.835  67.620  1.00  0.00    -0.096 OA 
HETATM   15  C   UNL     2     -10.276   7.712  69.175  1.00  0.00    -0.203 C  
HETATM   16  O   UNL     3      -9.001   5.026  71.857  1.00  0.00    -0.131 OA 
HETATM   17  H   UNL     3      -9.508   3.035  69.862  1.00  0.00     0.000 HD 
HETATM   18  C   UNL     3      -7.644   3.823  70.306  1.00  0.00    -0.044 C  
HETATM   19  O   UNL     3      -5.587   3.123  69.241  1.00  0.00    -0.016 OA 
ENDROOT
BRANCH   2  20
HETATM   20  C   UNL     2      -8.801   8.238  71.367  1.00  0.00    -0.162 C  
HETATM   21  O   UNL     2      -7.700   9.086  71.750  1.00  0.00    -0.327 OA 
HETATM   22  H   UNL     2      -7.573   9.058  72.691  1.00  0.00     0.000 HD 
BRANCH  20  23
HETATM   23  C   UNL     2      -9.913   8.559  72.373  1.00  0.00    -0.295 C  
HETATM   24  H   UNL     2     -10.609   7.889  74.159  1.00  0.00     0.000 HD 
HETATM   25  O   UNL     2      -9.921   7.690  73.536  1.00  0.00    -0.315 OA 
ENDBRANCH  20  23
ENDBRANCH   2  20
BRANCH   4  26
HETATM   26  C   UNL     3      -6.145   6.052  72.800  1.00  0.00    -0.049 C  
HETATM   27  H   UNL     3      -5.244   7.679  73.619  1.00  0.00     0.000 HD 
HETATM   28  O   UNL     3      -5.573   7.378  72.781  1.00  0.00    -0.037 OA 
BRANCH  26  29
HETATM   29  C   UNL     3      -7.159   5.910  73.931  1.00  0.00    -0.081 C  
HETATM   30  O   UNL     3      -7.186   4.559  74.407  1.00  0.00    -0.070 OA 
HETATM   31  H   UNL     3      -7.817   4.470  75.112  1.00  0.00     0.000 HD 
ENDBRANCH  26  29
ENDBRANCH   4  26
TORSDOF 4
ENDMDL
MODEL      146
REMARK 921   NORMALIZED FREE ENERGY PREDICTED BY IDOCK:   -2.00 KCAL/MOL
REMARK 922        TOTAL FREE ENERGY PREDICTED BY IDOCK:   -3.34 KCAL/MOL
REMARK 923 INTER-LIGAND FREE ENERGY PREDICTED BY IDOCK:   -2.64 KCAL/MOL
REMARK 924 INTRA-LIGAND FREE ENERGY PREDICTED BY IDOCK:   -0.70 KCAL/MOL
REMARK 927      BINDING AFFINITY PREDICTED BY RF-SCORE:    0.00 PKD
ROOT
HETATM    1 ZN   UNL     1      -9.809   9.196  72.820  1.00  0.00    -0.235 Zn 
HETATM    2  C   UNL     2      -7.529   7.441  71.067  1.00  0.00    -0.074 C  
HETATM    3  O   UNL     2      -6.764   6.897  69.959  1.00  0.00    -0.049 OA 
HETATM    4  C   UNL     3      -8.030   3.941  69.346  1.00  0.00    -0.055 C  
HETATM    5  H   UNL     2      -9.337   9.991  68.345  1.00  0.00     0.000 HD 
HETATM    6  O   UNL     3      -7.258   3.454  68.235  1.00  0.00    -0.050 OA 
HETATM    7  O   UNL     3      -9.579   5.669  66.580  1.00  0.00    -0.139 OA 
HETATM    8  C   UNL     3      -9.215   4.666  68.722  1.00  0.00    -0.129 C  
HETATM    9  C   UNL     2      -7.153   7.476  68.780  1.00  0.00    -0.080 C  
HETATM   10  O   UNL     2      -8.925   9.389  71.182  1.00  0.00    -0.267 OA 
HETATM   11  C   UNL     3      -7.718   4.046  67.091  1.00  0.00    -0.084 C  
HETATM   12  C   UNL     2      -8.166   8.489  69.095  1.00  0.00    -0.119 C  
HETATM   13  O   UNL     2      -8.681   9.335  68.142  1.00  0.00    -0.124 OA 
HETATM   14  O   UNL     2      -6.650   7.293  67.684  1.00  0.00    -0.052 OA 
HETATM   15  C   UNL     2      -8.345   8.564  70.430  1.00  0.00    -0.124 C  
HETATM   16  O   UNL     3     -10.139   5.120  69.455  1.00  0.00    -0.205 OA 
HETATM   17  H   UNL     3     -10.354   6.173  66.800  1.00  0.00     0.000 HD 
HETATM   18  C   UNL     3      -8.913   4.823  67.429  1.00  0.00    -0.109 C  
HETATM   19  O   UNL     3      -7.221   3.874  65.983  1.00  0.00    -0.066 OA 
ENDROOT
BRANCH   2  20
HETATM   20  C   UNL     2      -8.237   6.267  71.835  1.00  0.00    -0.110 C  
HETATM   21  O   UNL     2      -7.330   5.667  72.780  1.00  0.00    -0.089 OA 
HETATM   22  H   UNL     2      -7.758   4.957  73.244  1.00  0.00     0.000 HD 
BRANCH  20  23
HETATM   23  C   UNL     2      -9.550   6.443  72.607  1.00  0.00    -0.147 C  
HETATM   24  H   UNL     2     -10.181   6.959  74.467  1.00  0.00     0.000 HD 
HETATM   25  O   UNL     2      -9.367   6.850  73.989  1.00  0.00    -0.187 OA 
ENDBRANCH  20  23
ENDBRANCH   2  20
BRANCH   4  26
HETATM   26  C   UNL     3      -8.156   2.827  70.408  1.00  0.00    -0.041 C  
HETATM   27  H   UNL     3      -9.109   1.055  70.692  1.00  0.00     0.000 HD 
HETATM   28  O   UNL     3      -9.032   1.740  70.040  1.00  0.00    -0.059 OA 
BRANCH  26  29
HETATM   29  C   UNL     3      -6.807   2.301  70.891  1.00  0.00    -0.032 C  
HETATM   30  O   UNL     3      -6.923   1.782  72.222  1.00  0.00    -0.018 OA 
HETATM   31  H   UNL     3      -6.083   1.455  72.522  1.00  0.00     0.000 HD 
ENDBRANCH  26  29
ENDBRANCH   4  26
TORSDOF 4
ENDMDL
MODEL      147
REMARK 921   NORMALIZED FREE ENERGY PREDICTED BY IDOCK:   -1.91 KCAL/MOL
REMARK 922        TOTAL FREE ENERGY PREDICTED BY IDOCK:   -3.23 KCAL/MOL
REMARK 923 INTER-LIGAND FREE ENERGY PREDICTED BY IDOCK:   -2.66 KCAL/MOL
REMARK 924 INTRA-LIGAND FREE ENERGY PREDICTED BY IDOCK:   -0.57 KCAL/MOL
REMARK 927      BINDING AFFINITY PREDICTED BY RF-SCORE:    0.00 PKD
ROOT
HETATM    1 ZN   UNL     1     -10.556   3.561  72.436  1.00  0.00    -0.155 Zn 
HETATM    2  C   UNL     2      -8.647   5.580  70.531  1.00  0.00    -0.124 C  
HETATM    3  O   UNL     2      -8.241   6.546  69.525  1.00  0.00    -0.122 OA 
HETATM    4  C   UNL     3      -7.186   4.802  66.963  1.00  0.00    -0.077 C  
HETATM    5  H   UNL     2     -12.575   6.561  69.641  1.00  0.00     0.000 HD 
HETATM    6  O   UNL     3      -6.816   5.795  65.992  1.00  0.00    -0.055 OA 
HETATM    7  O   UNL     3     -10.402   5.701  65.593  1.00  0.00    -0.381 OA 
HETATM    8  C   UNL     3      -8.648   4.487  66.677  1.00  0.00    -0.111 C  
HETATM    9  C   UNL     2      -9.339   7.079  68.903  1.00  0.00    -0.139 C  
HETATM   10  O   UNL     2     -10.799   5.168  71.509  1.00  0.00    -0.156 OA 
HETATM   11  C   UNL     3      -7.953   6.260  65.389  1.00  0.00    -0.118 C  
HETATM   12  C   UNL     2     -10.531   6.512  69.542  1.00  0.00    -0.222 C  
HETATM   13  O   UNL     2     -11.803   6.928  69.228  1.00  0.00     0.081 OA 
HETATM   14  O   UNL     2      -9.337   7.972  68.071  1.00  0.00    -0.138 OA 
HETATM   15  C   UNL     2     -10.169   5.703  70.560  1.00  0.00    -0.231 C  
HETATM   16  O   UNL     3      -9.234   3.563  67.307  1.00  0.00    -0.164 OA 
HETATM   17  H   UNL     3     -11.134   5.177  65.898  1.00  0.00     0.000 HD 
HETATM   18  C   UNL     3      -9.081   5.454  65.861  1.00  0.00    -0.157 C  
HETATM   19  O   UNL     3      -7.967   7.158  64.553  1.00  0.00    -0.122 OA 
ENDROOT
BRANCH   2  20
HETATM   20  C   UNL     2      -7.957   4.201  70.233  1.00  0.00    -0.051 C  
HETATM   21  O   UNL     2      -6.563   4.248  70.599  1.00  0.00    -0.029 OA 
HETATM   22  H   UNL     2      -6.146   3.414  70.419  1.00  0.00     0.000 HD 
BRANCH  20  23
HETATM   23  C   UNL     2      -8.466   2.869  70.799  1.00  0.00    -0.057 C  
HETATM   24  H   UNL     2     -10.004   1.571  70.523  1.00  0.00     0.000 HD 
HETATM   25  O   UNL     2      -9.688   2.396  70.173  1.00  0.00    -0.058 OA 
ENDBRANCH  20  23
ENDBRANCH   2  20
BRANCH   4  26
HETATM   26  C   UNL     3      -6.071   3.737  67.054  1.00  0.00    -0.025 C  
HETATM   27  H   UNL     3      -5.485   2.202  68.250  1.00  0.00     0.000 HD 
HETATM   28  O   UNL     3      -6.170   2.857  68.195  1.00  0.00    -0.027 OA 
BRANCH  26  29
HETATM   29  C   UNL     3      -5.892   2.942  65.764  1.00  0.00    -0.019 C  
HETATM   30  O   UNL     3      -5.382   1.634  66.052  1.00  0.00    -0.005 OA 
HETATM   31  H   UNL     3      -5.271   1.139  65.249  1.00  0.00     0.000 HD 
ENDBRANCH  26  29
ENDBRANCH   4  26
TORSDOF 4
ENDMDL
MODEL      148
REMARK 921   NORMALIZED FREE ENERGY PREDICTED BY IDOCK:   -1.90 KCAL/MOL
REMARK 922        TOTAL FREE ENERGY PREDICTED BY IDOCK:   -3.23 KCAL/MOL
REMARK 923 INTER-LIGAND FREE ENERGY PREDICTED BY IDOCK:   -2.90 KCAL/MOL
REMARK 924 INTRA-LIGAND FREE ENERGY PREDICTED BY IDOCK:   -0.32 KCAL/MOL
REMARK 927      BINDING AFFINITY PREDICTED BY RF-SCORE:    0.00 PKD
ROOT
HETATM    1 ZN   UNL     1     -11.663   3.345  73.939  1.00  0.00    -0.204 Zn 
HETATM    2  C   UNL     2      -9.227   5.424  72.895  1.00  0.00    -0.134 C  
HETATM    3  O   UNL     2      -8.520   6.462  72.163  1.00  0.00    -0.112 OA 
HETATM    4  C   UNL     3      -6.833   4.927  69.814  1.00  0.00    -0.052 C  
HETATM    5  H   UNL     2     -12.704   6.740  71.061  1.00  0.00     0.000 HD 
HETATM    6  O   UNL     3      -6.170   5.990  69.109  1.00  0.00    -0.032 OA 
HETATM    7  O   UNL     3      -9.494   6.166  67.712  1.00  0.00    -0.117 OA 
HETATM    8  C   UNL     3      -8.162   4.737  69.095  1.00  0.00    -0.081 C  
HETATM    9  C   UNL     2      -9.377   7.124  71.326  1.00  0.00    -0.155 C  
HETATM   10  O   UNL     2     -11.580   5.052  73.176  1.00  0.00    -0.328 OA 
HETATM   11  C   UNL     3      -7.072   6.586  68.271  1.00  0.00    -0.083 C  
HETATM   12  C   UNL     2     -10.719   6.571  71.534  1.00  0.00    -0.235 C  
HETATM   13  O   UNL     2     -11.835   7.098  70.927  1.00  0.00    -0.317 OA 
HETATM   14  O   UNL     2      -9.109   8.096  70.638  1.00  0.00    -0.145 OA 
HETATM   15  C   UNL     2     -10.689   5.640  72.511  1.00  0.00    -0.239 C  
HETATM   16  O   UNL     3      -8.932   3.792  69.423  1.00  0.00    -0.092 OA 
HETATM   17  H   UNL     3     -10.299   5.661  67.737  1.00  0.00     0.000 HD 
HETATM   18  C   UNL     3      -8.312   5.809  68.309  1.00  0.00    -0.107 C  
HETATM   19  O   UNL     3      -6.818   7.565  67.575  1.00  0.00    -0.067 OA 
ENDROOT
BRANCH   2  20
HETATM   20  C   UNL     2      -8.524   4.042  72.643  1.00  0.00    -0.100 C  
HETATM   21  O   UNL     2      -7.542   3.785  73.667  1.00  0.00    -0.067 OA 
HETATM   22  H   UNL     2      -7.118   2.949  73.515  1.00  0.00     0.000 HD 
BRANCH  20  23
HETATM   23  C   UNL     2      -9.295   2.724  72.498  1.00  0.00    -0.099 C  
HETATM   24  H   UNL     2      -9.178   0.798  73.132  1.00  0.00     0.000 HD 
HETATM   25  O   UNL     2      -8.700   1.614  73.222  1.00  0.00    -0.060 OA 
ENDBRANCH  20  23
ENDBRANCH   2  20
BRANCH   4  26
HETATM   26  C   UNL     3      -5.824   3.790  70.089  1.00  0.00    -0.018 C  
HETATM   27  H   UNL     3      -5.663   2.093  71.195  1.00  0.00     0.000 HD 
HETATM   28  O   UNL     3      -6.283   2.792  71.026  1.00  0.00    -0.018 OA 
BRANCH  26  29
HETATM   29  C   UNL     3      -5.290   3.140  68.816  1.00  0.00    -0.013 C  
HETATM   30  O   UNL     3      -6.368   2.591  68.048  1.00  0.00    -0.028 OA 
HETATM   31  H   UNL     3      -6.036   2.186  67.255  1.00  0.00     0.000 HD 
ENDBRANCH  26  29
ENDBRANCH   4  26
TORSDOF 4
ENDMDL
MODEL      149
REMARK 921   NORMALIZED FREE ENERGY PREDICTED BY IDOCK:   -1.72 KCAL/MOL
REMARK 922        TOTAL FREE ENERGY PREDICTED BY IDOCK:   -3.01 KCAL/MOL
REMARK 923 INTER-LIGAND FREE ENERGY PREDICTED BY IDOCK:   -2.50 KCAL/MOL
REMARK 924 INTRA-LIGAND FREE ENERGY PREDICTED BY IDOCK:   -0.51 KCAL/MOL
REMARK 927      BINDING AFFINITY PREDICTED BY RF-SCORE:    0.00 PKD
ROOT
HETATM    1 ZN   UNL     1      -9.512   6.322  64.558  1.00  0.00    -0.340 Zn 
HETATM    2  C   UNL     2      -7.766   7.599  67.141  1.00  0.00    -0.112 C  
HETATM    3  O   UNL     2      -6.921   7.698  68.318  1.00  0.00    -0.068 OA 
HETATM    4  C   UNL     3      -8.950   7.937  70.876  1.00  0.00    -0.143 C  
HETATM    5  H   UNL     2      -6.728   3.591  66.941  1.00  0.00     0.000 HD 
HETATM    6  O   UNL     3      -8.072   8.011  72.013  1.00  0.00    -0.110 OA 
HETATM    7  O   UNL     3      -8.068   4.466  71.333  1.00  0.00    -0.080 OA 
HETATM    8  C   UNL     3      -9.235   6.453  70.687  1.00  0.00    -0.158 C  
HETATM    9  C   UNL     2      -6.411   6.469  68.644  1.00  0.00    -0.038 C  
HETATM   10  O   UNL     2      -7.996   5.829  65.538  1.00  0.00    -0.103 OA 
HETATM   11  C   UNL     3      -7.626   6.751  72.302  1.00  0.00    -0.093 C  
HETATM   12  C   UNL     2      -6.866   5.514  67.628  1.00  0.00    -0.060 C  
HETATM   13  O   UNL     2      -6.434   4.210  67.599  1.00  0.00    -0.036 OA 
HETATM   14  O   UNL     2      -5.606   6.232  69.530  1.00  0.00    -0.012 OA 
HETATM   15  C   UNL     2      -7.583   6.155  66.681  1.00  0.00    -0.095 C  
HETATM   16  O   UNL     3     -10.069   6.073  69.819  1.00  0.00    -0.171 OA 
HETATM   17  H   UNL     3      -8.531   3.853  70.772  1.00  0.00     0.000 HD 
HETATM   18  C   UNL     3      -8.338   5.806  71.438  1.00  0.00    -0.127 C  
HETATM   19  O   UNL     3      -6.815   6.497  73.188  1.00  0.00    -0.072 OA 
ENDROOT
BRANCH   2  20
HETATM   20  C   UNL     2      -9.194   8.161  67.479  1.00  0.00    -0.137 C  
HETATM   21  O   UNL     2      -9.148   9.594  67.623  1.00  0.00    -0.131 OA 
HETATM   22  H   UNL     2     -10.011   9.934  67.827  1.00  0.00     0.000 HD 
BRANCH  20  23
HETATM   23  C   UNL     2     -10.428   7.892  66.610  1.00  0.00    -0.123 C  
HETATM   24  H   UNL     2     -11.650   8.886  65.328  1.00  0.00     0.000 HD 
HETATM   25  O   UNL     2     -10.886   9.053  65.867  1.00  0.00     0.849 OA 
ENDBRANCH  20  23
ENDBRANCH   2  20
BRANCH   4  26
HETATM   26  C   UNL     3     -10.042   9.022  71.004  1.00  0.00    -0.282 C  
HETATM   27  H   UNL     3     -11.460   9.936  69.870  1.00  0.00     0.000 HD 
HETATM   28  O   UNL     3     -10.788   9.270  69.792  1.00  0.00    -0.230 OA 
BRANCH  26  29
HETATM   29  C   UNL     3     -10.980   8.795  72.186  1.00  0.00    -0.334 C  
HETATM   30  O   UNL     3     -12.207   8.203  71.741  1.00  0.00    -0.290 OA 
HETATM   31  H   UNL     3     -12.790   8.061  72.478  1.00  0.00     0.000 HD 
ENDBRANCH  26  29
ENDBRANCH   4  26
TORSDOF 4
ENDMDL
MODEL      150
REMARK 921   NORMALIZED FREE ENERGY PREDICTED BY IDOCK:   -1.46 KCAL/MOL
REMARK 922        TOTAL FREE ENERGY PREDICTED BY IDOCK:   -2.67 KCAL/MOL
REMARK 923 INTER-LIGAND FREE ENERGY PREDICTED BY IDOCK:   -3.22 KCAL/MOL
REMARK 924 INTRA-LIGAND FREE ENERGY PREDICTED BY IDOCK:    0.54 KCAL/MOL
REMARK 927      BINDING AFFINITY PREDICTED BY RF-SCORE:    0.00 PKD
ROOT
HETATM    1 ZN   UNL     1     -12.304   9.720  68.813  1.00  0.00    -0.435 Zn 
HETATM    2  C   UNL     2      -9.580   8.369  70.265  1.00  0.00    -0.165 C  
HETATM    3  O   UNL     2      -8.426   7.521  70.508  1.00  0.00    -0.129 OA 
HETATM    4  C   UNL     3      -9.441   5.169  72.546  1.00  0.00    -0.145 C  
HETATM    5  H   UNL     2      -9.794   6.699  66.477  1.00  0.00     0.000 HD 
HETATM    6  O   UNL     3      -8.276   4.349  72.741  1.00  0.00    -0.096 OA 
HETATM    7  O   UNL     3      -9.452   3.180  69.534  1.00  0.00    -0.162 OA 
HETATM    8  C   UNL     3     -10.166   4.559  71.354  1.00  0.00    -0.113 C  
HETATM    9  C   UNL     2      -8.199   6.703  69.434  1.00  0.00    -0.124 C  
HETATM   10  O   UNL     2     -10.760   8.839  68.229  1.00  0.00    -0.173 OA 
HETATM   11  C   UNL     3      -8.128   3.537  71.650  1.00  0.00    -0.065 C  
HETATM   12  C   UNL     2      -9.184   7.041  68.400  1.00  0.00    -0.129 C  
HETATM   13  O   UNL     2      -9.157   6.480  67.146  1.00  0.00    -0.118 OA 
HETATM   14  O   UNL     2      -7.262   5.933  69.295  1.00  0.00    -0.070 OA 
HETATM   15  C   UNL     2      -9.948   8.075  68.812  1.00  0.00    -0.189 C  
HETATM   16  O   UNL     3     -11.294   5.004  71.002  1.00  0.00     0.432 OA 
HETATM   17  H   UNL     3     -10.211   3.295  68.974  1.00  0.00     0.000 HD 
HETATM   18  C   UNL     3      -9.298   3.715  70.787  1.00  0.00    -0.155 C  
HETATM   19  O   UNL     3      -7.190   2.761  71.495  1.00  0.00    -0.031 OA 
ENDROOT
BRANCH   2  20
HETATM   20  C   UNL     2     -10.627   8.164  71.418  1.00  0.00    -0.220 C  
HETATM   21  O   UNL     2     -10.057   8.542  72.686  1.00  0.00    -0.282 OA 
HETATM   22  H   UNL     2     -10.690   8.418  73.383  1.00  0.00     0.000 HD 
BRANCH  20  23
HETATM   23  C   UNL     2     -12.022   8.802  71.407  1.00  0.00    -0.310 C  
HETATM   24  H   UNL     2     -13.060  10.239  72.397  1.00  0.00     0.000 HD 
HETATM   25  O   UNL     2     -12.197   9.844  72.404  1.00  0.00     0.016 OA 
ENDBRANCH  20  23
ENDBRANCH   2  20
BRANCH   4  26
HETATM   26  C   UNL     3     -10.102   5.448  73.914  1.00  0.00    -0.215 C  
HETATM   27  H   UNL     3     -11.291   6.833  74.809  1.00  0.00     0.000 HD 
HETATM   28  O   UNL     3     -10.884   6.661  73.968  1.00  0.00    -0.155 OA 
BRANCH  26  29
HETATM   29  C   UNL     3     -10.896   4.261  74.452  1.00  0.00    -0.046 C  
HETATM   30  O   UNL     3     -11.571   3.589  73.382  1.00  0.00    -0.140 OA 
HETATM   31  H   UNL     3     -12.065   2.850  73.717  1.00  0.00     0.000 HD 
ENDBRANCH  26  29
ENDBRANCH   4  26
TORSDOF 4
ENDMDL
MODEL      151
REMARK 921   NORMALIZED FREE ENERGY PREDICTED BY IDOCK:   -1.33 KCAL/MOL
REMARK 922        TOTAL FREE ENERGY PREDICTED BY IDOCK:   -2.52 KCAL/MOL
REMARK 923 INTER-LIGAND FREE ENERGY PREDICTED BY IDOCK:   -2.25 KCAL/MOL
REMARK 924 INTRA-LIGAND FREE ENERGY PREDICTED BY IDOCK:   -0.27 KCAL/MOL
REMARK 927      BINDING AFFINITY PREDICTED BY RF-SCORE:    0.00 PKD
ROOT
HETATM    1 ZN   UNL     1     -11.357   6.452  67.197  1.00  0.00    -0.248 Zn 
HETATM    2  C   UNL     2     -10.420   7.084  70.371  1.00  0.00    -0.206 C  
HETATM    3  O   UNL     2      -9.756   7.676  71.520  1.00  0.00    -0.164 OA 
HETATM    4  C   UNL     3      -7.244   5.702  72.234  1.00  0.00    -0.089 C  
HETATM    5  H   UNL     2      -8.796  10.133  68.079  1.00  0.00     0.000 HD 
HETATM    6  O   UNL     3      -6.610   6.336  73.358  1.00  0.00    -0.071 OA 
HETATM    7  O   UNL     3      -5.324   8.293  70.610  1.00  0.00    -0.025 OA 
HETATM    8  C   UNL     3      -6.548   6.275  71.006  1.00  0.00    -0.050 C  
HETATM    9  C   UNL     2      -9.000   8.750  71.134  1.00  0.00    -0.222 C  
HETATM   10  O   UNL     2     -10.734   7.936  68.150  1.00  0.00    -0.152 OA 
HETATM   11  C   UNL     3      -5.848   7.376  72.900  1.00  0.00    -0.044 C  
HETATM   12  C   UNL     2      -9.199   8.940  69.693  1.00  0.00    -0.152 C  
HETATM   13  O   UNL     2      -8.668  10.010  69.012  1.00  0.00    -0.137 OA 
HETATM   14  O   UNL     2      -8.386   9.505  71.871  1.00  0.00     0.103 OA 
HETATM   15  C   UNL     2     -10.095   8.044  69.228  1.00  0.00    -0.198 C  
HETATM   16  O   UNL     3      -6.819   5.828  69.856  1.00  0.00    -0.059 OA 
HETATM   17  H   UNL     3      -5.330   8.267  69.660  1.00  0.00     0.000 HD 
HETATM   18  C   UNL     3      -5.857   7.337  71.435  1.00  0.00    -0.036 C  
HETATM   19  O   UNL     3      -5.229   8.144  73.628  1.00  0.00    -0.044 OA 
ENDROOT
BRANCH   2  20
HETATM   20  C   UNL     2     -10.037   5.563  70.277  1.00  0.00    -0.237 C  
HETATM   21  O   UNL     2     -11.021   4.756  70.952  1.00  0.00     0.216 OA 
HETATM   22  H   UNL     2     -10.790   3.836  70.895  1.00  0.00     0.000 HD 
BRANCH  20  23
HETATM   23  C   UNL     2      -9.783   4.843  68.947  1.00  0.00    -0.173 C  
HETATM   24  H   UNL     2      -8.921   3.135  68.265  1.00  0.00     0.000 HD 
HETATM   25  O   UNL     2      -9.078   3.581  69.089  1.00  0.00    -0.112 OA 
ENDBRANCH  20  23
ENDBRANCH   2  20
BRANCH   4  26
HETATM   26  C   UNL     3      -7.396   4.191  72.519  1.00  0.00    -0.068 C  
HETATM   27  H   UNL     3      -7.104   2.402  71.600  1.00  0.00     0.000 HD 
HETATM   28  O   UNL     3      -7.010   3.331  71.425  1.00  0.00    -0.031 OA 
BRANCH  26  29
HETATM   29  C   UNL     3      -6.729   3.755  73.820  1.00  0.00    -0.044 C  
HETATM   30  O   UNL     3      -5.922   2.591  73.599  1.00  0.00    -0.003 OA 
HETATM   31  H   UNL     3      -5.507   2.320  74.409  1.00  0.00     0.000 HD 
ENDBRANCH  26  29
ENDBRANCH   4  26
TORSDOF 4
ENDMDL
MODEL      152
REMARK 921   NORMALIZED FREE ENERGY PREDICTED BY IDOCK:   -0.99 KCAL/MOL
REMARK 922        TOTAL FREE ENERGY PREDICTED BY IDOCK:   -2.10 KCAL/MOL
REMARK 923 INTER-LIGAND FREE ENERGY PREDICTED BY IDOCK:   -4.45 KCAL/MOL
REMARK 924 INTRA-LIGAND FREE ENERGY PREDICTED BY IDOCK:    2.35 KCAL/MOL
REMARK 927      BINDING AFFINITY PREDICTED BY RF-SCORE:    0.00 PKD
ROOT
HETATM    1 ZN   UNL     1      -7.285  17.934  64.920  1.00  0.00    -0.100 Zn 
HETATM    2  C   UNL     2     -10.236  16.613  65.866  1.00  0.00    -0.340 C  
HETATM    3  O   UNL     2     -11.401  16.274  66.665  1.00  0.00     0.140 OA 
HETATM    4  C   UNL     3     -10.816  13.302  67.907  1.00  0.00    -0.243 C  
HETATM    5  H   UNL     2      -9.173  19.277  68.859  1.00  0.00     0.000 HD 
HETATM    6  O   UNL     3     -11.981  13.019  68.700  1.00  0.00    -0.319 OA 
HETATM    7  O   UNL     3     -10.114  15.182  70.907  1.00  0.00    -0.314 OA 
HETATM    8  C   UNL     3      -9.838  13.979  68.857  1.00  0.00    -0.071 C  
HETATM    9  C   UNL     2     -11.374  16.945  67.858  1.00  0.00     0.113 C  
HETATM   10  O   UNL     2      -8.649  18.395  66.114  1.00  0.00    -0.456 OA 
HETATM   11  C   UNL     3     -11.874  13.693  69.887  1.00  0.00    -0.320 C  
HETATM   12  C   UNL     2     -10.194  17.815  67.853  1.00  0.00    -0.361 C  
HETATM   13  O   UNL     2      -9.937  18.713  68.862  1.00  0.00    -0.389 OA 
HETATM   14  O   UNL     2     -12.245  16.936  68.713  1.00  0.00     0.722 OA 
HETATM   15  C   UNL     2      -9.555  17.720  66.668  1.00  0.00    -0.307 C  
HETATM   16  O   UNL     3      -8.668  14.257  68.472  1.00  0.00    -0.176 OA 
HETATM   17  H   UNL     3      -9.253  15.582  70.943  1.00  0.00     0.000 HD 
HETATM   18  C   UNL     3     -10.547  14.310  69.941  1.00  0.00     0.247 C  
HETATM   19  O   UNL     3     -12.742  13.696  70.754  1.00  0.00    -0.314 OA 
ENDROOT
BRANCH   2  20
HETATM   20  C   UNL     2      -9.463  15.298  65.492  1.00  0.00    -0.106 C  
HETATM   21  O   UNL     2      -8.493  14.980  66.509  1.00  0.00    -0.404 OA 
HETATM   22  H   UNL     2      -8.025  14.185  66.282  1.00  0.00     0.000 HD 
BRANCH  20  23
HETATM   23  C   UNL     2     -10.166  13.969  65.189  1.00  0.00    -0.371 C  
HETATM   24  H   UNL     2     -11.690  13.263  64.048  1.00  0.00     0.000 HD 
HETATM   25  O   UNL     2     -11.255  14.086  64.235  1.00  0.00    -0.335 OA 
ENDBRANCH  20  23
ENDBRANCH   2  20
BRANCH   4  26
HETATM   26  C   UNL     3     -10.474  12.066  67.045  1.00  0.00    -0.221 C  
HETATM   27  H   UNL     3      -8.897  10.853  66.629  1.00  0.00     0.000 HD 
HETATM   28  O   UNL     3      -9.107  11.613  67.158  1.00  0.00    -0.164 OA 
BRANCH  26  29
HETATM   29  C   UNL     3     -11.451  10.910  67.236  1.00  0.00    -0.019 C  
HETATM   30  O   UNL     3     -11.184  10.232  68.470  1.00  0.00    -0.345 OA 
HETATM   31  H   UNL     3     -11.793   9.512  68.589  1.00  0.00     0.000 HD 
ENDBRANCH  26  29
ENDBRANCH   4  26
TORSDOF 4
ENDMDL
MODEL      153
REMARK 921   NORMALIZED FREE ENERGY PREDICTED BY IDOCK:   -0.87 KCAL/MOL
REMARK 922        TOTAL FREE ENERGY PREDICTED BY IDOCK:   -1.95 KCAL/MOL
REMARK 923 INTER-LIGAND FREE ENERGY PREDICTED BY IDOCK:   -1.22 KCAL/MOL
REMARK 924 INTRA-LIGAND FREE ENERGY PREDICTED BY IDOCK:   -0.73 KCAL/MOL
REMARK 927      BINDING AFFINITY PREDICTED BY RF-SCORE:    0.00 PKD
ROOT
HETATM    1 ZN   UNL     1     -13.542  11.367  69.584  1.00  0.00     0.303 Zn 
HETATM    2  C   UNL     2     -11.274  11.451  67.093  1.00  0.00    -0.296 C  
HETATM    3  O   UNL     2     -10.140  11.115  66.251  1.00  0.00    -0.217 OA 
HETATM    4  C   UNL     3      -7.698  13.085  67.186  1.00  0.00    -0.039 C  
HETATM    5  H   UNL     2     -10.626   7.881  69.099  1.00  0.00     0.000 HD 
HETATM    6  O   UNL     3      -6.598  12.703  66.343  1.00  0.00     0.581 OA 
HETATM    7  O   UNL     3      -6.521  10.103  68.845  1.00  0.00    -0.047 OA 
HETATM    8  C   UNL     3      -7.574  12.210  68.427  1.00  0.00    -0.128 C  
HETATM    9  C   UNL     2      -9.562   9.947  66.672  1.00  0.00    -0.184 C  
HETATM   10  O   UNL     2     -12.473  10.119  68.689  1.00  0.00     0.515 OA 
HETATM   11  C   UNL     3      -6.049  11.552  66.837  1.00  0.00    -0.146 C  
HETATM   12  C   UNL     2     -10.357   9.435  67.793  1.00  0.00    -0.238 C  
HETATM   13  O   UNL     2     -10.111   8.213  68.373  1.00  0.00    -0.188 OA 
HETATM   14  O   UNL     2      -8.642   9.358  66.128  1.00  0.00    -0.130 OA 
HETATM   15  C   UNL     2     -11.421  10.237  68.008  1.00  0.00    -0.002 C  
HETATM   16  O   UNL     3      -8.348  12.388  69.409  1.00  0.00     0.640 OA 
HETATM   17  H   UNL     3      -6.943   9.907  69.674  1.00  0.00     0.000 HD 
HETATM   18  C   UNL     3      -6.700  11.249  68.114  1.00  0.00    -0.058 C  
HETATM   19  O   UNL     3      -5.127  10.947  66.300  1.00  0.00    -0.070 OA 
ENDROOT
BRANCH   2  20
HETATM   20  C   UNL     2     -11.068  12.889  67.692  1.00  0.00    -0.264 C  
HETATM   21  O   UNL     2     -11.454  13.892  66.731  1.00  0.00    -0.323 OA 
HETATM   22  H   UNL     2     -11.329  14.761  67.092  1.00  0.00     0.000 HD 
BRANCH  20  23
HETATM   23  C   UNL     2     -11.700  13.346  69.012  1.00  0.00    -0.323 C  
HETATM   24  H   UNL     2     -12.689  14.952  69.767  1.00  0.00     0.000 HD 
HETATM   25  O   UNL     2     -12.297  14.668  68.949  1.00  0.00    -0.181 OA 
ENDBRANCH  20  23
ENDBRANCH   2  20
BRANCH   4  26
HETATM   26  C   UNL     3      -7.806  14.626  67.218  1.00  0.00    -0.186 C  
HETATM   27  H   UNL     3      -9.081  16.079  67.845  1.00  0.00     0.000 HD 
HETATM   28  O   UNL     3      -9.015  15.132  67.825  1.00  0.00    -0.174 OA 
BRANCH  26  29
HETATM   29  C   UNL     3      -6.573  15.303  67.808  1.00  0.00    -0.162 C  
HETATM   30  O   UNL     3      -5.509  15.321  66.848  1.00  0.00     0.101 OA 
HETATM   31  H   UNL     3      -4.741  15.743  67.215  1.00  0.00     0.000 HD 
ENDBRANCH  26  29
ENDBRANCH   4  26
TORSDOF 4
ENDMDL
MODEL      154
REMARK 921   NORMALIZED FREE ENERGY PREDICTED BY IDOCK:   -0.75 KCAL/MOL
REMARK 922        TOTAL FREE ENERGY PREDICTED BY IDOCK:   -1.80 KCAL/MOL
REMARK 923 INTER-LIGAND FREE ENERGY PREDICTED BY IDOCK:   -3.56 KCAL/MOL
REMARK 924 INTRA-LIGAND FREE ENERGY PREDICTED BY IDOCK:    1.76 KCAL/MOL
REMARK 927      BINDING AFFINITY PREDICTED BY RF-SCORE:    0.00 PKD
ROOT
HETATM    1 ZN   UNL     1     -10.442   6.686  65.606  1.00  0.00    -0.408 Zn 
HETATM    2  C   UNL     2      -8.577   9.463  65.210  1.00  0.00    -0.162 C  
HETATM    3  O   UNL     2      -7.522  10.450  65.370  1.00  0.00    -0.144 OA 
HETATM    4  C   UNL     3      -8.731  12.758  67.352  1.00  0.00    -0.196 C  
HETATM    5  H   UNL     2      -6.373   6.958  67.669  1.00  0.00     0.000 HD 
HETATM    6  O   UNL     3      -7.651  13.696  67.496  1.00  0.00    -0.161 OA 
HETATM    7  O   UNL     3      -6.665  11.104  69.807  1.00  0.00    -0.131 OA 
HETATM    8  C   UNL     3      -8.552  11.763  68.490  1.00  0.00    -0.123 C  
HETATM    9  C   UNL     2      -6.567   9.991  66.238  1.00  0.00    -0.085 C  
HETATM   10  O   UNL     2      -8.641   7.145  65.824  1.00  0.00    -0.148 OA 
HETATM   11  C   UNL     3      -6.753  13.192  68.396  1.00  0.00    -0.095 C  
HETATM   12  C   UNL     2      -6.942   8.630  66.634  1.00  0.00    -0.079 C  
HETATM   13  O   UNL     2      -6.130   7.839  67.412  1.00  0.00    -0.046 OA 
HETATM   14  O   UNL     2      -5.518  10.548  66.519  1.00  0.00    -0.049 OA 
HETATM   15  C   UNL     2      -8.061   8.250  65.981  1.00  0.00    -0.110 C  
HETATM   16  O   UNL     3      -9.418  10.866  68.692  1.00  0.00    -0.177 OA 
HETATM   17  H   UNL     3      -7.035  10.312  70.181  1.00  0.00     0.000 HD 
HETATM   18  C   UNL     3      -7.322  11.970  68.971  1.00  0.00    -0.018 C  
HETATM   19  O   UNL     3      -5.694  13.739  68.687  1.00  0.00    -0.077 OA 
ENDROOT
BRANCH   2  20
HETATM   20  C   UNL     2      -9.959  10.118  65.570  1.00  0.00    -0.293 C  
HETATM   21  O   UNL     2     -10.669  10.483  64.370  1.00  0.00    -0.273 OA 
HETATM   22  H   UNL     2     -11.504  10.879  64.588  1.00  0.00     0.000 HD 
BRANCH  20  23
HETATM   23  C   UNL     2     -11.007   9.431  66.454  1.00  0.00     0.574 C  
HETATM   24  H   UNL     2     -11.420   7.585  67.194  1.00  0.00     0.000 HD 
HETATM   25  O   UNL     2     -10.771   8.011  66.646  1.00  0.00    -0.215 OA 
ENDBRANCH  20  23
ENDBRANCH   2  20
BRANCH   4  26
HETATM   26  C   UNL     3     -10.041  13.528  67.071  1.00  0.00    -0.244 C  
HETATM   27  H   UNL     3     -10.789  15.413  67.192  1.00  0.00     0.000 HD 
HETATM   28  O   UNL     3      -9.984  14.940  67.365  1.00  0.00    -0.222 OA 
BRANCH  26  29
HETATM   29  C   UNL     3     -10.594  13.282  65.670  1.00  0.00    -0.283 C  
HETATM   30  O   UNL     3     -11.956  12.844  65.742  1.00  0.00    -0.398 OA 
HETATM   31  H   UNL     3     -12.300  12.691  64.869  1.00  0.00     0.000 HD 
ENDBRANCH  26  29
ENDBRANCH   4  26
TORSDOF 4
ENDMDL
MODEL      155
REMARK 921   NORMALIZED FREE ENERGY PREDICTED BY IDOCK:   -0.67 KCAL/MOL
REMARK 922        TOTAL FREE ENERGY PREDICTED BY IDOCK:   -1.71 KCAL/MOL
REMARK 923 INTER-LIGAND FREE ENERGY PREDICTED BY IDOCK:   -3.94 KCAL/MOL
REMARK 924 INTRA-LIGAND FREE ENERGY PREDICTED BY IDOCK:    2.24 KCAL/MOL
REMARK 927      BINDING AFFINITY PREDICTED BY RF-SCORE:    0.00 PKD
ROOT
HETATM    1 ZN   UNL     1     -11.871  12.061  63.938  1.00  0.00    -0.313 Zn 
HETATM    2  C   UNL     2     -11.064  10.228  66.648  1.00  0.00     0.159 C  
HETATM    3  O   UNL     2     -10.681   9.864  68.001  1.00  0.00    -0.224 OA 
HETATM    4  C   UNL     3      -7.453   9.325  67.919  1.00  0.00    -0.084 C  
HETATM    5  H   UNL     2     -11.487  14.125  67.998  1.00  0.00     0.000 HD 
HETATM    6  O   UNL     3      -7.120   8.990  69.277  1.00  0.00    -0.056 OA 
HETATM    7  O   UNL     3      -7.319  12.590  69.454  1.00  0.00    -0.323 OA 
HETATM    8  C   UNL     3      -7.284  10.836  67.827  1.00  0.00    -0.088 C  
HETATM    9  C   UNL     2     -10.629  10.977  68.798  1.00  0.00    -0.202 C  
HETATM   10  O   UNL     2     -12.002  12.264  65.794  1.00  0.00    -0.521 OA 
HETATM   11  C   UNL     3      -7.054  10.145  70.008  1.00  0.00    -0.154 C  
HETATM   12  C   UNL     2     -11.048  12.125  67.988  1.00  0.00    -0.244 C  
HETATM   13  O   UNL     2     -11.216  13.381  68.522  1.00  0.00    -0.252 OA 
HETATM   14  O   UNL     2     -10.417  10.996  70.000  1.00  0.00     0.036 OA 
HETATM   15  C   UNL     2     -11.400  11.714  66.751  1.00  0.00    -0.286 C  
HETATM   16  O   UNL     3      -7.407  11.422  66.715  1.00  0.00    -0.141 OA 
HETATM   17  H   UNL     3      -7.410  13.323  68.857  1.00  0.00     0.000 HD 
HETATM   18  C   UNL     3      -7.195  11.275  69.087  1.00  0.00    -0.115 C  
HETATM   19  O   UNL     3      -6.844  10.180  71.216  1.00  0.00    -0.270 OA 
ENDROOT
BRANCH   2  20
HETATM   20  C   UNL     2      -9.967   9.720  65.644  1.00  0.00    -0.282 C  
HETATM   21  O   UNL     2      -8.962  10.733  65.445  1.00  0.00    -0.185 OA 
HETATM   22  H   UNL     2      -8.299  10.425  64.838  1.00  0.00     0.000 HD 
BRANCH  20  23
HETATM   23  C   UNL     2      -9.180   8.420  65.851  1.00  0.00    -0.155 C  
HETATM   24  H   UNL     2      -9.520   6.483  66.359  1.00  0.00     0.000 HD 
HETATM   25  O   UNL     2     -10.008   7.288  66.232  1.00  0.00    -0.076 OA 
ENDBRANCH  20  23
ENDBRANCH   2  20
BRANCH   4  26
HETATM   26  C   UNL     3      -6.778   8.316  66.964  1.00  0.00    -0.062 C  
HETATM   27  H   UNL     3      -5.260   8.234  65.616  1.00  0.00     0.000 HD 
HETATM   28  O   UNL     3      -5.675   8.854  66.203  1.00  0.00    -0.044 OA 
BRANCH  26  29
HETATM   29  C   UNL     3      -6.385   7.011  67.648  1.00  0.00    -0.043 C  
HETATM   30  O   UNL     3      -5.131   7.161  68.324  1.00  0.00    -0.017 OA 
HETATM   31  H   UNL     3      -4.886   6.348  68.750  1.00  0.00     0.000 HD 
ENDBRANCH  26  29
ENDBRANCH   4  26
TORSDOF 4
ENDMDL
MODEL      156
REMARK 921   NORMALIZED FREE ENERGY PREDICTED BY IDOCK:   -0.56 KCAL/MOL
REMARK 922        TOTAL FREE ENERGY PREDICTED BY IDOCK:   -1.57 KCAL/MOL
REMARK 923 INTER-LIGAND FREE ENERGY PREDICTED BY IDOCK:   -1.48 KCAL/MOL
REMARK 924 INTRA-LIGAND FREE ENERGY PREDICTED BY IDOCK:   -0.09 KCAL/MOL
REMARK 927      BINDING AFFINITY PREDICTED BY RF-SCORE:    0.00 PKD
ROOT
HETATM    1 ZN   UNL     1     -10.760   2.890  63.487  1.00  0.00    -0.140 Zn 
HETATM    2  C   UNL     2      -7.770   3.243  64.999  1.00  0.00    -0.081 C  
HETATM    3  O   UNL     2      -6.752   3.367  66.028  1.00  0.00    -0.039 OA 
HETATM    4  C   UNL     3      -6.159   6.572  66.337  1.00  0.00    -0.033 C  
HETATM    5  H   UNL     2     -10.466   2.336  68.014  1.00  0.00     0.000 HD 
HETATM    6  O   UNL     3      -5.166   6.645  67.374  1.00  0.00    -0.007 OA 
HETATM    7  O   UNL     3      -8.188   6.209  69.300  1.00  0.00    -0.113 OA 
HETATM    8  C   UNL     3      -7.497   6.669  67.056  1.00  0.00    -0.087 C  
HETATM    9  C   UNL     2      -7.305   3.195  67.269  1.00  0.00    -0.058 C  
HETATM   10  O   UNL     2     -10.004   2.379  65.121  1.00  0.00     0.216 OA 
HETATM   11  C   UNL     3      -5.788   6.498  68.584  1.00  0.00    -0.021 C  
HETATM   12  C   UNL     2      -8.725   2.882  67.085  1.00  0.00    -0.123 C  
HETATM   13  O   UNL     2      -9.546   2.538  68.133  1.00  0.00    -0.204 OA 
HETATM   14  O   UNL     2      -6.703   3.162  68.331  1.00  0.00    -0.043 OA 
HETATM   15  C   UNL     2      -9.015   2.808  65.768  1.00  0.00    -0.143 C  
HETATM   16  O   UNL     3      -8.570   6.738  66.393  1.00  0.00    -0.119 OA 
HETATM   17  H   UNL     3      -9.126   6.197  69.150  1.00  0.00     0.000 HD 
HETATM   18  C   UNL     3      -7.234   6.479  68.353  1.00  0.00    -0.085 C  
HETATM   19  O   UNL     3      -5.197   6.460  69.658  1.00  0.00    -0.012 OA 
ENDROOT
BRANCH   2  20
HETATM   20  C   UNL     2      -7.781   4.545  64.120  1.00  0.00    -0.077 C  
HETATM   21  O   UNL     2      -6.640   4.566  63.240  1.00  0.00    -0.029 OA 
HETATM   22  H   UNL     2      -6.647   5.353  62.709  1.00  0.00     0.000 HD 
BRANCH  20  23
HETATM   23  C   UNL     2      -8.967   4.950  63.237  1.00  0.00    -0.032 C  
HETATM   24  H   UNL     2      -9.412   6.303  61.789  1.00  0.00     0.000 HD 
HETATM   25  O   UNL     2      -8.677   6.052  62.336  1.00  0.00    -0.025 OA 
ENDBRANCH  20  23
ENDBRANCH   2  20
BRANCH   4  26
HETATM   26  C   UNL     3      -5.737   7.481  65.161  1.00  0.00    -0.037 C  
HETATM   27  H   UNL     3      -5.699   7.473  63.130  1.00  0.00     0.000 HD 
HETATM   28  O   UNL     3      -5.958   6.914  63.852  1.00  0.00    -0.034 OA 
BRANCH  26  29
HETATM   29  C   UNL     3      -6.317   8.889  65.252  1.00  0.00    -0.063 C  
HETATM   30  O   UNL     3      -6.266   9.532  63.973  1.00  0.00    -0.089 OA 
HETATM   31  H   UNL     3      -6.627  10.409  64.030  1.00  0.00     0.000 HD 
ENDBRANCH  26  29
ENDBRANCH   4  26
TORSDOF 4
ENDMDL
MODEL      157
REMARK 921   NORMALIZED FREE ENERGY PREDICTED BY IDOCK:   -0.32 KCAL/MOL
REMARK 922        TOTAL FREE ENERGY PREDICTED BY IDOCK:   -1.27 KCAL/MOL
REMARK 923 INTER-LIGAND FREE ENERGY PREDICTED BY IDOCK:   -1.00 KCAL/MOL
REMARK 924 INTRA-LIGAND FREE ENERGY PREDICTED BY IDOCK:   -0.27 KCAL/MOL
REMARK 927      BINDING AFFINITY PREDICTED BY RF-SCORE:    0.00 PKD
ROOT
HETATM    1 ZN   UNL     1     -11.576   9.770  64.034  1.00  0.00     0.881 Zn 
HETATM    2  C   UNL     2      -9.227  11.928  65.117  1.00  0.00     0.148 C  
HETATM    3  O   UNL     2      -8.369  12.704  65.995  1.00  0.00     0.489 OA 
HETATM    4  C   UNL     3      -9.764  15.654  66.255  1.00  0.00    -0.301 C  
HETATM    5  H   UNL     2     -10.472   9.831  68.468  1.00  0.00     0.000 HD 
HETATM    6  O   UNL     3      -8.894  16.375  67.144  1.00  0.00    -0.186 OA 
HETATM    7  O   UNL     3     -10.809  14.385  69.469  1.00  0.00    -0.329 OA 
HETATM    8  C   UNL     3     -10.801  14.996  67.155  1.00  0.00    -0.314 C  
HETATM    9  C   UNL     2      -8.558  12.332  67.299  1.00  0.00    -0.183 C  
HETATM   10  O   UNL     2     -10.477   9.925  65.540  1.00  0.00    -0.126 OA 
HETATM   11  C   UNL     3      -9.157  15.980  68.427  1.00  0.00    -0.192 C  
HETATM   12  C   UNL     2      -9.524  11.228  67.311  1.00  0.00    -0.173 C  
HETATM   13  O   UNL     2      -9.847  10.546  68.460  1.00  0.00    -0.156 OA 
HETATM   14  O   UNL     2      -7.933  12.738  68.265  1.00  0.00    -0.139 OA 
HETATM   15  C   UNL     2      -9.867  10.901  66.048  1.00  0.00    -0.233 C  
HETATM   16  O   UNL     3     -11.775  14.370  66.650  1.00  0.00    -0.371 OA 
HETATM   17  H   UNL     3     -11.566  13.810  69.452  1.00  0.00     0.000 HD 
HETATM   18  C   UNL     3     -10.324  15.094  68.401  1.00  0.00    -0.229 C  
HETATM   19  O   UNL     3      -8.536  16.377  69.408  1.00  0.00    -0.166 OA 
ENDROOT
BRANCH   2  20
HETATM   20  C   UNL     2     -10.115  12.905  64.264  1.00  0.00    -0.226 C  
HETATM   21  O   UNL     2      -9.441  13.253  63.038  1.00  0.00     1.715 OA 
HETATM   22  H   UNL     2      -9.978  13.844  62.523  1.00  0.00     0.000 HD 
BRANCH  20  23
HETATM   23  C   UNL     2     -11.553  12.578  63.843  1.00  0.00    -0.442 C  
HETATM   24  H   UNL     2     -13.193  13.529  63.113  1.00  0.00     0.000 HD 
HETATM   25  O   UNL     2     -12.302  13.731  63.374  1.00  0.00    -0.750 OA 
ENDBRANCH  20  23
ENDBRANCH   2  20
BRANCH   4  26
HETATM   26  C   UNL     3     -10.109  16.548  65.043  1.00  0.00     0.506 C  
HETATM   27  H   UNL     3     -11.473  16.666  63.541  1.00  0.00     0.000 HD 
HETATM   28  O   UNL     3     -11.261  16.117  64.286  1.00  0.00    -0.660 OA 
BRANCH  26  29
HETATM   29  C   UNL     3     -10.211  18.029  65.397  1.00  0.00     0.459 C  
HETATM   30  O   UNL     3      -8.904  18.608  65.494  1.00  0.00    -0.024 OA 
HETATM   31  H   UNL     3      -8.967  19.530  65.715  1.00  0.00     0.000 HD 
ENDBRANCH  26  29
ENDBRANCH   4  26
TORSDOF 4
ENDMDL
MODEL      158
REMARK 921   NORMALIZED FREE ENERGY PREDICTED BY IDOCK:   -0.16 KCAL/MOL
REMARK 922        TOTAL FREE ENERGY PREDICTED BY IDOCK:   -1.07 KCAL/MOL
REMARK 923 INTER-LIGAND FREE ENERGY PREDICTED BY IDOCK:   -2.69 KCAL/MOL
REMARK 924 INTRA-LIGAND FREE ENERGY PREDICTED BY IDOCK:    1.62 KCAL/MOL
REMARK 927      BINDING AFFINITY PREDICTED BY RF-SCORE:    0.00 PKD
ROOT
HETATM    1 ZN   UNL     1      -9.338   6.261  64.873  1.00  0.00    -0.360 Zn 
HETATM    2  C   UNL     2      -7.483   6.273  67.685  1.00  0.00    -0.089 C  
HETATM    3  O   UNL     2      -6.645   5.828  68.785  1.00  0.00    -0.046 OA 
HETATM    4  C   UNL     3      -8.660   5.324  71.316  1.00  0.00    -0.128 C  
HETATM    5  H   UNL     2      -6.925   2.539  65.974  1.00  0.00     0.000 HD 
HETATM    6  O   UNL     3      -7.793   4.868  72.368  1.00  0.00    -0.090 OA 
HETATM    7  O   UNL     3      -8.201   1.858  70.418  1.00  0.00    -0.041 OA 
HETATM    8  C   UNL     3      -9.117   4.061  70.598  1.00  0.00    -0.111 C  
HETATM    9  C   UNL     2      -6.288   4.517  68.613  1.00  0.00    -0.036 C  
HETATM   10  O   UNL     2      -7.903   5.268  65.548  1.00  0.00    -0.089 OA 
HETATM   11  C   UNL     3      -7.503   3.549  72.153  1.00  0.00    -0.057 C  
HETATM   12  C   UNL     2      -6.841   4.069  67.331  1.00  0.00    -0.051 C  
HETATM   13  O   UNL     2      -6.567   2.830  66.804  1.00  0.00    -0.035 OA 
HETATM   14  O   UNL     2      -5.527   3.876  69.320  1.00  0.00    -0.011 OA 
HETATM   15  C   UNL     2      -7.467   5.094  66.715  1.00  0.00    -0.087 C  
HETATM   16  O   UNL     3      -9.981   4.130  69.679  1.00  0.00    -0.195 OA 
HETATM   17  H   UNL     3      -8.727   1.555  69.686  1.00  0.00     0.000 HD 
HETATM   18  C   UNL     3      -8.312   3.083  71.024  1.00  0.00    -0.061 C  
HETATM   19  O   UNL     3      -6.738   2.893  72.852  1.00  0.00    -0.024 OA 
ENDROOT
BRANCH   2  20
HETATM   20  C   UNL     2      -8.838   6.827  68.256  1.00  0.00    -0.125 C  
HETATM   21  O   UNL     2      -8.624   8.085  68.925  1.00  0.00    -0.130 OA 
HETATM   22  H   UNL     2      -9.443   8.420  69.270  1.00  0.00     0.000 HD 
BRANCH  20  23
HETATM   23  C   UNL     2     -10.084   7.049  67.390  1.00  0.00    -0.195 C  
HETATM   24  H   UNL     2     -10.602   7.091  65.427  1.00  0.00     0.000 HD 
HETATM   25  O   UNL     2      -9.830   6.954  65.964  1.00  0.00     0.086 OA 
ENDBRANCH  20  23
ENDBRANCH   2  20
BRANCH   4  26
HETATM   26  C   UNL     3      -9.619   6.400  71.874  1.00  0.00    -0.151 C  
HETATM   27  H   UNL     3     -10.889   7.840  71.211  1.00  0.00     0.000 HD 
HETATM   28  O   UNL     3     -10.300   7.179  70.868  1.00  0.00    -0.201 OA 
BRANCH  26  29
HETATM   29  C   UNL     3     -10.605   5.851  72.902  1.00  0.00    -0.235 C  
HETATM   30  O   UNL     3     -11.882   5.623  72.293  1.00  0.00    -0.226 OA 
HETATM   31  H   UNL     3     -12.495   5.282  72.933  1.00  0.00     0.000 HD 
ENDBRANCH  26  29
ENDBRANCH   4  26
TORSDOF 4
ENDMDL
MODEL      159
REMARK 921   NORMALIZED FREE ENERGY PREDICTED BY IDOCK:    0.42 KCAL/MOL
REMARK 922        TOTAL FREE ENERGY PREDICTED BY IDOCK:   -0.36 KCAL/MOL
REMARK 923 INTER-LIGAND FREE ENERGY PREDICTED BY IDOCK:   -3.31 KCAL/MOL
REMARK 924 INTRA-LIGAND FREE ENERGY PREDICTED BY IDOCK:    2.95 KCAL/MOL
REMARK 927      BINDING AFFINITY PREDICTED BY RF-SCORE:    0.00 PKD
ROOT
HETATM    1 ZN   UNL     1      -5.453  20.543  69.954  1.00  0.00    -0.203 Zn 
HETATM    2  C   UNL     2      -7.582  19.201  67.714  1.00  0.00    -0.253 C  
HETATM    3  O   UNL     2      -8.800  18.708  67.094  1.00  0.00    -0.266 OA 
HETATM    4  C   UNL     3      -8.787  15.462  67.521  1.00  0.00    -0.180 C  
HETATM    5  H   UNL     2      -9.947  20.695  70.774  1.00  0.00     0.000 HD 
HETATM    6  O   UNL     3     -10.014  15.025  66.913  1.00  0.00    -0.238 OA 
HETATM    7  O   UNL     3     -11.188  16.239  70.103  1.00  0.00    -0.358 OA 
HETATM    8  C   UNL     3      -9.137  15.733  68.978  1.00  0.00    -0.245 C  
HETATM    9  C   UNL     2      -9.881  18.962  67.897  1.00  0.00    -0.345 C  
HETATM   10  O   UNL     2      -7.277  20.695  69.566  1.00  0.00     0.391 OA 
HETATM   11  C   UNL     3     -11.044  15.278  67.777  1.00  0.00    -0.318 C  
HETATM   12  C   UNL     2      -9.402  19.704  69.067  1.00  0.00    -0.232 C  
HETATM   13  O   UNL     2     -10.257  20.215  70.015  1.00  0.00    -0.014 OA 
HETATM   14  O   UNL     2     -11.050  18.744  67.625  1.00  0.00    -0.300 OA 
HETATM   15  C   UNL     2      -8.079  19.945  68.952  1.00  0.00    -0.049 C  
HETATM   16  O   UNL     3      -8.231  16.036  69.804  1.00  0.00     0.001 OA 
HETATM   17  H   UNL     3     -10.817  16.546  70.923  1.00  0.00     0.000 HD 
HETATM   18  C   UNL     3     -10.473  15.752  69.040  1.00  0.00    -0.225 C  
HETATM   19  O   UNL     3     -12.224  15.067  67.517  1.00  0.00    -0.071 OA 
ENDROOT
BRANCH   2  20
HETATM   20  C   UNL     2      -6.552  18.021  67.844  1.00  0.00    -0.193 C  
HETATM   21  O   UNL     2      -6.856  17.216  69.000  1.00  0.00    -0.210 OA 
HETATM   22  H   UNL     2      -6.233  16.503  69.079  1.00  0.00     0.000 HD 
BRANCH  20  23
HETATM   23  C   UNL     2      -6.287  17.013  66.720  1.00  0.00    -0.211 C  
HETATM   24  H   UNL     2      -6.410  16.901  64.696  1.00  0.00     0.000 HD 
HETATM   25  O   UNL     2      -6.575  17.526  65.392  1.00  0.00    -0.042 OA 
ENDBRANCH  20  23
ENDBRANCH   2  20
BRANCH   4  26
HETATM   26  C   UNL     3      -7.634  14.543  67.062  1.00  0.00     0.149 C  
HETATM   27  H   UNL     3      -5.798  13.930  67.682  1.00  0.00     0.000 HD 
HETATM   28  O   UNL     3      -6.507  14.495  67.964  1.00  0.00    -0.120 OA 
BRANCH  26  29
HETATM   29  C   UNL     3      -8.097  13.137  66.690  1.00  0.00     0.389 C  
HETATM   30  O   UNL     3      -8.965  12.616  67.703  1.00  0.00    -0.169 OA 
HETATM   31  H   UNL     3      -9.253  11.740  67.472  1.00  0.00     0.000 HD 
ENDBRANCH  26  29
ENDBRANCH   4  26
TORSDOF 4
ENDMDL
MODEL      160
REMARK 921   NORMALIZED FREE ENERGY PREDICTED BY IDOCK:    0.97 KCAL/MOL
REMARK 922        TOTAL FREE ENERGY PREDICTED BY IDOCK:    0.32 KCAL/MOL
REMARK 923 INTER-LIGAND FREE ENERGY PREDICTED BY IDOCK:   -3.01 KCAL/MOL
REMARK 924 INTRA-LIGAND FREE ENERGY PREDICTED BY IDOCK:    3.33 KCAL/MOL
REMARK 927      BINDING AFFINITY PREDICTED BY RF-SCORE:    0.00 PKD
ROOT
HETATM    1 ZN   UNL     1      -7.760  20.411  66.582  1.00  0.00    -0.251 Zn 
HETATM    2  C   UNL     2      -8.334  17.147  65.972  1.00  0.00    -0.134 C  
HETATM    3  O   UNL     2      -9.008  15.867  65.843  1.00  0.00    -0.323 OA 
HETATM    4  C   UNL     3      -8.325  14.202  68.578  1.00  0.00    -0.155 C  
HETATM    5  H   UNL     2     -12.056  18.849  66.629  1.00  0.00     0.000 HD 
HETATM    6  O   UNL     3      -9.027  12.958  68.415  1.00  0.00    -0.187 OA 
HETATM    7  O   UNL     3     -11.693  15.153  69.467  1.00  0.00    -0.290 OA 
HETATM    8  C   UNL     3      -9.306  15.125  69.289  1.00  0.00    -0.207 C  
HETATM    9  C   UNL     2     -10.349  16.008  66.083  1.00  0.00    -0.328 C  
HETATM   10  O   UNL     2      -9.228  19.371  66.065  1.00  0.00    -0.407 OA 
HETATM   11  C   UNL     3     -10.349  13.163  68.699  1.00  0.00    -0.196 C  
HETATM   12  C   UNL     2     -10.613  17.431  66.319  1.00  0.00    -0.194 C  
HETATM   13  O   UNL     2     -11.885  17.928  66.476  1.00  0.00     2.027 OA 
HETATM   14  O   UNL     2     -11.198  15.138  65.976  1.00  0.00    -0.338 OA 
HETATM   15  C   UNL     2      -9.475  18.142  66.169  1.00  0.00    -0.153 C  
HETATM   16  O   UNL     3      -8.938  16.272  69.669  1.00  0.00    -0.050 OA 
HETATM   17  H   UNL     3     -11.790  16.039  69.796  1.00  0.00     0.000 HD 
HETATM   18  C   UNL     3     -10.500  14.529  69.206  1.00  0.00    -0.173 C  
HETATM   19  O   UNL     3     -11.214  12.299  68.594  1.00  0.00    -0.222 OA 
ENDROOT
BRANCH   2  20
HETATM   20  C   UNL     2      -7.182  17.022  67.033  1.00  0.00    -0.189 C  
HETATM   21  O   UNL     2      -6.655  15.681  67.045  1.00  0.00    -0.283 OA 
HETATM   22  H   UNL     2      -5.958  15.606  67.687  1.00  0.00     0.000 HD 
BRANCH  20  23
HETATM   23  C   UNL     2      -5.946  17.931  67.039  1.00  0.00    -0.141 C  
HETATM   24  H   UNL     2      -5.413  19.803  66.458  1.00  0.00     0.000 HD 
HETATM   25  O   UNL     2      -6.178  19.240  66.454  1.00  0.00    -0.173 OA 
ENDBRANCH  20  23
ENDBRANCH   2  20
BRANCH   4  26
HETATM   26  C   UNL     3      -6.889  13.917  69.071  1.00  0.00    -0.111 C  
HETATM   27  H   UNL     3      -5.801  12.411  69.893  1.00  0.00     0.000 HD 
HETATM   28  O   UNL     3      -6.684  12.586  69.591  1.00  0.00    -0.049 OA 
BRANCH  26  29
HETATM   29  C   UNL     3      -5.819  14.274  68.043  1.00  0.00    -0.134 C  
HETATM   30  O   UNL     3      -5.474  13.122  67.264  1.00  0.00    -0.345 OA 
HETATM   31  H   UNL     3      -4.808  13.345  66.624  1.00  0.00     0.000 HD 
ENDBRANCH  26  29
ENDBRANCH   4  26
TORSDOF 4
ENDMDL
MODEL      161
REMARK 921   NORMALIZED FREE ENERGY PREDICTED BY IDOCK:    0.99 KCAL/MOL
REMARK 922        TOTAL FREE ENERGY PREDICTED BY IDOCK:    0.35 KCAL/MOL
REMARK 923 INTER-LIGAND FREE ENERGY PREDICTED BY IDOCK:   -2.22 KCAL/MOL
REMARK 924 INTRA-LIGAND FREE ENERGY PREDICTED BY IDOCK:    2.56 KCAL/MOL
REMARK 927      BINDING AFFINITY PREDICTED BY RF-SCORE:    0.00 PKD
ROOT
HETATM    1 ZN   UNL     1      -9.854  15.756  67.502  1.00  0.00    -0.212 Zn 
HETATM    2  C   UNL     2      -9.221  12.771  68.930  1.00  0.00     0.316 C  
HETATM    3  O   UNL     2      -8.514  11.606  69.432  1.00  0.00     0.329 OA 
HETATM    4  C   UNL     3      -8.782   9.310  67.114  1.00  0.00    -0.127 C  
HETATM    5  H   UNL     2      -5.523  14.533  68.300  1.00  0.00     0.000 HD 
HETATM    6  O   UNL     3      -8.054   8.190  67.645  1.00  0.00    -0.123 OA 
HETATM    7  O   UNL     3      -5.374  10.265  66.400  1.00  0.00    -0.043 OA 
HETATM    8  C   UNL     3      -7.761  10.110  66.316  1.00  0.00    -0.110 C  
HETATM    9  C   UNL     2      -7.161  11.782  69.316  1.00  0.00    -0.032 C  
HETATM   10  O   UNL     2      -8.418  14.970  68.409  1.00  0.00    -0.142 OA 
HETATM   11  C   UNL     3      -6.716   8.416  67.467  1.00  0.00    -0.063 C  
HETATM   12  C   UNL     2      -6.931  13.127  68.778  1.00  0.00    -0.103 C  
HETATM   13  O   UNL     2      -5.672  13.662  68.648  1.00  0.00    -0.079 OA 
HETATM   14  O   UNL     2      -6.295  11.022  69.719  1.00  0.00    -0.092 OA 
HETATM   15  C   UNL     2      -8.108  13.771  68.628  1.00  0.00    -0.084 C  
HETATM   16  O   UNL     3      -8.128  11.109  65.637  1.00  0.00    -0.062 OA 
HETATM   17  H   UNL     3      -5.275  11.056  65.883  1.00  0.00     0.000 HD 
HETATM   18  C   UNL     3      -6.562   9.635  66.670  1.00  0.00    -0.071 C  
HETATM   19  O   UNL     3      -5.835   7.663  67.869  1.00  0.00    -0.034 OA 
ENDROOT
BRANCH   2  20
HETATM   20  C   UNL     2     -10.227  12.323  67.809  1.00  0.00    -0.202 C  
HETATM   21  O   UNL     2      -9.542  12.180  66.549  1.00  0.00    -0.216 OA 
HETATM   22  H   UNL     2     -10.150  11.910  65.871  1.00  0.00     0.000 HD 
BRANCH  20  23
HETATM   23  C   UNL     2     -11.107  11.072  67.923  1.00  0.00    -0.288 C  
HETATM   24  H   UNL     2     -12.795  10.463  68.873  1.00  0.00     0.000 HD 
HETATM   25  O   UNL     2     -12.250  11.238  68.803  1.00  0.00    -0.532 OA 
ENDBRANCH  20  23
ENDBRANCH   2  20
BRANCH   4  26
HETATM   26  C   UNL     3     -10.133   8.819  66.548  1.00  0.00    -0.279 C  
HETATM   27  H   UNL     3     -11.285   9.022  64.887  1.00  0.00     0.000 HD 
HETATM   28  O   UNL     3     -10.455   9.324  65.235  1.00  0.00     0.676 OA 
BRANCH  26  29
HETATM   29  C   UNL     3     -10.293   7.302  66.605  1.00  0.00    -0.158 C  
HETATM   30  O   UNL     3     -11.048   6.924  67.762  1.00  0.00    -0.485 OA 
HETATM   31  H   UNL     3     -11.147   5.980  67.797  1.00  0.00     0.000 HD 
ENDBRANCH  26  29
ENDBRANCH   4  26
TORSDOF 4
ENDMDL
MODEL      162
REMARK 921   NORMALIZED FREE ENERGY PREDICTED BY IDOCK:    1.44 KCAL/MOL
REMARK 922        TOTAL FREE ENERGY PREDICTED BY IDOCK:    0.90 KCAL/MOL
REMARK 923 INTER-LIGAND FREE ENERGY PREDICTED BY IDOCK:    1.11 KCAL/MOL
REMARK 924 INTRA-LIGAND FREE ENERGY PREDICTED BY IDOCK:   -0.21 KCAL/MOL
REMARK 927      BINDING AFFINITY PREDICTED BY RF-SCORE:    0.00 PKD
ROOT
HETATM    1 ZN   UNL     1      -9.083  16.765  67.624  1.00  0.00    -0.199 Zn 
HETATM    2  C   UNL     2     -11.791  14.770  67.814  1.00  0.00    -0.294 C  
HETATM    3  O   UNL     2     -12.879  13.970  68.351  1.00  0.00     0.630 OA 
HETATM    4  C   UNL     3     -11.841  10.866  68.290  1.00  0.00    -0.081 C  
HETATM    5  H   UNL     2     -11.077  16.085  71.680  1.00  0.00     0.000 HD 
HETATM    6  O   UNL     3     -12.937  10.120  68.846  1.00  0.00     1.231 OA 
HETATM    7  O   UNL     3     -11.370  11.422  71.826  1.00  0.00     1.607 OA 
HETATM    8  C   UNL     3     -10.957  11.223  69.477  1.00  0.00    -0.191 C  
HETATM    9  C   UNL     2     -12.929  14.087  69.715  1.00  0.00     0.503 C  
HETATM   10  O   UNL     2     -10.479  16.495  68.841  1.00  0.00    -0.262 OA 
HETATM   11  C   UNL     3     -12.909  10.253  70.207  1.00  0.00    -0.064 C  
HETATM   12  C   UNL     2     -11.890  15.039  70.119  1.00  0.00    -0.314 C  
HETATM   13  O   UNL     2     -11.750  15.468  71.418  1.00  0.00    -0.329 OA 
HETATM   14  O   UNL     2     -13.774  13.604  70.451  1.00  0.00     0.617 OA 
HETATM   15  C   UNL     2     -11.266  15.532  69.029  1.00  0.00    -0.303 C  
HETATM   16  O   UNL     3      -9.847  11.797  69.292  1.00  0.00     0.123 OA 
HETATM   17  H   UNL     3     -10.576  11.889  72.061  1.00  0.00     0.000 HD 
HETATM   18  C   UNL     3     -11.687  10.974  70.570  1.00  0.00    -0.318 C  
HETATM   19  O   UNL     3     -13.753   9.776  70.960  1.00  0.00    -0.277 OA 
ENDROOT
BRANCH   2  20
HETATM   20  C   UNL     2     -10.840  13.849  66.968  1.00  0.00    -0.285 C  
HETATM   21  O   UNL     2     -11.523  13.364  65.796  1.00  0.00    -0.310 OA 
HETATM   22  H   UNL     2     -10.948  12.807  65.285  1.00  0.00     0.000 HD 
BRANCH  20  23
HETATM   23  C   UNL     2      -9.465  14.305  66.462  1.00  0.00    -0.287 C  
HETATM   24  H   UNL     2      -8.458  14.488  64.708  1.00  0.00     0.000 HD 
HETATM   25  O   UNL     2      -9.309  14.206  65.022  1.00  0.00     0.434 OA 
ENDBRANCH  20  23
ENDBRANCH   2  20
BRANCH   4  26
HETATM   26  C   UNL     3     -11.337  10.157  67.014  1.00  0.00     0.457 C  
HETATM   27  H   UNL     3     -10.376  10.589  65.276  1.00  0.00     0.000 HD 
HETATM   28  O   UNL     3     -10.687  11.025  66.060  1.00  0.00    -0.245 OA 
BRANCH  26  29
HETATM   29  C   UNL     3     -10.481   8.928  67.307  1.00  0.00    -0.277 C  
HETATM   30  O   UNL     3     -11.274   7.738  67.221  1.00  0.00    -0.457 OA 
HETATM   31  H   UNL     3     -10.741   6.973  67.403  1.00  0.00     0.000 HD 
ENDBRANCH  26  29
ENDBRANCH   4  26
TORSDOF 4
ENDMDL
MODEL      163
REMARK 921   NORMALIZED FREE ENERGY PREDICTED BY IDOCK:    3.58 KCAL/MOL
REMARK 922        TOTAL FREE ENERGY PREDICTED BY IDOCK:    3.54 KCAL/MOL
REMARK 923 INTER-LIGAND FREE ENERGY PREDICTED BY IDOCK:    1.09 KCAL/MOL
REMARK 924 INTRA-LIGAND FREE ENERGY PREDICTED BY IDOCK:    2.45 KCAL/MOL
REMARK 927      BINDING AFFINITY PREDICTED BY RF-SCORE:    0.00 PKD
ROOT
HETATM    1 ZN   UNL     1      -5.598  18.410  69.766  1.00  0.00    -0.169 Zn 
HETATM    2  C   UNL     2      -7.815  16.756  67.842  1.00  0.00    -0.172 C  
HETATM    3  O   UNL     2      -9.067  16.255  67.302  1.00  0.00    -0.199 OA 
HETATM    4  C   UNL     3      -9.482  13.274  68.589  1.00  0.00    -0.016 C  
HETATM    5  H   UNL     2     -10.057  19.298  70.229  1.00  0.00     0.000 HD 
HETATM    6  O   UNL     3     -10.736  12.829  68.045  1.00  0.00    -0.218 OA 
HETATM    7  O   UNL     3     -11.838  15.002  70.709  1.00  0.00    -0.279 OA 
HETATM    8  C   UNL     3      -9.837  13.973  69.894  1.00  0.00     1.151 C  
HETATM    9  C   UNL     2     -10.129  16.843  67.937  1.00  0.00    -0.288 C  
HETATM   10  O   UNL     2      -7.376  18.658  69.237  1.00  0.00    -0.216 OA 
HETATM   11  C   UNL     3     -11.750  13.428  68.742  1.00  0.00    -0.340 C  
HETATM   12  C   UNL     2      -9.594  17.819  68.891  1.00  0.00    -0.222 C  
HETATM   13  O   UNL     2     -10.404  18.666  69.610  1.00  0.00     0.177 OA 
HETATM   14  O   UNL     2     -11.309  16.694  67.661  1.00  0.00    -0.092 OA 
HETATM   15  C   UNL     2      -8.248  17.865  68.799  1.00  0.00    -0.224 C  
HETATM   16  O   UNL     3      -8.923  14.386  70.662  1.00  0.00     1.957 OA 
HETATM   17  H   UNL     3     -11.455  15.479  71.437  1.00  0.00     0.000 HD 
HETATM   18  C   UNL     3     -11.160  14.162  69.864  1.00  0.00    -0.029 C  
HETATM   19  O   UNL     3     -12.940  13.290  68.475  1.00  0.00     1.168 OA 
ENDROOT
BRANCH   2  20
HETATM   20  C   UNL     2      -6.948  15.548  68.350  1.00  0.00    -0.115 C  
HETATM   21  O   UNL     2      -5.566  15.736  67.989  1.00  0.00    -0.112 OA 
HETATM   22  H   UNL     2      -5.042  15.005  68.296  1.00  0.00     0.000 HD 
BRANCH  20  23
HETATM   23  C   UNL     2      -6.915  15.099  69.816  1.00  0.00    -0.174 C  
HETATM   24  H   UNL     2      -5.561  14.515  71.212  1.00  0.00     0.000 HD 
HETATM   25  O   UNL     2      -5.582  14.793  70.304  1.00  0.00    -0.111 OA 
ENDBRANCH  20  23
ENDBRANCH   2  20
BRANCH   4  26
HETATM   26  C   UNL     3      -8.442  12.137  68.469  1.00  0.00    -0.083 C  
HETATM   27  H   UNL     3      -8.191  10.359  67.518  1.00  0.00     0.000 HD 
HETATM   28  O   UNL     3      -8.830  11.057  67.592  1.00  0.00    -0.130 OA 
BRANCH  26  29
HETATM   29  C   UNL     3      -7.041  12.638  68.133  1.00  0.00    -0.102 C  
HETATM   30  O   UNL     3      -6.105  12.202  69.127  1.00  0.00    -0.068 OA 
HETATM   31  H   UNL     3      -5.233  12.514  68.918  1.00  0.00     0.000 HD 
ENDBRANCH  26  29
ENDBRANCH   4  26
TORSDOF 4
ENDMDL
MODEL      164
REMARK 921   NORMALIZED FREE ENERGY PREDICTED BY IDOCK:    3.88 KCAL/MOL
REMARK 922        TOTAL FREE ENERGY PREDICTED BY IDOCK:    3.91 KCAL/MOL
REMARK 923 INTER-LIGAND FREE ENERGY PREDICTED BY IDOCK:    3.75 KCAL/MOL
REMARK 924 INTRA-LIGAND FREE ENERGY PREDICTED BY IDOCK:    0.16 KCAL/MOL
REMARK 927      BINDING AFFINITY PREDICTED BY RF-SCORE:    0.00 PKD
ROOT
HETATM    1 ZN   UNL     1     -11.043  18.639  72.865  1.00  0.00    -0.191 Zn 
HETATM    2  C   UNL     2     -11.532  17.739  69.655  1.00  0.00     2.610 C  
HETATM    3  O   UNL     2     -11.609  16.940  68.445  1.00  0.00    -0.011 OA 
HETATM    4  C   UNL     3      -8.824  17.489  66.815  1.00  0.00    -0.256 C  
HETATM    5  H   UNL     2     -10.901  14.212  71.740  1.00  0.00     0.000 HD 
HETATM    6  O   UNL     3      -8.937  16.666  65.642  1.00  0.00    -0.463 OA 
HETATM    7  O   UNL     3      -7.939  14.243  68.124  1.00  0.00    -0.121 OA 
HETATM    8  C   UNL     3      -8.137  16.613  67.854  1.00  0.00    -0.172 C  
HETATM    9  C   UNL     2     -11.363  15.622  68.726  1.00  0.00    -0.349 C  
HETATM   10  O   UNL     2     -11.509  17.070  71.959  1.00  0.00     0.037 OA 
HETATM   11  C   UNL     3      -8.648  15.374  65.986  1.00  0.00     0.242 C  
HETATM   12  C   UNL     2     -11.175  15.504  70.175  1.00  0.00    -0.318 C  
HETATM   13  O   UNL     2     -11.023  14.289  70.801  1.00  0.00     0.216 OA 
HETATM   14  O   UNL     2     -11.431  14.690  67.941  1.00  0.00    -0.299 OA 
HETATM   15  C   UNL     2     -11.360  16.704  70.765  1.00  0.00     0.135 C  
HETATM   16  O   UNL     3      -7.801  17.097  68.971  1.00  0.00    -0.234 OA 
HETATM   17  H   UNL     3      -7.640  14.237  69.027  1.00  0.00     0.000 HD 
HETATM   18  C   UNL     3      -8.189  15.365  67.376  1.00  0.00    -0.183 C  
HETATM   19  O   UNL     3      -8.715  14.426  65.209  1.00  0.00     1.628 OA 
ENDROOT
BRANCH   2  20
HETATM   20  C   UNL     2     -10.477  18.886  69.453  1.00  0.00     0.594 C  
HETATM   21  O   UNL     2     -10.876  19.749  68.370  1.00  0.00    -0.347 OA 
HETATM   22  H   UNL     2     -10.238  20.442  68.248  1.00  0.00     0.000 HD 
BRANCH  20  23
HETATM   23  C   UNL     2     -10.049  19.838  70.577  1.00  0.00     1.192 C  
HETATM   24  H   UNL     2      -8.399  20.857  71.180  1.00  0.00     0.000 HD 
HETATM   25  O   UNL     2      -8.665  20.268  70.485  1.00  0.00     1.080 OA 
ENDBRANCH  20  23
ENDBRANCH   2  20
BRANCH   4  26
HETATM   26  C   UNL     3      -8.334  18.896  66.406  1.00  0.00    -0.296 C  
HETATM   27  H   UNL     3      -8.499  20.831  67.005  1.00  0.00     0.000 HD 
HETATM   28  O   UNL     3      -8.800  19.966  67.256  1.00  0.00    -0.308 OA 
BRANCH  26  29
HETATM   29  C   UNL     3      -6.823  18.973  66.209  1.00  0.00    -0.219 C  
HETATM   30  O   UNL     3      -6.454  20.257  65.690  1.00  0.00    -0.215 OA 
HETATM   31  H   UNL     3      -5.513  20.305  65.567  1.00  0.00     0.000 HD 
ENDBRANCH  26  29
ENDBRANCH   4  26
TORSDOF 4
ENDMDL
MODEL      165
REMARK 921   NORMALIZED FREE ENERGY PREDICTED BY IDOCK:    7.62 KCAL/MOL
REMARK 922        TOTAL FREE ENERGY PREDICTED BY IDOCK:    8.52 KCAL/MOL
REMARK 923 INTER-LIGAND FREE ENERGY PREDICTED BY IDOCK:    6.99 KCAL/MOL
REMARK 924 INTRA-LIGAND FREE ENERGY PREDICTED BY IDOCK:    1.53 KCAL/MOL
REMARK 927      BINDING AFFINITY PREDICTED BY RF-SCORE:    0.00 PKD
ROOT
HETATM    1 ZN   UNL     1     -14.177  10.515  72.229  1.00  0.00    -0.252 Zn 
HETATM    2  C   UNL     2     -11.092  11.598  71.414  1.00  0.00     3.550 C  
HETATM    3  O   UNL     2     -10.010  12.304  70.749  1.00  0.00     4.756 OA 
HETATM    4  C   UNL     3      -8.753  10.202  68.577  1.00  0.00    -0.123 C  
HETATM    5  H   UNL     2     -13.730  13.955  69.252  1.00  0.00     0.000 HD 
HETATM    6  O   UNL     3      -7.706  10.947  67.934  1.00  0.00    -0.100 OA 
HETATM    7  O   UNL     3     -10.630  12.198  66.226  1.00  0.00    -0.238 OA 
HETATM    8  C   UNL     3      -9.997  10.451  67.735  1.00  0.00    -0.175 C  
HETATM    9  C   UNL     2     -10.510  13.189  69.831  1.00  0.00     1.190 C  
HETATM   10  O   UNL     2     -13.445  12.062  71.471  1.00  0.00    -0.140 OA 
HETATM   11  C   UNL     3      -8.270  11.785  67.011  1.00  0.00    -0.172 C  
HETATM   12  C   UNL     2     -11.974  13.135  69.912  1.00  0.00    -0.317 C  
HETATM   13  O   UNL     2     -12.782  13.989  69.200  1.00  0.00     0.069 OA 
HETATM   14  O   UNL     2      -9.865  13.985  69.168  1.00  0.00    -0.054 OA 
HETATM   15  C   UNL     2     -12.351  12.286  70.891  1.00  0.00    -0.267 C  
HETATM   16  O   UNL     3     -11.071   9.838  67.992  1.00  0.00    -0.222 OA 
HETATM   17  H   UNL     3     -11.559  11.999  66.177  1.00  0.00     0.000 HD 
HETATM   18  C   UNL     3      -9.701  11.480  66.935  1.00  0.00    -0.186 C  
HETATM   19  O   UNL     3      -7.636  12.592  66.340  1.00  0.00     0.495 OA 
ENDROOT
BRANCH   2  20
HETATM   20  C   UNL     2     -10.888  10.050  71.236  1.00  0.00     0.113 C  
HETATM   21  O   UNL     2      -9.605   9.650  71.757  1.00  0.00    -0.063 OA 
HETATM   22  H   UNL     2      -9.482   8.715  71.649  1.00  0.00     0.000 HD 
BRANCH  20  23
HETATM   23  C   UNL     2     -11.874   9.007  71.775  1.00  0.00    -0.372 C  
HETATM   24  H   UNL     2     -13.541   8.014  71.175  1.00  0.00     0.000 HD 
HETATM   25  O   UNL     2     -12.930   8.660  70.841  1.00  0.00    -0.028 OA 
ENDBRANCH  20  23
ENDBRANCH   2  20
BRANCH   4  26
HETATM   26  C   UNL     3      -8.225   8.798  68.950  1.00  0.00    -0.118 C  
HETATM   27  H   UNL     3      -6.461   7.817  69.185  1.00  0.00     0.000 HD 
HETATM   28  O   UNL     3      -6.786   8.679  68.955  1.00  0.00    -0.054 OA 
BRANCH  26  29
HETATM   29  C   UNL     3      -8.824   8.255  70.244  1.00  0.00    -0.141 C  
HETATM   30  O   UNL     3      -9.335   6.933  70.039  1.00  0.00    -0.158 OA 
HETATM   31  H   UNL     3      -9.708   6.595  70.845  1.00  0.00     0.000 HD 
ENDBRANCH  26  29
ENDBRANCH   4  26
TORSDOF 4
ENDMDL
MODEL      166
REMARK 921   NORMALIZED FREE ENERGY PREDICTED BY IDOCK:    9.04 KCAL/MOL
REMARK 922        TOTAL FREE ENERGY PREDICTED BY IDOCK:   10.28 KCAL/MOL
REMARK 923 INTER-LIGAND FREE ENERGY PREDICTED BY IDOCK:    9.09 KCAL/MOL
REMARK 924 INTRA-LIGAND FREE ENERGY PREDICTED BY IDOCK:    1.19 KCAL/MOL
REMARK 927      BINDING AFFINITY PREDICTED BY RF-SCORE:    0.00 PKD
ROOT
HETATM    1 ZN   UNL     1      -6.946  19.362  63.537  1.00  0.00     0.383 Zn 
HETATM    2  C   UNL     2      -6.411  18.746  66.806  1.00  0.00    -0.187 C  
HETATM    3  O   UNL     2      -6.089  18.057  68.044  1.00  0.00    -0.164 OA 
HETATM    4  C   UNL     3      -8.953  17.209  69.385  1.00  0.00     0.302 C  
HETATM    5  H   UNL     2      -5.108  15.368  64.787  1.00  0.00     0.000 HD 
HETATM    6  O   UNL     3      -8.584  16.518  70.590  1.00  0.00     2.709 OA 
HETATM    7  O   UNL     3      -8.081  13.949  68.103  1.00  0.00    -0.130 OA 
HETATM    8  C   UNL     3      -9.043  16.130  68.315  1.00  0.00    -0.190 C  
HETATM    9  C   UNL     2      -5.660  16.782  67.784  1.00  0.00    -0.129 C  
HETATM   10  O   UNL     2      -5.891  18.180  64.534  1.00  0.00     0.004 OA 
HETATM   11  C   UNL     3      -8.198  15.246  70.262  1.00  0.00     0.799 C  
HETATM   12  C   UNL     2      -5.627  16.612  66.328  1.00  0.00     0.676 C  
HETATM   13  O   UNL     2      -5.130  15.478  65.730  1.00  0.00     3.466 OA 
HETATM   14  O   UNL     2      -5.241  15.979  68.602  1.00  0.00    -0.095 OA 
HETATM   15  C   UNL     2      -5.969  17.768  65.720  1.00  0.00    -0.144 C  
HETATM   16  O   UNL     3      -9.454  16.417  67.156  1.00  0.00    -0.226 OA 
HETATM   17  H   UNL     3      -8.252  13.818  67.177  1.00  0.00     0.000 HD 
HETATM   18  C   UNL     3      -8.460  15.045  68.835  1.00  0.00    -0.192 C  
HETATM   19  O   UNL     3      -7.773  14.429  71.072  1.00  0.00     1.743 OA 
ENDROOT
BRANCH   2  20
HETATM   20  C   UNL     2      -7.894  19.261  66.870  1.00  0.00    -0.257 C  
HETATM   21  O   UNL     2      -7.926  20.701  66.853  1.00  0.00    -0.501 OA 
HETATM   22  H   UNL     2      -8.822  21.012  66.892  1.00  0.00     0.000 HD 
BRANCH  20  23
HETATM   23  C   UNL     2      -8.974  18.831  65.870  1.00  0.00     0.207 C  
HETATM   24  H   UNL     2     -10.719  19.530  65.099  1.00  0.00     0.000 HD 
HETATM   25  O   UNL     2     -10.050  19.795  65.719  1.00  0.00    -0.416 OA 
ENDBRANCH  20  23
ENDBRANCH   2  20
BRANCH   4  26
HETATM   26  C   UNL     3     -10.082  18.216  69.700  1.00  0.00     0.406 C  
HETATM   27  H   UNL     3     -10.341  20.033  70.571  1.00  0.00     0.000 HD 
HETATM   28  O   UNL     3      -9.647  19.414  70.378  1.00  0.00     0.771 OA 
BRANCH  26  29
HETATM   29  C   UNL     3     -10.941  18.555  68.485  1.00  0.00     0.592 C  
HETATM   30  O   UNL     3     -10.709  19.909  68.075  1.00  0.00    -0.340 OA 
HETATM   31  H   UNL     3     -11.244  20.120  67.319  1.00  0.00     0.000 HD 
ENDBRANCH  26  29
ENDBRANCH   4  26
TORSDOF 4
ENDMDL
MODEL      167
REMARK 921   NORMALIZED FREE ENERGY PREDICTED BY IDOCK:   14.52 KCAL/MOL
REMARK 922        TOTAL FREE ENERGY PREDICTED BY IDOCK:   17.04 KCAL/MOL
REMARK 923 INTER-LIGAND FREE ENERGY PREDICTED BY IDOCK:   13.78 KCAL/MOL
REMARK 924 INTRA-LIGAND FREE ENERGY PREDICTED BY IDOCK:    3.26 KCAL/MOL
REMARK 927      BINDING AFFINITY PREDICTED BY RF-SCORE:    0.00 PKD
ROOT
HETATM    1 ZN   UNL     1      -9.232  17.488  66.520  1.00  0.00    -0.218 Zn 
HETATM    2  C   UNL     2     -11.069  14.667  66.653  1.00  0.00    -0.334 C  
HETATM    3  O   UNL     2     -11.991  13.643  67.113  1.00  0.00    -0.382 OA 
HETATM    4  C   UNL     3     -10.149  11.313  68.489  1.00  0.00    -0.204 C  
HETATM    5  H   UNL     2     -12.380  17.023  69.801  1.00  0.00     0.000 HD 
HETATM    6  O   UNL     3     -11.101  10.337  68.945  1.00  0.00    -0.230 OA 
HETATM    7  O   UNL     3     -11.314  12.823  71.554  1.00  0.00     1.736 OA 
HETATM    8  C   UNL     3      -9.959  12.266  69.661  1.00  0.00     1.304 C  
HETATM    9  C   UNL     2     -12.613  14.044  68.266  1.00  0.00     0.570 C  
HETATM   10  O   UNL     2     -10.849  16.965  67.303  1.00  0.00    -0.257 OA 
HETATM   11  C   UNL     3     -11.659  10.785  70.111  1.00  0.00    -0.337 C  
HETATM   12  C   UNL     2     -12.154  15.404  68.570  1.00  0.00    -0.054 C  
HETATM   13  O   UNL     2     -12.677  16.143  69.604  1.00  0.00     0.054 OA 
HETATM   14  O   UNL     2     -13.498  13.446  68.857  1.00  0.00     2.720 OA 
HETATM   15  C   UNL     2     -11.323  15.838  67.599  1.00  0.00    -0.194 C  
HETATM   16  O   UNL     3      -9.092  13.182  69.601  1.00  0.00     1.321 OA 
HETATM   17  H   UNL     3     -10.857  13.615  71.815  1.00  0.00     0.000 HD 
HETATM   18  C   UNL     3     -10.955  12.005  70.514  1.00  0.00     1.652 C  
HETATM   19  O   UNL     3     -12.551  10.196  70.714  1.00  0.00    -0.316 OA 
ENDROOT
BRANCH   2  20
HETATM   20  C   UNL     2      -9.633  14.045  66.509  1.00  0.00    -0.293 C  
HETATM   21  O   UNL     2      -9.724  12.657  66.131  1.00  0.00    -0.256 OA 
HETATM   22  H   UNL     2      -8.856  12.281  66.044  1.00  0.00     0.000 HD 
BRANCH  20  23
HETATM   23  C   UNL     2      -8.554  14.632  65.592  1.00  0.00     1.755 C  
HETATM   24  H   UNL     2      -7.422  14.077  63.999  1.00  0.00     0.000 HD 
HETATM   25  O   UNL     2      -8.091  13.713  64.567  1.00  0.00     6.320 OA 
ENDBRANCH  20  23
ENDBRANCH   2  20
BRANCH   4  26
HETATM   26  C   UNL     3      -8.992  10.594  67.759  1.00  0.00    -0.140 C  
HETATM   27  H   UNL     3      -8.015  10.640  65.978  1.00  0.00     0.000 HD 
HETATM   28  O   UNL     3      -8.726  11.082  66.427  1.00  0.00    -0.161 OA 
BRANCH  26  29
HETATM   29  C   UNL     3      -7.710  10.529  68.584  1.00  0.00    -0.106 C  
HETATM   30  O   UNL     3      -7.326  11.841  69.012  1.00  0.00    -0.174 OA 
HETATM   31  H   UNL     3      -6.528  11.800  69.526  1.00  0.00     0.000 HD 
ENDBRANCH  26  29
ENDBRANCH   4  26
TORSDOF 4
ENDMDL
MODEL      168
REMARK 921   NORMALIZED FREE ENERGY PREDICTED BY IDOCK:   20.98 KCAL/MOL
REMARK 922        TOTAL FREE ENERGY PREDICTED BY IDOCK:   25.01 KCAL/MOL
REMARK 923 INTER-LIGAND FREE ENERGY PREDICTED BY IDOCK:   24.23 KCAL/MOL
REMARK 924 INTRA-LIGAND FREE ENERGY PREDICTED BY IDOCK:    0.78 KCAL/MOL
REMARK 927      BINDING AFFINITY PREDICTED BY RF-SCORE:    0.00 PKD
ROOT
HETATM    1 ZN   UNL     1     -10.014  18.279  72.218  1.00  0.00     2.700 Zn 
HETATM    2  C   UNL     2     -10.575  18.665  68.919  1.00  0.00     0.301 C  
HETATM    3  O   UNL     2     -11.066  18.446  67.569  1.00  0.00    -0.256 OA 
HETATM    4  C   UNL     3      -8.654  16.926  65.960  1.00  0.00    -0.159 C  
HETATM    5  H   UNL     2     -13.131  15.647  70.158  1.00  0.00     0.000 HD 
HETATM    6  O   UNL     3      -9.192  16.713  64.644  1.00  0.00     2.146 OA 
HETATM    7  O   UNL     3     -10.730  14.021  66.492  1.00  0.00    -0.279 OA 
HETATM    8  C   UNL     3      -9.022  15.677  66.750  1.00  0.00    -0.261 C  
HETATM    9  C   UNL     2     -11.947  17.397  67.547  1.00  0.00     2.087 C  
HETATM   10  O   UNL     2     -11.380  17.832  71.019  1.00  0.00     1.735 OA 
HETATM   11  C   UNL     3     -10.035  15.637  64.686  1.00  0.00     0.939 C  
HETATM   12  C   UNL     2     -12.114  16.926  68.925  1.00  0.00     1.483 C  
HETATM   13  O   UNL     2     -13.023  15.953  69.266  1.00  0.00     0.392 OA 
HETATM   14  O   UNL     2     -12.592  17.015  66.584  1.00  0.00     4.035 OA 
HETATM   15  C   UNL     2     -11.400  17.702  69.768  1.00  0.00     2.001 C  
HETATM   16  O   UNL     3      -8.592  15.521  67.927  1.00  0.00    -0.153 OA 
HETATM   17  H   UNL     3     -10.667  13.630  67.356  1.00  0.00     0.000 HD 
HETATM   18  C   UNL     3      -9.938  15.034  66.017  1.00  0.00    -0.310 C  
HETATM   19  O   UNL     3     -10.691  15.242  63.727  1.00  0.00     1.003 OA 
ENDROOT
BRANCH   2  20
HETATM   20  C   UNL     2      -9.005  18.594  68.917  1.00  0.00    -0.182 C  
HETATM   21  O   UNL     2      -8.443  19.922  68.919  1.00  0.00    -0.172 OA 
HETATM   22  H   UNL     2      -7.494  19.878  68.918  1.00  0.00     0.000 HD 
BRANCH  20  23
HETATM   23  C   UNL     2      -8.200  17.824  69.970  1.00  0.00     2.068 C  
HETATM   24  H   UNL     2      -6.848  16.312  70.067  1.00  0.00     0.000 HD 
HETATM   25  O   UNL     2      -7.347  16.788  69.415  1.00  0.00    -0.210 OA 
ENDBRANCH  20  23
ENDBRANCH   2  20
BRANCH   4  26
HETATM   26  C   UNL     3      -7.219  17.486  65.841  1.00  0.00    -0.160 C  
HETATM   27  H   UNL     3      -5.967  18.762  66.806  1.00  0.00     0.000 HD 
HETATM   28  O   UNL     3      -6.848  18.418  66.879  1.00  0.00    -0.183 OA 
BRANCH  26  29
HETATM   29  C   UNL     3      -6.161  16.399  65.678  1.00  0.00     3.172 C  
HETATM   30  O   UNL     3      -5.230  16.760  64.651  1.00  0.00     2.491 OA 
HETATM   31  H   UNL     3      -4.571  16.083  64.549  1.00  0.00     0.000 HD 
ENDBRANCH  26  29
ENDBRANCH   4  26
TORSDOF 4
ENDMDL
MODEL      169
REMARK 921   NORMALIZED FREE ENERGY PREDICTED BY IDOCK:   23.11 KCAL/MOL
REMARK 922        TOTAL FREE ENERGY PREDICTED BY IDOCK:   27.63 KCAL/MOL
REMARK 923 INTER-LIGAND FREE ENERGY PREDICTED BY IDOCK:   19.78 KCAL/MOL
REMARK 924 INTRA-LIGAND FREE ENERGY PREDICTED BY IDOCK:    7.85 KCAL/MOL
REMARK 927      BINDING AFFINITY PREDICTED BY RF-SCORE:    0.00 PKD
ROOT
HETATM    1 ZN   UNL     1     -12.243  18.474  67.910  1.00  0.00     0.462 Zn 
HETATM    2  C   UNL     2     -12.389  15.179  67.222  1.00  0.00     0.654 C  
HETATM    3  O   UNL     2     -12.502  13.740  67.388  1.00  0.00    -0.208 OA 
HETATM    4  C   UNL     3      -9.440  12.582  67.386  1.00  0.00    -0.184 C  
HETATM    5  H   UNL     2     -13.413  15.550  71.222  1.00  0.00     0.000 HD 
HETATM    6  O   UNL     3      -9.602  11.166  67.572  1.00  0.00    -0.167 OA 
HETATM    7  O   UNL     3      -9.986  12.383  70.949  1.00  0.00     4.940 OA 
HETATM    8  C   UNL     3      -9.306  13.158  68.789  1.00  0.00     0.130 C  
HETATM    9  C   UNL     2     -12.780  13.431  68.693  1.00  0.00     1.013 C  
HETATM   10  O   UNL     2     -13.036  16.967  68.685  1.00  0.00     2.681 OA 
HETATM   11  C   UNL     3      -9.844  10.925  68.897  1.00  0.00    -0.192 C  
HETATM   12  C   UNL     2     -12.924  14.691  69.429  1.00  0.00     0.697 C  
HETATM   13  O   UNL     2     -13.320  14.734  70.745  1.00  0.00    -0.354 OA 
HETATM   14  O   UNL     2     -13.012  12.319  69.139  1.00  0.00     0.923 OA 
HETATM   15  C   UNL     2     -12.796  15.736  68.584  1.00  0.00     1.564 C  
HETATM   16  O   UNL     3      -9.045  14.383  68.951  1.00  0.00    -0.161 OA 
HETATM   17  H   UNL     3      -9.886  13.202  71.421  1.00  0.00     0.000 HD 
HETATM   18  C   UNL     3      -9.690  12.187  69.625  1.00  0.00     1.491 C  
HETATM   19  O   UNL     3     -10.081   9.814  69.359  1.00  0.00    -0.184 OA 
ENDROOT
BRANCH   2  20
HETATM   20  C   UNL     2     -10.987  15.521  66.599  1.00  0.00    -0.248 C  
HETATM   21  O   UNL     2      -9.961  14.706  67.198  1.00  0.00    -0.237 OA 
HETATM   22  H   UNL     2      -9.113  14.913  66.821  1.00  0.00     0.000 HD 
BRANCH  20  23
HETATM   23  C   UNL     2     -10.704  15.466  65.093  1.00  0.00    -0.440 C  
HETATM   24  H   UNL     2     -11.716  15.233  63.347  1.00  0.00     0.000 HD 
HETATM   25  O   UNL     2     -11.891  15.266  64.280  1.00  0.00    -0.384 OA 
ENDBRANCH  20  23
ENDBRANCH   2  20
BRANCH   4  26
HETATM   26  C   UNL     3      -8.430  12.835  66.244  1.00  0.00     0.447 C  
HETATM   27  H   UNL     3      -7.245  11.794  64.963  1.00  0.00     0.000 HD 
HETATM   28  O   UNL     3      -7.866  11.639  65.665  1.00  0.00     0.376 OA 
BRANCH  26  29
HETATM   29  C   UNL     3      -8.967  13.766  65.162  1.00  0.00     1.859 C  
HETATM   30  O   UNL     3      -8.034  14.824  64.908  1.00  0.00     5.297 OA 
HETATM   31  H   UNL     3      -8.368  15.404  64.234  1.00  0.00     0.000 HD 
ENDBRANCH  26  29
ENDBRANCH   4  26
TORSDOF 4
ENDMDL
MODEL      170
REMARK 921   NORMALIZED FREE ENERGY PREDICTED BY IDOCK:   25.85 KCAL/MOL
REMARK 922        TOTAL FREE ENERGY PREDICTED BY IDOCK:   31.02 KCAL/MOL
REMARK 923 INTER-LIGAND FREE ENERGY PREDICTED BY IDOCK:   27.84 KCAL/MOL
REMARK 924 INTRA-LIGAND FREE ENERGY PREDICTED BY IDOCK:    3.18 KCAL/MOL
REMARK 927      BINDING AFFINITY PREDICTED BY RF-SCORE:    0.00 PKD
ROOT
HETATM    1 ZN   UNL     1     -11.893  10.231  64.667  1.00  0.00     0.529 Zn 
HETATM    2  C   UNL     2      -9.807  10.106  67.310  1.00  0.00    -0.183 C  
HETATM    3  O   UNL     2      -9.146   9.660  68.524  1.00  0.00    -0.130 OA 
HETATM    4  C   UNL     3     -10.540  11.317  70.979  1.00  0.00     3.098 C  
HETATM    5  H   UNL     2     -11.748   6.445  67.223  1.00  0.00     0.000 HD 
HETATM    6  O   UNL     3      -9.871  10.830  72.154  1.00  0.00     6.313 OA 
HETATM    7  O   UNL     3     -12.249   8.186  71.532  1.00  0.00    -0.287 OA 
HETATM    8  C   UNL     3     -11.749  10.408  70.800  1.00  0.00    -0.368 C  
HETATM    9  C   UNL     2      -9.609   8.425  68.893  1.00  0.00    -0.153 C  
HETATM   10  O   UNL     2     -11.134   8.888  65.726  1.00  0.00     2.033 OA 
HETATM   11  C   UNL     3     -10.402   9.613  72.484  1.00  0.00     2.632 C  
HETATM   12  C   UNL     2     -10.565   7.984  67.872  1.00  0.00    -0.145 C  
HETATM   13  O   UNL     2     -11.128   6.730  67.883  1.00  0.00    -0.238 OA 
HETATM   14  O   UNL     2      -9.198   7.746  69.820  1.00  0.00    -0.150 OA 
HETATM   15  C   UNL     2     -10.637   8.898  66.881  1.00  0.00    -0.184 C  
HETATM   16  O   UNL     3     -12.599  10.653  69.899  1.00  0.00    -0.277 OA 
HETATM   17  H   UNL     3     -12.990   8.022  70.960  1.00  0.00     0.000 HD 
HETATM   18  C   UNL     3     -11.544   9.359  71.603  1.00  0.00    -0.396 C  
HETATM   19  O   UNL     3      -9.998   8.917  73.411  1.00  0.00     0.942 OA 
ENDROOT
BRANCH   2  20
HETATM   20  C   UNL     2     -10.486  11.499  67.571  1.00  0.00    -0.199 C  
HETATM   21  O   UNL     2      -9.592  12.364  68.297  1.00  0.00    -0.212 OA 
HETATM   22  H   UNL     2     -10.004  13.206  68.456  1.00  0.00     0.000 HD 
BRANCH  20  23
HETATM   23  C   UNL     2     -11.059  12.375  66.450  1.00  0.00    -0.301 C  
HETATM   24  H   UNL     2     -12.863  12.881  65.666  1.00  0.00     0.000 HD 
HETATM   25  O   UNL     2     -12.508  12.338  66.360  1.00  0.00    -0.377 OA 
ENDBRANCH  20  23
ENDBRANCH   2  20
BRANCH   4  26
HETATM   26  C   UNL     3     -10.615  12.859  71.037  1.00  0.00     5.006 C  
HETATM   27  H   UNL     3     -10.106  14.391  72.271  1.00  0.00     0.000 HD 
HETATM   28  O   UNL     3     -10.060  13.444  72.235  1.00  0.00     8.807 OA 
BRANCH  26  29
HETATM   29  C   UNL     3     -10.055  13.536  69.789  1.00  0.00     1.183 C  
HETATM   30  O   UNL     3      -8.626  13.601  69.857  1.00  0.00     0.893 OA 
HETATM   31  H   UNL     3      -8.278  14.022  69.079  1.00  0.00     0.000 HD 
ENDBRANCH  26  29
ENDBRANCH   4  26
TORSDOF 4
ENDMDL
MODEL      171
REMARK 921   NORMALIZED FREE ENERGY PREDICTED BY IDOCK:   45.64 KCAL/MOL
REMARK 922        TOTAL FREE ENERGY PREDICTED BY IDOCK:   55.43 KCAL/MOL
REMARK 923 INTER-LIGAND FREE ENERGY PREDICTED BY IDOCK:   54.08 KCAL/MOL
REMARK 924 INTRA-LIGAND FREE ENERGY PREDICTED BY IDOCK:    1.35 KCAL/MOL
REMARK 927      BINDING AFFINITY PREDICTED BY RF-SCORE:    0.00 PKD
ROOT
HETATM    1 ZN   UNL     1     -12.915  10.878  73.268  1.00  0.00     0.001 Zn 
HETATM    2  C   UNL     2     -10.690  13.289  72.498  1.00  0.00     9.058 C  
HETATM    3  O   UNL     2     -10.093  14.476  71.912  1.00  0.00     2.659 OA 
HETATM    4  C   UNL     3      -8.341  13.440  69.348  1.00  0.00     0.915 C  
HETATM    5  H   UNL     2     -14.312  14.538  70.914  1.00  0.00     0.000 HD 
HETATM    6  O   UNL     3      -7.788  14.644  68.792  1.00  0.00    -0.134 OA 
HETATM    7  O   UNL     3     -11.149  14.722  67.477  1.00  0.00    -0.297 OA 
HETATM    8  C   UNL     3      -9.666  13.236  68.626  1.00  0.00    -0.069 C  
HETATM    9  C   UNL     2     -11.024  15.171  71.188  1.00  0.00    -0.136 C  
HETATM   10  O   UNL     2     -12.996  12.675  72.754  1.00  0.00    -0.057 OA 
HETATM   11  C   UNL     3      -8.758  15.271  68.058  1.00  0.00    -0.160 C  
HETATM   12  C   UNL     2     -12.309  14.479  71.333  1.00  0.00    -0.356 C  
HETATM   13  O   UNL     2     -13.480  14.986  70.821  1.00  0.00    -0.356 OA 
HETATM   14  O   UNL     2     -10.857  16.250  70.641  1.00  0.00    -0.224 OA 
HETATM   15  C   UNL     2     -12.175  13.427  72.167  1.00  0.00     0.654 C  
HETATM   16  O   UNL     3     -10.345  12.191  68.827  1.00  0.00    -0.215 OA 
HETATM   17  H   UNL     3     -11.908  14.150  67.440  1.00  0.00     0.000 HD 
HETATM   18  C   UNL     3      -9.927  14.390  68.002  1.00  0.00    -0.225 C  
HETATM   19  O   UNL     3      -8.606  16.356  67.505  1.00  0.00    -0.171 OA 
ENDROOT
BRANCH   2  20
HETATM   20  C   UNL     2      -9.879  12.022  72.045  1.00  0.00    16.225 C  
HETATM   21  O   UNL     2      -8.539  12.069  72.573  1.00  0.00    17.836 OA 
HETATM   22  H   UNL     2      -8.049  11.303  72.298  1.00  0.00     0.000 HD 
BRANCH  20  23
HETATM   23  C   UNL     2     -10.354  10.586  72.302  1.00  0.00     6.624 C  
HETATM   24  H   UNL     2     -11.388   9.117  71.355  1.00  0.00     0.000 HD 
HETATM   25  O   UNL     2     -11.095  10.006  71.196  1.00  0.00    -0.333 OA 
ENDBRANCH  20  23
ENDBRANCH   2  20
BRANCH   4  26
HETATM   26  C   UNL     3      -7.233  12.367  69.445  1.00  0.00     0.233 C  
HETATM   27  H   UNL     3      -5.206  12.231  69.485  1.00  0.00     0.000 HD 
HETATM   28  O   UNL     3      -5.887  12.890  69.425  1.00  0.00    -0.083 OA 
BRANCH  26  29
HETATM   29  C   UNL     3      -7.428  11.405  70.613  1.00  0.00     2.836 C  
HETATM   30  O   UNL     3      -7.345  10.049  70.159  1.00  0.00    -0.144 OA 
HETATM   31  H   UNL     3      -7.467   9.450  70.886  1.00  0.00     0.000 HD 
ENDBRANCH  26  29
ENDBRANCH   4  26
TORSDOF 4
ENDMDL
