MODEL        1
REMARK 921   NORMALIZED FREE ENERGY PREDICTED BY IDOCK:   -4.62 KCAL/MOL
REMARK 922        TOTAL FREE ENERGY PREDICTED BY IDOCK:   -9.79 KCAL/MOL
REMARK 923 INTER-LIGAND FREE ENERGY PREDICTED BY IDOCK:   -8.40 KCAL/MOL
REMARK 924 INTRA-LIGAND FREE ENERGY PREDICTED BY IDOCK:   -1.38 KCAL/MOL
REMARK 927      BINDING AFFINITY PREDICTED BY RF-SCORE:    0.00 PKD
ROOT
HETATM    1  C   UNL     1     -14.271   7.705  71.697  1.00  0.00    -0.578 C  
HETATM    2  C   UNL     1     -13.377   8.847  72.183  1.00  0.00    -0.489 C  
ENDROOT
BRANCH   2   3
HETATM    3  C   UNL     1     -11.922   8.379  72.381  1.00  0.00    -0.451 C  
BRANCH   3   4
HETATM    4  C   UNL     1     -10.919   9.320  71.679  1.00  0.00    -0.363 C  
BRANCH   4   5
HETATM    5  N   UNL     1     -10.776   9.037  70.239  1.00  0.00    -0.221 NA 
BRANCH   5   6
HETATM    6  C   UNL     1     -11.214  10.028  69.265  1.00  0.00    -0.166 C  
HETATM    7  S   UNL     1     -12.019  11.590  69.803  1.00  0.00    -0.342 SA 
HETATM    8  C   UNL     1     -10.365  14.390  67.251  1.00  0.00    -0.260 C  
HETATM    9  S   UNL     1     -10.771   9.995  67.657  1.00  0.00    -0.274 SA 
HETATM   10 ZN   UNL     1     -10.988  12.140  68.027  1.00  0.00    -0.186 Zn 
HETATM   11  S   UNL     1     -11.911  13.830  67.015  1.00  0.00    -0.402 SA 
HETATM   12  S   UNL     1      -9.133  13.189  67.897  1.00  0.00    -0.215 SA 
BRANCH   8  13
HETATM   13  N   UNL     1     -10.048  15.793  67.242  1.00  0.00    -0.243 NA 
BRANCH  13  14
HETATM   14  C   UNL     1     -10.530  16.695  68.285  1.00  0.00    -0.321 C  
BRANCH  14  15
HETATM   15  C   UNL     1     -10.774  18.129  67.750  1.00  0.00    -0.355 C  
BRANCH  15  16
HETATM   16  C   UNL     1      -9.975  19.228  68.477  1.00  0.00    -0.513 C  
HETATM   17  C   UNL     1      -9.700  20.413  67.544  1.00  0.00    -0.571 C  
ENDBRANCH  15  16
ENDBRANCH  14  15
ENDBRANCH  13  14
BRANCH  13  18
HETATM   18  C   UNL     1      -9.197  16.331  66.174  1.00  0.00    -0.341 C  
BRANCH  18  19
HETATM   19  C   UNL     1      -7.735  16.537  66.638  1.00  0.00    -0.318 C  
BRANCH  19  20
HETATM   20  C   UNL     1      -7.104  17.866  66.186  1.00  0.00    -0.341 C  
HETATM   21  C   UNL     1      -6.321  18.511  67.335  1.00  0.00    -0.197 C  
ENDBRANCH  19  20
ENDBRANCH  18  19
ENDBRANCH  13  18
ENDBRANCH   8  13
ENDBRANCH   5   6
BRANCH   5  22
HETATM   22  C   UNL     1     -10.133   7.786  69.815  1.00  0.00    -0.194 C  
BRANCH  22  23
HETATM   23  C   UNL     1     -11.083   6.591  69.607  1.00  0.00    -0.435 C  
BRANCH  23  24
HETATM   24  C   UNL     1     -10.490   5.228  69.989  1.00  0.00    -0.351 C  
HETATM   25  C   UNL     1     -10.246   5.153  71.501  1.00  0.00    -0.274 C  
ENDBRANCH  23  24
ENDBRANCH  22  23
ENDBRANCH   5  22
ENDBRANCH   4   5
ENDBRANCH   3   4
ENDBRANCH   2   3
TORSDOF 14
ENDMDL
MODEL        2
REMARK 921   NORMALIZED FREE ENERGY PREDICTED BY IDOCK:   -4.60 KCAL/MOL
REMARK 922        TOTAL FREE ENERGY PREDICTED BY IDOCK:   -9.74 KCAL/MOL
REMARK 923 INTER-LIGAND FREE ENERGY PREDICTED BY IDOCK:   -8.54 KCAL/MOL
REMARK 924 INTRA-LIGAND FREE ENERGY PREDICTED BY IDOCK:   -1.21 KCAL/MOL
REMARK 927      BINDING AFFINITY PREDICTED BY RF-SCORE:    0.00 PKD
ROOT
HETATM    1  C   UNL     1     -10.652  19.422  65.958  1.00  0.00    -0.573 C  
HETATM    2  C   UNL     1     -10.391  19.796  67.418  1.00  0.00    -0.582 C  
ENDROOT
BRANCH   2   3
HETATM    3  C   UNL     1     -10.135  18.547  68.283  1.00  0.00    -0.424 C  
BRANCH   3   4
HETATM    4  C   UNL     1     -10.450  17.246  67.514  1.00  0.00    -0.356 C  
BRANCH   4   5
HETATM    5  N   UNL     1     -10.727  16.104  68.404  1.00  0.00    -0.283 NA 
BRANCH   5   6
HETATM    6  C   UNL     1     -10.641  14.747  67.881  1.00  0.00    -0.248 C  
HETATM    7  S   UNL     1      -9.251  13.640  68.350  1.00  0.00    -0.128 SA 
HETATM    8  C   UNL     1     -11.124   9.988  68.842  1.00  0.00    -0.176 C  
HETATM    9  S   UNL     1     -11.897  13.985  67.090  1.00  0.00    -0.421 SA 
HETATM   10 ZN   UNL     1     -10.880  12.306  68.056  1.00  0.00    -0.187 Zn 
HETATM   11  S   UNL     1     -10.232  10.312  67.479  1.00  0.00    -0.225 SA 
HETATM   12  S   UNL     1     -12.070  11.385  69.570  1.00  0.00    -0.269 SA 
BRANCH   8  13
HETATM   13  N   UNL     1     -10.954   8.778  69.600  1.00  0.00    -0.164 NA 
BRANCH  13  14
HETATM   14  C   UNL     1     -11.543   8.615  70.928  1.00  0.00    -0.269 C  
BRANCH  14  15
HETATM   15  C   UNL     1     -10.469   8.611  72.046  1.00  0.00    -0.422 C  
BRANCH  15  16
HETATM   16  C   UNL     1     -10.648   7.501  73.100  1.00  0.00    -0.442 C  
HETATM   17  C   UNL     1      -9.305   7.139  73.746  1.00  0.00    -0.272 C  
ENDBRANCH  15  16
ENDBRANCH  14  15
ENDBRANCH  13  14
BRANCH  13  18
HETATM   18  C   UNL     1     -10.194   7.666  69.019  1.00  0.00    -0.206 C  
BRANCH  18  19
HETATM   19  C   UNL     1     -10.973   6.330  69.076  1.00  0.00    -0.437 C  
BRANCH  19  20
HETATM   20  C   UNL     1     -10.387   5.292  70.050  1.00  0.00    -0.365 C  
HETATM   21  C   UNL     1      -8.915   5.601  70.348  1.00  0.00    -0.153 C  
ENDBRANCH  19  20
ENDBRANCH  18  19
ENDBRANCH  13  18
ENDBRANCH   8  13
ENDBRANCH   5   6
BRANCH   5  22
HETATM   22  C   UNL     1     -11.021  16.355  69.822  1.00  0.00    -0.341 C  
BRANCH  22  23
HETATM   23  C   UNL     1     -12.231  15.590  70.393  1.00  0.00    -0.443 C  
BRANCH  23  24
HETATM   24  C   UNL     1     -12.398  15.699  71.914  1.00  0.00    -0.502 C  
HETATM   25  C   UNL     1     -13.854  15.432  72.314  1.00  0.00    -0.649 C  
ENDBRANCH  23  24
ENDBRANCH  22  23
ENDBRANCH   5  22
ENDBRANCH   4   5
ENDBRANCH   3   4
ENDBRANCH   2   3
TORSDOF 14
ENDMDL
MODEL        3
REMARK 921   NORMALIZED FREE ENERGY PREDICTED BY IDOCK:   -4.53 KCAL/MOL
REMARK 922        TOTAL FREE ENERGY PREDICTED BY IDOCK:   -9.63 KCAL/MOL
REMARK 923 INTER-LIGAND FREE ENERGY PREDICTED BY IDOCK:   -8.39 KCAL/MOL
REMARK 924 INTRA-LIGAND FREE ENERGY PREDICTED BY IDOCK:   -1.23 KCAL/MOL
REMARK 927      BINDING AFFINITY PREDICTED BY RF-SCORE:    0.00 PKD
ROOT
HETATM    1  C   UNL     1     -13.679  13.403  72.317  1.00  0.00    -0.705 C  
HETATM    2  C   UNL     1     -12.758  12.897  71.206  1.00  0.00    -0.371 C  
ENDROOT
BRANCH   2   3
HETATM    3  C   UNL     1     -12.570  11.369  71.281  1.00  0.00    -0.480 C  
BRANCH   3   4
HETATM    4  C   UNL     1     -12.531  10.730  69.876  1.00  0.00    -0.209 C  
BRANCH   4   5
HETATM    5  N   UNL     1     -11.201  10.807  69.245  1.00  0.00    -0.250 NA 
BRANCH   5   6
HETATM    6  C   UNL     1     -11.020  11.615  68.046  1.00  0.00    -0.224 C  
HETATM    7  S   UNL     1     -11.935  13.192  67.821  1.00  0.00    -0.240 SA 
HETATM    8  C   UNL     1      -9.086  15.665  66.134  1.00  0.00    -0.342 C  
HETATM    9  S   UNL     1      -9.789  11.366  66.947  1.00  0.00    -0.196 SA 
HETATM   10 ZN   UNL     1     -10.100  13.526  66.803  1.00  0.00    -0.232 Zn 
HETATM   11  S   UNL     1     -10.286  14.990  65.205  1.00  0.00    -0.392 SA 
HETATM   12  S   UNL     1      -8.427  14.646  67.514  1.00  0.00    -0.201 SA 
BRANCH   8  13
HETATM   13  N   UNL     1      -8.767  17.066  66.074  1.00  0.00    -0.523 NA 
BRANCH  13  14
HETATM   14  C   UNL     1      -9.808  18.092  66.096  1.00  0.00    -0.251 C  
BRANCH  14  15
HETATM   15  C   UNL     1     -10.583  18.108  67.438  1.00  0.00    -0.406 C  
BRANCH  15  16
HETATM   16  C   UNL     1     -10.172  19.241  68.399  1.00  0.00    -0.503 C  
HETATM   17  C   UNL     1     -10.124  20.588  67.669  1.00  0.00    -0.412 C  
ENDBRANCH  15  16
ENDBRANCH  14  15
ENDBRANCH  13  14
BRANCH  13  18
HETATM   18  C   UNL     1      -7.361  17.482  66.017  1.00  0.00    -0.253 C  
BRANCH  18  19
HETATM   19  C   UNL     1      -7.204  19.021  66.047  1.00  0.00    -0.295 C  
BRANCH  19  20
HETATM   20  C   UNL     1      -6.353  19.553  67.214  1.00  0.00    -0.204 C  
HETATM   21  C   UNL     1      -6.449  21.081  67.301  1.00  0.00    -0.418 C  
ENDBRANCH  19  20
ENDBRANCH  18  19
ENDBRANCH  13  18
ENDBRANCH   8  13
ENDBRANCH   5   6
BRANCH   5  22
HETATM   22  C   UNL     1     -10.066  10.120  69.877  1.00  0.00    -0.222 C  
BRANCH  22  23
HETATM   23  C   UNL     1     -10.372   8.721  70.444  1.00  0.00    -0.230 C  
BRANCH  23  24
HETATM   24  C   UNL     1     -10.088   8.560  71.943  1.00  0.00    -0.367 C  
HETATM   25  C   UNL     1     -11.324   8.014  72.667  1.00  0.00    -0.469 C  
ENDBRANCH  23  24
ENDBRANCH  22  23
ENDBRANCH   5  22
ENDBRANCH   4   5
ENDBRANCH   3   4
ENDBRANCH   2   3
TORSDOF 14
ENDMDL
MODEL        4
REMARK 921   NORMALIZED FREE ENERGY PREDICTED BY IDOCK:   -4.49 KCAL/MOL
REMARK 922        TOTAL FREE ENERGY PREDICTED BY IDOCK:   -9.54 KCAL/MOL
REMARK 923 INTER-LIGAND FREE ENERGY PREDICTED BY IDOCK:   -8.53 KCAL/MOL
REMARK 924 INTRA-LIGAND FREE ENERGY PREDICTED BY IDOCK:   -1.02 KCAL/MOL
REMARK 927      BINDING AFFINITY PREDICTED BY RF-SCORE:    0.00 PKD
ROOT
HETATM    1  C   UNL     1     -13.438  15.385  71.249  1.00  0.00    -0.598 C  
HETATM    2  C   UNL     1     -12.007  15.767  70.866  1.00  0.00    -0.453 C  
ENDROOT
BRANCH   2   3
HETATM    3  C   UNL     1     -11.783  15.664  69.345  1.00  0.00    -0.395 C  
BRANCH   3   4
HETATM    4  C   UNL     1     -10.676  16.627  68.864  1.00  0.00    -0.337 C  
BRANCH   4   5
HETATM    5  N   UNL     1     -10.453  16.566  67.409  1.00  0.00    -0.309 NA 
BRANCH   5   6
HETATM    6  C   UNL     1     -10.338  15.270  66.752  1.00  0.00    -0.279 C  
HETATM    7  S   UNL     1      -8.922  14.155  67.105  1.00  0.00    -0.232 SA 
HETATM    8  C   UNL     1     -10.709  10.430  67.236  1.00  0.00    -0.273 C  
HETATM    9  S   UNL     1     -11.580  14.562  65.892  1.00  0.00    -0.328 SA 
HETATM   10 ZN   UNL     1     -10.521  12.820  66.683  1.00  0.00    -0.237 Zn 
HETATM   11  S   UNL     1      -9.831  10.908  65.909  1.00  0.00    -0.249 SA 
HETATM   12  S   UNL     1     -11.683  11.725  68.102  1.00  0.00    -0.273 SA 
BRANCH   8  13
HETATM   13  N   UNL     1     -10.508   9.154  67.869  1.00  0.00    -0.238 NA 
BRANCH  13  14
HETATM   14  C   UNL     1     -10.128   7.968  67.103  1.00  0.00    -0.263 C  
BRANCH  14  15
HETATM   15  C   UNL     1     -11.025   6.749  67.434  1.00  0.00    -0.407 C  
BRANCH  15  16
HETATM   16  C   UNL     1     -10.316   5.629  68.221  1.00  0.00    -0.253 C  
HETATM   17  C   UNL     1     -10.783   5.606  69.681  1.00  0.00    -0.398 C  
ENDBRANCH  15  16
ENDBRANCH  14  15
ENDBRANCH  13  14
BRANCH  13  18
HETATM   18  C   UNL     1     -10.660   9.042  69.324  1.00  0.00    -0.213 C  
BRANCH  18  19
HETATM   19  C   UNL     1      -9.342   9.346  70.076  1.00  0.00    -0.253 C  
BRANCH  19  20
HETATM   20  C   UNL     1      -9.335   8.908  71.552  1.00  0.00    -0.335 C  
HETATM   21  C   UNL     1     -10.767   8.722  72.068  1.00  0.00    -0.417 C  
ENDBRANCH  19  20
ENDBRANCH  18  19
ENDBRANCH  13  18
ENDBRANCH   8  13
ENDBRANCH   5   6
BRANCH   5  22
HETATM   22  C   UNL     1     -10.415  17.815  66.636  1.00  0.00    -0.300 C  
BRANCH  22  23
HETATM   23  C   UNL     1     -10.728  19.096  67.432  1.00  0.00    -0.578 C  
BRANCH  23  24
HETATM   24  C   UNL     1      -9.597  20.134  67.446  1.00  0.00    -0.551 C  
HETATM   25  C   UNL     1      -8.432  19.646  68.315  1.00  0.00    -0.355 C  
ENDBRANCH  23  24
ENDBRANCH  22  23
ENDBRANCH   5  22
ENDBRANCH   4   5
ENDBRANCH   3   4
ENDBRANCH   2   3
TORSDOF 14
ENDMDL
MODEL        5
REMARK 921   NORMALIZED FREE ENERGY PREDICTED BY IDOCK:   -4.46 KCAL/MOL
REMARK 922        TOTAL FREE ENERGY PREDICTED BY IDOCK:   -9.49 KCAL/MOL
REMARK 923 INTER-LIGAND FREE ENERGY PREDICTED BY IDOCK:   -7.89 KCAL/MOL
REMARK 924 INTRA-LIGAND FREE ENERGY PREDICTED BY IDOCK:   -1.60 KCAL/MOL
REMARK 927      BINDING AFFINITY PREDICTED BY RF-SCORE:    0.00 PKD
ROOT
HETATM    1  C   UNL     1     -10.754  19.271  65.919  1.00  0.00    -0.463 C  
HETATM    2  C   UNL     1     -10.085  20.317  66.812  1.00  0.00    -0.556 C  
ENDROOT
BRANCH   2   3
HETATM    3  C   UNL     1     -10.056  19.866  68.285  1.00  0.00    -0.571 C  
BRANCH   3   4
HETATM    4  C   UNL     1     -10.317  18.350  68.423  1.00  0.00    -0.327 C  
BRANCH   4   5
HETATM    5  N   UNL     1      -9.079  17.550  68.409  1.00  0.00    -0.270 NA 
BRANCH   5   6
HETATM    6  C   UNL     1      -9.139  16.141  68.043  1.00  0.00    -0.190 C  
HETATM    7  S   UNL     1      -8.259  14.869  69.034  1.00  0.00    -0.150 SA 
HETATM    8  C   UNL     1     -10.963  11.744  69.112  1.00  0.00    -0.209 C  
HETATM    9  S   UNL     1     -10.215  15.526  66.925  1.00  0.00    -0.286 SA 
HETATM   10 ZN   UNL     1      -9.965  13.839  68.295  1.00  0.00    -0.192 Zn 
HETATM   11  S   UNL     1      -9.634  11.697  68.116  1.00  0.00    -0.194 SA 
HETATM   12  S   UNL     1     -11.751  13.383  69.373  1.00  0.00    -0.333 SA 
BRANCH   8  13
HETATM   13  N   UNL     1     -11.321  10.643  69.965  1.00  0.00    -0.302 NA 
BRANCH  13  14
HETATM   14  C   UNL     1     -12.709  10.387  70.346  1.00  0.00    -0.218 C  
BRANCH  14  15
HETATM   15  C   UNL     1     -12.925  10.508  71.876  1.00  0.00    -0.553 C  
BRANCH  15  16
HETATM   16  C   UNL     1     -13.523   9.252  72.539  1.00  0.00    -0.471 C  
HETATM   17  C   UNL     1     -14.239   8.376  71.504  1.00  0.00    -0.471 C  
ENDBRANCH  15  16
ENDBRANCH  14  15
ENDBRANCH  13  14
BRANCH  13  18
HETATM   18  C   UNL     1     -10.273   9.735  70.445  1.00  0.00    -0.281 C  
BRANCH  18  19
HETATM   19  C   UNL     1     -10.580   8.256  70.106  1.00  0.00    -0.233 C  
BRANCH  19  20
HETATM   20  C   UNL     1     -10.202   7.257  71.214  1.00  0.00    -0.198 C  
HETATM   21  C   UNL     1     -10.338   7.906  72.596  1.00  0.00    -0.372 C  
ENDBRANCH  19  20
ENDBRANCH  18  19
ENDBRANCH  13  18
ENDBRANCH   8  13
ENDBRANCH   5   6
BRANCH   5  22
HETATM   22  C   UNL     1      -7.798  18.205  68.701  1.00  0.00    -0.295 C  
BRANCH  22  23
HETATM   23  C   UNL     1      -6.756  18.158  67.567  1.00  0.00    -0.198 C  
BRANCH  23  24
HETATM   24  C   UNL     1      -6.591  19.473  66.793  1.00  0.00    -0.200 C  
HETATM   25  C   UNL     1      -6.478  20.655  67.762  1.00  0.00    -0.353 C  
ENDBRANCH  23  24
ENDBRANCH  22  23
ENDBRANCH   5  22
ENDBRANCH   4   5
ENDBRANCH   3   4
ENDBRANCH   2   3
TORSDOF 14
ENDMDL
MODEL        6
REMARK 921   NORMALIZED FREE ENERGY PREDICTED BY IDOCK:   -4.45 KCAL/MOL
REMARK 922        TOTAL FREE ENERGY PREDICTED BY IDOCK:   -9.47 KCAL/MOL
REMARK 923 INTER-LIGAND FREE ENERGY PREDICTED BY IDOCK:   -8.10 KCAL/MOL
REMARK 924 INTRA-LIGAND FREE ENERGY PREDICTED BY IDOCK:   -1.37 KCAL/MOL
REMARK 927      BINDING AFFINITY PREDICTED BY RF-SCORE:    0.00 PKD
ROOT
HETATM    1  C   UNL     1     -10.735  18.955  65.796  1.00  0.00    -0.310 C  
HETATM    2  C   UNL     1      -9.788  20.119  66.093  1.00  0.00    -0.515 C  
ENDROOT
BRANCH   2   3
HETATM    3  C   UNL     1      -9.717  20.417  67.604  1.00  0.00    -0.540 C  
BRANCH   3   4
HETATM    4  C   UNL     1      -9.610  19.121  68.436  1.00  0.00    -0.378 C  
BRANCH   4   5
HETATM    5  N   UNL     1      -8.226  18.630  68.563  1.00  0.00    -0.335 NA 
BRANCH   5   6
HETATM    6  C   UNL     1      -7.895  17.287  68.107  1.00  0.00    -0.220 C  
HETATM    7  S   UNL     1      -7.970  15.855  69.256  1.00  0.00    -0.191 SA 
HETATM    8  C   UNL     1      -9.598  12.879  66.894  1.00  0.00    -0.240 C  
HETATM    9  S   UNL     1      -7.726  16.876  66.499  1.00  0.00    -0.313 SA 
HETATM   10 ZN   UNL     1      -8.472  15.013  67.369  1.00  0.00    -0.130 Zn 
HETATM   11  S   UNL     1      -7.973  12.900  67.238  1.00  0.00    -0.109 SA 
HETATM   12  S   UNL     1     -10.425  14.504  66.674  1.00  0.00    -0.279 SA 
BRANCH   8  13
HETATM   13  N   UNL     1     -10.397  11.693  67.045  1.00  0.00    -0.212 NA 
BRANCH  13  14
HETATM   14  C   UNL     1     -10.502  10.995  68.325  1.00  0.00    -0.186 C  
BRANCH  14  15
HETATM   15  C   UNL     1     -11.499  11.688  69.288  1.00  0.00    -0.364 C  
BRANCH  15  16
HETATM   16  C   UNL     1     -12.245  10.728  70.235  1.00  0.00    -0.431 C  
HETATM   17  C   UNL     1     -11.258   9.833  70.995  1.00  0.00    -0.451 C  
ENDBRANCH  15  16
ENDBRANCH  14  15
ENDBRANCH  13  14
BRANCH  13  18
HETATM   18  C   UNL     1     -11.151  11.182  65.894  1.00  0.00    -0.035 C  
BRANCH  18  19
HETATM   19  C   UNL     1     -10.279  11.085  64.619  1.00  0.00    -0.392 C  
BRANCH  19  20
HETATM   20  C   UNL     1     -10.750  11.976  63.456  1.00  0.00    -0.513 C  
HETATM   21  C   UNL     1     -12.211  12.396  63.654  1.00  0.00    -0.653 C  
ENDBRANCH  19  20
ENDBRANCH  18  19
ENDBRANCH  13  18
ENDBRANCH   8  13
ENDBRANCH   5   6
BRANCH   5  22
HETATM   22  C   UNL     1      -7.191  19.532  69.086  1.00  0.00    -0.347 C  
BRANCH  22  23
HETATM   23  C   UNL     1      -6.019  19.822  68.128  1.00  0.00    -0.259 C  
BRANCH  23  24
HETATM   24  C   UNL     1      -6.081  21.190  67.436  1.00  0.00    -0.407 C  
HETATM   25  C   UNL     1      -6.063  21.022  65.913  1.00  0.00    -0.289 C  
ENDBRANCH  23  24
ENDBRANCH  22  23
ENDBRANCH   5  22
ENDBRANCH   4   5
ENDBRANCH   3   4
ENDBRANCH   2   3
TORSDOF 14
ENDMDL
MODEL        7
REMARK 921   NORMALIZED FREE ENERGY PREDICTED BY IDOCK:   -4.44 KCAL/MOL
REMARK 922        TOTAL FREE ENERGY PREDICTED BY IDOCK:   -9.46 KCAL/MOL
REMARK 923 INTER-LIGAND FREE ENERGY PREDICTED BY IDOCK:   -8.31 KCAL/MOL
REMARK 924 INTRA-LIGAND FREE ENERGY PREDICTED BY IDOCK:   -1.15 KCAL/MOL
REMARK 927      BINDING AFFINITY PREDICTED BY RF-SCORE:    0.00 PKD
ROOT
HETATM    1  C   UNL     1     -10.629  19.562  66.043  1.00  0.00    -0.589 C  
HETATM    2  C   UNL     1      -9.910  20.370  67.125  1.00  0.00    -0.601 C  
ENDROOT
BRANCH   2   3
HETATM    3  C   UNL     1      -9.799  19.576  68.442  1.00  0.00    -0.521 C  
BRANCH   3   4
HETATM    4  C   UNL     1     -10.300  18.125  68.277  1.00  0.00    -0.363 C  
BRANCH   4   5
HETATM    5  N   UNL     1      -9.206  17.160  68.066  1.00  0.00    -0.244 NA 
BRANCH   5   6
HETATM    6  C   UNL     1      -9.522  15.771  67.761  1.00  0.00    -0.212 C  
HETATM    7  S   UNL     1      -8.558  14.397  68.509  1.00  0.00    -0.165 SA 
HETATM    8  C   UNL     1     -11.481  11.605  69.378  1.00  0.00    -0.307 C  
HETATM    9  S   UNL     1     -10.921  15.295  66.986  1.00  0.00    -0.302 SA 
HETATM   10 ZN   UNL     1     -10.506  13.578  68.277  1.00  0.00    -0.205 Zn 
HETATM   11  S   UNL     1     -10.482  11.414  68.064  1.00  0.00    -0.198 SA 
HETATM   12  S   UNL     1     -11.977  13.322  69.803  1.00  0.00    -0.291 SA 
BRANCH   8  13
HETATM   13  N   UNL     1     -11.719  10.546  70.320  1.00  0.00    -0.305 NA 
BRANCH  13  14
HETATM   14  C   UNL     1     -10.670   9.597  70.691  1.00  0.00    -0.322 C  
BRANCH  14  15
HETATM   15  C   UNL     1     -10.654   8.354  69.766  1.00  0.00    -0.221 C  
BRANCH  15  16
HETATM   16  C   UNL     1     -10.058   7.087  70.410  1.00  0.00    -0.198 C  
HETATM   17  C   UNL     1     -10.971   5.876  70.183  1.00  0.00    -0.412 C  
ENDBRANCH  15  16
ENDBRANCH  14  15
ENDBRANCH  13  14
BRANCH  13  18
HETATM   18  C   UNL     1     -13.040  10.426  70.948  1.00  0.00    -0.330 C  
BRANCH  18  19
HETATM   19  C   UNL     1     -13.022   9.481  72.173  1.00  0.00    -0.497 C  
BRANCH  19  20
HETATM   20  C   UNL     1     -14.285   8.614  72.328  1.00  0.00    -0.497 C  
HETATM   21  C   UNL     1     -14.182   7.351  71.464  1.00  0.00    -0.571 C  
ENDBRANCH  19  20
ENDBRANCH  18  19
ENDBRANCH  13  18
ENDBRANCH   8  13
ENDBRANCH   5   6
BRANCH   5  22
HETATM   22  C   UNL     1      -7.815  17.633  68.102  1.00  0.00    -0.257 C  
BRANCH  22  23
HETATM   23  C   UNL     1      -6.970  17.300  66.858  1.00  0.00    -0.229 C  
BRANCH  23  24
HETATM   24  C   UNL     1      -6.990  18.374  65.763  1.00  0.00    -0.288 C  
HETATM   25  C   UNL     1      -5.917  19.436  66.033  1.00  0.00    -0.188 C  
ENDBRANCH  23  24
ENDBRANCH  22  23
ENDBRANCH   5  22
ENDBRANCH   4   5
ENDBRANCH   3   4
ENDBRANCH   2   3
TORSDOF 14
ENDMDL
MODEL        8
REMARK 921   NORMALIZED FREE ENERGY PREDICTED BY IDOCK:   -4.44 KCAL/MOL
REMARK 922        TOTAL FREE ENERGY PREDICTED BY IDOCK:   -9.46 KCAL/MOL
REMARK 923 INTER-LIGAND FREE ENERGY PREDICTED BY IDOCK:   -8.16 KCAL/MOL
REMARK 924 INTRA-LIGAND FREE ENERGY PREDICTED BY IDOCK:   -1.29 KCAL/MOL
REMARK 927      BINDING AFFINITY PREDICTED BY RF-SCORE:    0.00 PKD
ROOT
HETATM    1  C   UNL     1     -10.421  19.106  66.114  1.00  0.00    -0.558 C  
HETATM    2  C   UNL     1     -10.313  19.422  67.607  1.00  0.00    -0.550 C  
ENDROOT
BRANCH   2   3
HETATM    3  C   UNL     1      -9.937  18.169  68.422  1.00  0.00    -0.392 C  
BRANCH   3   4
HETATM    4  C   UNL     1      -9.936  16.897  67.547  1.00  0.00    -0.268 C  
BRANCH   4   5
HETATM    5  N   UNL     1     -10.848  15.853  68.048  1.00  0.00    -0.307 NA 
BRANCH   5   6
HETATM    6  C   UNL     1     -10.682  14.477  67.598  1.00  0.00    -0.254 C  
HETATM    7  S   UNL     1      -9.245  13.471  68.145  1.00  0.00    -0.206 SA 
HETATM    8  C   UNL     1     -10.932   9.756  68.802  1.00  0.00    -0.148 C  
HETATM    9  S   UNL     1     -11.882  13.610  66.830  1.00  0.00    -0.419 SA 
HETATM   10 ZN   UNL     1     -10.796  12.040  67.898  1.00  0.00    -0.183 Zn 
HETATM   11  S   UNL     1     -10.035  10.055  67.436  1.00  0.00    -0.209 SA 
HETATM   12  S   UNL     1     -11.962  11.136  69.441  1.00  0.00    -0.335 SA 
BRANCH   8  13
HETATM   13  N   UNL     1     -10.713   8.597  69.625  1.00  0.00    -0.224 NA 
BRANCH  13  14
HETATM   14  C   UNL     1     -10.322   7.311  69.050  1.00  0.00    -0.205 C  
BRANCH  14  15
HETATM   15  C   UNL     1     -11.186   6.144  69.592  1.00  0.00    -0.488 C  
BRANCH  15  16
HETATM   16  C   UNL     1     -10.384   5.018  70.275  1.00  0.00    -0.299 C  
HETATM   17  C   UNL     1      -9.196   4.588  69.405  1.00  0.00    -0.192 C  
ENDBRANCH  15  16
ENDBRANCH  14  15
ENDBRANCH  13  14
BRANCH  13  18
HETATM   18  C   UNL     1     -10.856   8.711  71.080  1.00  0.00    -0.259 C  
BRANCH  18  19
HETATM   19  C   UNL     1      -9.490   8.709  71.806  1.00  0.00    -0.354 C  
BRANCH  19  20
HETATM   20  C   UNL     1      -9.300   7.554  72.805  1.00  0.00    -0.217 C  
HETATM   21  C   UNL     1     -10.652   7.098  73.367  1.00  0.00    -0.424 C  
ENDBRANCH  19  20
ENDBRANCH  18  19
ENDBRANCH  13  18
ENDBRANCH   8  13
ENDBRANCH   5   6
BRANCH   5  22
HETATM   22  C   UNL     1     -11.867  16.209  69.045  1.00  0.00    -0.177 C  
BRANCH  22  23
HETATM   23  C   UNL     1     -11.901  15.322  70.304  1.00  0.00    -0.353 C  
BRANCH  23  24
HETATM   24  C   UNL     1     -11.861  16.092  71.631  1.00  0.00    -0.582 C  
HETATM   25  C   UNL     1     -13.100  15.771  72.474  1.00  0.00    -0.558 C  
ENDBRANCH  23  24
ENDBRANCH  22  23
ENDBRANCH   5  22
ENDBRANCH   4   5
ENDBRANCH   3   4
ENDBRANCH   2   3
TORSDOF 14
ENDMDL
MODEL        9
REMARK 921   NORMALIZED FREE ENERGY PREDICTED BY IDOCK:   -4.43 KCAL/MOL
REMARK 922        TOTAL FREE ENERGY PREDICTED BY IDOCK:   -9.44 KCAL/MOL
REMARK 923 INTER-LIGAND FREE ENERGY PREDICTED BY IDOCK:   -7.86 KCAL/MOL
REMARK 924 INTRA-LIGAND FREE ENERGY PREDICTED BY IDOCK:   -1.58 KCAL/MOL
REMARK 927      BINDING AFFINITY PREDICTED BY RF-SCORE:    0.00 PKD
ROOT
HETATM    1  C   UNL     1     -10.887   5.480  71.364  1.00  0.00    -0.256 C  
HETATM    2  C   UNL     1     -10.869   6.073  69.954  1.00  0.00    -0.434 C  
ENDROOT
BRANCH   2   3
HETATM    3  C   UNL     1     -10.043   7.373  69.899  1.00  0.00    -0.195 C  
BRANCH   3   4
HETATM    4  C   UNL     1     -10.511   8.298  68.755  1.00  0.00    -0.177 C  
BRANCH   4   5
HETATM    5  N   UNL     1     -10.792   9.673  69.206  1.00  0.00    -0.222 NA 
BRANCH   5   6
HETATM    6  C   UNL     1     -11.041  10.716  68.219  1.00  0.00    -0.279 C  
HETATM    7  S   UNL     1     -11.821  12.307  68.704  1.00  0.00    -0.255 SA 
HETATM    8  C   UNL     1      -9.690  15.075  66.493  1.00  0.00    -0.266 C  
HETATM    9  S   UNL     1     -10.391  10.703  66.683  1.00  0.00    -0.234 SA 
HETATM   10 ZN   UNL     1     -10.535  12.845  67.099  1.00  0.00    -0.222 Zn 
HETATM   11  S   UNL     1     -11.221  14.616  66.037  1.00  0.00    -0.342 SA 
HETATM   12  S   UNL     1      -8.624  13.784  67.250  1.00  0.00    -0.202 SA 
BRANCH   8  13
HETATM   13  N   UNL     1      -9.297  16.456  66.576  1.00  0.00    -0.254 NA 
BRANCH  13  14
HETATM   14  C   UNL     1      -7.967  16.901  66.166  1.00  0.00    -0.255 C  
BRANCH  14  15
HETATM   15  C   UNL     1      -7.185  17.555  67.334  1.00  0.00    -0.188 C  
BRANCH  15  16
HETATM   16  C   UNL     1      -6.601  18.945  67.012  1.00  0.00    -0.203 C  
HETATM   17  C   UNL     1      -6.790  19.288  65.530  1.00  0.00    -0.295 C  
ENDBRANCH  15  16
ENDBRANCH  14  15
ENDBRANCH  13  14
BRANCH  13  18
HETATM   18  C   UNL     1     -10.262  17.450  67.059  1.00  0.00    -0.323 C  
BRANCH  18  19
HETATM   19  C   UNL     1     -10.457  18.612  66.056  1.00  0.00    -0.456 C  
BRANCH  19  20
HETATM   20  C   UNL     1     -10.263  20.015  66.660  1.00  0.00    -0.597 C  
HETATM   21  C   UNL     1     -10.027  19.924  68.172  1.00  0.00    -0.551 C  
ENDBRANCH  19  20
ENDBRANCH  18  19
ENDBRANCH  13  18
ENDBRANCH   8  13
ENDBRANCH   5   6
BRANCH   5  22
HETATM   22  C   UNL     1     -10.880   9.952  70.645  1.00  0.00    -0.330 C  
BRANCH  22  23
HETATM   23  C   UNL     1     -12.303   9.945  71.235  1.00  0.00    -0.478 C  
BRANCH  23  24
HETATM   24  C   UNL     1     -12.621   8.737  72.128  1.00  0.00    -0.463 C  
HETATM   25  C   UNL     1     -13.686   7.851  71.472  1.00  0.00    -0.384 C  
ENDBRANCH  23  24
ENDBRANCH  22  23
ENDBRANCH   5  22
ENDBRANCH   4   5
ENDBRANCH   3   4
ENDBRANCH   2   3
TORSDOF 14
ENDMDL
MODEL       10
REMARK 921   NORMALIZED FREE ENERGY PREDICTED BY IDOCK:   -4.41 KCAL/MOL
REMARK 922        TOTAL FREE ENERGY PREDICTED BY IDOCK:   -9.40 KCAL/MOL
REMARK 923 INTER-LIGAND FREE ENERGY PREDICTED BY IDOCK:   -8.42 KCAL/MOL
REMARK 924 INTRA-LIGAND FREE ENERGY PREDICTED BY IDOCK:   -0.98 KCAL/MOL
REMARK 927      BINDING AFFINITY PREDICTED BY RF-SCORE:    0.00 PKD
ROOT
HETATM    1  C   UNL     1     -11.676   8.769  71.959  1.00  0.00    -0.442 C  
HETATM    2  C   UNL     1     -11.210   9.841  70.973  1.00  0.00    -0.451 C  
ENDROOT
BRANCH   2   3
HETATM    3  C   UNL     1     -12.340  10.837  70.647  1.00  0.00    -0.465 C  
BRANCH   3   4
HETATM    4  C   UNL     1     -11.866  11.940  69.676  1.00  0.00    -0.337 C  
BRANCH   4   5
HETATM    5  N   UNL     1     -12.074  13.300  70.204  1.00  0.00    -0.348 NA 
BRANCH   5   6
HETATM    6  C   UNL     1     -11.858  14.450  69.336  1.00  0.00    -0.325 C  
HETATM    7  S   UNL     1     -11.081  15.986  69.978  1.00  0.00    -0.378 SA 
HETATM    8  C   UNL     1      -8.601  17.118  66.870  1.00  0.00    -0.232 C  
HETATM    9  S   UNL     1     -11.997  14.386  67.674  1.00  0.00    -0.285 SA 
HETATM   10 ZN   UNL     1     -10.462  15.920  67.945  1.00  0.00    -0.238 Zn 
HETATM   11  S   UNL     1     -10.045  17.896  67.135  1.00  0.00    -0.356 SA 
HETATM   12  S   UNL     1      -8.553  15.313  67.208  1.00  0.00    -0.205 SA 
BRANCH   8  13
HETATM   13  N   UNL     1      -7.370  17.834  66.674  1.00  0.00    -0.208 NA 
BRANCH  13  14
HETATM   14  C   UNL     1      -6.092  17.311  67.155  1.00  0.00    -0.152 C  
BRANCH  14  15
HETATM   15  C   UNL     1      -5.920  17.508  68.682  1.00  0.00    -0.171 C  
BRANCH  15  16
HETATM   16  C   UNL     1      -5.356  18.883  69.090  1.00  0.00    -0.203 C  
HETATM   17  C   UNL     1      -6.471  19.801  69.603  1.00  0.00    -0.389 C  
ENDBRANCH  15  16
ENDBRANCH  14  15
ENDBRANCH  13  14
BRANCH  13  18
HETATM   18  C   UNL     1      -7.387  19.110  65.949  1.00  0.00    -0.252 C  
BRANCH  18  19
HETATM   19  C   UNL     1      -6.165  19.269  65.013  1.00  0.00    -0.317 C  
BRANCH  19  20
HETATM   20  C   UNL     1      -5.848  20.723  64.619  1.00  0.00    -0.293 C  
HETATM   21  C   UNL     1      -6.034  20.927  63.111  1.00  0.00    -0.296 C  
ENDBRANCH  19  20
ENDBRANCH  18  19
ENDBRANCH  13  18
ENDBRANCH   8  13
ENDBRANCH   5   6
BRANCH   5  22
HETATM   22  C   UNL     1     -12.560  13.469  71.581  1.00  0.00    -0.217 C  
BRANCH  22  23
HETATM   23  C   UNL     1     -13.917  14.182  71.722  1.00  0.00    -0.505 C  
BRANCH  23  24
HETATM   24  C   UNL     1     -13.882  15.468  72.559  1.00  0.00    -0.669 C  
HETATM   25  C   UNL     1     -12.790  15.379  73.632  1.00  0.00    -0.685 C  
ENDBRANCH  23  24
ENDBRANCH  22  23
ENDBRANCH   5  22
ENDBRANCH   4   5
ENDBRANCH   3   4
ENDBRANCH   2   3
TORSDOF 14
ENDMDL
MODEL       11
REMARK 921   NORMALIZED FREE ENERGY PREDICTED BY IDOCK:   -4.41 KCAL/MOL
REMARK 922        TOTAL FREE ENERGY PREDICTED BY IDOCK:   -9.40 KCAL/MOL
REMARK 923 INTER-LIGAND FREE ENERGY PREDICTED BY IDOCK:   -7.80 KCAL/MOL
REMARK 924 INTRA-LIGAND FREE ENERGY PREDICTED BY IDOCK:   -1.60 KCAL/MOL
REMARK 927      BINDING AFFINITY PREDICTED BY RF-SCORE:    0.00 PKD
ROOT
HETATM    1  C   UNL     1     -10.906   6.228  72.671  1.00  0.00    -0.273 C  
HETATM    2  C   UNL     1     -10.799   6.557  71.181  1.00  0.00    -0.296 C  
ENDROOT
BRANCH   2   3
HETATM    3  C   UNL     1     -10.012   7.861  70.946  1.00  0.00    -0.196 C  
BRANCH   3   4
HETATM    4  C   UNL     1     -10.453   8.566  69.645  1.00  0.00    -0.221 C  
BRANCH   4   5
HETATM    5  N   UNL     1     -11.040   9.897  69.883  1.00  0.00    -0.261 NA 
BRANCH   5   6
HETATM    6  C   UNL     1     -11.107  10.860  68.791  1.00  0.00    -0.256 C  
HETATM    7  S   UNL     1     -11.855  12.519  69.038  1.00  0.00    -0.264 SA 
HETATM    8  C   UNL     1      -9.317  14.989  66.907  1.00  0.00    -0.241 C  
HETATM    9  S   UNL     1     -10.269  10.684  67.359  1.00  0.00    -0.215 SA 
HETATM   10 ZN   UNL     1     -10.350  12.859  67.577  1.00  0.00    -0.206 Zn 
HETATM   11  S   UNL     1     -10.800  14.557  66.295  1.00  0.00    -0.324 SA 
HETATM   12  S   UNL     1      -8.425  13.725  67.899  1.00  0.00    -0.190 SA 
BRANCH   8  13
HETATM   13  N   UNL     1      -8.864  16.354  66.929  1.00  0.00    -0.192 NA 
BRANCH  13  14
HETATM   14  C   UNL     1      -9.725  17.441  67.390  1.00  0.00    -0.269 C  
BRANCH  14  15
HETATM   15  C   UNL     1     -10.344  18.235  66.212  1.00  0.00    -0.422 C  
BRANCH  15  16
HETATM   16  C   UNL     1     -10.406  19.759  66.432  1.00  0.00    -0.619 C  
HETATM   17  C   UNL     1     -10.049  20.119  67.879  1.00  0.00    -0.533 C  
ENDBRANCH  15  16
ENDBRANCH  14  15
ENDBRANCH  13  14
BRANCH  13  18
HETATM   18  C   UNL     1      -7.494  16.664  66.503  1.00  0.00    -0.271 C  
BRANCH  18  19
HETATM   19  C   UNL     1      -6.791  17.652  67.464  1.00  0.00    -0.185 C  
BRANCH  19  20
HETATM   20  C   UNL     1      -6.247  18.922  66.787  1.00  0.00    -0.194 C  
HETATM   21  C   UNL     1      -6.729  19.008  65.333  1.00  0.00    -0.263 C  
ENDBRANCH  19  20
ENDBRANCH  18  19
ENDBRANCH  13  18
ENDBRANCH   8  13
ENDBRANCH   5   6
BRANCH   5  22
HETATM   22  C   UNL     1     -11.609  10.204  71.202  1.00  0.00    -0.346 C  
BRANCH  22  23
HETATM   23  C   UNL     1     -13.130   9.998  71.333  1.00  0.00    -0.512 C  
BRANCH  23  24
HETATM   24  C   UNL     1     -13.543   8.837  72.248  1.00  0.00    -0.478 C  
HETATM   25  C   UNL     1     -14.347   7.795  71.462  1.00  0.00    -0.574 C  
ENDBRANCH  23  24
ENDBRANCH  22  23
ENDBRANCH   5  22
ENDBRANCH   4   5
ENDBRANCH   3   4
ENDBRANCH   2   3
TORSDOF 14
ENDMDL
MODEL       12
REMARK 921   NORMALIZED FREE ENERGY PREDICTED BY IDOCK:   -4.40 KCAL/MOL
REMARK 922        TOTAL FREE ENERGY PREDICTED BY IDOCK:   -9.38 KCAL/MOL
REMARK 923 INTER-LIGAND FREE ENERGY PREDICTED BY IDOCK:   -8.57 KCAL/MOL
REMARK 924 INTRA-LIGAND FREE ENERGY PREDICTED BY IDOCK:   -0.80 KCAL/MOL
REMARK 927      BINDING AFFINITY PREDICTED BY RF-SCORE:    0.00 PKD
ROOT
HETATM    1  C   UNL     1     -13.715   8.326  71.735  1.00  0.00    -0.420 C  
HETATM    2  C   UNL     1     -13.243   9.772  71.898  1.00  0.00    -0.545 C  
ENDROOT
BRANCH   2   3
HETATM    3  C   UNL     1     -11.952  10.037  71.100  1.00  0.00    -0.484 C  
BRANCH   3   4
HETATM    4  C   UNL     1     -12.251  10.666  69.722  1.00  0.00    -0.247 C  
BRANCH   4   5
HETATM    5  N   UNL     1     -11.096  10.625  68.808  1.00  0.00    -0.246 NA 
BRANCH   5   6
HETATM    6  C   UNL     1     -11.037  11.549  67.682  1.00  0.00    -0.266 C  
HETATM    7  S   UNL     1     -11.982  13.125  67.703  1.00  0.00    -0.256 SA 
HETATM    8  C   UNL     1      -9.326  15.800  66.008  1.00  0.00    -0.349 C  
HETATM    9  S   UNL     1      -9.915  11.430  66.453  1.00  0.00    -0.221 SA 
HETATM   10 ZN   UNL     1     -10.255  13.589  66.554  1.00  0.00    -0.245 Zn 
HETATM   11  S   UNL     1     -10.605  15.199  65.134  1.00  0.00    -0.424 SA 
HETATM   12  S   UNL     1      -8.530  14.662  67.212  1.00  0.00    -0.223 SA 
BRANCH   8  13
HETATM   13  N   UNL     1      -9.025  17.206  66.058  1.00  0.00    -0.520 NA 
BRANCH  13  14
HETATM   14  C   UNL     1     -10.081  18.217  66.064  1.00  0.00    -0.268 C  
BRANCH  14  15
HETATM   15  C   UNL     1     -10.688  18.417  67.476  1.00  0.00    -0.399 C  
BRANCH  15  16
HETATM   16  C   UNL     1     -10.312  19.752  68.149  1.00  0.00    -0.561 C  
HETATM   17  C   UNL     1      -9.592  20.679  67.163  1.00  0.00    -0.534 C  
ENDBRANCH  15  16
ENDBRANCH  14  15
ENDBRANCH  13  14
BRANCH  13  18
HETATM   18  C   UNL     1      -7.625  17.639  66.132  1.00  0.00    -0.280 C  
BRANCH  18  19
HETATM   19  C   UNL     1      -7.166  17.893  67.588  1.00  0.00    -0.206 C  
BRANCH  19  20
HETATM   20  C   UNL     1      -6.552  19.283  67.830  1.00  0.00    -0.246 C  
HETATM   21  C   UNL     1      -6.842  19.761  69.257  1.00  0.00    -0.370 C  
ENDBRANCH  19  20
ENDBRANCH  18  19
ENDBRANCH  13  18
ENDBRANCH   8  13
ENDBRANCH   5   6
BRANCH   5  22
HETATM   22  C   UNL     1      -9.993   9.696  69.087  1.00  0.00    -0.185 C  
BRANCH  22  23
HETATM   23  C   UNL     1     -10.290   8.211  68.805  1.00  0.00    -0.220 C  
BRANCH  23  24
HETATM   24  C   UNL     1     -10.528   7.874  67.327  1.00  0.00    -0.390 C  
HETATM   25  C   UNL     1     -10.894   6.394  67.166  1.00  0.00    -0.467 C  
ENDBRANCH  23  24
ENDBRANCH  22  23
ENDBRANCH   5  22
ENDBRANCH   4   5
ENDBRANCH   3   4
ENDBRANCH   2   3
TORSDOF 14
ENDMDL
MODEL       13
REMARK 921   NORMALIZED FREE ENERGY PREDICTED BY IDOCK:   -4.40 KCAL/MOL
REMARK 922        TOTAL FREE ENERGY PREDICTED BY IDOCK:   -9.37 KCAL/MOL
REMARK 923 INTER-LIGAND FREE ENERGY PREDICTED BY IDOCK:   -7.95 KCAL/MOL
REMARK 924 INTRA-LIGAND FREE ENERGY PREDICTED BY IDOCK:   -1.43 KCAL/MOL
REMARK 927      BINDING AFFINITY PREDICTED BY RF-SCORE:    0.00 PKD
ROOT
HETATM    1  C   UNL     1     -10.702  19.566  65.589  1.00  0.00    -0.420 C  
HETATM    2  C   UNL     1     -10.032  20.281  66.763  1.00  0.00    -0.587 C  
ENDROOT
BRANCH   2   3
HETATM    3  C   UNL     1     -10.391  19.617  68.107  1.00  0.00    -0.561 C  
BRANCH   3   4
HETATM    4  C   UNL     1      -9.136  19.098  68.840  1.00  0.00    -0.306 C  
BRANCH   4   5
HETATM    5  N   UNL     1      -8.677  17.790  68.339  1.00  0.00    -0.287 NA 
BRANCH   5   6
HETATM    6  C   UNL     1      -9.617  16.680  68.260  1.00  0.00    -0.233 C  
HETATM    7  S   UNL     1     -10.191  16.042  66.636  1.00  0.00    -0.300 SA 
HETATM    8  C   UNL     1     -10.236  11.951  67.230  1.00  0.00    -0.200 C  
HETATM    9  S   UNL     1     -10.010  15.713  69.562  1.00  0.00    -0.291 SA 
HETATM   10 ZN   UNL     1     -10.205  14.322  67.886  1.00  0.00    -0.213 Zn 
HETATM   11  S   UNL     1     -11.647  12.829  67.235  1.00  0.00    -0.373 SA 
HETATM   12  S   UNL     1      -8.747  12.764  67.935  1.00  0.00    -0.195 SA 
BRANCH   8  13
HETATM   13  N   UNL     1     -10.087  10.744  66.463  1.00  0.00    -0.220 NA 
BRANCH  13  14
HETATM   14  C   UNL     1      -9.371  10.728  65.189  1.00  0.00    -0.217 C  
BRANCH  14  15
HETATM   15  C   UNL     1     -10.337  10.766  63.977  1.00  0.00    -0.357 C  
BRANCH  15  16
HETATM   16  C   UNL     1     -10.833  12.175  63.599  1.00  0.00    -0.523 C  
HETATM   17  C   UNL     1     -12.362  12.206  63.493  1.00  0.00    -0.682 C  
ENDBRANCH  15  16
ENDBRANCH  14  15
ENDBRANCH  13  14
BRANCH  13  18
HETATM   18  C   UNL     1     -10.642   9.489  66.982  1.00  0.00    -0.201 C  
BRANCH  18  19
HETATM   19  C   UNL     1     -10.328   9.286  68.483  1.00  0.00    -0.237 C  
BRANCH  19  20
HETATM   20  C   UNL     1     -10.386   7.821  68.954  1.00  0.00    -0.224 C  
HETATM   21  C   UNL     1     -10.750   6.893  67.789  1.00  0.00    -0.321 C  
ENDBRANCH  19  20
ENDBRANCH  18  19
ENDBRANCH  13  18
ENDBRANCH   8  13
ENDBRANCH   5   6
BRANCH   5  22
HETATM   22  C   UNL     1      -7.293  17.649  67.866  1.00  0.00    -0.202 C  
BRANCH  22  23
HETATM   23  C   UNL     1      -7.017  18.194  66.452  1.00  0.00    -0.270 C  
BRANCH  23  24
HETATM   24  C   UNL     1      -6.349  19.575  66.416  1.00  0.00    -0.189 C  
HETATM   25  C   UNL     1      -6.693  20.303  65.111  1.00  0.00    -0.337 C  
ENDBRANCH  23  24
ENDBRANCH  22  23
ENDBRANCH   5  22
ENDBRANCH   4   5
ENDBRANCH   3   4
ENDBRANCH   2   3
TORSDOF 14
ENDMDL
MODEL       14
REMARK 921   NORMALIZED FREE ENERGY PREDICTED BY IDOCK:   -4.39 KCAL/MOL
REMARK 922        TOTAL FREE ENERGY PREDICTED BY IDOCK:   -9.36 KCAL/MOL
REMARK 923 INTER-LIGAND FREE ENERGY PREDICTED BY IDOCK:   -8.20 KCAL/MOL
REMARK 924 INTRA-LIGAND FREE ENERGY PREDICTED BY IDOCK:   -1.17 KCAL/MOL
REMARK 927      BINDING AFFINITY PREDICTED BY RF-SCORE:    0.00 PKD
ROOT
HETATM    1  C   UNL     1     -14.401   7.464  71.566  1.00  0.00    -0.594 C  
HETATM    2  C   UNL     1     -13.800   8.691  72.255  1.00  0.00    -0.459 C  
ENDROOT
BRANCH   2   3
HETATM    3  C   UNL     1     -13.137   9.640  71.238  1.00  0.00    -0.437 C  
BRANCH   3   4
HETATM    4  C   UNL     1     -11.599   9.633  71.370  1.00  0.00    -0.400 C  
BRANCH   4   5
HETATM    5  N   UNL     1     -10.909   9.639  70.068  1.00  0.00    -0.248 NA 
BRANCH   5   6
HETATM    6  C   UNL     1     -11.249  10.654  69.079  1.00  0.00    -0.265 C  
HETATM    7  S   UNL     1     -11.859  12.308  69.595  1.00  0.00    -0.288 SA 
HETATM    8  C   UNL     1      -9.944  14.848  66.955  1.00  0.00    -0.242 C  
HETATM    9  S   UNL     1     -10.842  10.538  67.465  1.00  0.00    -0.299 SA 
HETATM   10 ZN   UNL     1     -10.806  12.700  67.791  1.00  0.00    -0.198 Zn 
HETATM   11  S   UNL     1     -11.549  14.464  66.757  1.00  0.00    -0.392 SA 
HETATM   12  S   UNL     1      -8.846  13.527  67.607  1.00  0.00    -0.216 SA 
BRANCH   8  13
HETATM   13  N   UNL     1      -9.469  16.204  66.909  1.00  0.00    -0.223 NA 
BRANCH  13  14
HETATM   14  C   UNL     1      -8.160  16.541  66.353  1.00  0.00    -0.327 C  
BRANCH  14  15
HETATM   15  C   UNL     1      -7.246  17.236  67.393  1.00  0.00    -0.183 C  
BRANCH  15  16
HETATM   16  C   UNL     1      -6.846  18.679  67.030  1.00  0.00    -0.207 C  
HETATM   17  C   UNL     1      -5.664  18.690  66.053  1.00  0.00    -0.199 C  
ENDBRANCH  15  16
ENDBRANCH  14  15
ENDBRANCH  13  14
BRANCH  13  18
HETATM   18  C   UNL     1     -10.329  17.284  67.408  1.00  0.00    -0.338 C  
BRANCH  18  19
HETATM   19  C   UNL     1     -10.631  18.342  66.320  1.00  0.00    -0.343 C  
BRANCH  19  20
HETATM   20  C   UNL     1     -10.430  19.799  66.774  1.00  0.00    -0.610 C  
HETATM   21  C   UNL     1     -10.134  19.861  68.277  1.00  0.00    -0.571 C  
ENDBRANCH  19  20
ENDBRANCH  18  19
ENDBRANCH  13  18
ENDBRANCH   8  13
ENDBRANCH   5   6
BRANCH   5  22
HETATM   22  C   UNL     1      -9.843   8.660  69.816  1.00  0.00    -0.183 C  
BRANCH  22  23
HETATM   23  C   UNL     1     -10.114   7.237  70.340  1.00  0.00    -0.196 C  
BRANCH  23  24
HETATM   24  C   UNL     1     -11.285   6.515  69.660  1.00  0.00    -0.446 C  
HETATM   25  C   UNL     1     -11.078   6.470  68.142  1.00  0.00    -0.332 C  
ENDBRANCH  23  24
ENDBRANCH  22  23
ENDBRANCH   5  22
ENDBRANCH   4   5
ENDBRANCH   3   4
ENDBRANCH   2   3
TORSDOF 14
ENDMDL
MODEL       15
REMARK 921   NORMALIZED FREE ENERGY PREDICTED BY IDOCK:   -4.39 KCAL/MOL
REMARK 922        TOTAL FREE ENERGY PREDICTED BY IDOCK:   -9.36 KCAL/MOL
REMARK 923 INTER-LIGAND FREE ENERGY PREDICTED BY IDOCK:   -7.85 KCAL/MOL
REMARK 924 INTRA-LIGAND FREE ENERGY PREDICTED BY IDOCK:   -1.51 KCAL/MOL
REMARK 927      BINDING AFFINITY PREDICTED BY RF-SCORE:    0.00 PKD
ROOT
HETATM    1  C   UNL     1     -13.467   9.046  72.078  1.00  0.00    -0.498 C  
HETATM    2  C   UNL     1     -12.162   8.278  72.299  1.00  0.00    -0.428 C  
ENDROOT
BRANCH   2   3
HETATM    3  C   UNL     1     -10.948   9.063  71.766  1.00  0.00    -0.443 C  
BRANCH   3   4
HETATM    4  C   UNL     1     -11.348  10.033  70.634  1.00  0.00    -0.348 C  
BRANCH   4   5
HETATM    5  N   UNL     1     -10.697   9.719  69.350  1.00  0.00    -0.220 NA 
BRANCH   5   6
HETATM    6  C   UNL     1     -10.727  10.696  68.270  1.00  0.00    -0.219 C  
HETATM    7  S   UNL     1     -11.730  12.229  68.411  1.00  0.00    -0.324 SA 
HETATM    8  C   UNL     1      -9.264  15.088  66.728  1.00  0.00    -0.257 C  
HETATM    9  S   UNL     1      -9.662  10.681  66.985  1.00  0.00    -0.181 SA 
HETATM   10 ZN   UNL     1     -10.079  12.817  67.207  1.00  0.00    -0.206 Zn 
HETATM   11  S   UNL     1     -10.559  14.476  65.885  1.00  0.00    -0.325 SA 
HETATM   12  S   UNL     1      -8.368  13.928  67.836  1.00  0.00    -0.182 SA 
BRANCH   8  13
HETATM   13  N   UNL     1      -9.015  16.500  66.832  1.00  0.00    -0.207 NA 
BRANCH  13  14
HETATM   14  C   UNL     1      -7.698  17.071  66.553  1.00  0.00    -0.292 C  
BRANCH  14  15
HETATM   15  C   UNL     1      -6.952  17.476  67.849  1.00  0.00    -0.185 C  
BRANCH  15  16
HETATM   16  C   UNL     1      -6.547  18.962  67.915  1.00  0.00    -0.227 C  
HETATM   17  C   UNL     1      -6.795  19.535  69.315  1.00  0.00    -0.381 C  
ENDBRANCH  15  16
ENDBRANCH  14  15
ENDBRANCH  13  14
BRANCH  13  18
HETATM   18  C   UNL     1     -10.115  17.398  67.201  1.00  0.00    -0.307 C  
BRANCH  18  19
HETATM   19  C   UNL     1     -10.530  18.327  66.034  1.00  0.00    -0.380 C  
BRANCH  19  20
HETATM   20  C   UNL     1     -10.191  19.813  66.251  1.00  0.00    -0.615 C  
HETATM   21  C   UNL     1     -10.152  20.146  67.747  1.00  0.00    -0.540 C  
ENDBRANCH  19  20
ENDBRANCH  18  19
ENDBRANCH  13  18
ENDBRANCH   8  13
ENDBRANCH   5   6
BRANCH   5  22
HETATM   22  C   UNL     1      -9.971   8.450  69.206  1.00  0.00    -0.195 C  
BRANCH  22  23
HETATM   23  C   UNL     1     -10.700   7.357  68.400  1.00  0.00    -0.142 C  
BRANCH  23  24
HETATM   24  C   UNL     1     -11.331   6.247  69.251  1.00  0.00    -0.411 C  
HETATM   25  C   UNL     1     -10.299   5.663  70.222  1.00  0.00    -0.336 C  
ENDBRANCH  23  24
ENDBRANCH  22  23
ENDBRANCH   5  22
ENDBRANCH   4   5
ENDBRANCH   3   4
ENDBRANCH   2   3
TORSDOF 14
ENDMDL
MODEL       16
REMARK 921   NORMALIZED FREE ENERGY PREDICTED BY IDOCK:   -4.38 KCAL/MOL
REMARK 922        TOTAL FREE ENERGY PREDICTED BY IDOCK:   -9.35 KCAL/MOL
REMARK 923 INTER-LIGAND FREE ENERGY PREDICTED BY IDOCK:   -8.33 KCAL/MOL
REMARK 924 INTRA-LIGAND FREE ENERGY PREDICTED BY IDOCK:   -1.02 KCAL/MOL
REMARK 927      BINDING AFFINITY PREDICTED BY RF-SCORE:    0.00 PKD
ROOT
HETATM    1  C   UNL     1     -13.172  15.790  73.329  1.00  0.00    -0.687 C  
HETATM    2  C   UNL     1     -14.139  15.456  72.192  1.00  0.00    -0.651 C  
ENDROOT
BRANCH   2   3
HETATM    3  C   UNL     1     -13.978  13.997  71.723  1.00  0.00    -0.470 C  
BRANCH   3   4
HETATM    4  C   UNL     1     -12.493  13.625  71.518  1.00  0.00    -0.238 C  
BRANCH   4   5
HETATM    5  N   UNL     1     -12.175  13.277  70.121  1.00  0.00    -0.328 NA 
BRANCH   5   6
HETATM    6  C   UNL     1     -11.975  14.340  69.144  1.00  0.00    -0.335 C  
HETATM    7  S   UNL     1     -11.348  15.989  69.657  1.00  0.00    -0.323 SA 
HETATM    8  C   UNL     1      -8.735  16.958  66.604  1.00  0.00    -0.247 C  
HETATM    9  S   UNL     1     -11.992  14.087  67.495  1.00  0.00    -0.349 SA 
HETATM   10 ZN   UNL     1     -10.584  15.750  67.688  1.00  0.00    -0.248 Zn 
HETATM   11  S   UNL     1     -10.243  17.652  66.689  1.00  0.00    -0.335 SA 
HETATM   12  S   UNL     1      -8.592  15.208  67.145  1.00  0.00    -0.238 SA 
BRANCH   8  13
HETATM   13  N   UNL     1      -7.543  17.737  66.406  1.00  0.00    -0.255 NA 
BRANCH  13  14
HETATM   14  C   UNL     1      -7.602  19.145  66.017  1.00  0.00    -0.260 C  
BRANCH  14  15
HETATM   15  C   UNL     1      -6.436  19.539  65.075  1.00  0.00    -0.294 C  
BRANCH  15  16
HETATM   16  C   UNL     1      -5.795  20.905  65.389  1.00  0.00    -0.273 C  
HETATM   17  C   UNL     1      -6.053  21.309  66.846  1.00  0.00    -0.401 C  
ENDBRANCH  15  16
ENDBRANCH  14  15
ENDBRANCH  13  14
BRANCH  13  18
HETATM   18  C   UNL     1      -6.233  17.115  66.626  1.00  0.00    -0.214 C  
BRANCH  18  19
HETATM   19  C   UNL     1      -5.518  17.681  67.876  1.00  0.00    -0.135 C  
BRANCH  19  20
HETATM   20  C   UNL     1      -6.170  17.290  69.214  1.00  0.00    -0.237 C  
HETATM   21  C   UNL     1      -5.830  15.840  69.579  1.00  0.00    -0.131 C  
ENDBRANCH  19  20
ENDBRANCH  18  19
ENDBRANCH  13  18
ENDBRANCH   8  13
ENDBRANCH   5   6
BRANCH   5  22
HETATM   22  C   UNL     1     -12.002  11.865  69.755  1.00  0.00    -0.307 C  
BRANCH  22  23
HETATM   23  C   UNL     1     -12.484  10.845  70.803  1.00  0.00    -0.489 C  
BRANCH  23  24
HETATM   24  C   UNL     1     -11.511   9.687  71.065  1.00  0.00    -0.444 C  
HETATM   25  C   UNL     1     -12.160   8.636  71.974  1.00  0.00    -0.442 C  
ENDBRANCH  23  24
ENDBRANCH  22  23
ENDBRANCH   5  22
ENDBRANCH   4   5
ENDBRANCH   3   4
ENDBRANCH   2   3
TORSDOF 14
ENDMDL
MODEL       17
REMARK 921   NORMALIZED FREE ENERGY PREDICTED BY IDOCK:   -4.37 KCAL/MOL
REMARK 922        TOTAL FREE ENERGY PREDICTED BY IDOCK:   -9.32 KCAL/MOL
REMARK 923 INTER-LIGAND FREE ENERGY PREDICTED BY IDOCK:   -8.07 KCAL/MOL
REMARK 924 INTRA-LIGAND FREE ENERGY PREDICTED BY IDOCK:   -1.25 KCAL/MOL
REMARK 927      BINDING AFFINITY PREDICTED BY RF-SCORE:    0.00 PKD
ROOT
HETATM    1  C   UNL     1      -9.747  19.870  66.560  1.00  0.00    -0.547 C  
HETATM    2  C   UNL     1      -9.961  19.995  68.070  1.00  0.00    -0.550 C  
ENDROOT
BRANCH   2   3
HETATM    3  C   UNL     1      -9.982  18.614  68.752  1.00  0.00    -0.427 C  
BRANCH   3   4
HETATM    4  C   UNL     1     -10.656  17.547  67.862  1.00  0.00    -0.390 C  
BRANCH   4   5
HETATM    5  N   UNL     1     -10.804  16.245  68.536  1.00  0.00    -0.312 NA 
BRANCH   5   6
HETATM    6  C   UNL     1     -10.624  15.016  67.774  1.00  0.00    -0.264 C  
HETATM    7  S   UNL     1      -9.147  13.954  68.028  1.00  0.00    -0.199 SA 
HETATM    8  C   UNL     1     -10.728  10.139  67.853  1.00  0.00    -0.269 C  
HETATM    9  S   UNL     1     -11.833  14.315  66.862  1.00  0.00    -0.433 SA 
HETATM   10 ZN   UNL     1     -10.675  12.573  67.501  1.00  0.00    -0.205 Zn 
HETATM   11  S   UNL     1      -9.888  10.773  66.568  1.00  0.00    -0.210 SA 
HETATM   12  S   UNL     1     -11.764  11.303  68.827  1.00  0.00    -0.335 SA 
BRANCH   8  13
HETATM   13  N   UNL     1     -10.454   8.828  68.377  1.00  0.00    -0.200 NA 
BRANCH  13  14
HETATM   14  C   UNL     1      -9.859   7.780  67.550  1.00  0.00    -0.171 C  
BRANCH  14  15
HETATM   15  C   UNL     1     -10.888   6.686  67.167  1.00  0.00    -0.471 C  
BRANCH  15  16
HETATM   16  C   UNL     1     -10.377   5.241  67.335  1.00  0.00    -0.237 C  
HETATM   17  C   UNL     1      -8.873   5.224  67.631  1.00  0.00    -0.105 C  
ENDBRANCH  15  16
ENDBRANCH  14  15
ENDBRANCH  13  14
BRANCH  13  18
HETATM   18  C   UNL     1     -10.750   8.539  69.785  1.00  0.00    -0.213 C  
BRANCH  18  19
HETATM   19  C   UNL     1      -9.622   7.731  70.468  1.00  0.00    -0.167 C  
BRANCH  19  20
HETATM   20  C   UNL     1     -10.063   6.365  71.024  1.00  0.00    -0.212 C  
HETATM   21  C   UNL     1     -11.579   6.189  70.883  1.00  0.00    -0.259 C  
ENDBRANCH  19  20
ENDBRANCH  18  19
ENDBRANCH  13  18
ENDBRANCH   8  13
ENDBRANCH   5   6
BRANCH   5  22
HETATM   22  C   UNL     1     -11.065  16.211  69.981  1.00  0.00    -0.363 C  
BRANCH  22  23
HETATM   23  C   UNL     1     -12.375  15.517  70.402  1.00  0.00    -0.451 C  
BRANCH  23  24
HETATM   24  C   UNL     1     -12.471  15.181  71.896  1.00  0.00    -0.419 C  
HETATM   25  C   UNL     1     -13.879  15.479  72.423  1.00  0.00    -0.662 C  
ENDBRANCH  23  24
ENDBRANCH  22  23
ENDBRANCH   5  22
ENDBRANCH   4   5
ENDBRANCH   3   4
ENDBRANCH   2   3
TORSDOF 14
ENDMDL
MODEL       18
REMARK 921   NORMALIZED FREE ENERGY PREDICTED BY IDOCK:   -4.36 KCAL/MOL
REMARK 922        TOTAL FREE ENERGY PREDICTED BY IDOCK:   -9.32 KCAL/MOL
REMARK 923 INTER-LIGAND FREE ENERGY PREDICTED BY IDOCK:   -8.06 KCAL/MOL
REMARK 924 INTRA-LIGAND FREE ENERGY PREDICTED BY IDOCK:   -1.26 KCAL/MOL
REMARK 927      BINDING AFFINITY PREDICTED BY RF-SCORE:    0.00 PKD
ROOT
HETATM    1  C   UNL     1     -13.790  15.118  72.269  1.00  0.00    -0.618 C  
HETATM    2  C   UNL     1     -12.534  15.861  71.809  1.00  0.00    -0.512 C  
ENDROOT
BRANCH   2   3
HETATM    3  C   UNL     1     -12.216  15.568  70.330  1.00  0.00    -0.432 C  
BRANCH   3   4
HETATM    4  C   UNL     1     -10.905  16.250  69.882  1.00  0.00    -0.352 C  
BRANCH   4   5
HETATM    5  N   UNL     1     -10.683  16.171  68.427  1.00  0.00    -0.283 NA 
BRANCH   5   6
HETATM    6  C   UNL     1     -10.543  14.867  67.792  1.00  0.00    -0.262 C  
HETATM    7  S   UNL     1      -9.132  13.763  68.200  1.00  0.00    -0.197 SA 
HETATM    8  C   UNL     1     -10.905  10.032  68.327  1.00  0.00    -0.241 C  
HETATM    9  S   UNL     1     -11.756  14.142  66.905  1.00  0.00    -0.431 SA 
HETATM   10 ZN   UNL     1     -10.713  12.415  67.749  1.00  0.00    -0.197 Zn 
HETATM   11  S   UNL     1      -9.991  10.497  67.021  1.00  0.00    -0.209 SA 
HETATM   12  S   UNL     1     -11.910  11.333  69.147  1.00  0.00    -0.354 SA 
BRANCH   8  13
HETATM   13  N   UNL     1     -10.717   8.765  68.982  1.00  0.00    -0.166 NA 
BRANCH  13  14
HETATM   14  C   UNL     1     -10.727   8.646  70.439  1.00  0.00    -0.224 C  
BRANCH  14  15
HETATM   15  C   UNL     1      -9.408   9.153  71.075  1.00  0.00    -0.333 C  
BRANCH  15  16
HETATM   16  C   UNL     1      -8.331   8.067  71.265  1.00  0.00    -0.130 C  
HETATM   17  C   UNL     1      -7.317   8.096  70.116  1.00  0.00    -0.060 C  
ENDBRANCH  15  16
ENDBRANCH  14  15
ENDBRANCH  13  14
BRANCH  13  18
HETATM   18  C   UNL     1     -10.537   7.556  68.172  1.00  0.00    -0.145 C  
BRANCH  18  19
HETATM   19  C   UNL     1     -11.132   6.300  68.853  1.00  0.00    -0.434 C  
BRANCH  19  20
HETATM   20  C   UNL     1     -10.113   5.177  69.119  1.00  0.00    -0.274 C  
HETATM   21  C   UNL     1     -10.045   4.853  70.617  1.00  0.00    -0.306 C  
ENDBRANCH  19  20
ENDBRANCH  18  19
ENDBRANCH  13  18
ENDBRANCH   8  13
ENDBRANCH   5   6
BRANCH   5  22
HETATM   22  C   UNL     1     -10.672  17.408  67.635  1.00  0.00    -0.310 C  
BRANCH  22  23
HETATM   23  C   UNL     1     -10.111  18.650  68.353  1.00  0.00    -0.426 C  
BRANCH  23  24
HETATM   24  C   UNL     1      -9.889  19.868  67.446  1.00  0.00    -0.541 C  
HETATM   25  C   UNL     1     -10.488  19.620  66.057  1.00  0.00    -0.622 C  
ENDBRANCH  23  24
ENDBRANCH  22  23
ENDBRANCH   5  22
ENDBRANCH   4   5
ENDBRANCH   3   4
ENDBRANCH   2   3
TORSDOF 14
ENDMDL
MODEL       19
REMARK 921   NORMALIZED FREE ENERGY PREDICTED BY IDOCK:   -4.34 KCAL/MOL
REMARK 922        TOTAL FREE ENERGY PREDICTED BY IDOCK:   -9.27 KCAL/MOL
REMARK 923 INTER-LIGAND FREE ENERGY PREDICTED BY IDOCK:   -8.08 KCAL/MOL
REMARK 924 INTRA-LIGAND FREE ENERGY PREDICTED BY IDOCK:   -1.19 KCAL/MOL
REMARK 927      BINDING AFFINITY PREDICTED BY RF-SCORE:    0.00 PKD
ROOT
HETATM    1  C   UNL     1      -8.886   5.242  70.486  1.00  0.00    -0.150 C  
HETATM    2  C   UNL     1     -10.246   5.130  69.796  1.00  0.00    -0.357 C  
ENDROOT
BRANCH   2   3
HETATM    3  C   UNL     1     -10.846   6.519  69.503  1.00  0.00    -0.360 C  
BRANCH   3   4
HETATM    4  C   UNL     1      -9.755   7.609  69.434  1.00  0.00    -0.165 C  
BRANCH   4   5
HETATM    5  N   UNL     1     -10.225   8.924  69.906  1.00  0.00    -0.194 NA 
BRANCH   5   6
HETATM    6  C   UNL     1     -10.747   9.888  68.947  1.00  0.00    -0.221 C  
HETATM    7  S   UNL     1     -11.866  11.243  69.482  1.00  0.00    -0.376 SA 
HETATM    8  C   UNL     1     -10.525  14.460  67.260  1.00  0.00    -0.269 C  
HETATM    9  S   UNL     1     -10.163  10.045  67.392  1.00  0.00    -0.234 SA 
HETATM   10 ZN   UNL     1     -10.797  12.088  67.850  1.00  0.00    -0.183 Zn 
HETATM   11  S   UNL     1     -11.917  13.656  66.841  1.00  0.00    -0.399 SA 
HETATM   12  S   UNL     1      -9.159  13.452  67.961  1.00  0.00    -0.210 SA 
BRANCH   8  13
HETATM   13  N   UNL     1     -10.468  15.894  67.356  1.00  0.00    -0.300 NA 
BRANCH  13  14
HETATM   14  C   UNL     1     -10.590  16.583  68.640  1.00  0.00    -0.316 C  
BRANCH  14  15
HETATM   15  C   UNL     1     -11.626  15.903  69.570  1.00  0.00    -0.337 C  
BRANCH  15  16
HETATM   16  C   UNL     1     -11.039  15.346  70.882  1.00  0.00    -0.374 C  
HETATM   17  C   UNL     1     -11.850  15.827  72.091  1.00  0.00    -0.593 C  
ENDBRANCH  15  16
ENDBRANCH  14  15
ENDBRANCH  13  14
BRANCH  13  18
HETATM   18  C   UNL     1     -10.255  16.689  66.141  1.00  0.00    -0.348 C  
BRANCH  18  19
HETATM   19  C   UNL     1      -9.463  17.988  66.422  1.00  0.00    -0.280 C  
BRANCH  19  20
HETATM   20  C   UNL     1     -10.272  19.283  66.225  1.00  0.00    -0.546 C  
HETATM   21  C   UNL     1      -9.752  20.390  67.150  1.00  0.00    -0.601 C  
ENDBRANCH  19  20
ENDBRANCH  18  19
ENDBRANCH  13  18
ENDBRANCH   8  13
ENDBRANCH   5   6
BRANCH   5  22
HETATM   22  C   UNL     1     -10.220   9.212  71.347  1.00  0.00    -0.332 C  
BRANCH  22  23
HETATM   23  C   UNL     1      -9.201   8.410  72.179  1.00  0.00    -0.313 C  
BRANCH  23  24
HETATM   24  C   UNL     1      -9.817   7.551  73.292  1.00  0.00    -0.343 C  
HETATM   25  C   UNL     1     -11.315   7.342  73.041  1.00  0.00    -0.283 C  
ENDBRANCH  23  24
ENDBRANCH  22  23
ENDBRANCH   5  22
ENDBRANCH   4   5
ENDBRANCH   3   4
ENDBRANCH   2   3
TORSDOF 14
ENDMDL
MODEL       20
REMARK 921   NORMALIZED FREE ENERGY PREDICTED BY IDOCK:   -4.33 KCAL/MOL
REMARK 922        TOTAL FREE ENERGY PREDICTED BY IDOCK:   -9.26 KCAL/MOL
REMARK 923 INTER-LIGAND FREE ENERGY PREDICTED BY IDOCK:   -8.08 KCAL/MOL
REMARK 924 INTRA-LIGAND FREE ENERGY PREDICTED BY IDOCK:   -1.18 KCAL/MOL
REMARK 927      BINDING AFFINITY PREDICTED BY RF-SCORE:    0.00 PKD
ROOT
HETATM    1  C   UNL     1      -9.487  20.256  66.889  1.00  0.00    -0.531 C  
HETATM    2  C   UNL     1     -10.719  19.434  67.270  1.00  0.00    -0.603 C  
ENDROOT
BRANCH   2   3
HETATM    3  C   UNL     1     -10.326  18.121  67.974  1.00  0.00    -0.405 C  
BRANCH   3   4
HETATM    4  C   UNL     1     -10.252  16.941  66.981  1.00  0.00    -0.297 C  
BRANCH   4   5
HETATM    5  N   UNL     1     -10.954  15.738  67.464  1.00  0.00    -0.315 NA 
BRANCH   5   6
HETATM    6  C   UNL     1     -10.765  14.469  66.773  1.00  0.00    -0.291 C  
HETATM    7  S   UNL     1      -9.182  13.547  66.906  1.00  0.00    -0.237 SA 
HETATM    8  C   UNL     1     -10.439   9.620  67.207  1.00  0.00    -0.258 C  
HETATM    9  S   UNL     1     -12.013  13.607  66.077  1.00  0.00    -0.440 SA 
HETATM   10 ZN   UNL     1     -10.639  12.015  66.681  1.00  0.00    -0.209 Zn 
HETATM   11  S   UNL     1      -9.822  10.211  65.782  1.00  0.00    -0.276 SA 
HETATM   12  S   UNL     1     -11.442  10.776  68.223  1.00  0.00    -0.218 SA 
BRANCH   8  13
HETATM   13  N   UNL     1      -9.989   8.381  67.781  1.00  0.00    -0.175 NA 
BRANCH  13  14
HETATM   14  C   UNL     1      -8.711   8.278  68.482  1.00  0.00    -0.133 C  
BRANCH  14  15
HETATM   15  C   UNL     1      -8.525   9.411  69.524  1.00  0.00    -0.152 C  
BRANCH  15  16
HETATM   16  C   UNL     1      -9.143   9.116  70.905  1.00  0.00    -0.316 C  
HETATM   17  C   UNL     1      -8.191   8.274  71.762  1.00  0.00    -0.186 C  
ENDBRANCH  15  16
ENDBRANCH  14  15
ENDBRANCH  13  14
BRANCH  13  18
HETATM   18  C   UNL     1     -10.845   7.192  67.686  1.00  0.00    -0.209 C  
BRANCH  18  19
HETATM   19  C   UNL     1     -10.680   6.253  68.905  1.00  0.00    -0.357 C  
BRANCH  19  20
HETATM   20  C   UNL     1     -11.659   6.531  70.060  1.00  0.00    -0.455 C  
HETATM   21  C   UNL     1     -11.102   5.989  71.382  1.00  0.00    -0.336 C  
ENDBRANCH  19  20
ENDBRANCH  18  19
ENDBRANCH  13  18
ENDBRANCH   8  13
ENDBRANCH   5   6
BRANCH   5  22
HETATM   22  C   UNL     1     -11.780  15.827  68.676  1.00  0.00    -0.344 C  
BRANCH  22  23
HETATM   23  C   UNL     1     -11.219  15.103  69.915  1.00  0.00    -0.305 C  
BRANCH  23  24
HETATM   24  C   UNL     1     -11.646  15.709  71.259  1.00  0.00    -0.485 C  
HETATM   25  C   UNL     1     -13.102  15.347  71.573  1.00  0.00    -0.545 C  
ENDBRANCH  23  24
ENDBRANCH  22  23
ENDBRANCH   5  22
ENDBRANCH   4   5
ENDBRANCH   3   4
ENDBRANCH   2   3
TORSDOF 14
ENDMDL
MODEL       21
REMARK 921   NORMALIZED FREE ENERGY PREDICTED BY IDOCK:   -4.29 KCAL/MOL
REMARK 922        TOTAL FREE ENERGY PREDICTED BY IDOCK:   -9.18 KCAL/MOL
REMARK 923 INTER-LIGAND FREE ENERGY PREDICTED BY IDOCK:   -7.74 KCAL/MOL
REMARK 924 INTRA-LIGAND FREE ENERGY PREDICTED BY IDOCK:   -1.44 KCAL/MOL
REMARK 927      BINDING AFFINITY PREDICTED BY RF-SCORE:    0.00 PKD
ROOT
HETATM    1  C   UNL     1     -10.362  19.827  67.751  1.00  0.00    -0.573 C  
HETATM    2  C   UNL     1     -10.314  19.056  66.431  1.00  0.00    -0.520 C  
ENDROOT
BRANCH   2   3
HETATM    3  C   UNL     1     -10.400  17.534  66.663  1.00  0.00    -0.319 C  
BRANCH   3   4
HETATM    4  C   UNL     1     -10.574  17.194  68.159  1.00  0.00    -0.380 C  
BRANCH   4   5
HETATM    5  N   UNL     1     -11.205  15.881  68.381  1.00  0.00    -0.353 NA 
BRANCH   5   6
HETATM    6  C   UNL     1     -10.900  14.775  67.482  1.00  0.00    -0.287 C  
HETATM    7  S   UNL     1      -9.275  13.921  67.554  1.00  0.00    -0.215 SA 
HETATM    8  C   UNL     1     -10.311   9.953  67.035  1.00  0.00    -0.239 C  
HETATM    9  S   UNL     1     -12.049  14.001  66.553  1.00  0.00    -0.447 SA 
HETATM   10 ZN   UNL     1     -10.622  12.392  66.948  1.00  0.00    -0.215 Zn 
HETATM   11  S   UNL     1      -9.645  10.830  65.790  1.00  0.00    -0.222 SA 
HETATM   12  S   UNL     1     -11.441  10.848  68.174  1.00  0.00    -0.243 SA 
BRANCH   8  13
HETATM   13  N   UNL     1      -9.823   8.650  67.400  1.00  0.00    -0.178 NA 
BRANCH  13  14
HETATM   14  C   UNL     1     -10.693   7.475  67.394  1.00  0.00    -0.261 C  
BRANCH  14  15
HETATM   15  C   UNL     1      -9.939   6.189  67.814  1.00  0.00    -0.143 C  
BRANCH  15  16
HETATM   16  C   UNL     1     -10.488   5.512  69.085  1.00  0.00    -0.315 C  
HETATM   17  C   UNL     1     -11.470   6.436  69.816  1.00  0.00    -0.468 C  
ENDBRANCH  15  16
ENDBRANCH  14  15
ENDBRANCH  13  14
BRANCH  13  18
HETATM   18  C   UNL     1      -8.411   8.486  67.763  1.00  0.00    -0.130 C  
BRANCH  18  19
HETATM   19  C   UNL     1      -8.035   9.293  69.029  1.00  0.00    -0.097 C  
BRANCH  19  20
HETATM   20  C   UNL     1      -8.341   8.575  70.356  1.00  0.00    -0.124 C  
HETATM   21  C   UNL     1      -9.445   9.310  71.125  1.00  0.00    -0.287 C  
ENDBRANCH  19  20
ENDBRANCH  18  19
ENDBRANCH  13  18
ENDBRANCH   8  13
ENDBRANCH   5   6
BRANCH   5  22
HETATM   22  C   UNL     1     -12.082  15.694  69.545  1.00  0.00    -0.286 C  
BRANCH  22  23
HETATM   23  C   UNL     1     -11.848  14.401  70.350  1.00  0.00    -0.381 C  
BRANCH  23  24
HETATM   24  C   UNL     1     -12.838  14.175  71.500  1.00  0.00    -0.430 C  
HETATM   25  C   UNL     1     -13.931  15.250  71.487  1.00  0.00    -0.627 C  
ENDBRANCH  23  24
ENDBRANCH  22  23
ENDBRANCH   5  22
ENDBRANCH   4   5
ENDBRANCH   3   4
ENDBRANCH   2   3
TORSDOF 14
ENDMDL
MODEL       22
REMARK 921   NORMALIZED FREE ENERGY PREDICTED BY IDOCK:   -4.28 KCAL/MOL
REMARK 922        TOTAL FREE ENERGY PREDICTED BY IDOCK:   -9.16 KCAL/MOL
REMARK 923 INTER-LIGAND FREE ENERGY PREDICTED BY IDOCK:   -7.74 KCAL/MOL
REMARK 924 INTRA-LIGAND FREE ENERGY PREDICTED BY IDOCK:   -1.43 KCAL/MOL
REMARK 927      BINDING AFFINITY PREDICTED BY RF-SCORE:    0.00 PKD
ROOT
HETATM    1  C   UNL     1     -10.557  19.386  65.864  1.00  0.00    -0.551 C  
HETATM    2  C   UNL     1     -11.025  19.451  67.319  1.00  0.00    -0.454 C  
ENDROOT
BRANCH   2   3
HETATM    3  C   UNL     1      -9.883  19.106  68.294  1.00  0.00    -0.462 C  
BRANCH   3   4
HETATM    4  C   UNL     1      -9.718  17.580  68.463  1.00  0.00    -0.319 C  
BRANCH   4   5
HETATM    5  N   UNL     1      -8.583  17.036  67.695  1.00  0.00    -0.208 NA 
BRANCH   5   6
HETATM    6  C   UNL     1      -8.669  15.690  67.142  1.00  0.00    -0.210 C  
HETATM    7  S   UNL     1      -7.620  14.332  67.796  1.00  0.00    -0.182 SA 
HETATM    8  C   UNL     1     -10.213  11.113  67.824  1.00  0.00    -0.180 C  
HETATM    9  S   UNL     1      -9.891  15.192  66.121  1.00  0.00    -0.322 SA 
HETATM   10 ZN   UNL     1      -9.398  13.343  67.179  1.00  0.00    -0.186 Zn 
HETATM   11  S   UNL     1      -9.053  11.263  66.644  1.00  0.00    -0.185 SA 
HETATM   12  S   UNL     1     -10.985  12.664  68.435  1.00  0.00    -0.271 SA 
BRANCH   8  13
HETATM   13  N   UNL     1     -10.412   9.889  68.552  1.00  0.00    -0.196 NA 
BRANCH  13  14
HETATM   14  C   UNL     1      -9.762   8.643  68.151  1.00  0.00    -0.158 C  
BRANCH  14  15
HETATM   15  C   UNL     1     -10.621   7.834  67.147  1.00  0.00    -0.401 C  
BRANCH  15  16
HETATM   16  C   UNL     1     -10.824   6.354  67.527  1.00  0.00    -0.438 C  
HETATM   17  C   UNL     1     -10.974   6.194  69.044  1.00  0.00    -0.436 C  
ENDBRANCH  15  16
ENDBRANCH  14  15
ENDBRANCH  13  14
BRANCH  13  18
HETATM   18  C   UNL     1     -11.266   9.893  69.745  1.00  0.00    -0.235 C  
BRANCH  18  19
HETATM   19  C   UNL     1     -10.511   9.412  71.008  1.00  0.00    -0.392 C  
BRANCH  19  20
HETATM   20  C   UNL     1     -11.399   8.717  72.055  1.00  0.00    -0.432 C  
HETATM   21  C   UNL     1     -10.621   7.606  72.770  1.00  0.00    -0.381 C  
ENDBRANCH  19  20
ENDBRANCH  18  19
ENDBRANCH  13  18
ENDBRANCH   8  13
ENDBRANCH   5   6
BRANCH   5  22
HETATM   22  C   UNL     1      -7.412  17.886  67.447  1.00  0.00    -0.201 C  
BRANCH  22  23
HETATM   23  C   UNL     1      -6.808  17.785  66.033  1.00  0.00    -0.327 C  
BRANCH  23  24
HETATM   24  C   UNL     1      -6.504  19.135  65.368  1.00  0.00    -0.313 C  
HETATM   25  C   UNL     1      -7.091  20.284  66.195  1.00  0.00    -0.295 C  
ENDBRANCH  23  24
ENDBRANCH  22  23
ENDBRANCH   5  22
ENDBRANCH   4   5
ENDBRANCH   3   4
ENDBRANCH   2   3
TORSDOF 14
ENDMDL
MODEL       23
REMARK 921   NORMALIZED FREE ENERGY PREDICTED BY IDOCK:   -4.26 KCAL/MOL
REMARK 922        TOTAL FREE ENERGY PREDICTED BY IDOCK:   -9.13 KCAL/MOL
REMARK 923 INTER-LIGAND FREE ENERGY PREDICTED BY IDOCK:   -8.02 KCAL/MOL
REMARK 924 INTRA-LIGAND FREE ENERGY PREDICTED BY IDOCK:   -1.11 KCAL/MOL
REMARK 927      BINDING AFFINITY PREDICTED BY RF-SCORE:    0.00 PKD
ROOT
HETATM    1  C   UNL     1     -14.309   8.760  72.222  1.00  0.00    -0.468 C  
HETATM    2  C   UNL     1     -14.278   7.386  71.552  1.00  0.00    -0.571 C  
ENDROOT
BRANCH   2   3
HETATM    3  C   UNL     1     -12.871   6.761  71.609  1.00  0.00    -0.328 C  
BRANCH   3   4
HETATM    4  C   UNL     1     -11.777   7.785  71.236  1.00  0.00    -0.288 C  
BRANCH   4   5
HETATM    5  N   UNL     1     -11.096   7.463  69.969  1.00  0.00    -0.248 NA 
BRANCH   5   6
HETATM    6  C   UNL     1     -10.295   8.483  69.304  1.00  0.00    -0.221 C  
HETATM    7  S   UNL     1     -10.329   8.669  67.477  1.00  0.00    -0.272 SA 
HETATM    8  C   UNL     1     -10.300  12.772  66.980  1.00  0.00    -0.234 C  
HETATM    9  S   UNL     1      -9.540   9.732  70.114  1.00  0.00    -0.187 SA 
HETATM   10 ZN   UNL     1      -9.988  10.646  68.178  1.00  0.00    -0.144 Zn 
HETATM   11  S   UNL     1      -8.925  11.873  66.730  1.00  0.00    -0.198 SA 
HETATM   12  S   UNL     1     -11.425  12.219  68.323  1.00  0.00    -0.338 SA 
BRANCH   8  13
HETATM   13  N   UNL     1     -10.759  13.751  66.032  1.00  0.00    -0.281 NA 
BRANCH  13  14
HETATM   14  C   UNL     1     -12.037  13.606  65.336  1.00  0.00    -0.403 C  
BRANCH  14  15
HETATM   15  C   UNL     1     -11.849  13.243  63.842  1.00  0.00    -0.522 C  
BRANCH  15  16
HETATM   16  C   UNL     1     -11.498  11.765  63.583  1.00  0.00    -0.524 C  
HETATM   17  C   UNL     1     -10.018  11.611  63.213  1.00  0.00    -0.442 C  
ENDBRANCH  15  16
ENDBRANCH  14  15
ENDBRANCH  13  14
BRANCH  13  18
HETATM   18  C   UNL     1      -9.940  14.941  65.773  1.00  0.00    -0.347 C  
BRANCH  18  19
HETATM   19  C   UNL     1      -9.535  15.669  67.077  1.00  0.00    -0.236 C  
BRANCH  19  20
HETATM   20  C   UNL     1     -10.688  16.412  67.776  1.00  0.00    -0.328 C  
HETATM   21  C   UNL     1     -10.764  16.021  69.256  1.00  0.00    -0.275 C  
ENDBRANCH  19  20
ENDBRANCH  18  19
ENDBRANCH  13  18
ENDBRANCH   8  13
ENDBRANCH   5   6
BRANCH   5  22
HETATM   22  C   UNL     1     -11.185   6.098  69.433  1.00  0.00    -0.396 C  
BRANCH  22  23
HETATM   23  C   UNL     1     -10.037   5.153  69.834  1.00  0.00    -0.342 C  
BRANCH  23  24
HETATM   24  C   UNL     1      -9.519   4.257  68.701  1.00  0.00    -0.221 C  
HETATM   25  C   UNL     1      -9.987   4.788  67.341  1.00  0.00    -0.204 C  
ENDBRANCH  23  24
ENDBRANCH  22  23
ENDBRANCH   5  22
ENDBRANCH   4   5
ENDBRANCH   3   4
ENDBRANCH   2   3
TORSDOF 14
ENDMDL
MODEL       24
REMARK 921   NORMALIZED FREE ENERGY PREDICTED BY IDOCK:   -4.26 KCAL/MOL
REMARK 922        TOTAL FREE ENERGY PREDICTED BY IDOCK:   -9.12 KCAL/MOL
REMARK 923 INTER-LIGAND FREE ENERGY PREDICTED BY IDOCK:   -7.71 KCAL/MOL
REMARK 924 INTRA-LIGAND FREE ENERGY PREDICTED BY IDOCK:   -1.41 KCAL/MOL
REMARK 927      BINDING AFFINITY PREDICTED BY RF-SCORE:    0.00 PKD
ROOT
HETATM    1  C   UNL     1     -10.864   6.010  69.400  1.00  0.00    -0.433 C  
HETATM    2  C   UNL     1      -9.800   7.062  69.085  1.00  0.00    -0.158 C  
ENDROOT
BRANCH   2   3
HETATM    3  C   UNL     1     -10.373   8.201  68.219  1.00  0.00    -0.241 C  
BRANCH   3   4
HETATM    4  C   UNL     1      -9.864   9.583  68.683  1.00  0.00    -0.162 C  
BRANCH   4   5
HETATM    5  N   UNL     1     -10.914  10.616  68.672  1.00  0.00    -0.227 NA 
BRANCH   5   6
HETATM    6  C   UNL     1     -10.960  11.584  67.584  1.00  0.00    -0.242 C  
HETATM    7  S   UNL     1     -11.870  13.169  67.766  1.00  0.00    -0.320 SA 
HETATM    8  C   UNL     1      -9.365  15.876  65.901  1.00  0.00    -0.318 C  
HETATM    9  S   UNL     1      -9.977  11.500  66.238  1.00  0.00    -0.229 SA 
HETATM   10 ZN   UNL     1     -10.267  13.657  66.458  1.00  0.00    -0.246 Zn 
HETATM   11  S   UNL     1     -10.739  15.327  65.146  1.00  0.00    -0.444 SA 
HETATM   12  S   UNL     1      -8.465  14.681  66.968  1.00  0.00    -0.177 SA 
BRANCH   8  13
HETATM   13  N   UNL     1      -9.036  17.275  65.972  1.00  0.00    -0.517 NA 
BRANCH  13  14
HETATM   14  C   UNL     1     -10.073  18.305  66.026  1.00  0.00    -0.271 C  
BRANCH  14  15
HETATM   15  C   UNL     1     -10.908  18.224  67.328  1.00  0.00    -0.269 C  
BRANCH  15  16
HETATM   16  C   UNL     1     -10.077  18.280  68.625  1.00  0.00    -0.407 C  
HETATM   17  C   UNL     1      -9.856  19.731  69.071  1.00  0.00    -0.419 C  
ENDBRANCH  15  16
ENDBRANCH  14  15
ENDBRANCH  13  14
BRANCH  13  18
HETATM   18  C   UNL     1      -7.628  17.681  66.020  1.00  0.00    -0.220 C  
BRANCH  18  19
HETATM   19  C   UNL     1      -7.455  19.213  65.887  1.00  0.00    -0.263 C  
BRANCH  19  20
HETATM   20  C   UNL     1      -6.291  19.798  66.707  1.00  0.00    -0.192 C  
HETATM   21  C   UNL     1      -6.766  20.990  67.546  1.00  0.00    -0.428 C  
ENDBRANCH  19  20
ENDBRANCH  18  19
ENDBRANCH  13  18
ENDBRANCH   8  13
ENDBRANCH   5   6
BRANCH   5  22
HETATM   22  C   UNL     1     -11.937  10.611  69.727  1.00  0.00    -0.291 C  
BRANCH  22  23
HETATM   23  C   UNL     1     -11.439  10.220  71.131  1.00  0.00    -0.319 C  
BRANCH  23  24
HETATM   24  C   UNL     1     -12.285   9.153  71.838  1.00  0.00    -0.449 C  
HETATM   25  C   UNL     1     -11.383   8.123  72.528  1.00  0.00    -0.469 C  
ENDBRANCH  23  24
ENDBRANCH  22  23
ENDBRANCH   5  22
ENDBRANCH   4   5
ENDBRANCH   3   4
ENDBRANCH   2   3
TORSDOF 14
ENDMDL
MODEL       25
REMARK 921   NORMALIZED FREE ENERGY PREDICTED BY IDOCK:   -4.25 KCAL/MOL
REMARK 922        TOTAL FREE ENERGY PREDICTED BY IDOCK:   -9.12 KCAL/MOL
REMARK 923 INTER-LIGAND FREE ENERGY PREDICTED BY IDOCK:   -8.01 KCAL/MOL
REMARK 924 INTRA-LIGAND FREE ENERGY PREDICTED BY IDOCK:   -1.11 KCAL/MOL
REMARK 927      BINDING AFFINITY PREDICTED BY RF-SCORE:    0.00 PKD
ROOT
HETATM    1  C   UNL     1     -13.576  15.579  72.588  1.00  0.00    -0.657 C  
HETATM    2  C   UNL     1     -12.217  15.988  72.018  1.00  0.00    -0.582 C  
ENDROOT
BRANCH   2   3
HETATM    3  C   UNL     1     -12.131  15.704  70.506  1.00  0.00    -0.430 C  
BRANCH   3   4
HETATM    4  C   UNL     1     -10.875  16.342  69.876  1.00  0.00    -0.333 C  
BRANCH   4   5
HETATM    5  N   UNL     1     -10.736  16.043  68.439  1.00  0.00    -0.275 NA 
BRANCH   5   6
HETATM    6  C   UNL     1     -10.625  14.657  68.001  1.00  0.00    -0.240 C  
HETATM    7  S   UNL     1      -9.169  13.635  68.460  1.00  0.00    -0.060 SA 
HETATM    8  C   UNL     1     -10.866   9.960  69.297  1.00  0.00    -0.227 C  
HETATM    9  S   UNL     1     -11.892  13.799  67.335  1.00  0.00    -0.396 SA 
HETATM   10 ZN   UNL     1     -10.758  12.227  68.348  1.00  0.00    -0.184 Zn 
HETATM   11  S   UNL     1     -10.064  10.223  67.866  1.00  0.00    -0.179 SA 
HETATM   12  S   UNL     1     -11.824  11.368  69.986  1.00  0.00    -0.370 SA 
BRANCH   8  13
HETATM   13  N   UNL     1     -10.606   8.810  70.121  1.00  0.00    -0.217 NA 
BRANCH  13  14
HETATM   14  C   UNL     1     -10.941   7.458  69.679  1.00  0.00    -0.172 C  
BRANCH  14  15
HETATM   15  C   UNL     1     -11.698   6.659  70.770  1.00  0.00    -0.445 C  
BRANCH  15  16
HETATM   16  C   UNL     1     -10.904   5.480  71.365  1.00  0.00    -0.256 C  
HETATM   17  C   UNL     1     -11.317   5.221  72.820  1.00  0.00    -0.342 C  
ENDBRANCH  15  16
ENDBRANCH  14  15
ENDBRANCH  13  14
BRANCH  13  18
HETATM   18  C   UNL     1      -9.965   8.992  71.428  1.00  0.00    -0.318 C  
BRANCH  18  19
HETATM   19  C   UNL     1      -8.502   8.487  71.439  1.00  0.00    -0.218 C  
BRANCH  19  20
HETATM   20  C   UNL     1      -8.140   7.609  72.650  1.00  0.00    -0.148 C  
HETATM   21  C   UNL     1      -9.132   7.834  73.797  1.00  0.00    -0.333 C  
ENDBRANCH  19  20
ENDBRANCH  18  19
ENDBRANCH  13  18
ENDBRANCH   8  13
ENDBRANCH   5   6
BRANCH   5  22
HETATM   22  C   UNL     1     -10.778  17.145  67.469  1.00  0.00    -0.276 C  
BRANCH  22  23
HETATM   23  C   UNL     1     -10.458  18.541  68.038  1.00  0.00    -0.395 C  
BRANCH  23  24
HETATM   24  C   UNL     1     -10.959  19.712  67.182  1.00  0.00    -0.420 C  
HETATM   25  C   UNL     1      -9.852  20.198  66.239  1.00  0.00    -0.541 C  
ENDBRANCH  23  24
ENDBRANCH  22  23
ENDBRANCH   5  22
ENDBRANCH   4   5
ENDBRANCH   3   4
ENDBRANCH   2   3
TORSDOF 14
ENDMDL
MODEL       26
REMARK 921   NORMALIZED FREE ENERGY PREDICTED BY IDOCK:   -4.25 KCAL/MOL
REMARK 922        TOTAL FREE ENERGY PREDICTED BY IDOCK:   -9.11 KCAL/MOL
REMARK 923 INTER-LIGAND FREE ENERGY PREDICTED BY IDOCK:   -8.05 KCAL/MOL
REMARK 924 INTRA-LIGAND FREE ENERGY PREDICTED BY IDOCK:   -1.07 KCAL/MOL
REMARK 927      BINDING AFFINITY PREDICTED BY RF-SCORE:    0.00 PKD
ROOT
HETATM    1  C   UNL     1     -10.520   6.286  73.692  1.00  0.00    -0.299 C  
HETATM    2  C   UNL     1     -11.527   5.567  72.794  1.00  0.00    -0.339 C  
ENDROOT
BRANCH   2   3
HETATM    3  C   UNL     1     -12.151   6.528  71.764  1.00  0.00    -0.393 C  
BRANCH   3   4
HETATM    4  C   UNL     1     -11.138   7.593  71.290  1.00  0.00    -0.246 C  
BRANCH   4   5
HETATM    5  N   UNL     1     -10.798   7.468  69.861  1.00  0.00    -0.250 NA 
BRANCH   5   6
HETATM    6  C   UNL     1     -10.059   8.537  69.202  1.00  0.00    -0.203 C  
HETATM    7  S   UNL     1     -10.291   8.883  67.413  1.00  0.00    -0.274 SA 
HETATM    8  C   UNL     1     -10.252  13.014  67.273  1.00  0.00    -0.239 C  
HETATM    9  S   UNL     1      -9.200   9.706  70.028  1.00  0.00    -0.236 SA 
HETATM   10 ZN   UNL     1      -9.843  10.789  68.240  1.00  0.00    -0.144 Zn 
HETATM   11  S   UNL     1      -8.927  12.132  66.795  1.00  0.00    -0.194 SA 
HETATM   12  S   UNL     1     -11.230  12.352  68.679  1.00  0.00    -0.293 SA 
BRANCH   8  13
HETATM   13  N   UNL     1     -10.796  14.075  66.469  1.00  0.00    -0.298 NA 
BRANCH  13  14
HETATM   14  C   UNL     1     -10.033  15.288  66.180  1.00  0.00    -0.302 C  
BRANCH  14  15
HETATM   15  C   UNL     1     -10.458  16.473  67.083  1.00  0.00    -0.300 C  
BRANCH  15  16
HETATM   16  C   UNL     1     -10.271  17.863  66.443  1.00  0.00    -0.372 C  
HETATM   17  C   UNL     1     -10.298  18.965  67.509  1.00  0.00    -0.496 C  
ENDBRANCH  15  16
ENDBRANCH  14  15
ENDBRANCH  13  14
BRANCH  13  18
HETATM   18  C   UNL     1     -12.141  13.929  65.901  1.00  0.00    -0.433 C  
BRANCH  18  19
HETATM   19  C   UNL     1     -12.142  14.053  64.359  1.00  0.00    -0.486 C  
BRANCH  19  20
HETATM   20  C   UNL     1     -12.266  12.712  63.612  1.00  0.00    -0.624 C  
HETATM   21  C   UNL     1     -10.897  12.034  63.490  1.00  0.00    -0.509 C  
ENDBRANCH  19  20
ENDBRANCH  18  19
ENDBRANCH  13  18
ENDBRANCH   8  13
ENDBRANCH   5   6
BRANCH   5  22
HETATM   22  C   UNL     1     -11.156   6.238  69.143  1.00  0.00    -0.390 C  
BRANCH  22  23
HETATM   23  C   UNL     1      -9.976   5.316  68.779  1.00  0.00    -0.243 C  
BRANCH  23  24
HETATM   24  C   UNL     1      -9.611   4.286  69.856  1.00  0.00    -0.279 C  
HETATM   25  C   UNL     1      -9.304   2.927  69.216  1.00  0.00    -0.207 C  
ENDBRANCH  23  24
ENDBRANCH  22  23
ENDBRANCH   5  22
ENDBRANCH   4   5
ENDBRANCH   3   4
ENDBRANCH   2   3
TORSDOF 14
ENDMDL
MODEL       27
REMARK 921   NORMALIZED FREE ENERGY PREDICTED BY IDOCK:   -4.23 KCAL/MOL
REMARK 922        TOTAL FREE ENERGY PREDICTED BY IDOCK:   -9.07 KCAL/MOL
REMARK 923 INTER-LIGAND FREE ENERGY PREDICTED BY IDOCK:   -7.78 KCAL/MOL
REMARK 924 INTRA-LIGAND FREE ENERGY PREDICTED BY IDOCK:   -1.29 KCAL/MOL
REMARK 927      BINDING AFFINITY PREDICTED BY RF-SCORE:    0.00 PKD
ROOT
HETATM    1  C   UNL     1      -7.119   6.283  69.181  1.00  0.00    -0.077 C  
HETATM    2  C   UNL     1      -7.094   7.690  69.781  1.00  0.00    -0.067 C  
ENDROOT
BRANCH   2   3
HETATM    3  C   UNL     1      -8.264   8.546  69.261  1.00  0.00    -0.115 C  
BRANCH   3   4
HETATM    4  C   UNL     1      -8.070   8.940  67.781  1.00  0.00    -0.106 C  
BRANCH   4   5
HETATM    5  N   UNL     1      -9.273   8.708  66.961  1.00  0.00    -0.145 NA 
BRANCH   5   6
HETATM    6  C   UNL     1     -10.113   9.838  66.582  1.00  0.00    -0.237 C  
HETATM    7  S   UNL     1     -11.232  10.634  67.802  1.00  0.00    -0.245 SA 
HETATM    8  C   UNL     1     -10.832  14.652  66.914  1.00  0.00    -0.305 C  
HETATM    9  S   UNL     1      -9.925  10.685  65.157  1.00  0.00    -0.321 SA 
HETATM   10 ZN   UNL     1     -10.676  12.230  66.512  1.00  0.00    -0.223 Zn 
HETATM   11  S   UNL     1     -12.177  13.802  66.434  1.00  0.00    -0.414 SA 
HETATM   12  S   UNL     1      -9.230  13.751  66.906  1.00  0.00    -0.245 SA 
BRANCH   8  13
HETATM   13  N   UNL     1     -10.925  15.922  67.580  1.00  0.00    -0.318 NA 
BRANCH  13  14
HETATM   14  C   UNL     1     -10.249  17.112  67.065  1.00  0.00    -0.313 C  
BRANCH  14  15
HETATM   15  C   UNL     1     -10.253  18.274  68.089  1.00  0.00    -0.406 C  
BRANCH  15  16
HETATM   16  C   UNL     1     -10.612  19.650  67.493  1.00  0.00    -0.577 C  
HETATM   17  C   UNL     1     -10.528  19.622  65.963  1.00  0.00    -0.622 C  
ENDBRANCH  15  16
ENDBRANCH  14  15
ENDBRANCH  13  14
BRANCH  13  18
HETATM   18  C   UNL     1     -11.741  16.039  68.794  1.00  0.00    -0.299 C  
BRANCH  18  19
HETATM   19  C   UNL     1     -11.166  15.211  69.968  1.00  0.00    -0.301 C  
BRANCH  19  20
HETATM   20  C   UNL     1     -11.672  15.638  71.358  1.00  0.00    -0.491 C  
HETATM   21  C   UNL     1     -13.186  15.427  71.470  1.00  0.00    -0.572 C  
ENDBRANCH  19  20
ENDBRANCH  18  19
ENDBRANCH  13  18
ENDBRANCH   8  13
ENDBRANCH   5   6
BRANCH   5  22
HETATM   22  C   UNL     1      -9.568   7.350  66.487  1.00  0.00    -0.164 C  
BRANCH  22  23
HETATM   23  C   UNL     1     -10.873   6.730  67.021  1.00  0.00    -0.453 C  
BRANCH  23  24
HETATM   24  C   UNL     1     -10.688   5.758  68.194  1.00  0.00    -0.288 C  
HETATM   25  C   UNL     1     -11.246   6.365  69.486  1.00  0.00    -0.477 C  
ENDBRANCH  23  24
ENDBRANCH  22  23
ENDBRANCH   5  22
ENDBRANCH   4   5
ENDBRANCH   3   4
ENDBRANCH   2   3
TORSDOF 14
ENDMDL
MODEL       28
REMARK 921   NORMALIZED FREE ENERGY PREDICTED BY IDOCK:   -4.22 KCAL/MOL
REMARK 922        TOTAL FREE ENERGY PREDICTED BY IDOCK:   -9.06 KCAL/MOL
REMARK 923 INTER-LIGAND FREE ENERGY PREDICTED BY IDOCK:   -8.06 KCAL/MOL
REMARK 924 INTRA-LIGAND FREE ENERGY PREDICTED BY IDOCK:   -1.00 KCAL/MOL
REMARK 927      BINDING AFFINITY PREDICTED BY RF-SCORE:    0.00 PKD
ROOT
HETATM    1  C   UNL     1     -13.324   9.228  72.156  1.00  0.00    -0.537 C  
HETATM    2  C   UNL     1     -13.716   7.865  71.581  1.00  0.00    -0.422 C  
ENDROOT
BRANCH   2   3
HETATM    3  C   UNL     1     -12.546   6.865  71.652  1.00  0.00    -0.410 C  
BRANCH   3   4
HETATM    4  C   UNL     1     -11.881   6.666  70.273  1.00  0.00    -0.316 C  
BRANCH   4   5
HETATM    5  N   UNL     1     -10.419   6.854  70.307  1.00  0.00    -0.199 NA 
BRANCH   5   6
HETATM    6  C   UNL     1      -9.842   8.094  69.804  1.00  0.00    -0.187 C  
HETATM    7  S   UNL     1      -9.946   8.529  68.022  1.00  0.00    -0.191 SA 
HETATM    8  C   UNL     1     -10.718  12.588  68.121  1.00  0.00    -0.227 C  
HETATM    9  S   UNL     1      -9.328   9.336  70.791  1.00  0.00    -0.235 SA 
HETATM   10 ZN   UNL     1      -9.979  10.414  69.003  1.00  0.00    -0.154 Zn 
HETATM   11  S   UNL     1      -9.201  12.018  67.757  1.00  0.00    -0.198 SA 
HETATM   12  S   UNL     1     -11.689  11.641  69.359  1.00  0.00    -0.360 SA 
BRANCH   8  13
HETATM   13  N   UNL     1     -11.375  13.585  67.319  1.00  0.00    -0.302 NA 
BRANCH  13  14
HETATM   14  C   UNL     1     -12.262  13.221  66.215  1.00  0.00    -0.377 C  
BRANCH  14  15
HETATM   15  C   UNL     1     -11.836  13.884  64.881  1.00  0.00    -0.401 C  
BRANCH  15  16
HETATM   16  C   UNL     1     -11.319  12.899  63.814  1.00  0.00    -0.490 C  
HETATM   17  C   UNL     1     -12.426  11.929  63.384  1.00  0.00    -0.582 C  
ENDBRANCH  15  16
ENDBRANCH  14  15
ENDBRANCH  13  14
BRANCH  13  18
HETATM   18  C   UNL     1     -11.173  15.005  67.629  1.00  0.00    -0.326 C  
BRANCH  18  19
HETATM   19  C   UNL     1     -11.895  15.428  68.931  1.00  0.00    -0.350 C  
BRANCH  19  20
HETATM   20  C   UNL     1     -10.953  15.826  70.081  1.00  0.00    -0.361 C  
HETATM   21  C   UNL     1     -11.711  15.860  71.414  1.00  0.00    -0.530 C  
ENDBRANCH  19  20
ENDBRANCH  18  19
ENDBRANCH  13  18
ENDBRANCH   8  13
ENDBRANCH   5   6
BRANCH   5  22
HETATM   22  C   UNL     1      -9.576   5.813  70.909  1.00  0.00    -0.168 C  
BRANCH  22  23
HETATM   23  C   UNL     1      -9.998   4.362  70.608  1.00  0.00    -0.254 C  
BRANCH  23  24
HETATM   24  C   UNL     1      -9.903   3.406  71.805  1.00  0.00    -0.229 C  
HETATM   25  C   UNL     1     -10.624   3.997  73.022  1.00  0.00    -0.256 C  
ENDBRANCH  23  24
ENDBRANCH  22  23
ENDBRANCH   5  22
ENDBRANCH   4   5
ENDBRANCH   3   4
ENDBRANCH   2   3
TORSDOF 14
ENDMDL
MODEL       29
REMARK 921   NORMALIZED FREE ENERGY PREDICTED BY IDOCK:   -4.22 KCAL/MOL
REMARK 922        TOTAL FREE ENERGY PREDICTED BY IDOCK:   -9.05 KCAL/MOL
REMARK 923 INTER-LIGAND FREE ENERGY PREDICTED BY IDOCK:   -7.65 KCAL/MOL
REMARK 924 INTRA-LIGAND FREE ENERGY PREDICTED BY IDOCK:   -1.39 KCAL/MOL
REMARK 927      BINDING AFFINITY PREDICTED BY RF-SCORE:    0.00 PKD
ROOT
HETATM    1  C   UNL     1     -11.869  13.107  63.611  1.00  0.00    -0.549 C  
HETATM    2  C   UNL     1     -10.518  12.391  63.648  1.00  0.00    -0.460 C  
ENDROOT
BRANCH   2   3
HETATM    3  C   UNL     1     -10.680  10.898  63.997  1.00  0.00    -0.208 C  
BRANCH   3   4
HETATM    4  C   UNL     1      -9.568  10.411  64.951  1.00  0.00    -0.289 C  
BRANCH   4   5
HETATM    5  N   UNL     1     -10.035  10.238  66.338  1.00  0.00    -0.219 NA 
BRANCH   5   6
HETATM    6  C   UNL     1     -10.115  11.396  67.219  1.00  0.00    -0.192 C  
HETATM    7  S   UNL     1      -8.602  12.116  67.972  1.00  0.00    -0.181 SA 
HETATM    8  C   UNL     1      -9.306  16.181  67.717  1.00  0.00    -0.211 C  
HETATM    9  S   UNL     1     -11.484  12.336  67.381  1.00  0.00    -0.360 SA 
HETATM   10 ZN   UNL     1      -9.888  13.791  67.725  1.00  0.00    -0.200 Zn 
HETATM   11  S   UNL     1      -9.479  15.375  69.159  1.00  0.00    -0.255 SA 
HETATM   12  S   UNL     1      -9.780  15.272  66.192  1.00  0.00    -0.337 SA 
BRANCH   8  13
HETATM   13  N   UNL     1      -8.558  17.405  67.608  1.00  0.00    -0.215 NA 
BRANCH  13  14
HETATM   14  C   UNL     1      -8.725  18.494  68.568  1.00  0.00    -0.326 C  
BRANCH  14  15
HETATM   15  C   UNL     1     -10.070  19.240  68.377  1.00  0.00    -0.518 C  
BRANCH  15  16
HETATM   16  C   UNL     1     -10.008  20.428  67.397  1.00  0.00    -0.556 C  
HETATM   17  C   UNL     1     -10.449  20.001  65.991  1.00  0.00    -0.523 C  
ENDBRANCH  15  16
ENDBRANCH  14  15
ENDBRANCH  13  14
BRANCH  13  18
HETATM   18  C   UNL     1      -7.583  17.557  66.523  1.00  0.00    -0.276 C  
BRANCH  18  19
HETATM   19  C   UNL     1      -6.569  18.693  66.801  1.00  0.00    -0.206 C  
BRANCH  19  20
HETATM   20  C   UNL     1      -6.707  19.912  65.873  1.00  0.00    -0.274 C  
HETATM   21  C   UNL     1      -6.342  21.202  66.617  1.00  0.00    -0.362 C  
ENDBRANCH  19  20
ENDBRANCH  18  19
ENDBRANCH  13  18
ENDBRANCH   8  13
ENDBRANCH   5   6
BRANCH   5  22
HETATM   22  C   UNL     1     -10.475   8.910  66.786  1.00  0.00    -0.199 C  
BRANCH  22  23
HETATM   23  C   UNL     1     -10.526   8.710  68.313  1.00  0.00    -0.234 C  
BRANCH  23  24
HETATM   24  C   UNL     1     -10.376   7.253  68.773  1.00  0.00    -0.209 C  
HETATM   25  C   UNL     1     -11.417   6.921  69.848  1.00  0.00    -0.294 C  
ENDBRANCH  23  24
ENDBRANCH  22  23
ENDBRANCH   5  22
ENDBRANCH   4   5
ENDBRANCH   3   4
ENDBRANCH   2   3
TORSDOF 14
ENDMDL
MODEL       30
REMARK 921   NORMALIZED FREE ENERGY PREDICTED BY IDOCK:   -4.21 KCAL/MOL
REMARK 922        TOTAL FREE ENERGY PREDICTED BY IDOCK:   -9.04 KCAL/MOL
REMARK 923 INTER-LIGAND FREE ENERGY PREDICTED BY IDOCK:   -7.84 KCAL/MOL
REMARK 924 INTRA-LIGAND FREE ENERGY PREDICTED BY IDOCK:   -1.20 KCAL/MOL
REMARK 927      BINDING AFFINITY PREDICTED BY RF-SCORE:    0.00 PKD
ROOT
HETATM    1  C   UNL     1     -10.346  18.793  66.526  1.00  0.00    -0.475 C  
HETATM    2  C   UNL     1      -9.741  17.722  67.436  1.00  0.00    -0.284 C  
ENDROOT
BRANCH   2   3
HETATM    3  C   UNL     1     -10.635  16.469  67.505  1.00  0.00    -0.313 C  
BRANCH   3   4
HETATM    4  C   UNL     1     -10.699  15.738  66.147  1.00  0.00    -0.290 C  
BRANCH   4   5
HETATM    5  N   UNL     1     -11.263  14.380  66.251  1.00  0.00    -0.332 NA 
BRANCH   5   6
HETATM    6  C   UNL     1     -10.685  13.431  67.194  1.00  0.00    -0.264 C  
HETATM    7  S   UNL     1     -11.743  12.531  68.397  1.00  0.00    -0.315 SA 
HETATM    8  C   UNL     1     -10.104   8.736  68.387  1.00  0.00    -0.190 C  
HETATM    9  S   UNL     1      -9.123  12.856  67.079  1.00  0.00    -0.229 SA 
HETATM   10 ZN   UNL     1     -10.167  11.163  67.990  1.00  0.00    -0.161 Zn 
HETATM   11  S   UNL     1      -9.808   9.790  69.637  1.00  0.00    -0.234 SA 
HETATM   12  S   UNL     1     -10.251   9.461  66.705  1.00  0.00    -0.226 SA 
BRANCH   8  13
HETATM   13  N   UNL     1     -10.518   7.378  68.611  1.00  0.00    -0.198 NA 
BRANCH  13  14
HETATM   14  C   UNL     1     -11.128   6.576  67.551  1.00  0.00    -0.308 C  
BRANCH  14  15
HETATM   15  C   UNL     1     -10.248   5.363  67.157  1.00  0.00    -0.266 C  
BRANCH  15  16
HETATM   16  C   UNL     1      -8.966   5.729  66.384  1.00  0.00    -0.139 C  
HETATM   17  C   UNL     1      -7.716   5.331  67.179  1.00  0.00    -0.096 C  
ENDBRANCH  15  16
ENDBRANCH  14  15
ENDBRANCH  13  14
BRANCH  13  18
HETATM   18  C   UNL     1     -10.300   6.767  69.927  1.00  0.00    -0.203 C  
BRANCH  18  19
HETATM   19  C   UNL     1     -11.622   6.301  70.583  1.00  0.00    -0.350 C  
BRANCH  19  20
HETATM   20  C   UNL     1     -12.340   7.384  71.408  1.00  0.00    -0.394 C  
HETATM   21  C   UNL     1     -11.439   7.883  72.544  1.00  0.00    -0.455 C  
ENDBRANCH  19  20
ENDBRANCH  18  19
ENDBRANCH  13  18
ENDBRANCH   8  13
ENDBRANCH   5   6
BRANCH   5  22
HETATM   22  C   UNL     1     -12.442  14.029  65.447  1.00  0.00    -0.498 C  
BRANCH  22  23
HETATM   23  C   UNL     1     -12.158  13.678  63.974  1.00  0.00    -0.474 C  
BRANCH  23  24
HETATM   24  C   UNL     1     -12.131  12.175  63.667  1.00  0.00    -0.648 C  
HETATM   25  C   UNL     1     -10.685  11.677  63.552  1.00  0.00    -0.495 C  
ENDBRANCH  23  24
ENDBRANCH  22  23
ENDBRANCH   5  22
ENDBRANCH   4   5
ENDBRANCH   3   4
ENDBRANCH   2   3
TORSDOF 14
ENDMDL
MODEL       31
REMARK 921   NORMALIZED FREE ENERGY PREDICTED BY IDOCK:   -4.21 KCAL/MOL
REMARK 922        TOTAL FREE ENERGY PREDICTED BY IDOCK:   -9.04 KCAL/MOL
REMARK 923 INTER-LIGAND FREE ENERGY PREDICTED BY IDOCK:   -7.83 KCAL/MOL
REMARK 924 INTRA-LIGAND FREE ENERGY PREDICTED BY IDOCK:   -1.21 KCAL/MOL
REMARK 927      BINDING AFFINITY PREDICTED BY RF-SCORE:    0.00 PKD
ROOT
HETATM    1  C   UNL     1     -10.128  20.166  66.446  1.00  0.00    -0.569 C  
HETATM    2  C   UNL     1     -10.657  19.332  67.614  1.00  0.00    -0.553 C  
ENDROOT
BRANCH   2   3
HETATM    3  C   UNL     1     -10.575  17.823  67.313  1.00  0.00    -0.322 C  
BRANCH   3   4
HETATM    4  C   UNL     1      -9.798  17.543  66.008  1.00  0.00    -0.179 C  
BRANCH   4   5
HETATM    5  N   UNL     1      -8.685  16.594  66.193  1.00  0.00    -0.427 NA 
BRANCH   5   6
HETATM    6  C   UNL     1      -8.963  15.166  66.268  1.00  0.00    -0.239 C  
HETATM    7  S   UNL     1      -8.220  14.126  67.588  1.00  0.00    -0.201 SA 
HETATM    8  C   UNL     1     -11.332  11.610  68.623  1.00  0.00    -0.267 C  
HETATM    9  S   UNL     1     -10.173  14.418  65.396  1.00  0.00    -0.380 SA 
HETATM   10 ZN   UNL     1     -10.092  13.194  67.207  1.00  0.00    -0.211 Zn 
HETATM   11  S   UNL     1     -10.078  11.070  67.676  1.00  0.00    -0.187 SA 
HETATM   12  S   UNL     1     -11.865  13.353  68.387  1.00  0.00    -0.345 SA 
BRANCH   8  13
HETATM   13  N   UNL     1     -11.796  10.878  69.771  1.00  0.00    -0.316 NA 
BRANCH  13  14
HETATM   14  C   UNL     1     -10.957   9.884  70.438  1.00  0.00    -0.318 C  
BRANCH  14  15
HETATM   15  C   UNL     1     -11.651   8.501  70.528  1.00  0.00    -0.145 C  
BRANCH  15  16
HETATM   16  C   UNL     1     -11.577   7.839  71.918  1.00  0.00    -0.330 C  
HETATM   17  C   UNL     1     -10.225   8.119  72.586  1.00  0.00    -0.388 C  
ENDBRANCH  15  16
ENDBRANCH  14  15
ENDBRANCH  13  14
BRANCH  13  18
HETATM   18  C   UNL     1     -13.135  11.151  70.305  1.00  0.00     0.210 C  
BRANCH  18  19
HETATM   19  C   UNL     1     -13.088  11.703  71.750  1.00  0.00    -0.487 C  
BRANCH  19  20
HETATM   20  C   UNL     1     -12.926  13.230  71.845  1.00  0.00    -0.409 C  
HETATM   21  C   UNL     1     -14.241  13.888  72.279  1.00  0.00    -0.584 C  
ENDBRANCH  19  20
ENDBRANCH  18  19
ENDBRANCH  13  18
ENDBRANCH   8  13
ENDBRANCH   5   6
BRANCH   5  22
HETATM   22  C   UNL     1      -7.308  17.103  66.234  1.00  0.00    -0.291 C  
BRANCH  22  23
HETATM   23  C   UNL     1      -7.110  18.418  67.012  1.00  0.00    -0.210 C  
BRANCH  23  24
HETATM   24  C   UNL     1      -7.219  18.282  68.537  1.00  0.00    -0.293 C  
HETATM   25  C   UNL     1      -6.850  19.603  69.221  1.00  0.00    -0.390 C  
ENDBRANCH  23  24
ENDBRANCH  22  23
ENDBRANCH   5  22
ENDBRANCH   4   5
ENDBRANCH   3   4
ENDBRANCH   2   3
TORSDOF 14
ENDMDL
MODEL       32
REMARK 921   NORMALIZED FREE ENERGY PREDICTED BY IDOCK:   -4.20 KCAL/MOL
REMARK 922        TOTAL FREE ENERGY PREDICTED BY IDOCK:   -9.01 KCAL/MOL
REMARK 923 INTER-LIGAND FREE ENERGY PREDICTED BY IDOCK:   -7.70 KCAL/MOL
REMARK 924 INTRA-LIGAND FREE ENERGY PREDICTED BY IDOCK:   -1.32 KCAL/MOL
REMARK 927      BINDING AFFINITY PREDICTED BY RF-SCORE:    0.00 PKD
ROOT
HETATM    1  C   UNL     1      -6.578  18.534  67.274  1.00  0.00    -0.207 C  
HETATM    2  C   UNL     1      -7.023  17.680  66.085  1.00  0.00    -0.338 C  
ENDROOT
BRANCH   2   3
HETATM    3  C   UNL     1      -7.719  16.386  66.549  1.00  0.00    -0.295 C  
BRANCH   3   4
HETATM    4  C   UNL     1      -9.134  16.252  65.947  1.00  0.00    -0.211 C  
BRANCH   4   5
HETATM    5  N   UNL     1     -10.203  16.496  66.932  1.00  0.00    -0.290 NA 
BRANCH   5   6
HETATM    6  C   UNL     1     -10.763  15.376  67.677  1.00  0.00    -0.292 C  
HETATM    7  S   UNL     1     -11.677  14.033  66.820  1.00  0.00    -0.427 SA 
HETATM    8  C   UNL     1     -10.373  10.642  68.792  1.00  0.00    -0.193 C  
HETATM    9  S   UNL     1     -10.383  15.049  69.269  1.00  0.00    -0.237 SA 
HETATM   10 ZN   UNL     1     -10.769  13.049  68.471  1.00  0.00    -0.201 Zn 
HETATM   11  S   UNL     1     -11.874  11.285  69.102  1.00  0.00    -0.354 SA 
HETATM   12  S   UNL     1      -9.018  11.828  68.428  1.00  0.00    -0.138 SA 
BRANCH   8  13
HETATM   13  N   UNL     1     -10.179   9.242  68.526  1.00  0.00    -0.194 NA 
BRANCH  13  14
HETATM   14  C   UNL     1     -10.516   8.653  67.231  1.00  0.00    -0.289 C  
BRANCH  14  15
HETATM   15  C   UNL     1      -9.463   8.991  66.145  1.00  0.00    -0.318 C  
BRANCH  15  16
HETATM   16  C   UNL     1      -9.876  10.126  65.188  1.00  0.00    -0.394 C  
HETATM   17  C   UNL     1      -8.991  10.134  63.935  1.00  0.00    -0.270 C  
ENDBRANCH  15  16
ENDBRANCH  14  15
ENDBRANCH  13  14
BRANCH  13  18
HETATM   18  C   UNL     1      -9.603   8.385  69.569  1.00  0.00    -0.170 C  
BRANCH  18  19
HETATM   19  C   UNL     1     -10.685   7.790  70.502  1.00  0.00    -0.238 C  
BRANCH  19  20
HETATM   20  C   UNL     1     -10.872   8.550  71.827  1.00  0.00    -0.374 C  
HETATM   21  C   UNL     1     -12.358   8.827  72.086  1.00  0.00    -0.458 C  
ENDBRANCH  19  20
ENDBRANCH  18  19
ENDBRANCH  13  18
ENDBRANCH   8  13
ENDBRANCH   5   6
BRANCH   5  22
HETATM   22  C   UNL     1     -10.639  17.875  67.191  1.00  0.00    -0.307 C  
BRANCH  22  23
HETATM   23  C   UNL     1     -10.612  18.818  65.973  1.00  0.00    -0.442 C  
BRANCH  23  24
HETATM   24  C   UNL     1      -9.814  20.112  66.182  1.00  0.00    -0.515 C  
HETATM   25  C   UNL     1      -9.688  20.428  67.677  1.00  0.00    -0.540 C  
ENDBRANCH  23  24
ENDBRANCH  22  23
ENDBRANCH   5  22
ENDBRANCH   4   5
ENDBRANCH   3   4
ENDBRANCH   2   3
TORSDOF 14
ENDMDL
MODEL       33
REMARK 921   NORMALIZED FREE ENERGY PREDICTED BY IDOCK:   -4.18 KCAL/MOL
REMARK 922        TOTAL FREE ENERGY PREDICTED BY IDOCK:   -8.98 KCAL/MOL
REMARK 923 INTER-LIGAND FREE ENERGY PREDICTED BY IDOCK:   -8.19 KCAL/MOL
REMARK 924 INTRA-LIGAND FREE ENERGY PREDICTED BY IDOCK:   -0.78 KCAL/MOL
REMARK 927      BINDING AFFINITY PREDICTED BY RF-SCORE:    0.00 PKD
ROOT
HETATM    1  C   UNL     1     -10.639  18.683  66.412  1.00  0.00    -0.399 C  
HETATM    2  C   UNL     1     -10.001  20.040  66.112  1.00  0.00    -0.580 C  
ENDROOT
BRANCH   2   3
HETATM    3  C   UNL     1      -9.482  20.716  67.397  1.00  0.00    -0.516 C  
BRANCH   3   4
HETATM    4  C   UNL     1      -8.961  19.679  68.416  1.00  0.00    -0.319 C  
BRANCH   4   5
HETATM    5  N   UNL     1      -7.623  19.162  68.078  1.00  0.00    -0.269 NA 
BRANCH   5   6
HETATM    6  C   UNL     1      -7.448  17.741  67.805  1.00  0.00    -0.204 C  
HETATM    7  S   UNL     1      -7.759  16.485  69.109  1.00  0.00    -0.147 SA 
HETATM    8  C   UNL     1      -9.651  13.459  67.022  1.00  0.00    -0.244 C  
HETATM    9  S   UNL     1      -7.262  17.116  66.270  1.00  0.00    -0.221 SA 
HETATM   10 ZN   UNL     1      -8.280  15.482  67.309  1.00  0.00    -0.128 Zn 
HETATM   11  S   UNL     1      -8.053  13.324  67.459  1.00  0.00    -0.190 SA 
HETATM   12  S   UNL     1     -10.250  15.134  66.562  1.00  0.00    -0.288 SA 
BRANCH   8  13
HETATM   13  N   UNL     1     -10.603  12.409  67.264  1.00  0.00    -0.221 NA 
BRANCH  13  14
HETATM   14  C   UNL     1     -11.227  11.671  66.167  1.00  0.00    -0.254 C  
BRANCH  14  15
HETATM   15  C   UNL     1     -12.212  12.551  65.358  1.00  0.00    -0.475 C  
BRANCH  15  16
HETATM   16  C   UNL     1     -11.853  12.709  63.868  1.00  0.00    -0.544 C  
HETATM   17  C   UNL     1     -10.633  11.853  63.506  1.00  0.00    -0.507 C  
ENDBRANCH  15  16
ENDBRANCH  14  15
ENDBRANCH  13  14
BRANCH  13  18
HETATM   18  C   UNL     1     -10.939  12.047  68.646  1.00  0.00    -0.240 C  
BRANCH  18  19
HETATM   19  C   UNL     1     -11.876  13.084  69.311  1.00  0.00    -0.370 C  
BRANCH  19  20
HETATM   20  C   UNL     1     -12.441  12.649  70.676  1.00  0.00    -0.323 C  
HETATM   21  C   UNL     1     -12.946  13.864  71.463  1.00  0.00    -0.436 C  
ENDBRANCH  19  20
ENDBRANCH  18  19
ENDBRANCH  13  18
ENDBRANCH   8  13
ENDBRANCH   5   6
BRANCH   5  22
HETATM   22  C   UNL     1      -6.500  20.102  67.958  1.00  0.00    -0.264 C  
BRANCH  22  23
HETATM   23  C   UNL     1      -5.884  20.572  69.290  1.00  0.00    -0.398 C  
BRANCH  23  24
HETATM   24  C   UNL     1      -5.396  19.441  70.205  1.00  0.00    -0.229 C  
HETATM   25  C   UNL     1      -5.386  19.901  71.667  1.00  0.00    -0.430 C  
ENDBRANCH  23  24
ENDBRANCH  22  23
ENDBRANCH   5  22
ENDBRANCH   4   5
ENDBRANCH   3   4
ENDBRANCH   2   3
TORSDOF 14
ENDMDL
MODEL       34
REMARK 921   NORMALIZED FREE ENERGY PREDICTED BY IDOCK:   -4.17 KCAL/MOL
REMARK 922        TOTAL FREE ENERGY PREDICTED BY IDOCK:   -8.96 KCAL/MOL
REMARK 923 INTER-LIGAND FREE ENERGY PREDICTED BY IDOCK:   -7.82 KCAL/MOL
REMARK 924 INTRA-LIGAND FREE ENERGY PREDICTED BY IDOCK:   -1.14 KCAL/MOL
REMARK 927      BINDING AFFINITY PREDICTED BY RF-SCORE:    0.00 PKD
ROOT
HETATM    1  C   UNL     1     -10.505  18.566  66.812  1.00  0.00    -0.432 C  
HETATM    2  C   UNL     1     -10.222  17.716  68.052  1.00  0.00    -0.362 C  
ENDROOT
BRANCH   2   3
HETATM    3  C   UNL     1     -10.961  16.365  67.990  1.00  0.00    -0.327 C  
BRANCH   3   4
HETATM    4  C   UNL     1     -10.890  15.740  66.580  1.00  0.00    -0.241 C  
BRANCH   4   5
HETATM    5  N   UNL     1     -11.336  14.335  66.551  1.00  0.00    -0.336 NA 
BRANCH   5   6
HETATM    6  C   UNL     1     -10.688  13.357  67.415  1.00  0.00    -0.262 C  
HETATM    7  S   UNL     1     -11.640  12.458  68.704  1.00  0.00    -0.338 SA 
HETATM    8  C   UNL     1     -10.100   8.630  68.467  1.00  0.00    -0.190 C  
HETATM    9  S   UNL     1      -9.160  12.751  67.134  1.00  0.00    -0.225 SA 
HETATM   10 ZN   UNL     1     -10.146  11.065  68.118  1.00  0.00    -0.156 Zn 
HETATM   11  S   UNL     1      -9.655   9.653  69.698  1.00  0.00    -0.222 SA 
HETATM   12  S   UNL     1     -10.399   9.388  66.821  1.00  0.00    -0.203 SA 
BRANCH   8  13
HETATM   13  N   UNL     1     -10.522   7.277  68.710  1.00  0.00    -0.201 NA 
BRANCH  13  14
HETATM   14  C   UNL     1     -10.522   6.702  70.055  1.00  0.00    -0.212 C  
BRANCH  14  15
HETATM   15  C   UNL     1     -11.935   6.711  70.692  1.00  0.00    -0.404 C  
BRANCH  15  16
HETATM   16  C   UNL     1     -12.071   7.615  71.933  1.00  0.00    -0.333 C  
HETATM   17  C   UNL     1     -12.870   8.881  71.603  1.00  0.00    -0.401 C  
ENDBRANCH  15  16
ENDBRANCH  14  15
ENDBRANCH  13  14
BRANCH  13  18
HETATM   18  C   UNL     1     -10.989   6.456  67.587  1.00  0.00    -0.349 C  
BRANCH  18  19
HETATM   19  C   UNL     1     -10.190   5.137  67.453  1.00  0.00    -0.224 C  
BRANCH  19  20
HETATM   20  C   UNL     1      -8.730   5.320  67.003  1.00  0.00    -0.107 C  
HETATM   21  C   UNL     1      -8.658   6.181  65.736  1.00  0.00    -0.153 C  
ENDBRANCH  19  20
ENDBRANCH  18  19
ENDBRANCH  13  18
ENDBRANCH   8  13
ENDBRANCH   5   6
BRANCH   5  22
HETATM   22  C   UNL     1     -12.471  13.961  65.696  1.00  0.00    -0.505 C  
BRANCH  22  23
HETATM   23  C   UNL     1     -12.155  13.833  64.194  1.00  0.00    -0.478 C  
BRANCH  23  24
HETATM   24  C   UNL     1     -12.283  12.412  63.630  1.00  0.00    -0.653 C  
HETATM   25  C   UNL     1     -10.921  11.707  63.639  1.00  0.00    -0.507 C  
ENDBRANCH  23  24
ENDBRANCH  22  23
ENDBRANCH   5  22
ENDBRANCH   4   5
ENDBRANCH   3   4
ENDBRANCH   2   3
TORSDOF 14
ENDMDL
MODEL       35
REMARK 921   NORMALIZED FREE ENERGY PREDICTED BY IDOCK:   -4.15 KCAL/MOL
REMARK 922        TOTAL FREE ENERGY PREDICTED BY IDOCK:   -8.92 KCAL/MOL
REMARK 923 INTER-LIGAND FREE ENERGY PREDICTED BY IDOCK:   -7.80 KCAL/MOL
REMARK 924 INTRA-LIGAND FREE ENERGY PREDICTED BY IDOCK:   -1.13 KCAL/MOL
REMARK 927      BINDING AFFINITY PREDICTED BY RF-SCORE:    0.00 PKD
ROOT
HETATM    1  C   UNL     1     -12.237  12.408  63.417  1.00  0.00    -0.623 C  
HETATM    2  C   UNL     1     -12.831  12.641  64.808  1.00  0.00    -0.349 C  
ENDROOT
BRANCH   2   3
HETATM    3  C   UNL     1     -12.142  13.819  65.525  1.00  0.00    -0.434 C  
BRANCH   3   4
HETATM    4  C   UNL     1     -10.747  14.111  64.931  1.00  0.00    -0.428 C  
BRANCH   4   5
HETATM    5  N   UNL     1      -9.678  14.108  65.946  1.00  0.00    -0.275 NA 
BRANCH   5   6
HETATM    6  C   UNL     1      -9.175  12.839  66.458  1.00  0.00    -0.189 C  
HETATM    7  S   UNL     1      -8.560  12.693  68.183  1.00  0.00    -0.181 SA 
HETATM    8  C   UNL     1     -10.024   9.012  69.361  1.00  0.00    -0.191 C  
HETATM    9  S   UNL     1      -9.386  11.383  65.671  1.00  0.00    -0.200 SA 
HETATM   10 ZN   UNL     1      -9.367  10.770  67.771  1.00  0.00    -0.140 Zn 
HETATM   11  S   UNL     1      -8.426   9.201  68.948  1.00  0.00    -0.131 SA 
HETATM   12  S   UNL     1     -11.251  10.006  68.423  1.00  0.00    -0.050 SA 
BRANCH   8  13
HETATM   13  N   UNL     1     -10.430   8.344  70.569  1.00  0.00    -0.203 NA 
BRANCH  13  14
HETATM   14  C   UNL     1     -10.969   9.081  71.710  1.00  0.00    -0.372 C  
BRANCH  14  15
HETATM   15  C   UNL     1     -12.272   8.443  72.254  1.00  0.00    -0.449 C  
BRANCH  15  16
HETATM   16  C   UNL     1     -13.516   9.347  72.156  1.00  0.00    -0.543 C  
HETATM   17  C   UNL     1     -13.139  10.743  71.647  1.00  0.00    -0.551 C  
ENDBRANCH  15  16
ENDBRANCH  14  15
ENDBRANCH  13  14
BRANCH  13  18
HETATM   18  C   UNL     1     -10.327   6.883  70.652  1.00  0.00    -0.200 C  
BRANCH  18  19
HETATM   19  C   UNL     1     -11.060   6.176  69.487  1.00  0.00    -0.490 C  
BRANCH  19  20
HETATM   20  C   UNL     1     -10.152   5.313  68.592  1.00  0.00    -0.238 C  
HETATM   21  C   UNL     1      -9.581   4.130  69.384  1.00  0.00    -0.265 C  
ENDBRANCH  19  20
ENDBRANCH  18  19
ENDBRANCH  13  18
ENDBRANCH   8  13
ENDBRANCH   5   6
BRANCH   5  22
HETATM   22  C   UNL     1      -9.094  15.385  66.376  1.00  0.00    -0.314 C  
BRANCH  22  23
HETATM   23  C   UNL     1      -9.915  16.641  66.025  1.00  0.00    -0.346 C  
BRANCH  23  24
HETATM   24  C   UNL     1     -10.491  17.388  67.235  1.00  0.00    -0.321 C  
HETATM   25  C   UNL     1     -10.585  16.454  68.447  1.00  0.00    -0.311 C  
ENDBRANCH  23  24
ENDBRANCH  22  23
ENDBRANCH   5  22
ENDBRANCH   4   5
ENDBRANCH   3   4
ENDBRANCH   2   3
TORSDOF 14
ENDMDL
MODEL       36
REMARK 921   NORMALIZED FREE ENERGY PREDICTED BY IDOCK:   -4.14 KCAL/MOL
REMARK 922        TOTAL FREE ENERGY PREDICTED BY IDOCK:   -8.92 KCAL/MOL
REMARK 923 INTER-LIGAND FREE ENERGY PREDICTED BY IDOCK:   -7.66 KCAL/MOL
REMARK 924 INTRA-LIGAND FREE ENERGY PREDICTED BY IDOCK:   -1.26 KCAL/MOL
REMARK 927      BINDING AFFINITY PREDICTED BY RF-SCORE:    0.00 PKD
ROOT
HETATM    1  C   UNL     1     -10.827  11.363  63.690  1.00  0.00    -0.459 C  
HETATM    2  C   UNL     1     -12.060  12.230  63.429  1.00  0.00    -0.615 C  
ENDROOT
BRANCH   2   3
HETATM    3  C   UNL     1     -12.120  13.430  64.393  1.00  0.00    -0.468 C  
BRANCH   3   4
HETATM    4  C   UNL     1     -12.317  12.978  65.856  1.00  0.00    -0.368 C  
BRANCH   4   5
HETATM    5  N   UNL     1     -11.323  13.560  66.777  1.00  0.00    -0.317 NA 
BRANCH   5   6
HETATM    6  C   UNL     1     -10.569  12.685  67.666  1.00  0.00    -0.218 C  
HETATM    7  S   UNL     1     -11.348  11.965  69.166  1.00  0.00    -0.289 SA 
HETATM    8  C   UNL     1      -9.846   8.114  69.209  1.00  0.00    -0.182 C  
HETATM    9  S   UNL     1      -9.088  12.027  67.269  1.00  0.00    -0.184 SA 
HETATM   10 ZN   UNL     1      -9.939  10.488  68.571  1.00  0.00    -0.144 Zn 
HETATM   11  S   UNL     1      -9.249   9.274  70.238  1.00  0.00    -0.254 SA 
HETATM   12  S   UNL     1     -10.353   8.669  67.533  1.00  0.00    -0.272 SA 
BRANCH   8  13
HETATM   13  N   UNL     1     -10.231   6.807  69.668  1.00  0.00    -0.182 NA 
BRANCH  13  14
HETATM   14  C   UNL     1     -11.623   6.479  69.973  1.00  0.00    -0.390 C  
BRANCH  14  15
HETATM   15  C   UNL     1     -11.991   6.807  71.442  1.00  0.00    -0.403 C  
BRANCH  15  16
HETATM   16  C   UNL     1     -13.274   7.645  71.608  1.00  0.00    -0.395 C  
HETATM   17  C   UNL     1     -12.986   9.135  71.390  1.00  0.00    -0.366 C  
ENDBRANCH  15  16
ENDBRANCH  14  15
ENDBRANCH  13  14
BRANCH  13  18
HETATM   18  C   UNL     1      -9.209   5.764  69.810  1.00  0.00    -0.140 C  
BRANCH  18  19
HETATM   19  C   UNL     1      -9.785   4.345  69.592  1.00  0.00    -0.289 C  
BRANCH  19  20
HETATM   20  C   UNL     1      -9.699   3.426  70.824  1.00  0.00    -0.190 C  
HETATM   21  C   UNL     1      -9.101   4.178  72.018  1.00  0.00    -0.160 C  
ENDBRANCH  19  20
ENDBRANCH  18  19
ENDBRANCH  13  18
ENDBRANCH   8  13
ENDBRANCH   5   6
BRANCH   5  22
HETATM   22  C   UNL     1     -11.065  15.005  66.734  1.00  0.00    -0.326 C  
BRANCH  22  23
HETATM   23  C   UNL     1     -10.602  15.635  68.061  1.00  0.00    -0.271 C  
BRANCH  23  24
HETATM   24  C   UNL     1     -11.715  15.838  69.097  1.00  0.00    -0.398 C  
HETATM   25  C   UNL     1     -11.162  15.670  70.517  1.00  0.00    -0.382 C  
ENDBRANCH  23  24
ENDBRANCH  22  23
ENDBRANCH   5  22
ENDBRANCH   4   5
ENDBRANCH   3   4
ENDBRANCH   2   3
TORSDOF 14
ENDMDL
MODEL       37
REMARK 921   NORMALIZED FREE ENERGY PREDICTED BY IDOCK:   -4.13 KCAL/MOL
REMARK 922        TOTAL FREE ENERGY PREDICTED BY IDOCK:   -8.90 KCAL/MOL
REMARK 923 INTER-LIGAND FREE ENERGY PREDICTED BY IDOCK:   -7.65 KCAL/MOL
REMARK 924 INTRA-LIGAND FREE ENERGY PREDICTED BY IDOCK:   -1.25 KCAL/MOL
REMARK 927      BINDING AFFINITY PREDICTED BY RF-SCORE:    0.00 PKD
ROOT
HETATM    1  C   UNL     1      -6.591  18.395  65.544  1.00  0.00    -0.287 C  
HETATM    2  C   UNL     1      -6.012  19.293  66.638  1.00  0.00    -0.172 C  
ENDROOT
BRANCH   2   3
HETATM    3  C   UNL     1      -6.508  18.872  68.035  1.00  0.00    -0.234 C  
BRANCH   3   4
HETATM    4  C   UNL     1      -7.284  17.538  67.986  1.00  0.00    -0.206 C  
BRANCH   4   5
HETATM    5  N   UNL     1      -8.676  17.665  68.455  1.00  0.00    -0.286 NA 
BRANCH   5   6
HETATM    6  C   UNL     1      -9.556  16.505  68.417  1.00  0.00    -0.233 C  
HETATM    7  S   UNL     1     -10.430  16.032  66.871  1.00  0.00    -0.295 SA 
HETATM    8  C   UNL     1     -10.148  11.909  66.892  1.00  0.00    -0.207 C  
HETATM    9  S   UNL     1      -9.617  15.357  69.626  1.00  0.00    -0.161 SA 
HETATM   10 ZN   UNL     1     -10.095  14.175  67.848  1.00  0.00    -0.207 Zn 
HETATM   11  S   UNL     1     -11.567  12.668  67.304  1.00  0.00    -0.373 SA 
HETATM   12  S   UNL     1      -8.585  12.739  67.385  1.00  0.00    -0.203 SA 
BRANCH   8  13
HETATM   13  N   UNL     1     -10.106  10.822  65.952  1.00  0.00    -0.247 NA 
BRANCH  13  14
HETATM   14  C   UNL     1     -10.569  10.980  64.574  1.00  0.00    -0.313 C  
BRANCH  14  15
HETATM   15  C   UNL     1     -10.317  12.411  64.035  1.00  0.00    -0.435 C  
BRANCH  15  16
HETATM   16  C   UNL     1     -11.592  13.169  63.616  1.00  0.00    -0.445 C  
HETATM   17  C   UNL     1     -12.826  12.266  63.726  1.00  0.00    -0.423 C  
ENDBRANCH  15  16
ENDBRANCH  14  15
ENDBRANCH  13  14
BRANCH  13  18
HETATM   18  C   UNL     1      -9.560   9.527  66.373  1.00  0.00    -0.213 C  
BRANCH  18  19
HETATM   19  C   UNL     1     -10.434   8.846  67.454  1.00  0.00    -0.347 C  
BRANCH  19  20
HETATM   20  C   UNL     1     -10.785   7.377  67.158  1.00  0.00    -0.400 C  
HETATM   21  C   UNL     1      -9.517   6.516  67.120  1.00  0.00    -0.150 C  
ENDBRANCH  19  20
ENDBRANCH  18  19
ENDBRANCH  13  18
ENDBRANCH   8  13
ENDBRANCH   5   6
BRANCH   5  22
HETATM   22  C   UNL     1      -9.130  18.946  69.014  1.00  0.00    -0.160 C  
BRANCH  22  23
HETATM   23  C   UNL     1     -10.233  19.664  68.214  1.00  0.00    -0.567 C  
BRANCH  23  24
HETATM   24  C   UNL     1      -9.791  20.188  66.841  1.00  0.00    -0.593 C  
HETATM   25  C   UNL     1     -10.690  19.622  65.736  1.00  0.00    -0.493 C  
ENDBRANCH  23  24
ENDBRANCH  22  23
ENDBRANCH   5  22
ENDBRANCH   4   5
ENDBRANCH   3   4
ENDBRANCH   2   3
TORSDOF 14
ENDMDL
MODEL       38
REMARK 921   NORMALIZED FREE ENERGY PREDICTED BY IDOCK:   -4.13 KCAL/MOL
REMARK 922        TOTAL FREE ENERGY PREDICTED BY IDOCK:   -8.90 KCAL/MOL
REMARK 923 INTER-LIGAND FREE ENERGY PREDICTED BY IDOCK:   -7.93 KCAL/MOL
REMARK 924 INTRA-LIGAND FREE ENERGY PREDICTED BY IDOCK:   -0.97 KCAL/MOL
REMARK 927      BINDING AFFINITY PREDICTED BY RF-SCORE:    0.00 PKD
ROOT
HETATM    1  C   UNL     1     -13.412  15.229  72.592  1.00  0.00    -0.610 C  
HETATM    2  C   UNL     1     -12.497  14.626  71.525  1.00  0.00    -0.411 C  
ENDROOT
BRANCH   2   3
HETATM    3  C   UNL     1     -12.318  15.583  70.330  1.00  0.00    -0.451 C  
BRANCH   3   4
HETATM    4  C   UNL     1     -10.834  15.717  69.924  1.00  0.00    -0.318 C  
BRANCH   4   5
HETATM    5  N   UNL     1     -10.644  15.823  68.466  1.00  0.00    -0.244 NA 
BRANCH   5   6
HETATM    6  C   UNL     1     -10.576  14.611  67.660  1.00  0.00    -0.256 C  
HETATM    7  S   UNL     1      -9.095  13.525  67.711  1.00  0.00    -0.218 SA 
HETATM    8  C   UNL     1     -10.743   9.735  67.642  1.00  0.00    -0.274 C  
HETATM    9  S   UNL     1     -11.895  13.947  66.885  1.00  0.00    -0.438 SA 
HETATM   10 ZN   UNL     1     -10.695  12.176  67.341  1.00  0.00    -0.205 Zn 
HETATM   11  S   UNL     1     -10.053  10.389  66.280  1.00  0.00    -0.226 SA 
HETATM   12  S   UNL     1     -11.637  10.887  68.759  1.00  0.00    -0.285 SA 
BRANCH   8  13
HETATM   13  N   UNL     1     -10.427   8.408  68.100  1.00  0.00    -0.201 NA 
BRANCH  13  14
HETATM   14  C   UNL     1     -10.259   8.106  69.520  1.00  0.00    -0.213 C  
BRANCH  14  15
HETATM   15  C   UNL     1     -11.206   6.973  69.991  1.00  0.00    -0.310 C  
BRANCH  15  16
HETATM   16  C   UNL     1     -11.539   7.003  71.496  1.00  0.00    -0.322 C  
HETATM   17  C   UNL     1     -11.825   8.436  71.964  1.00  0.00    -0.417 C  
ENDBRANCH  15  16
ENDBRANCH  14  15
ENDBRANCH  13  14
BRANCH  13  18
HETATM   18  C   UNL     1     -10.296   7.323  67.122  1.00  0.00    -0.297 C  
BRANCH  18  19
HETATM   19  C   UNL     1      -8.922   6.616  67.212  1.00  0.00    -0.115 C  
BRANCH  19  20
HETATM   20  C   UNL     1      -7.730   7.478  66.760  1.00  0.00    -0.102 C  
HETATM   21  C   UNL     1      -6.784   7.750  67.935  1.00  0.00    -0.067 C  
ENDBRANCH  19  20
ENDBRANCH  18  19
ENDBRANCH  13  18
ENDBRANCH   8  13
ENDBRANCH   5   6
BRANCH   5  22
HETATM   22  C   UNL     1     -10.592  17.153  67.844  1.00  0.00    -0.376 C  
BRANCH  22  23
HETATM   23  C   UNL     1     -10.117  18.295  68.761  1.00  0.00    -0.393 C  
BRANCH  23  24
HETATM   24  C   UNL     1     -10.196  19.694  68.136  1.00  0.00    -0.580 C  
HETATM   25  C   UNL     1     -10.553  19.597  66.648  1.00  0.00    -0.599 C  
ENDBRANCH  23  24
ENDBRANCH  22  23
ENDBRANCH   5  22
ENDBRANCH   4   5
ENDBRANCH   3   4
ENDBRANCH   2   3
TORSDOF 14
ENDMDL
MODEL       39
REMARK 921   NORMALIZED FREE ENERGY PREDICTED BY IDOCK:   -4.13 KCAL/MOL
REMARK 922        TOTAL FREE ENERGY PREDICTED BY IDOCK:   -8.89 KCAL/MOL
REMARK 923 INTER-LIGAND FREE ENERGY PREDICTED BY IDOCK:   -7.88 KCAL/MOL
REMARK 924 INTRA-LIGAND FREE ENERGY PREDICTED BY IDOCK:   -1.01 KCAL/MOL
REMARK 927      BINDING AFFINITY PREDICTED BY RF-SCORE:    0.00 PKD
ROOT
HETATM    1  C   UNL     1      -8.328   3.451  68.319  1.00  0.00    -0.097 C  
HETATM    2  C   UNL     1      -9.583   4.323  68.266  1.00  0.00    -0.197 C  
ENDROOT
BRANCH   2   3
HETATM    3  C   UNL     1      -9.756   5.144  69.559  1.00  0.00    -0.262 C  
BRANCH   3   4
HETATM    4  C   UNL     1     -11.103   5.898  69.581  1.00  0.00    -0.343 C  
BRANCH   4   5
HETATM    5  N   UNL     1     -10.994   7.254  70.147  1.00  0.00    -0.256 NA 
BRANCH   5   6
HETATM    6  C   UNL     1     -10.211   8.265  69.447  1.00  0.00    -0.204 C  
HETATM    7  S   UNL     1     -10.388   8.508  67.634  1.00  0.00    -0.248 SA 
HETATM    8  C   UNL     1     -10.245  12.621  67.251  1.00  0.00    -0.224 C  
HETATM    9  S   UNL     1      -9.347   9.461  70.225  1.00  0.00    -0.264 SA 
HETATM   10 ZN   UNL     1      -9.916  10.450  68.359  1.00  0.00    -0.144 Zn 
HETATM   11  S   UNL     1      -8.930  11.682  66.863  1.00  0.00    -0.196 SA 
HETATM   12  S   UNL     1     -11.276  12.066  68.666  1.00  0.00    -0.282 SA 
BRANCH   8  13
HETATM   13  N   UNL     1     -10.742  13.644  66.371  1.00  0.00    -0.280 NA 
BRANCH  13  14
HETATM   14  C   UNL     1     -10.501  13.601  64.930  1.00  0.00    -0.409 C  
BRANCH  14  15
HETATM   15  C   UNL     1     -11.814  13.439  64.123  1.00  0.00    -0.492 C  
BRANCH  15  16
HETATM   16  C   UNL     1     -12.086  12.006  63.627  1.00  0.00    -0.627 C  
HETATM   17  C   UNL     1     -10.774  11.237  63.431  1.00  0.00    -0.349 C  
ENDBRANCH  15  16
ENDBRANCH  14  15
ENDBRANCH  13  14
BRANCH  13  18
HETATM   18  C   UNL     1     -11.535  14.747  66.926  1.00  0.00    -0.347 C  
BRANCH  18  19
HETATM   19  C   UNL     1     -10.662  15.769  67.692  1.00  0.00    -0.310 C  
BRANCH  19  20
HETATM   20  C   UNL     1     -10.113  16.916  66.824  1.00  0.00    -0.294 C  
HETATM   21  C   UNL     1      -8.712  16.575  66.302  1.00  0.00    -0.369 C  
ENDBRANCH  19  20
ENDBRANCH  18  19
ENDBRANCH  13  18
ENDBRANCH   8  13
ENDBRANCH   5   6
BRANCH   5  22
HETATM   22  C   UNL     1     -11.731   7.580  71.375  1.00  0.00    -0.283 C  
BRANCH  22  23
HETATM   23  C   UNL     1     -13.240   7.269  71.344  1.00  0.00    -0.404 C  
BRANCH  23  24
HETATM   24  C   UNL     1     -14.144   8.440  71.752  1.00  0.00    -0.509 C  
HETATM   25  C   UNL     1     -13.374   9.764  71.676  1.00  0.00    -0.487 C  
ENDBRANCH  23  24
ENDBRANCH  22  23
ENDBRANCH   5  22
ENDBRANCH   4   5
ENDBRANCH   3   4
ENDBRANCH   2   3
TORSDOF 14
ENDMDL
MODEL       40
REMARK 921   NORMALIZED FREE ENERGY PREDICTED BY IDOCK:   -4.12 KCAL/MOL
REMARK 922        TOTAL FREE ENERGY PREDICTED BY IDOCK:   -8.88 KCAL/MOL
REMARK 923 INTER-LIGAND FREE ENERGY PREDICTED BY IDOCK:   -7.56 KCAL/MOL
REMARK 924 INTRA-LIGAND FREE ENERGY PREDICTED BY IDOCK:   -1.32 KCAL/MOL
REMARK 927      BINDING AFFINITY PREDICTED BY RF-SCORE:    0.00 PKD
ROOT
HETATM    1  C   UNL     1     -12.549  12.057  63.422  1.00  0.00    -0.592 C  
HETATM    2  C   UNL     1     -11.044  12.295  63.550  1.00  0.00    -0.533 C  
ENDROOT
BRANCH   2   3
HETATM    3  C   UNL     1     -10.280  10.974  63.765  1.00  0.00    -0.425 C  
BRANCH   3   4
HETATM    4  C   UNL     1      -9.223  11.102  64.883  1.00  0.00    -0.155 C  
BRANCH   4   5
HETATM    5  N   UNL     1      -9.780  10.878  66.230  1.00  0.00    -0.197 NA 
BRANCH   5   6
HETATM    6  C   UNL     1      -9.924  12.003  67.144  1.00  0.00    -0.195 C  
HETATM    7  S   UNL     1      -8.495  12.612  68.125  1.00  0.00    -0.173 SA 
HETATM    8  C   UNL     1      -8.964  16.715  67.963  1.00  0.00    -0.211 C  
HETATM    9  S   UNL     1     -11.256  13.007  67.164  1.00  0.00    -0.300 SA 
HETATM   10 ZN   UNL     1      -9.654  14.361  67.785  1.00  0.00    -0.191 Zn 
HETATM   11  S   UNL     1      -9.370  15.864  69.331  1.00  0.00    -0.203 SA 
HETATM   12  S   UNL     1      -9.269  15.893  66.349  1.00  0.00    -0.338 SA 
BRANCH   8  13
HETATM   13  N   UNL     1      -8.152  17.901  68.012  1.00  0.00    -0.245 NA 
BRANCH  13  14
HETATM   14  C   UNL     1      -6.836  17.956  67.376  1.00  0.00    -0.181 C  
BRANCH  14  15
HETATM   15  C   UNL     1      -6.917  18.462  65.913  1.00  0.00    -0.306 C  
BRANCH  15  16
HETATM   16  C   UNL     1      -6.054  19.705  65.618  1.00  0.00    -0.221 C  
HETATM   17  C   UNL     1      -6.028  20.652  66.824  1.00  0.00    -0.249 C  
ENDBRANCH  15  16
ENDBRANCH  14  15
ENDBRANCH  13  14
BRANCH  13  18
HETATM   18  C   UNL     1      -8.662  19.096  68.692  1.00  0.00    -0.359 C  
BRANCH  18  19
HETATM   19  C   UNL     1     -10.069  19.501  68.188  1.00  0.00    -0.537 C  
BRANCH  19  20
HETATM   20  C   UNL     1     -10.069  20.298  66.871  1.00  0.00    -0.565 C  
HETATM   21  C   UNL     1     -10.560  19.423  65.711  1.00  0.00    -0.490 C  
ENDBRANCH  19  20
ENDBRANCH  18  19
ENDBRANCH  13  18
ENDBRANCH   8  13
ENDBRANCH   5   6
BRANCH   5  22
HETATM   22  C   UNL     1     -10.241   9.533  66.601  1.00  0.00    -0.240 C  
BRANCH  22  23
HETATM   23  C   UNL     1      -9.448   8.850  67.731  1.00  0.00    -0.163 C  
BRANCH  23  24
HETATM   24  C   UNL     1     -10.311   8.291  68.871  1.00  0.00    -0.230 C  
HETATM   25  C   UNL     1     -10.570   9.372  69.926  1.00  0.00    -0.258 C  
ENDBRANCH  23  24
ENDBRANCH  22  23
ENDBRANCH   5  22
ENDBRANCH   4   5
ENDBRANCH   3   4
ENDBRANCH   2   3
TORSDOF 14
ENDMDL
MODEL       41
REMARK 921   NORMALIZED FREE ENERGY PREDICTED BY IDOCK:   -4.12 KCAL/MOL
REMARK 922        TOTAL FREE ENERGY PREDICTED BY IDOCK:   -8.87 KCAL/MOL
REMARK 923 INTER-LIGAND FREE ENERGY PREDICTED BY IDOCK:   -7.75 KCAL/MOL
REMARK 924 INTRA-LIGAND FREE ENERGY PREDICTED BY IDOCK:   -1.12 KCAL/MOL
REMARK 927      BINDING AFFINITY PREDICTED BY RF-SCORE:    0.00 PKD
ROOT
HETATM    1  C   UNL     1     -12.432   8.828  72.116  1.00  0.00    -0.460 C  
HETATM    2  C   UNL     1     -11.392   7.857  72.678  1.00  0.00    -0.468 C  
ENDROOT
BRANCH   2   3
HETATM    3  C   UNL     1     -11.283   6.586  71.814  1.00  0.00    -0.312 C  
BRANCH   3   4
HETATM    4  C   UNL     1     -11.763   6.835  70.368  1.00  0.00    -0.363 C  
BRANCH   4   5
HETATM    5  N   UNL     1     -10.676   6.744  69.377  1.00  0.00    -0.238 NA 
BRANCH   5   6
HETATM    6  C   UNL     1     -10.044   7.963  68.888  1.00  0.00    -0.197 C  
HETATM    7  S   UNL     1     -10.409   8.609  67.208  1.00  0.00    -0.296 SA 
HETATM    8  C   UNL     1     -10.623  12.690  67.828  1.00  0.00    -0.220 C  
HETATM    9  S   UNL     1      -9.205   9.020  69.869  1.00  0.00    -0.185 SA 
HETATM   10 ZN   UNL     1     -10.023  10.361  68.347  1.00  0.00    -0.144 Zn 
HETATM   11  S   UNL     1      -9.282  12.002  67.128  1.00  0.00    -0.196 SA 
HETATM   12  S   UNL     1     -11.469  11.718  69.138  1.00  0.00    -0.323 SA 
BRANCH   8  13
HETATM   13  N   UNL     1     -11.279  13.838  67.263  1.00  0.00    -0.301 NA 
BRANCH  13  14
HETATM   14  C   UNL     1     -10.889  15.200  67.623  1.00  0.00    -0.295 C  
BRANCH  14  15
HETATM   15  C   UNL     1     -11.867  15.837  68.641  1.00  0.00    -0.287 C  
BRANCH  15  16
HETATM   16  C   UNL     1     -11.624  15.423  70.106  1.00  0.00    -0.351 C  
HETATM   17  C   UNL     1     -12.944  15.360  70.883  1.00  0.00    -0.539 C  
ENDBRANCH  15  16
ENDBRANCH  14  15
ENDBRANCH  13  14
BRANCH  13  18
HETATM   18  C   UNL     1     -12.350  13.642  66.279  1.00  0.00    -0.412 C  
BRANCH  18  19
HETATM   19  C   UNL     1     -11.969  14.187  64.882  1.00  0.00    -0.424 C  
BRANCH  19  20
HETATM   20  C   UNL     1     -11.311  13.153  63.951  1.00  0.00    -0.420 C  
HETATM   21  C   UNL     1     -12.361  12.188  63.387  1.00  0.00    -0.648 C  
ENDBRANCH  19  20
ENDBRANCH  18  19
ENDBRANCH  13  18
ENDBRANCH   8  13
ENDBRANCH   5   6
BRANCH   5  22
HETATM   22  C   UNL     1     -10.205   5.420  68.949  1.00  0.00    -0.196 C  
BRANCH  22  23
HETATM   23  C   UNL     1      -8.796   5.029  69.434  1.00  0.00    -0.116 C  
BRANCH  23  24
HETATM   24  C   UNL     1      -8.707   3.648  70.097  1.00  0.00    -0.122 C  
HETATM   25  C   UNL     1      -9.591   3.596  71.348  1.00  0.00    -0.237 C  
ENDBRANCH  23  24
ENDBRANCH  22  23
ENDBRANCH   5  22
ENDBRANCH   4   5
ENDBRANCH   3   4
ENDBRANCH   2   3
TORSDOF 14
ENDMDL
MODEL       42
REMARK 921   NORMALIZED FREE ENERGY PREDICTED BY IDOCK:   -4.11 KCAL/MOL
REMARK 922        TOTAL FREE ENERGY PREDICTED BY IDOCK:   -8.86 KCAL/MOL
REMARK 923 INTER-LIGAND FREE ENERGY PREDICTED BY IDOCK:   -7.82 KCAL/MOL
REMARK 924 INTRA-LIGAND FREE ENERGY PREDICTED BY IDOCK:   -1.04 KCAL/MOL
REMARK 927      BINDING AFFINITY PREDICTED BY RF-SCORE:    0.00 PKD
ROOT
HETATM    1  C   UNL     1     -10.659  11.417  63.616  1.00  0.00    -0.476 C  
HETATM    2  C   UNL     1     -12.020  12.096  63.455  1.00  0.00    -0.619 C  
ENDROOT
BRANCH   2   3
HETATM    3  C   UNL     1     -12.125  13.362  64.327  1.00  0.00    -0.479 C  
BRANCH   3   4
HETATM    4  C   UNL     1     -12.379  13.015  65.810  1.00  0.00    -0.416 C  
BRANCH   4   5
HETATM    5  N   UNL     1     -11.414  13.653  66.724  1.00  0.00    -0.331 NA 
BRANCH   5   6
HETATM    6  C   UNL     1     -10.665  12.832  67.666  1.00  0.00    -0.219 C  
HETATM    7  S   UNL     1     -11.461  12.177  69.187  1.00  0.00    -0.310 SA 
HETATM    8  C   UNL     1      -9.920   8.350  69.443  1.00  0.00    -0.191 C  
HETATM    9  S   UNL     1      -9.172  12.171  67.326  1.00  0.00    -0.192 SA 
HETATM   10 ZN   UNL     1     -10.028  10.688  68.688  1.00  0.00    -0.143 Zn 
HETATM   11  S   UNL     1      -9.352   9.565  70.423  1.00  0.00    -0.220 SA 
HETATM   12  S   UNL     1     -10.406   8.816  67.733  1.00  0.00    -0.229 SA 
BRANCH   8  13
HETATM   13  N   UNL     1     -10.299   7.062  69.959  1.00  0.00    -0.198 NA 
BRANCH  13  14
HETATM   14  C   UNL     1      -9.312   6.012  70.203  1.00  0.00    -0.154 C  
BRANCH  14  15
HETATM   15  C   UNL     1      -9.794   4.629  69.695  1.00  0.00    -0.293 C  
BRANCH  15  16
HETATM   16  C   UNL     1      -9.201   3.427  70.455  1.00  0.00    -0.212 C  
HETATM   17  C   UNL     1      -9.631   3.444  71.927  1.00  0.00    -0.220 C  
ENDBRANCH  15  16
ENDBRANCH  14  15
ENDBRANCH  13  14
BRANCH  13  18
HETATM   18  C   UNL     1     -11.707   6.801  70.277  1.00  0.00    -0.341 C  
BRANCH  18  19
HETATM   19  C   UNL     1     -11.926   6.522  71.783  1.00  0.00    -0.394 C  
BRANCH  19  20
HETATM   20  C   UNL     1     -11.385   7.616  72.720  1.00  0.00    -0.419 C  
HETATM   21  C   UNL     1     -10.319   7.043  73.662  1.00  0.00    -0.412 C  
ENDBRANCH  19  20
ENDBRANCH  18  19
ENDBRANCH  13  18
ENDBRANCH   8  13
ENDBRANCH   5   6
BRANCH   5  22
HETATM   22  C   UNL     1     -11.177  15.099  66.621  1.00  0.00    -0.274 C  
BRANCH  22  23
HETATM   23  C   UNL     1     -11.039  15.845  67.961  1.00  0.00    -0.334 C  
BRANCH  23  24
HETATM   24  C   UNL     1     -10.513  17.282  67.844  1.00  0.00    -0.382 C  
HETATM   25  C   UNL     1     -10.230  17.632  66.379  1.00  0.00    -0.364 C  
ENDBRANCH  23  24
ENDBRANCH  22  23
ENDBRANCH   5  22
ENDBRANCH   4   5
ENDBRANCH   3   4
ENDBRANCH   2   3
TORSDOF 14
ENDMDL
MODEL       43
REMARK 921   NORMALIZED FREE ENERGY PREDICTED BY IDOCK:   -4.10 KCAL/MOL
REMARK 922        TOTAL FREE ENERGY PREDICTED BY IDOCK:   -8.84 KCAL/MOL
REMARK 923 INTER-LIGAND FREE ENERGY PREDICTED BY IDOCK:   -7.43 KCAL/MOL
REMARK 924 INTRA-LIGAND FREE ENERGY PREDICTED BY IDOCK:   -1.41 KCAL/MOL
REMARK 927      BINDING AFFINITY PREDICTED BY RF-SCORE:    0.00 PKD
ROOT
HETATM    1  C   UNL     1     -13.187   7.806  71.659  1.00  0.00    -0.381 C  
HETATM    2  C   UNL     1     -13.039   9.291  71.996  1.00  0.00    -0.512 C  
ENDROOT
BRANCH   2   3
HETATM    3  C   UNL     1     -13.209  10.173  70.744  1.00  0.00    -0.290 C  
BRANCH   3   4
HETATM    4  C   UNL     1     -11.964  11.050  70.490  1.00  0.00    -0.379 C  
BRANCH   4   5
HETATM    5  N   UNL     1     -11.151  10.578  69.354  1.00  0.00    -0.240 NA 
BRANCH   5   6
HETATM    6  C   UNL     1     -11.035  11.405  68.160  1.00  0.00    -0.232 C  
HETATM    7  S   UNL     1     -11.946  12.995  68.020  1.00  0.00    -0.207 SA 
HETATM    8  C   UNL     1      -9.180  15.470  66.202  1.00  0.00    -0.344 C  
HETATM    9  S   UNL     1      -9.878  11.164  66.983  1.00  0.00    -0.188 SA 
HETATM   10 ZN   UNL     1     -10.173  13.330  66.896  1.00  0.00    -0.227 Zn 
HETATM   11  S   UNL     1     -10.443  14.824  65.338  1.00  0.00    -0.410 SA 
HETATM   12  S   UNL     1      -8.448  14.421  67.521  1.00  0.00    -0.205 SA 
BRANCH   8  13
HETATM   13  N   UNL     1      -8.850  16.869  66.147  1.00  0.00    -0.463 NA 
BRANCH  13  14
HETATM   14  C   UNL     1      -9.878  17.905  66.239  1.00  0.00    -0.301 C  
BRANCH  14  15
HETATM   15  C   UNL     1     -10.636  17.856  67.589  1.00  0.00    -0.398 C  
BRANCH  15  16
HETATM   16  C   UNL     1     -10.083  18.809  68.667  1.00  0.00    -0.432 C  
HETATM   17  C   UNL     1     -10.209  20.271  68.221  1.00  0.00    -0.373 C  
ENDBRANCH  15  16
ENDBRANCH  14  15
ENDBRANCH  13  14
BRANCH  13  18
HETATM   18  C   UNL     1      -7.445  17.273  66.023  1.00  0.00    -0.197 C  
BRANCH  18  19
HETATM   19  C   UNL     1      -6.886  17.863  67.340  1.00  0.00    -0.196 C  
BRANCH  19  20
HETATM   20  C   UNL     1      -6.612  19.376  67.295  1.00  0.00    -0.204 C  
HETATM   21  C   UNL     1      -6.542  19.955  68.713  1.00  0.00    -0.355 C  
ENDBRANCH  19  20
ENDBRANCH  18  19
ENDBRANCH  13  18
ENDBRANCH   8  13
ENDBRANCH   5   6
BRANCH   5  22
HETATM   22  C   UNL     1     -10.417   9.311  69.475  1.00  0.00    -0.220 C  
BRANCH  22  23
HETATM   23  C   UNL     1      -9.633   9.122  70.787  1.00  0.00    -0.338 C  
BRANCH  23  24
HETATM   24  C   UNL     1      -8.121   8.931  70.609  1.00  0.00    -0.161 C  
HETATM   25  C   UNL     1      -7.514  10.126  69.865  1.00  0.00    -0.176 C  
ENDBRANCH  23  24
ENDBRANCH  22  23
ENDBRANCH   5  22
ENDBRANCH   4   5
ENDBRANCH   3   4
ENDBRANCH   2   3
TORSDOF 14
ENDMDL
MODEL       44
REMARK 921   NORMALIZED FREE ENERGY PREDICTED BY IDOCK:   -4.09 KCAL/MOL
REMARK 922        TOTAL FREE ENERGY PREDICTED BY IDOCK:   -8.82 KCAL/MOL
REMARK 923 INTER-LIGAND FREE ENERGY PREDICTED BY IDOCK:   -7.60 KCAL/MOL
REMARK 924 INTRA-LIGAND FREE ENERGY PREDICTED BY IDOCK:   -1.21 KCAL/MOL
REMARK 927      BINDING AFFINITY PREDICTED BY RF-SCORE:    0.00 PKD
ROOT
HETATM    1  C   UNL     1      -9.330  20.622  67.210  1.00  0.00    -0.480 C  
HETATM    2  C   UNL     1     -10.135  19.794  68.214  1.00  0.00    -0.575 C  
ENDROOT
BRANCH   2   3
HETATM    3  C   UNL     1     -10.909  18.660  67.516  1.00  0.00    -0.373 C  
BRANCH   3   4
HETATM    4  C   UNL     1     -10.075  18.005  66.394  1.00  0.00    -0.384 C  
BRANCH   4   5
HETATM    5  N   UNL     1      -9.328  16.819  66.850  1.00  0.00    -0.229 NA 
BRANCH   5   6
HETATM    6  C   UNL     1     -10.035  15.740  67.528  1.00  0.00    -0.236 C  
HETATM    7  S   UNL     1     -11.060  14.543  66.585  1.00  0.00    -0.340 SA 
HETATM    8  C   UNL     1     -10.212  10.953  68.450  1.00  0.00    -0.178 C  
HETATM    9  S   UNL     1      -9.752  15.310  69.115  1.00  0.00    -0.251 SA 
HETATM   10 ZN   UNL     1     -10.327  13.399  68.220  1.00  0.00    -0.200 Zn 
HETATM   11  S   UNL     1     -11.643  11.747  68.739  1.00  0.00    -0.332 SA 
HETATM   12  S   UNL     1      -8.722  11.993  68.181  1.00  0.00    -0.179 SA 
BRANCH   8  13
HETATM   13  N   UNL     1     -10.164   9.551  68.130  1.00  0.00    -0.183 NA 
BRANCH  13  14
HETATM   14  C   UNL     1     -10.353   9.069  66.763  1.00  0.00    -0.240 C  
BRANCH  14  15
HETATM   15  C   UNL     1      -9.541   9.897  65.735  1.00  0.00    -0.312 C  
BRANCH  15  16
HETATM   16  C   UNL     1     -10.400  10.760  64.789  1.00  0.00    -0.380 C  
HETATM   17  C   UNL     1      -9.775  10.824  63.390  1.00  0.00    -0.394 C  
ENDBRANCH  15  16
ENDBRANCH  14  15
ENDBRANCH  13  14
BRANCH  13  18
HETATM   18  C   UNL     1      -9.893   8.579  69.195  1.00  0.00    -0.186 C  
BRANCH  18  19
HETATM   19  C   UNL     1      -9.574   9.264  70.546  1.00  0.00    -0.317 C  
BRANCH  19  20
HETATM   20  C   UNL     1     -10.638   9.047  71.637  1.00  0.00    -0.434 C  
HETATM   21  C   UNL     1     -11.802   8.207  71.097  1.00  0.00    -0.303 C  
ENDBRANCH  19  20
ENDBRANCH  18  19
ENDBRANCH  13  18
ENDBRANCH   8  13
ENDBRANCH   5   6
BRANCH   5  22
HETATM   22  C   UNL     1      -7.893  16.718  66.554  1.00  0.00    -0.303 C  
BRANCH  22  23
HETATM   23  C   UNL     1      -7.011  17.826  67.161  1.00  0.00    -0.196 C  
BRANCH  23  24
HETATM   24  C   UNL     1      -6.961  17.837  68.694  1.00  0.00    -0.247 C  
HETATM   25  C   UNL     1      -6.584  19.232  69.208  1.00  0.00    -0.348 C  
ENDBRANCH  23  24
ENDBRANCH  22  23
ENDBRANCH   5  22
ENDBRANCH   4   5
ENDBRANCH   3   4
ENDBRANCH   2   3
TORSDOF 14
ENDMDL
MODEL       45
REMARK 921   NORMALIZED FREE ENERGY PREDICTED BY IDOCK:   -4.08 KCAL/MOL
REMARK 922        TOTAL FREE ENERGY PREDICTED BY IDOCK:   -8.81 KCAL/MOL
REMARK 923 INTER-LIGAND FREE ENERGY PREDICTED BY IDOCK:   -7.84 KCAL/MOL
REMARK 924 INTRA-LIGAND FREE ENERGY PREDICTED BY IDOCK:   -0.97 KCAL/MOL
REMARK 927      BINDING AFFINITY PREDICTED BY RF-SCORE:    0.00 PKD
ROOT
HETATM    1  C   UNL     1     -10.743  11.489  63.547  1.00  0.00    -0.483 C  
HETATM    2  C   UNL     1     -12.140  12.112  63.510  1.00  0.00    -0.649 C  
ENDROOT
BRANCH   2   3
HETATM    3  C   UNL     1     -12.185  13.441  64.288  1.00  0.00    -0.450 C  
BRANCH   3   4
HETATM    4  C   UNL     1     -10.778  13.883  64.745  1.00  0.00    -0.423 C  
BRANCH   4   5
HETATM    5  N   UNL     1     -10.718  14.217  66.179  1.00  0.00    -0.293 NA 
BRANCH   5   6
HETATM    6  C   UNL     1     -10.248  13.218  67.131  1.00  0.00    -0.246 C  
HETATM    7  S   UNL     1     -11.430  12.296  68.193  1.00  0.00    -0.337 SA 
HETATM    8  C   UNL     1      -9.875   8.467  68.173  1.00  0.00    -0.169 C  
HETATM    9  S   UNL     1      -8.694  12.610  67.134  1.00  0.00    -0.198 SA 
HETATM   10 ZN   UNL     1      -9.852  10.908  67.874  1.00  0.00    -0.155 Zn 
HETATM   11  S   UNL     1      -9.674   9.462  69.488  1.00  0.00    -0.194 SA 
HETATM   12  S   UNL     1      -9.852   9.261  66.516  1.00  0.00    -0.282 SA 
BRANCH   8  13
HETATM   13  N   UNL     1     -10.336   7.110  68.301  1.00  0.00    -0.188 NA 
BRANCH  13  14
HETATM   14  C   UNL     1     -10.182   6.362  69.547  1.00  0.00    -0.189 C  
BRANCH  14  15
HETATM   15  C   UNL     1     -11.517   6.243  70.325  1.00  0.00    -0.428 C  
BRANCH  15  16
HETATM   16  C   UNL     1     -11.446   6.711  71.792  1.00  0.00    -0.334 C  
HETATM   17  C   UNL     1     -12.283   7.978  72.003  1.00  0.00    -0.374 C  
ENDBRANCH  15  16
ENDBRANCH  14  15
ENDBRANCH  13  14
BRANCH  13  18
HETATM   18  C   UNL     1     -11.002   6.466  67.163  1.00  0.00    -0.399 C  
BRANCH  18  19
HETATM   19  C   UNL     1     -10.352   5.112  66.794  1.00  0.00    -0.306 C  
BRANCH  19  20
HETATM   20  C   UNL     1      -9.181   5.217  65.801  1.00  0.00    -0.162 C  
HETATM   21  C   UNL     1      -9.257   4.097  64.755  1.00  0.00    -0.154 C  
ENDBRANCH  19  20
ENDBRANCH  18  19
ENDBRANCH  13  18
ENDBRANCH   8  13
ENDBRANCH   5   6
BRANCH   5  22
HETATM   22  C   UNL     1     -11.071  15.575  66.615  1.00  0.00    -0.193 C  
BRANCH  22  23
HETATM   23  C   UNL     1     -10.161  16.699  66.084  1.00  0.00    -0.360 C  
BRANCH  23  24
HETATM   24  C   UNL     1     -10.003  17.896  67.031  1.00  0.00    -0.324 C  
HETATM   25  C   UNL     1     -10.514  19.178  66.363  1.00  0.00    -0.548 C  
ENDBRANCH  23  24
ENDBRANCH  22  23
ENDBRANCH   5  22
ENDBRANCH   4   5
ENDBRANCH   3   4
ENDBRANCH   2   3
TORSDOF 14
ENDMDL
MODEL       46
REMARK 921   NORMALIZED FREE ENERGY PREDICTED BY IDOCK:   -4.07 KCAL/MOL
REMARK 922        TOTAL FREE ENERGY PREDICTED BY IDOCK:   -8.78 KCAL/MOL
REMARK 923 INTER-LIGAND FREE ENERGY PREDICTED BY IDOCK:   -7.85 KCAL/MOL
REMARK 924 INTRA-LIGAND FREE ENERGY PREDICTED BY IDOCK:   -0.93 KCAL/MOL
REMARK 927      BINDING AFFINITY PREDICTED BY RF-SCORE:    0.00 PKD
ROOT
HETATM    1  C   UNL     1      -9.338   8.757  68.097  1.00  0.00    -0.148 C  
HETATM    2  C   UNL     1     -10.294   9.443  67.119  1.00  0.00    -0.326 C  
ENDROOT
BRANCH   2   3
HETATM    3  C   UNL     1     -10.188  10.977  67.209  1.00  0.00    -0.234 C  
BRANCH   3   4
HETATM    4  C   UNL     1     -11.577  11.638  67.340  1.00  0.00    -0.254 C  
BRANCH   4   5
HETATM    5  N   UNL     1     -11.570  12.825  68.215  1.00  0.00    -0.312 NA 
BRANCH   5   6
HETATM    6  C   UNL     1     -11.543  14.155  67.622  1.00  0.00    -0.365 C  
HETATM    7  S   UNL     1     -11.546  15.660  68.676  1.00  0.00    -0.358 SA 
HETATM    8  C   UNL     1      -8.883  18.145  66.722  1.00  0.00    -0.264 C  
HETATM    9  S   UNL     1     -11.207  14.438  66.012  1.00  0.00    -0.338 SA 
HETATM   10 ZN   UNL     1     -10.428  16.246  66.966  1.00  0.00    -0.264 Zn 
HETATM   11  S   UNL     1     -10.523  18.388  66.601  1.00  0.00    -0.352 SA 
HETATM   12  S   UNL     1      -8.304  16.404  66.818  1.00  0.00    -0.281 SA 
BRANCH   8  13
HETATM   13  N   UNL     1      -7.971  19.212  67.032  1.00  0.00    -0.251 NA 
BRANCH  13  14
HETATM   14  C   UNL     1      -7.715  19.626  68.411  1.00  0.00    -0.331 C  
BRANCH  14  15
HETATM   15  C   UNL     1      -6.230  19.434  68.811  1.00  0.00    -0.279 C  
BRANCH  15  16
HETATM   16  C   UNL     1      -5.701  20.471  69.821  1.00  0.00    -0.392 C  
HETATM   17  C   UNL     1      -5.661  19.884  71.237  1.00  0.00    -0.357 C  
ENDBRANCH  15  16
ENDBRANCH  14  15
ENDBRANCH  13  14
BRANCH  13  18
HETATM   18  C   UNL     1      -7.257  19.888  65.943  1.00  0.00    -0.309 C  
BRANCH  18  19
HETATM   19  C   UNL     1      -6.285  18.939  65.202  1.00  0.00    -0.313 C  
BRANCH  19  20
HETATM   20  C   UNL     1      -5.494  19.601  64.061  1.00  0.00    -0.283 C  
HETATM   21  C   UNL     1      -5.889  21.076  63.914  1.00  0.00    -0.329 C  
ENDBRANCH  19  20
ENDBRANCH  18  19
ENDBRANCH  13  18
ENDBRANCH   8  13
ENDBRANCH   5   6
BRANCH   5  22
HETATM   22  C   UNL     1     -11.656  12.643  69.670  1.00  0.00    -0.251 C  
BRANCH  22  23
HETATM   23  C   UNL     1     -12.393  11.373  70.137  1.00  0.00    -0.344 C  
BRANCH  23  24
HETATM   24  C   UNL     1     -11.496  10.316  70.793  1.00  0.00    -0.438 C  
HETATM   25  C   UNL     1     -12.317   9.425  71.733  1.00  0.00    -0.471 C  
ENDBRANCH  23  24
ENDBRANCH  22  23
ENDBRANCH   5  22
ENDBRANCH   4   5
ENDBRANCH   3   4
ENDBRANCH   2   3
TORSDOF 14
ENDMDL
MODEL       47
REMARK 921   NORMALIZED FREE ENERGY PREDICTED BY IDOCK:   -4.07 KCAL/MOL
REMARK 922        TOTAL FREE ENERGY PREDICTED BY IDOCK:   -8.77 KCAL/MOL
REMARK 923 INTER-LIGAND FREE ENERGY PREDICTED BY IDOCK:   -7.71 KCAL/MOL
REMARK 924 INTRA-LIGAND FREE ENERGY PREDICTED BY IDOCK:   -1.06 KCAL/MOL
REMARK 927      BINDING AFFINITY PREDICTED BY RF-SCORE:    0.00 PKD
ROOT
HETATM    1  C   UNL     1     -10.188  19.824  65.996  1.00  0.00    -0.600 C  
HETATM    2  C   UNL     1     -10.657  19.268  67.341  1.00  0.00    -0.594 C  
ENDROOT
BRANCH   2   3
HETATM    3  C   UNL     1     -10.427  17.747  67.434  1.00  0.00    -0.367 C  
BRANCH   3   4
HETATM    4  C   UNL     1     -10.347  17.270  68.900  1.00  0.00    -0.352 C  
BRANCH   4   5
HETATM    5  N   UNL     1     -10.754  15.864  69.071  1.00  0.00    -0.235 NA 
BRANCH   5   6
HETATM    6  C   UNL     1     -10.613  14.935  67.957  1.00  0.00    -0.248 C  
HETATM    7  S   UNL     1      -9.034  14.040  67.667  1.00  0.00    -0.206 SA 
HETATM    8  C   UNL     1     -10.316  10.263  66.584  1.00  0.00    -0.219 C  
HETATM    9  S   UNL     1     -11.902  14.374  67.059  1.00  0.00    -0.384 SA 
HETATM   10 ZN   UNL     1     -10.517  12.683  66.975  1.00  0.00    -0.218 Zn 
HETATM   11  S   UNL     1      -9.764  11.336  65.442  1.00  0.00    -0.239 SA 
HETATM   12  S   UNL     1     -11.256  10.962  67.999  1.00  0.00    -0.317 SA 
BRANCH   8  13
HETATM   13  N   UNL     1      -9.852   8.903  66.645  1.00  0.00    -0.239 NA 
BRANCH  13  14
HETATM   14  C   UNL     1      -8.797   8.411  65.761  1.00  0.00    -0.165 C  
BRANCH  14  15
HETATM   15  C   UNL     1      -7.536   7.971  66.546  1.00  0.00    -0.088 C  
BRANCH  15  16
HETATM   16  C   UNL     1      -6.885   9.086  67.387  1.00  0.00    -0.077 C  
HETATM   17  C   UNL     1      -6.963   8.760  68.884  1.00  0.00    -0.062 C  
ENDBRANCH  15  16
ENDBRANCH  14  15
ENDBRANCH  13  14
BRANCH  13  18
HETATM   18  C   UNL     1     -10.430   7.990  67.637  1.00  0.00    -0.232 C  
BRANCH  18  19
HETATM   19  C   UNL     1     -10.947   6.679  66.997  1.00  0.00    -0.463 C  
BRANCH  19  20
HETATM   20  C   UNL     1     -10.332   5.397  67.585  1.00  0.00    -0.235 C  
HETATM   21  C   UNL     1      -9.882   5.628  69.033  1.00  0.00    -0.210 C  
ENDBRANCH  19  20
ENDBRANCH  18  19
ENDBRANCH  13  18
ENDBRANCH   8  13
ENDBRANCH   5   6
BRANCH   5  22
HETATM   22  C   UNL     1     -11.233  15.410  70.383  1.00  0.00    -0.323 C  
BRANCH  22  23
HETATM   23  C   UNL     1     -12.762  15.428  70.573  1.00  0.00    -0.455 C  
BRANCH  23  24
HETATM   24  C   UNL     1     -13.227  15.706  72.008  1.00  0.00    -0.541 C  
HETATM   25  C   UNL     1     -12.052  16.184  72.869  1.00  0.00    -0.643 C  
ENDBRANCH  23  24
ENDBRANCH  22  23
ENDBRANCH   5  22
ENDBRANCH   4   5
ENDBRANCH   3   4
ENDBRANCH   2   3
TORSDOF 14
ENDMDL
MODEL       48
REMARK 921   NORMALIZED FREE ENERGY PREDICTED BY IDOCK:   -4.06 KCAL/MOL
REMARK 922        TOTAL FREE ENERGY PREDICTED BY IDOCK:   -8.76 KCAL/MOL
REMARK 923 INTER-LIGAND FREE ENERGY PREDICTED BY IDOCK:   -7.69 KCAL/MOL
REMARK 924 INTRA-LIGAND FREE ENERGY PREDICTED BY IDOCK:   -1.07 KCAL/MOL
REMARK 927      BINDING AFFINITY PREDICTED BY RF-SCORE:    0.00 PKD
ROOT
HETATM    1  C   UNL     1     -10.917  11.876  63.813  1.00  0.00    -0.494 C  
HETATM    2  C   UNL     1     -12.242  12.611  64.021  1.00  0.00    -0.544 C  
ENDROOT
BRANCH   2   3
HETATM    3  C   UNL     1     -12.015  14.054  64.511  1.00  0.00    -0.470 C  
BRANCH   3   4
HETATM    4  C   UNL     1     -10.569  14.267  65.008  1.00  0.00    -0.425 C  
BRANCH   4   5
HETATM    5  N   UNL     1     -10.492  14.547  66.453  1.00  0.00    -0.288 NA 
BRANCH   5   6
HETATM    6  C   UNL     1     -10.074  13.493  67.368  1.00  0.00    -0.237 C  
HETATM    7  S   UNL     1     -11.302  12.591  68.394  1.00  0.00    -0.318 SA 
HETATM    8  C   UNL     1      -9.931   8.695  68.237  1.00  0.00    -0.180 C  
HETATM    9  S   UNL     1      -8.551  12.812  67.352  1.00  0.00    -0.203 SA 
HETATM   10 ZN   UNL     1      -9.791  11.142  68.028  1.00  0.00    -0.153 Zn 
HETATM   11  S   UNL     1      -9.687   9.631  69.589  1.00  0.00    -0.227 SA 
HETATM   12  S   UNL     1      -9.865   9.546  66.611  1.00  0.00    -0.250 SA 
BRANCH   8  13
HETATM   13  N   UNL     1     -10.456   7.358  68.316  1.00  0.00    -0.200 NA 
BRANCH  13  14
HETATM   14  C   UNL     1     -11.208   6.763  67.212  1.00  0.00    -0.209 C  
BRANCH  14  15
HETATM   15  C   UNL     1     -10.577   5.433  66.728  1.00  0.00    -0.339 C  
BRANCH  15  16
HETATM   16  C   UNL     1      -9.188   5.583  66.077  1.00  0.00    -0.168 C  
HETATM   17  C   UNL     1      -8.105   4.925  66.941  1.00  0.00    -0.107 C  
ENDBRANCH  15  16
ENDBRANCH  14  15
ENDBRANCH  13  14
BRANCH  13  18
HETATM   18  C   UNL     1     -10.211   6.558  69.521  1.00  0.00    -0.186 C  
BRANCH  18  19
HETATM   19  C   UNL     1     -11.516   6.248  70.293  1.00  0.00    -0.428 C  
BRANCH  19  20
HETATM   20  C   UNL     1     -11.938   7.337  71.295  1.00  0.00    -0.359 C  
HETATM   21  C   UNL     1     -13.466   7.393  71.420  1.00  0.00    -0.405 C  
ENDBRANCH  19  20
ENDBRANCH  18  19
ENDBRANCH  13  18
ENDBRANCH   8  13
ENDBRANCH   5   6
BRANCH   5  22
HETATM   22  C   UNL     1     -10.776  15.905  66.937  1.00  0.00    -0.289 C  
BRANCH  22  23
HETATM   23  C   UNL     1      -9.855  17.011  66.387  1.00  0.00    -0.312 C  
BRANCH  23  24
HETATM   24  C   UNL     1     -10.569  18.321  66.029  1.00  0.00    -0.318 C  
HETATM   25  C   UNL     1     -10.753  19.190  67.279  1.00  0.00    -0.585 C  
ENDBRANCH  23  24
ENDBRANCH  22  23
ENDBRANCH   5  22
ENDBRANCH   4   5
ENDBRANCH   3   4
ENDBRANCH   2   3
TORSDOF 14
ENDMDL
MODEL       49
REMARK 921   NORMALIZED FREE ENERGY PREDICTED BY IDOCK:   -4.05 KCAL/MOL
REMARK 922        TOTAL FREE ENERGY PREDICTED BY IDOCK:   -8.75 KCAL/MOL
REMARK 923 INTER-LIGAND FREE ENERGY PREDICTED BY IDOCK:   -7.43 KCAL/MOL
REMARK 924 INTRA-LIGAND FREE ENERGY PREDICTED BY IDOCK:   -1.33 KCAL/MOL
REMARK 927      BINDING AFFINITY PREDICTED BY RF-SCORE:    0.00 PKD
ROOT
HETATM    1  C   UNL     1     -10.575   5.402  69.765  1.00  0.00    -0.347 C  
HETATM    2  C   UNL     1     -10.960   6.179  68.505  1.00  0.00    -0.404 C  
ENDROOT
BRANCH   2   3
HETATM    3  C   UNL     1      -9.948   7.302  68.204  1.00  0.00    -0.181 C  
BRANCH   3   4
HETATM    4  C   UNL     1     -10.556   8.389  67.292  1.00  0.00    -0.257 C  
BRANCH   4   5
HETATM    5  N   UNL     1     -10.383   9.751  67.827  1.00  0.00    -0.209 NA 
BRANCH   5   6
HETATM    6  C   UNL     1     -10.361  10.886  66.912  1.00  0.00    -0.238 C  
HETATM    7  S   UNL     1     -11.578  12.252  67.073  1.00  0.00    -0.326 SA 
HETATM    8  C   UNL     1      -9.282  15.607  66.328  1.00  0.00    -0.330 C  
HETATM    9  S   UNL     1      -9.096  11.203  65.871  1.00  0.00    -0.201 SA 
HETATM   10 ZN   UNL     1      -9.842  13.212  66.310  1.00  0.00    -0.230 Zn 
HETATM   11  S   UNL     1     -10.311  15.004  65.171  1.00  0.00    -0.366 SA 
HETATM   12  S   UNL     1      -8.441  14.386  67.413  1.00  0.00    -0.214 SA 
BRANCH   8  13
HETATM   13  N   UNL     1      -9.257  17.002  66.679  1.00  0.00    -0.245 NA 
BRANCH  13  14
HETATM   14  C   UNL     1      -8.193  17.891  66.216  1.00  0.00    -0.211 C  
BRANCH  14  15
HETATM   15  C   UNL     1      -8.627  19.379  66.236  1.00  0.00    -0.360 C  
BRANCH  15  16
HETATM   16  C   UNL     1      -7.533  20.357  66.708  1.00  0.00    -0.329 C  
HETATM   17  C   UNL     1      -7.036  19.987  68.110  1.00  0.00    -0.324 C  
ENDBRANCH  15  16
ENDBRANCH  14  15
ENDBRANCH  13  14
BRANCH  13  18
HETATM   18  C   UNL     1     -10.338  17.556  67.501  1.00  0.00    -0.356 C  
BRANCH  18  19
HETATM   19  C   UNL     1     -10.036  17.450  69.015  1.00  0.00    -0.295 C  
BRANCH  19  20
HETATM   20  C   UNL     1     -11.022  16.567  69.802  1.00  0.00    -0.292 C  
HETATM   21  C   UNL     1     -11.836  15.685  68.848  1.00  0.00    -0.368 C  
ENDBRANCH  19  20
ENDBRANCH  18  19
ENDBRANCH  13  18
ENDBRANCH   8  13
ENDBRANCH   5   6
BRANCH   5  22
HETATM   22  C   UNL     1     -10.302   9.946  69.281  1.00  0.00    -0.219 C  
BRANCH  22  23
HETATM   23  C   UNL     1     -11.654  10.052  70.012  1.00  0.00    -0.279 C  
BRANCH  23  24
HETATM   24  C   UNL     1     -11.612   9.661  71.495  1.00  0.00    -0.451 C  
HETATM   25  C   UNL     1     -10.487   8.652  71.753  1.00  0.00    -0.394 C  
ENDBRANCH  23  24
ENDBRANCH  22  23
ENDBRANCH   5  22
ENDBRANCH   4   5
ENDBRANCH   3   4
ENDBRANCH   2   3
TORSDOF 14
ENDMDL
MODEL       50
REMARK 921   NORMALIZED FREE ENERGY PREDICTED BY IDOCK:   -4.05 KCAL/MOL
REMARK 922        TOTAL FREE ENERGY PREDICTED BY IDOCK:   -8.75 KCAL/MOL
REMARK 923 INTER-LIGAND FREE ENERGY PREDICTED BY IDOCK:   -7.62 KCAL/MOL
REMARK 924 INTRA-LIGAND FREE ENERGY PREDICTED BY IDOCK:   -1.13 KCAL/MOL
REMARK 927      BINDING AFFINITY PREDICTED BY RF-SCORE:    0.00 PKD
ROOT
HETATM    1  C   UNL     1     -11.332  15.904  70.241  1.00  0.00    -0.381 C  
HETATM    2  C   UNL     1     -11.407  16.157  68.735  1.00  0.00    -0.359 C  
ENDROOT
BRANCH   2   3
HETATM    3  C   UNL     1     -10.125  15.686  68.020  1.00  0.00    -0.224 C  
BRANCH   3   4
HETATM    4  C   UNL     1     -10.437  15.051  66.648  1.00  0.00    -0.284 C  
BRANCH   4   5
HETATM    5  N   UNL     1     -10.938  13.668  66.755  1.00  0.00    -0.290 NA 
BRANCH   5   6
HETATM    6  C   UNL     1     -10.348  12.763  67.733  1.00  0.00    -0.221 C  
HETATM    7  S   UNL     1     -11.303  12.204  69.199  1.00  0.00    -0.274 SA 
HETATM    8  C   UNL     1     -10.239   8.222  69.511  1.00  0.00    -0.210 C  
HETATM    9  S   UNL     1      -8.925  11.932  67.474  1.00  0.00    -0.179 SA 
HETATM   10 ZN   UNL     1     -10.027  10.558  68.771  1.00  0.00    -0.148 Zn 
HETATM   11  S   UNL     1      -9.591   9.360  70.533  1.00  0.00    -0.262 SA 
HETATM   12  S   UNL     1     -10.566   8.745  67.780  1.00  0.00    -0.138 SA 
BRANCH   8  13
HETATM   13  N   UNL     1     -10.797   6.987  69.994  1.00  0.00    -0.251 NA 
BRANCH  13  14
HETATM   14  C   UNL     1     -10.752   5.762  69.198  1.00  0.00    -0.300 C  
BRANCH  14  15
HETATM   15  C   UNL     1      -9.968   4.631  69.911  1.00  0.00    -0.296 C  
BRANCH  15  16
HETATM   16  C   UNL     1      -8.476   4.941  70.149  1.00  0.00    -0.096 C  
HETATM   17  C   UNL     1      -7.860   3.939  71.133  1.00  0.00    -0.063 C  
ENDBRANCH  15  16
ENDBRANCH  14  15
ENDBRANCH  13  14
BRANCH  13  18
HETATM   18  C   UNL     1     -11.402   6.945  71.330  1.00  0.00    -0.279 C  
BRANCH  18  19
HETATM   19  C   UNL     1     -12.825   7.553  71.348  1.00  0.00    -0.381 C  
BRANCH  19  20
HETATM   20  C   UNL     1     -13.030   8.664  72.393  1.00  0.00    -0.403 C  
HETATM   21  C   UNL     1     -13.153  10.031  71.711  1.00  0.00    -0.562 C  
ENDBRANCH  19  20
ENDBRANCH  18  19
ENDBRANCH  13  18
ENDBRANCH   8  13
ENDBRANCH   5   6
BRANCH   5  22
HETATM   22  C   UNL     1     -12.070  13.249  65.917  1.00  0.00    -0.441 C  
BRANCH  22  23
HETATM   23  C   UNL     1     -12.160  13.927  64.537  1.00  0.00    -0.473 C  
BRANCH  23  24
HETATM   24  C   UNL     1     -12.060  12.967  63.344  1.00  0.00    -0.591 C  
HETATM   25  C   UNL     1     -11.218  11.740  63.712  1.00  0.00    -0.518 C  
ENDBRANCH  23  24
ENDBRANCH  22  23
ENDBRANCH   5  22
ENDBRANCH   4   5
ENDBRANCH   3   4
ENDBRANCH   2   3
TORSDOF 14
ENDMDL
MODEL       51
REMARK 921   NORMALIZED FREE ENERGY PREDICTED BY IDOCK:   -4.05 KCAL/MOL
REMARK 922        TOTAL FREE ENERGY PREDICTED BY IDOCK:   -8.74 KCAL/MOL
REMARK 923 INTER-LIGAND FREE ENERGY PREDICTED BY IDOCK:   -8.00 KCAL/MOL
REMARK 924 INTRA-LIGAND FREE ENERGY PREDICTED BY IDOCK:   -0.74 KCAL/MOL
REMARK 927      BINDING AFFINITY PREDICTED BY RF-SCORE:    0.00 PKD
ROOT
HETATM    1  C   UNL     1     -10.972   6.245  70.869  1.00  0.00    -0.344 C  
HETATM    2  C   UNL     1     -11.481   6.432  69.439  1.00  0.00    -0.374 C  
ENDROOT
BRANCH   2   3
HETATM    3  C   UNL     1     -10.323   6.431  68.423  1.00  0.00    -0.228 C  
BRANCH   3   4
HETATM    4  C   UNL     1     -10.498   7.533  67.356  1.00  0.00    -0.297 C  
BRANCH   4   5
HETATM    5  N   UNL     1      -9.929   8.828  67.769  1.00  0.00    -0.182 NA 
BRANCH   5   6
HETATM    6  C   UNL     1     -10.540  10.065  67.297  1.00  0.00    -0.257 C  
HETATM    7  S   UNL     1     -11.715  11.001  68.354  1.00  0.00    -0.183 SA 
HETATM    8  C   UNL     1     -10.644  14.930  67.646  1.00  0.00    -0.264 C  
HETATM    9  S   UNL     1     -10.022  10.886  65.940  1.00  0.00    -0.254 SA 
HETATM   10 ZN   UNL     1     -10.757  12.512  67.207  1.00  0.00    -0.213 Zn 
HETATM   11  S   UNL     1     -12.001  14.276  66.945  1.00  0.00    -0.403 SA 
HETATM   12  S   UNL     1      -9.197  13.817  67.857  1.00  0.00    -0.208 SA 
BRANCH   8  13
HETATM   13  N   UNL     1     -10.666  16.197  68.325  1.00  0.00    -0.292 NA 
BRANCH  13  14
HETATM   14  C   UNL     1     -10.474  17.456  67.607  1.00  0.00    -0.368 C  
BRANCH  14  15
HETATM   15  C   UNL     1      -9.950  18.582  68.534  1.00  0.00    -0.419 C  
BRANCH  15  16
HETATM   16  C   UNL     1     -10.111  20.005  67.965  1.00  0.00    -0.557 C  
HETATM   17  C   UNL     1     -10.113  19.985  66.432  1.00  0.00    -0.609 C  
ENDBRANCH  15  16
ENDBRANCH  14  15
ENDBRANCH  13  14
BRANCH  13  18
HETATM   18  C   UNL     1     -10.915  16.234  69.770  1.00  0.00    -0.354 C  
BRANCH  18  19
HETATM   19  C   UNL     1     -12.125  15.360  70.179  1.00  0.00    -0.400 C  
BRANCH  19  20
HETATM   20  C   UNL     1     -12.699  15.677  71.572  1.00  0.00    -0.522 C  
HETATM   21  C   UNL     1     -14.211  15.423  71.604  1.00  0.00    -0.621 C  
ENDBRANCH  19  20
ENDBRANCH  18  19
ENDBRANCH  13  18
ENDBRANCH   8  13
ENDBRANCH   5   6
BRANCH   5  22
HETATM   22  C   UNL     1      -8.795   8.849  68.702  1.00  0.00    -0.137 C  
BRANCH  22  23
HETATM   23  C   UNL     1      -9.070   9.511  70.065  1.00  0.00    -0.255 C  
BRANCH  23  24
HETATM   24  C   UNL     1      -8.279   8.917  71.238  1.00  0.00    -0.207 C  
HETATM   25  C   UNL     1      -6.924   8.387  70.757  1.00  0.00    -0.045 C  
ENDBRANCH  23  24
ENDBRANCH  22  23
ENDBRANCH   5  22
ENDBRANCH   4   5
ENDBRANCH   3   4
ENDBRANCH   2   3
TORSDOF 14
ENDMDL
MODEL       52
REMARK 921   NORMALIZED FREE ENERGY PREDICTED BY IDOCK:   -4.04 KCAL/MOL
REMARK 922        TOTAL FREE ENERGY PREDICTED BY IDOCK:   -8.73 KCAL/MOL
REMARK 923 INTER-LIGAND FREE ENERGY PREDICTED BY IDOCK:   -7.12 KCAL/MOL
REMARK 924 INTRA-LIGAND FREE ENERGY PREDICTED BY IDOCK:   -1.62 KCAL/MOL
REMARK 927      BINDING AFFINITY PREDICTED BY RF-SCORE:    0.00 PKD
ROOT
HETATM    1  C   UNL     1     -12.623   8.515  72.097  1.00  0.00    -0.431 C  
HETATM    2  C   UNL     1     -12.704   7.067  71.612  1.00  0.00    -0.417 C  
ENDROOT
BRANCH   2   3
HETATM    3  C   UNL     1     -12.072   6.904  70.216  1.00  0.00    -0.182 C  
BRANCH   3   4
HETATM    4  C   UNL     1     -10.958   5.835  70.215  1.00  0.00    -0.276 C  
BRANCH   4   5
HETATM    5  N   UNL     1      -9.682   6.333  70.762  1.00  0.00    -0.179 NA 
BRANCH   5   6
HETATM    6  C   UNL     1      -9.161   7.618  70.314  1.00  0.00    -0.157 C  
HETATM    7  S   UNL     1      -8.980   7.991  68.524  1.00  0.00    -0.132 SA 
HETATM    8  C   UNL     1     -10.197  11.935  68.291  1.00  0.00    -0.204 C  
HETATM    9  S   UNL     1      -8.978   8.937  71.319  1.00  0.00    -0.221 SA 
HETATM   10 ZN   UNL     1      -9.401   9.885  69.394  1.00  0.00    -0.138 Zn 
HETATM   11  S   UNL     1      -8.585  11.535  68.235  1.00  0.00    -0.164 SA 
HETATM   12  S   UNL     1     -11.272  10.914  69.377  1.00  0.00    -0.297 SA 
BRANCH   8  13
HETATM   13  N   UNL     1     -10.799  12.828  67.338  1.00  0.00    -0.236 NA 
BRANCH  13  14
HETATM   14  C   UNL     1     -10.602  14.274  67.410  1.00  0.00    -0.276 C  
BRANCH  14  15
HETATM   15  C   UNL     1     -10.688  14.803  68.864  1.00  0.00    -0.253 C  
BRANCH  15  16
HETATM   16  C   UNL     1     -12.115  14.838  69.448  1.00  0.00    -0.305 C  
HETATM   17  C   UNL     1     -12.100  14.518  70.948  1.00  0.00    -0.404 C  
ENDBRANCH  15  16
ENDBRANCH  14  15
ENDBRANCH  13  14
BRANCH  13  18
HETATM   18  C   UNL     1     -11.610  12.275  66.247  1.00  0.00    -0.385 C  
BRANCH  18  19
HETATM   19  C   UNL     1     -12.317  13.379  65.425  1.00  0.00    -0.522 C  
BRANCH  19  20
HETATM   20  C   UNL     1     -12.028  13.333  63.914  1.00  0.00    -0.541 C  
HETATM   21  C   UNL     1     -10.926  12.313  63.606  1.00  0.00    -0.532 C  
ENDBRANCH  19  20
ENDBRANCH  18  19
ENDBRANCH  13  18
ENDBRANCH   8  13
ENDBRANCH   5   6
BRANCH   5  22
HETATM   22  C   UNL     1      -8.993   5.553  71.799  1.00  0.00    -0.136 C  
BRANCH  22  23
HETATM   23  C   UNL     1      -9.837   5.211  73.042  1.00  0.00    -0.177 C  
BRANCH  23  24
HETATM   24  C   UNL     1     -10.107   6.397  73.978  1.00  0.00    -0.328 C  
HETATM   25  C   UNL     1      -8.790   6.955  74.530  1.00  0.00    -0.221 C  
ENDBRANCH  23  24
ENDBRANCH  22  23
ENDBRANCH   5  22
ENDBRANCH   4   5
ENDBRANCH   3   4
ENDBRANCH   2   3
TORSDOF 14
ENDMDL
MODEL       53
REMARK 921   NORMALIZED FREE ENERGY PREDICTED BY IDOCK:   -4.04 KCAL/MOL
REMARK 922        TOTAL FREE ENERGY PREDICTED BY IDOCK:   -8.73 KCAL/MOL
REMARK 923 INTER-LIGAND FREE ENERGY PREDICTED BY IDOCK:   -8.15 KCAL/MOL
REMARK 924 INTRA-LIGAND FREE ENERGY PREDICTED BY IDOCK:   -0.57 KCAL/MOL
REMARK 927      BINDING AFFINITY PREDICTED BY RF-SCORE:    0.00 PKD
ROOT
HETATM    1  C   UNL     1     -10.283   5.126  67.013  1.00  0.00    -0.265 C  
HETATM    2  C   UNL     1      -9.445   4.623  68.189  1.00  0.00    -0.195 C  
ENDROOT
BRANCH   2   3
HETATM    3  C   UNL     1     -10.025   5.092  69.537  1.00  0.00    -0.301 C  
BRANCH   3   4
HETATM    4  C   UNL     1     -11.228   6.039  69.342  1.00  0.00    -0.327 C  
BRANCH   4   5
HETATM    5  N   UNL     1     -11.104   7.293  70.107  1.00  0.00    -0.266 NA 
BRANCH   5   6
HETATM    6  C   UNL     1     -10.343   8.404  69.549  1.00  0.00    -0.219 C  
HETATM    7  S   UNL     1     -10.391   8.771  67.749  1.00  0.00    -0.229 SA 
HETATM    8  C   UNL     1     -10.517  12.902  67.669  1.00  0.00    -0.224 C  
HETATM    9  S   UNL     1      -9.633   9.592  70.480  1.00  0.00    -0.204 SA 
HETATM   10 ZN   UNL     1     -10.121  10.680  68.646  1.00  0.00    -0.147 Zn 
HETATM   11  S   UNL     1      -9.110  12.085  67.330  1.00  0.00    -0.184 SA 
HETATM   12  S   UNL     1     -11.615  12.174  68.949  1.00  0.00    -0.344 SA 
BRANCH   8  13
HETATM   13  N   UNL     1     -11.015  13.954  66.824  1.00  0.00    -0.296 NA 
BRANCH  13  14
HETATM   14  C   UNL     1     -10.864  15.363  67.182  1.00  0.00    -0.321 C  
BRANCH  14  15
HETATM   15  C   UNL     1     -10.447  16.232  65.968  1.00  0.00    -0.342 C  
BRANCH  15  16
HETATM   16  C   UNL     1      -9.931  17.637  66.336  1.00  0.00    -0.337 C  
HETATM   17  C   UNL     1     -10.607  18.151  67.613  1.00  0.00    -0.424 C  
ENDBRANCH  15  16
ENDBRANCH  14  15
ENDBRANCH  13  14
BRANCH  13  18
HETATM   18  C   UNL     1     -11.667  13.609  65.555  1.00  0.00    -0.337 C  
BRANCH  18  19
HETATM   19  C   UNL     1     -10.646  13.340  64.425  1.00  0.00    -0.438 C  
BRANCH  19  20
HETATM   20  C   UNL     1     -11.022  12.178  63.488  1.00  0.00    -0.521 C  
HETATM   21  C   UNL     1     -12.538  11.947  63.497  1.00  0.00    -0.579 C  
ENDBRANCH  19  20
ENDBRANCH  18  19
ENDBRANCH  13  18
ENDBRANCH   8  13
ENDBRANCH   5   6
BRANCH   5  22
HETATM   22  C   UNL     1     -11.805   7.422  71.391  1.00  0.00    -0.300 C  
BRANCH  22  23
HETATM   23  C   UNL     1     -13.317   7.702  71.295  1.00  0.00    -0.276 C  
BRANCH  23  24
HETATM   24  C   UNL     1     -13.821   8.822  72.216  1.00  0.00    -0.505 C  
HETATM   25  C   UNL     1     -13.160  10.156  71.849  1.00  0.00    -0.571 C  
ENDBRANCH  23  24
ENDBRANCH  22  23
ENDBRANCH   5  22
ENDBRANCH   4   5
ENDBRANCH   3   4
ENDBRANCH   2   3
TORSDOF 14
ENDMDL
MODEL       54
REMARK 921   NORMALIZED FREE ENERGY PREDICTED BY IDOCK:   -4.04 KCAL/MOL
REMARK 922        TOTAL FREE ENERGY PREDICTED BY IDOCK:   -8.73 KCAL/MOL
REMARK 923 INTER-LIGAND FREE ENERGY PREDICTED BY IDOCK:   -7.41 KCAL/MOL
REMARK 924 INTRA-LIGAND FREE ENERGY PREDICTED BY IDOCK:   -1.32 KCAL/MOL
REMARK 927      BINDING AFFINITY PREDICTED BY RF-SCORE:    0.00 PKD
ROOT
HETATM    1  C   UNL     1      -9.684   4.597  67.574  1.00  0.00    -0.213 C  
HETATM    2  C   UNL     1     -10.566   5.239  66.502  1.00  0.00    -0.348 C  
ENDROOT
BRANCH   2   3
HETATM    3  C   UNL     1     -11.021   6.652  66.917  1.00  0.00    -0.396 C  
BRANCH   3   4
HETATM    4  C   UNL     1      -9.980   7.343  67.823  1.00  0.00    -0.167 C  
BRANCH   4   5
HETATM    5  N   UNL     1      -9.332   8.499  67.177  1.00  0.00    -0.147 NA 
BRANCH   5   6
HETATM    6  C   UNL     1     -10.143   9.632  66.751  1.00  0.00    -0.236 C  
HETATM    7  S   UNL     1     -11.261  10.490  67.929  1.00  0.00    -0.215 SA 
HETATM    8  C   UNL     1     -10.765  14.468  66.918  1.00  0.00    -0.288 C  
HETATM    9  S   UNL     1      -9.919  10.429  65.302  1.00  0.00    -0.305 SA 
HETATM   10 ZN   UNL     1     -10.655  12.031  66.596  1.00  0.00    -0.209 Zn 
HETATM   11  S   UNL     1     -12.121  13.631  66.447  1.00  0.00    -0.425 SA 
HETATM   12  S   UNL     1      -9.183  13.534  66.961  1.00  0.00    -0.250 SA 
BRANCH   8  13
HETATM   13  N   UNL     1     -10.841  15.761  67.542  1.00  0.00    -0.318 NA 
BRANCH  13  14
HETATM   14  C   UNL     1     -11.627  15.983  68.755  1.00  0.00    -0.351 C  
BRANCH  14  15
HETATM   15  C   UNL     1     -10.992  15.305  69.994  1.00  0.00    -0.306 C  
BRANCH  15  16
HETATM   16  C   UNL     1     -11.678  15.646  71.332  1.00  0.00    -0.491 C  
HETATM   17  C   UNL     1     -13.196  15.454  71.233  1.00  0.00    -0.585 C  
ENDBRANCH  15  16
ENDBRANCH  14  15
ENDBRANCH  13  14
BRANCH  13  18
HETATM   18  C   UNL     1     -10.090  16.882  66.967  1.00  0.00    -0.289 C  
BRANCH  18  19
HETATM   19  C   UNL     1     -10.736  18.250  67.296  1.00  0.00    -0.366 C  
BRANCH  19  20
HETATM   20  C   UNL     1     -10.310  19.397  66.363  1.00  0.00    -0.575 C  
HETATM   21  C   UNL     1      -9.626  20.515  67.158  1.00  0.00    -0.570 C  
ENDBRANCH  19  20
ENDBRANCH  18  19
ENDBRANCH  13  18
ENDBRANCH   8  13
ENDBRANCH   5   6
BRANCH   5  22
HETATM   22  C   UNL     1      -7.870   8.514  67.034  1.00  0.00    -0.096 C  
BRANCH  22  23
HETATM   23  C   UNL     1      -7.261   7.287  66.330  1.00  0.00    -0.078 C  
BRANCH  23  24
HETATM   24  C   UNL     1      -7.741   7.071  64.888  1.00  0.00    -0.114 C  
HETATM   25  C   UNL     1      -7.474   5.628  64.444  1.00  0.00    -0.073 C  
ENDBRANCH  23  24
ENDBRANCH  22  23
ENDBRANCH   5  22
ENDBRANCH   4   5
ENDBRANCH   3   4
ENDBRANCH   2   3
TORSDOF 14
ENDMDL
MODEL       55
REMARK 921   NORMALIZED FREE ENERGY PREDICTED BY IDOCK:   -4.04 KCAL/MOL
REMARK 922        TOTAL FREE ENERGY PREDICTED BY IDOCK:   -8.72 KCAL/MOL
REMARK 923 INTER-LIGAND FREE ENERGY PREDICTED BY IDOCK:   -7.65 KCAL/MOL
REMARK 924 INTRA-LIGAND FREE ENERGY PREDICTED BY IDOCK:   -1.07 KCAL/MOL
REMARK 927      BINDING AFFINITY PREDICTED BY RF-SCORE:    0.00 PKD
ROOT
HETATM    1  C   UNL     1     -11.451  15.874  70.333  1.00  0.00    -0.393 C  
HETATM    2  C   UNL     1     -11.565  15.942  68.809  1.00  0.00    -0.389 C  
ENDROOT
BRANCH   2   3
HETATM    3  C   UNL     1     -10.314  15.361  68.123  1.00  0.00    -0.239 C  
BRANCH   3   4
HETATM    4  C   UNL     1     -10.653  14.731  66.755  1.00  0.00    -0.302 C  
BRANCH   4   5
HETATM    5  N   UNL     1     -11.082  13.325  66.860  1.00  0.00    -0.283 NA 
BRANCH   5   6
HETATM    6  C   UNL     1     -10.558  12.492  67.934  1.00  0.00    -0.218 C  
HETATM    7  S   UNL     1     -11.640  11.933  69.310  1.00  0.00    -0.337 SA 
HETATM    8  C   UNL     1     -10.411   8.032  69.908  1.00  0.00    -0.233 C  
HETATM    9  S   UNL     1      -9.074  11.733  67.868  1.00  0.00    -0.187 SA 
HETATM   10 ZN   UNL     1     -10.241  10.348  69.095  1.00  0.00    -0.158 Zn 
HETATM   11  S   UNL     1      -9.941   9.243  70.944  1.00  0.00    -0.289 SA 
HETATM   12  S   UNL     1     -10.570   8.472  68.131  1.00  0.00    -0.063 SA 
BRANCH   8  13
HETATM   13  N   UNL     1     -10.954   6.787  70.379  1.00  0.00    -0.264 NA 
BRANCH  13  14
HETATM   14  C   UNL     1     -11.820   6.723  71.555  1.00  0.00    -0.333 C  
BRANCH  14  15
HETATM   15  C   UNL     1     -13.276   7.143  71.230  1.00  0.00    -0.340 C  
BRANCH  15  16
HETATM   16  C   UNL     1     -13.844   8.243  72.149  1.00  0.00    -0.351 C  
HETATM   17  C   UNL     1     -13.658   9.629  71.521  1.00  0.00    -0.376 C  
ENDBRANCH  15  16
ENDBRANCH  14  15
ENDBRANCH  13  14
BRANCH  13  18
HETATM   18  C   UNL     1     -10.655   5.550  69.649  1.00  0.00    -0.305 C  
BRANCH  18  19
HETATM   19  C   UNL     1      -9.331   4.899  70.117  1.00  0.00    -0.217 C  
BRANCH  19  20
HETATM   20  C   UNL     1      -9.469   3.440  70.589  1.00  0.00    -0.243 C  
HETATM   21  C   UNL     1      -9.371   3.355  72.116  1.00  0.00    -0.180 C  
ENDBRANCH  19  20
ENDBRANCH  18  19
ENDBRANCH  13  18
ENDBRANCH   8  13
ENDBRANCH   5   6
BRANCH   5  22
HETATM   22  C   UNL     1     -12.082  12.808  65.916  1.00  0.00    -0.426 C  
BRANCH  22  23
HETATM   23  C   UNL     1     -12.306  13.662  64.653  1.00  0.00    -0.413 C  
BRANCH  23  24
HETATM   24  C   UNL     1     -12.001  12.945  63.332  1.00  0.00    -0.612 C  
HETATM   25  C   UNL     1     -11.070  11.751  63.572  1.00  0.00    -0.503 C  
ENDBRANCH  23  24
ENDBRANCH  22  23
ENDBRANCH   5  22
ENDBRANCH   4   5
ENDBRANCH   3   4
ENDBRANCH   2   3
TORSDOF 14
ENDMDL
MODEL       56
REMARK 921   NORMALIZED FREE ENERGY PREDICTED BY IDOCK:   -4.03 KCAL/MOL
REMARK 922        TOTAL FREE ENERGY PREDICTED BY IDOCK:   -8.72 KCAL/MOL
REMARK 923 INTER-LIGAND FREE ENERGY PREDICTED BY IDOCK:   -7.80 KCAL/MOL
REMARK 924 INTRA-LIGAND FREE ENERGY PREDICTED BY IDOCK:   -0.92 KCAL/MOL
REMARK 927      BINDING AFFINITY PREDICTED BY RF-SCORE:    0.00 PKD
ROOT
HETATM    1  C   UNL     1     -11.927  16.099  72.274  1.00  0.00    -0.637 C  
HETATM    2  C   UNL     1     -12.301  15.440  70.945  1.00  0.00    -0.452 C  
ENDROOT
BRANCH   2   3
HETATM    3  C   UNL     1     -11.134  15.497  69.940  1.00  0.00    -0.318 C  
BRANCH   3   4
HETATM    4  C   UNL     1     -11.637  15.493  68.480  1.00  0.00    -0.368 C  
BRANCH   4   5
HETATM    5  N   UNL     1     -11.117  14.358  67.696  1.00  0.00    -0.290 NA 
BRANCH   5   6
HETATM    6  C   UNL     1     -10.603  13.182  68.386  1.00  0.00    -0.251 C  
HETATM    7  S   UNL     1     -11.722  12.081  69.340  1.00  0.00    -0.342 SA 
HETATM    8  C   UNL     1     -10.285   8.314  68.427  1.00  0.00    -0.209 C  
HETATM    9  S   UNL     1      -9.072  12.567  68.138  1.00  0.00    -0.192 SA 
HETATM   10 ZN   UNL     1     -10.216  10.766  68.619  1.00  0.00    -0.148 Zn 
HETATM   11  S   UNL     1      -9.951   9.022  69.892  1.00  0.00    -0.202 SA 
HETATM   12  S   UNL     1     -10.372   9.424  66.966  1.00  0.00    -0.238 SA 
BRANCH   8  13
HETATM   13  N   UNL     1     -10.773   6.966  68.321  1.00  0.00    -0.221 NA 
BRANCH  13  14
HETATM   14  C   UNL     1     -10.802   6.258  67.043  1.00  0.00    -0.383 C  
BRANCH  14  15
HETATM   15  C   UNL     1      -9.389   5.801  66.597  1.00  0.00    -0.155 C  
BRANCH  15  16
HETATM   16  C   UNL     1      -9.337   4.384  65.993  1.00  0.00    -0.160 C  
HETATM   17  C   UNL     1      -9.457   3.318  67.088  1.00  0.00    -0.178 C  
ENDBRANCH  15  16
ENDBRANCH  14  15
ENDBRANCH  13  14
BRANCH  13  18
HETATM   18  C   UNL     1     -11.231   6.269  69.529  1.00  0.00    -0.430 C  
BRANCH  18  19
HETATM   19  C   UNL     1     -10.186   5.253  70.050  1.00  0.00    -0.358 C  
BRANCH  19  20
HETATM   20  C   UNL     1     -10.233   5.014  71.570  1.00  0.00    -0.273 C  
HETATM   21  C   UNL     1     -11.468   5.684  72.185  1.00  0.00    -0.243 C  
ENDBRANCH  19  20
ENDBRANCH  18  19
ENDBRANCH  13  18
ENDBRANCH   8  13
ENDBRANCH   5   6
BRANCH   5  22
HETATM   22  C   UNL     1     -11.189  14.407  66.229  1.00  0.00    -0.338 C  
BRANCH  22  23
HETATM   23  C   UNL     1     -12.412  13.711  65.602  1.00  0.00    -0.540 C  
BRANCH  23  24
HETATM   24  C   UNL     1     -12.076  12.516  64.699  1.00  0.00    -0.496 C  
HETATM   25  C   UNL     1     -10.588  12.523  64.332  1.00  0.00    -0.376 C  
ENDBRANCH  23  24
ENDBRANCH  22  23
ENDBRANCH   5  22
ENDBRANCH   4   5
ENDBRANCH   3   4
ENDBRANCH   2   3
TORSDOF 14
ENDMDL
MODEL       57
REMARK 921   NORMALIZED FREE ENERGY PREDICTED BY IDOCK:   -4.03 KCAL/MOL
REMARK 922        TOTAL FREE ENERGY PREDICTED BY IDOCK:   -8.71 KCAL/MOL
REMARK 923 INTER-LIGAND FREE ENERGY PREDICTED BY IDOCK:   -7.50 KCAL/MOL
REMARK 924 INTRA-LIGAND FREE ENERGY PREDICTED BY IDOCK:   -1.20 KCAL/MOL
REMARK 927      BINDING AFFINITY PREDICTED BY RF-SCORE:    0.00 PKD
ROOT
HETATM    1  C   UNL     1      -6.366  19.964  69.809  1.00  0.00    -0.402 C  
HETATM    2  C   UNL     1      -5.952  18.630  69.186  1.00  0.00    -0.245 C  
ENDROOT
BRANCH   2   3
HETATM    3  C   UNL     1      -5.831  18.735  67.654  1.00  0.00    -0.180 C  
BRANCH   3   4
HETATM    4  C   UNL     1      -6.542  17.563  66.943  1.00  0.00    -0.186 C  
BRANCH   4   5
HETATM    5  N   UNL     1      -7.958  17.844  66.647  1.00  0.00    -0.237 NA 
BRANCH   5   6
HETATM    6  C   UNL     1      -8.983  16.903  67.079  1.00  0.00    -0.215 C  
HETATM    7  S   UNL     1     -10.058  16.050  65.857  1.00  0.00    -0.372 SA 
HETATM    8  C   UNL     1     -10.322  12.222  67.394  1.00  0.00    -0.206 C  
HETATM    9  S   UNL     1      -9.076  16.292  68.629  1.00  0.00    -0.238 SA 
HETATM   10 ZN   UNL     1      -9.877  14.641  67.438  1.00  0.00    -0.206 Zn 
HETATM   11  S   UNL     1     -11.581  13.294  67.555  1.00  0.00    -0.366 SA 
HETATM   12  S   UNL     1      -8.622  12.915  67.476  1.00  0.00    -0.200 SA 
BRANCH   8  13
HETATM   13  N   UNL     1     -10.516  10.877  66.922  1.00  0.00    -0.239 NA 
BRANCH  13  14
HETATM   14  C   UNL     1     -10.107  10.468  65.580  1.00  0.00    -0.283 C  
BRANCH  14  15
HETATM   15  C   UNL     1     -10.164  11.642  64.569  1.00  0.00    -0.337 C  
BRANCH  15  16
HETATM   16  C   UNL     1     -11.361  11.592  63.599  1.00  0.00    -0.412 C  
HETATM   17  C   UNL     1     -12.224  12.853  63.730  1.00  0.00    -0.555 C  
ENDBRANCH  15  16
ENDBRANCH  14  15
ENDBRANCH  13  14
BRANCH  13  18
HETATM   18  C   UNL     1     -11.114   9.881  67.817  1.00  0.00    -0.129 C  
BRANCH  18  19
HETATM   19  C   UNL     1     -10.358   9.774  69.164  1.00  0.00    -0.225 C  
BRANCH  19  20
HETATM   20  C   UNL     1     -11.270   9.657  70.399  1.00  0.00    -0.342 C  
HETATM   21  C   UNL     1     -11.000   8.346  71.147  1.00  0.00    -0.292 C  
ENDBRANCH  19  20
ENDBRANCH  18  19
ENDBRANCH  13  18
ENDBRANCH   8  13
ENDBRANCH   5   6
BRANCH   5  22
HETATM   22  C   UNL     1      -8.315  19.102  65.977  1.00  0.00    -0.139 C  
BRANCH  22  23
HETATM   23  C   UNL     1      -9.692  19.684  66.351  1.00  0.00    -0.503 C  
BRANCH  23  24
HETATM   24  C   UNL     1      -9.683  20.622  67.566  1.00  0.00    -0.509 C  
HETATM   25  C   UNL     1     -10.161  19.881  68.819  1.00  0.00    -0.487 C  
ENDBRANCH  23  24
ENDBRANCH  22  23
ENDBRANCH   5  22
ENDBRANCH   4   5
ENDBRANCH   3   4
ENDBRANCH   2   3
TORSDOF 14
ENDMDL
MODEL       58
REMARK 921   NORMALIZED FREE ENERGY PREDICTED BY IDOCK:   -4.01 KCAL/MOL
REMARK 922        TOTAL FREE ENERGY PREDICTED BY IDOCK:   -8.68 KCAL/MOL
REMARK 923 INTER-LIGAND FREE ENERGY PREDICTED BY IDOCK:   -7.52 KCAL/MOL
REMARK 924 INTRA-LIGAND FREE ENERGY PREDICTED BY IDOCK:   -1.16 KCAL/MOL
REMARK 927      BINDING AFFINITY PREDICTED BY RF-SCORE:    0.00 PKD
ROOT
HETATM    1  C   UNL     1     -12.640  11.924  63.401  1.00  0.00    -0.555 C  
HETATM    2  C   UNL     1     -11.274  12.594  63.552  1.00  0.00    -0.489 C  
ENDROOT
BRANCH   2   3
HETATM    3  C   UNL     1     -11.286  13.655  64.669  1.00  0.00    -0.380 C  
BRANCH   3   4
HETATM    4  C   UNL     1     -12.136  13.202  65.877  1.00  0.00    -0.444 C  
BRANCH   4   5
HETATM    5  N   UNL     1     -11.575  13.635  67.169  1.00  0.00    -0.341 NA 
BRANCH   5   6
HETATM    6  C   UNL     1     -10.743  12.716  67.936  1.00  0.00    -0.218 C  
HETATM    7  S   UNL     1     -11.416  11.826  69.395  1.00  0.00    -0.311 SA 
HETATM    8  C   UNL     1      -9.765   8.057  69.003  1.00  0.00    -0.159 C  
HETATM    9  S   UNL     1      -9.260  12.162  67.410  1.00  0.00    -0.189 SA 
HETATM   10 ZN   UNL     1      -9.983  10.474  68.598  1.00  0.00    -0.145 Zn 
HETATM   11  S   UNL     1      -9.162   9.141  70.109  1.00  0.00    -0.225 SA 
HETATM   12  S   UNL     1     -10.378   8.742  67.413  1.00  0.00    -0.284 SA 
BRANCH   8  13
HETATM   13  N   UNL     1     -10.075   6.697  69.354  1.00  0.00    -0.169 NA 
BRANCH  13  14
HETATM   14  C   UNL     1      -9.048   5.657  69.376  1.00  0.00    -0.117 C  
BRANCH  14  15
HETATM   15  C   UNL     1      -9.323   4.544  68.334  1.00  0.00    -0.194 C  
BRANCH  15  16
HETATM   16  C   UNL     1      -9.121   4.977  66.869  1.00  0.00    -0.117 C  
HETATM   17  C   UNL     1     -10.453   4.978  66.109  1.00  0.00    -0.334 C  
ENDBRANCH  15  16
ENDBRANCH  14  15
ENDBRANCH  13  14
BRANCH  13  18
HETATM   18  C   UNL     1     -11.450   6.346  69.726  1.00  0.00    -0.399 C  
BRANCH  18  19
HETATM   19  C   UNL     1     -11.752   6.656  71.212  1.00  0.00    -0.386 C  
BRANCH  19  20
HETATM   20  C   UNL     1     -12.968   7.572  71.438  1.00  0.00    -0.379 C  
HETATM   21  C   UNL     1     -12.536   8.892  72.089  1.00  0.00    -0.459 C  
ENDBRANCH  19  20
ENDBRANCH  18  19
ENDBRANCH  13  18
ENDBRANCH   8  13
ENDBRANCH   5   6
BRANCH   5  22
HETATM   22  C   UNL     1     -11.812  15.009  67.630  1.00  0.00    -0.182 C  
BRANCH  22  23
HETATM   23  C   UNL     1     -10.665  15.644  68.440  1.00  0.00    -0.271 C  
BRANCH  23  24
HETATM   24  C   UNL     1     -10.873  15.636  69.960  1.00  0.00    -0.340 C  
HETATM   25  C   UNL     1     -12.367  15.561  70.296  1.00  0.00    -0.431 C  
ENDBRANCH  23  24
ENDBRANCH  22  23
ENDBRANCH   5  22
ENDBRANCH   4   5
ENDBRANCH   3   4
ENDBRANCH   2   3
TORSDOF 14
ENDMDL
MODEL       59
REMARK 921   NORMALIZED FREE ENERGY PREDICTED BY IDOCK:   -4.00 KCAL/MOL
REMARK 922        TOTAL FREE ENERGY PREDICTED BY IDOCK:   -8.66 KCAL/MOL
REMARK 923 INTER-LIGAND FREE ENERGY PREDICTED BY IDOCK:   -7.64 KCAL/MOL
REMARK 924 INTRA-LIGAND FREE ENERGY PREDICTED BY IDOCK:   -1.02 KCAL/MOL
REMARK 927      BINDING AFFINITY PREDICTED BY RF-SCORE:    0.00 PKD
ROOT
HETATM    1  C   UNL     1     -11.717  11.799  63.801  1.00  0.00    -0.499 C  
HETATM    2  C   UNL     1     -12.280  13.189  63.499  1.00  0.00    -0.552 C  
ENDROOT
BRANCH   2   3
HETATM    3  C   UNL     1     -11.576  14.277  64.333  1.00  0.00    -0.358 C  
BRANCH   3   4
HETATM    4  C   UNL     1     -10.254  13.762  64.942  1.00  0.00    -0.348 C  
BRANCH   4   5
HETATM    5  N   UNL     1      -9.939  14.384  66.241  1.00  0.00    -0.294 NA 
BRANCH   5   6
HETATM    6  C   UNL     1     -10.456  13.790  67.467  1.00  0.00    -0.245 C  
HETATM    7  S   UNL     1     -11.866  12.612  67.425  1.00  0.00    -0.256 SA 
HETATM    8  C   UNL     1     -10.760   9.768  70.213  1.00  0.00    -0.302 C  
HETATM    9  S   UNL     1      -9.662  13.867  68.932  1.00  0.00     0.085 SA 
HETATM   10 ZN   UNL     1     -10.708  11.952  69.080  1.00  0.00    -0.188 Zn 
HETATM   11  S   UNL     1     -11.903  10.918  70.575  1.00  0.00    -0.360 SA 
HETATM   12  S   UNL     1      -9.373  10.286  69.125  1.00  0.00    -0.205 SA 
BRANCH   8  13
HETATM   13  N   UNL     1     -10.969   8.370  70.475  1.00  0.00    -0.240 NA 
BRANCH  13  14
HETATM   14  C   UNL     1     -10.257   7.334  69.729  1.00  0.00    -0.210 C  
BRANCH  14  15
HETATM   15  C   UNL     1     -11.226   6.347  69.031  1.00  0.00    -0.402 C  
BRANCH  15  16
HETATM   16  C   UNL     1     -11.015   6.213  67.510  1.00  0.00    -0.404 C  
HETATM   17  C   UNL     1      -9.705   6.883  67.078  1.00  0.00    -0.210 C  
ENDBRANCH  15  16
ENDBRANCH  14  15
ENDBRANCH  13  14
BRANCH  13  18
HETATM   18  C   UNL     1     -11.901   7.969  71.535  1.00  0.00    -0.292 C  
BRANCH  18  19
HETATM   19  C   UNL     1     -11.264   8.063  72.942  1.00  0.00    -0.389 C  
BRANCH  19  20
HETATM   20  C   UNL     1     -10.556   6.779  73.408  1.00  0.00    -0.351 C  
HETATM   21  C   UNL     1     -11.322   5.537  72.937  1.00  0.00    -0.348 C  
ENDBRANCH  19  20
ENDBRANCH  18  19
ENDBRANCH  13  18
ENDBRANCH   8  13
ENDBRANCH   5   6
BRANCH   5  22
HETATM   22  C   UNL     1      -9.054  15.556  66.280  1.00  0.00    -0.334 C  
BRANCH  22  23
HETATM   23  C   UNL     1      -9.762  16.923  66.229  1.00  0.00    -0.301 C  
BRANCH  23  24
HETATM   24  C   UNL     1     -10.241  17.447  67.589  1.00  0.00    -0.342 C  
HETATM   25  C   UNL     1      -9.054  17.951  68.418  1.00  0.00    -0.292 C  
ENDBRANCH  23  24
ENDBRANCH  22  23
ENDBRANCH   5  22
ENDBRANCH   4   5
ENDBRANCH   3   4
ENDBRANCH   2   3
TORSDOF 14
ENDMDL
MODEL       60
REMARK 921   NORMALIZED FREE ENERGY PREDICTED BY IDOCK:   -4.00 KCAL/MOL
REMARK 922        TOTAL FREE ENERGY PREDICTED BY IDOCK:   -8.65 KCAL/MOL
REMARK 923 INTER-LIGAND FREE ENERGY PREDICTED BY IDOCK:   -7.70 KCAL/MOL
REMARK 924 INTRA-LIGAND FREE ENERGY PREDICTED BY IDOCK:   -0.95 KCAL/MOL
REMARK 927      BINDING AFFINITY PREDICTED BY RF-SCORE:    0.00 PKD
ROOT
HETATM    1  C   UNL     1     -12.343   8.475  72.113  1.00  0.00    -0.444 C  
HETATM    2  C   UNL     1     -12.725   9.900  71.708  1.00  0.00    -0.523 C  
ENDROOT
BRANCH   2   3
HETATM    3  C   UNL     1     -11.727  10.483  70.688  1.00  0.00    -0.453 C  
BRANCH   3   4
HETATM    4  C   UNL     1     -12.072  11.943  70.324  1.00  0.00    -0.325 C  
BRANCH   4   5
HETATM    5  N   UNL     1     -11.841  12.251  68.901  1.00  0.00    -0.314 NA 
BRANCH   5   6
HETATM    6  C   UNL     1     -11.795  13.640  68.463  1.00  0.00    -0.371 C  
HETATM    7  S   UNL     1     -11.010  14.933  69.506  1.00  0.00    -0.275 SA 
HETATM    8  C   UNL     1      -9.021  17.258  66.726  1.00  0.00    -0.250 C  
HETATM    9  S   UNL     1     -12.153  14.127  66.908  1.00  0.00    -0.369 SA 
HETATM   10 ZN   UNL     1     -10.666  15.609  67.520  1.00  0.00    -0.252 Zn 
HETATM   11  S   UNL     1     -10.451  17.770  67.401  1.00  0.00    -0.340 SA 
HETATM   12  S   UNL     1      -8.847  15.456  66.413  1.00  0.00    -0.262 SA 
BRANCH   8  13
HETATM   13  N   UNL     1      -7.861  18.104  66.655  1.00  0.00    -0.231 NA 
BRANCH  13  14
HETATM   14  C   UNL     1      -7.927  19.452  66.092  1.00  0.00    -0.310 C  
BRANCH  14  15
HETATM   15  C   UNL     1      -6.653  19.811  65.287  1.00  0.00    -0.321 C  
BRANCH  15  16
HETATM   16  C   UNL     1      -5.894  21.048  65.809  1.00  0.00    -0.288 C  
HETATM   17  C   UNL     1      -6.248  21.328  67.274  1.00  0.00    -0.421 C  
ENDBRANCH  15  16
ENDBRANCH  14  15
ENDBRANCH  13  14
BRANCH  13  18
HETATM   18  C   UNL     1      -6.581  17.617  67.183  1.00  0.00    -0.161 C  
BRANCH  18  19
HETATM   19  C   UNL     1      -6.440  17.870  68.703  1.00  0.00    -0.215 C  
BRANCH  19  20
HETATM   20  C   UNL     1      -5.996  16.641  69.516  1.00  0.00    -0.205 C  
HETATM   21  C   UNL     1      -7.098  15.575  69.529  1.00  0.00    -0.195 C  
ENDBRANCH  19  20
ENDBRANCH  18  19
ENDBRANCH  13  18
ENDBRANCH   8  13
ENDBRANCH   5   6
BRANCH   5  22
HETATM   22  C   UNL     1     -11.597  11.150  67.959  1.00  0.00    -0.263 C  
BRANCH  22  23
HETATM   23  C   UNL     1     -10.176  11.086  67.368  1.00  0.00    -0.229 C  
BRANCH  23  24
HETATM   24  C   UNL     1      -9.870   9.812  66.569  1.00  0.00    -0.286 C  
HETATM   25  C   UNL     1      -9.799  10.125  65.070  1.00  0.00    -0.392 C  
ENDBRANCH  23  24
ENDBRANCH  22  23
ENDBRANCH   5  22
ENDBRANCH   4   5
ENDBRANCH   3   4
ENDBRANCH   2   3
TORSDOF 14
ENDMDL
MODEL       61
REMARK 921   NORMALIZED FREE ENERGY PREDICTED BY IDOCK:   -3.98 KCAL/MOL
REMARK 922        TOTAL FREE ENERGY PREDICTED BY IDOCK:   -8.62 KCAL/MOL
REMARK 923 INTER-LIGAND FREE ENERGY PREDICTED BY IDOCK:   -7.20 KCAL/MOL
REMARK 924 INTRA-LIGAND FREE ENERGY PREDICTED BY IDOCK:   -1.42 KCAL/MOL
REMARK 927      BINDING AFFINITY PREDICTED BY RF-SCORE:    0.00 PKD
ROOT
HETATM    1  C   UNL     1      -9.553  20.712  67.224  1.00  0.00    -0.558 C  
HETATM    2  C   UNL     1     -10.164  19.664  68.156  1.00  0.00    -0.580 C  
ENDROOT
BRANCH   2   3
HETATM    3  C   UNL     1     -11.030  18.653  67.378  1.00  0.00    -0.239 C  
BRANCH   3   4
HETATM    4  C   UNL     1     -10.235  17.979  66.239  1.00  0.00    -0.381 C  
BRANCH   4   5
HETATM    5  N   UNL     1      -9.409  16.850  66.704  1.00  0.00    -0.246 NA 
BRANCH   5   6
HETATM    6  C   UNL     1     -10.029  15.770  67.463  1.00  0.00    -0.236 C  
HETATM    7  S   UNL     1     -11.035  14.483  66.623  1.00  0.00    -0.328 SA 
HETATM    8  C   UNL     1      -9.920  11.027  68.598  1.00  0.00    -0.199 C  
HETATM    9  S   UNL     1      -9.649  15.427  69.051  1.00  0.00    -0.251 SA 
HETATM   10 ZN   UNL     1     -10.169  13.452  68.268  1.00  0.00    -0.199 Zn 
HETATM   11  S   UNL     1     -11.374  11.763  68.922  1.00  0.00    -0.294 SA 
HETATM   12  S   UNL     1      -8.499  12.124  68.210  1.00  0.00    -0.159 SA 
BRANCH   8  13
HETATM   13  N   UNL     1      -9.817   9.616  68.337  1.00  0.00    -0.150 NA 
BRANCH  13  14
HETATM   14  C   UNL     1      -9.188   8.703  69.289  1.00  0.00    -0.150 C  
BRANCH  14  15
HETATM   15  C   UNL     1      -9.725   8.902  70.729  1.00  0.00    -0.281 C  
BRANCH  15  16
HETATM   16  C   UNL     1     -11.152   8.365  70.959  1.00  0.00    -0.298 C  
HETATM   17  C   UNL     1     -12.027   9.418  71.649  1.00  0.00    -0.465 C  
ENDBRANCH  15  16
ENDBRANCH  14  15
ENDBRANCH  13  14
BRANCH  13  18
HETATM   18  C   UNL     1     -10.381   9.071  67.096  1.00  0.00    -0.272 C  
BRANCH  18  19
HETATM   19  C   UNL     1      -9.289   8.760  66.044  1.00  0.00    -0.296 C  
BRANCH  19  20
HETATM   20  C   UNL     1      -8.972   9.926  65.091  1.00  0.00    -0.235 C  
HETATM   21  C   UNL     1     -10.210  10.807  64.884  1.00  0.00    -0.388 C  
ENDBRANCH  19  20
ENDBRANCH  18  19
ENDBRANCH  13  18
ENDBRANCH   8  13
ENDBRANCH   5   6
BRANCH   5  22
HETATM   22  C   UNL     1      -7.988  16.802  66.337  1.00  0.00    -0.321 C  
BRANCH  22  23
HETATM   23  C   UNL     1      -7.193  18.097  66.594  1.00  0.00    -0.246 C  
BRANCH  23  24
HETATM   24  C   UNL     1      -6.763  18.846  65.326  1.00  0.00    -0.201 C  
HETATM   25  C   UNL     1      -6.121  20.191  65.689  1.00  0.00    -0.230 C  
ENDBRANCH  23  24
ENDBRANCH  22  23
ENDBRANCH   5  22
ENDBRANCH   4   5
ENDBRANCH   3   4
ENDBRANCH   2   3
TORSDOF 14
ENDMDL
MODEL       62
REMARK 921   NORMALIZED FREE ENERGY PREDICTED BY IDOCK:   -3.97 KCAL/MOL
REMARK 922        TOTAL FREE ENERGY PREDICTED BY IDOCK:   -8.60 KCAL/MOL
REMARK 923 INTER-LIGAND FREE ENERGY PREDICTED BY IDOCK:   -7.43 KCAL/MOL
REMARK 924 INTRA-LIGAND FREE ENERGY PREDICTED BY IDOCK:   -1.16 KCAL/MOL
REMARK 927      BINDING AFFINITY PREDICTED BY RF-SCORE:    0.00 PKD
ROOT
HETATM    1  C   UNL     1      -6.121  18.754  65.705  1.00  0.00    -0.243 C  
HETATM    2  C   UNL     1      -6.233  19.786  66.828  1.00  0.00    -0.189 C  
ENDROOT
BRANCH   2   3
HETATM    3  C   UNL     1      -6.652  19.130  68.158  1.00  0.00    -0.253 C  
BRANCH   3   4
HETATM    4  C   UNL     1      -7.494  17.857  67.925  1.00  0.00    -0.216 C  
BRANCH   4   5
HETATM    5  N   UNL     1      -8.901  18.015  68.334  1.00  0.00    -0.288 NA 
BRANCH   5   6
HETATM    6  C   UNL     1      -9.835  16.914  68.138  1.00  0.00    -0.264 C  
HETATM    7  S   UNL     1      -9.974  16.072  66.511  1.00  0.00    -0.297 SA 
HETATM    8  C   UNL     1     -10.369  12.097  67.574  1.00  0.00    -0.205 C  
HETATM    9  S   UNL     1     -10.613  16.133  69.390  1.00  0.00    -0.324 SA 
HETATM   10 ZN   UNL     1     -10.408  14.534  67.912  1.00  0.00    -0.214 Zn 
HETATM   11  S   UNL     1     -11.685  12.982  67.079  1.00  0.00    -0.382 SA 
HETATM   12  S   UNL     1      -9.092  12.981  68.556  1.00  0.00     0.023 SA 
BRANCH   8  13
HETATM   13  N   UNL     1     -10.073  10.797  67.035  1.00  0.00    -0.200 NA 
BRANCH  13  14
HETATM   14  C   UNL     1     -10.652   9.580  67.601  1.00  0.00    -0.269 C  
BRANCH  14  15
HETATM   15  C   UNL     1     -10.043   9.233  68.983  1.00  0.00    -0.207 C  
BRANCH  15  16
HETATM   16  C   UNL     1     -10.825   9.798  70.186  1.00  0.00    -0.340 C  
HETATM   17  C   UNL     1     -10.908   8.766  71.317  1.00  0.00    -0.347 C  
ENDBRANCH  15  16
ENDBRANCH  14  15
ENDBRANCH  13  14
BRANCH  13  18
HETATM   18  C   UNL     1      -9.188  10.687  65.869  1.00  0.00    -0.182 C  
BRANCH  18  19
HETATM   19  C   UNL     1      -9.891  10.021  64.662  1.00  0.00    -0.288 C  
BRANCH  19  20
HETATM   20  C   UNL     1      -9.961  10.901  63.401  1.00  0.00    -0.414 C  
HETATM   21  C   UNL     1     -10.987  12.026  63.583  1.00  0.00    -0.517 C  
ENDBRANCH  19  20
ENDBRANCH  18  19
ENDBRANCH  13  18
ENDBRANCH   8  13
ENDBRANCH   5   6
BRANCH   5  22
HETATM   22  C   UNL     1      -9.321  19.259  68.993  1.00  0.00    -0.301 C  
BRANCH  22  23
HETATM   23  C   UNL     1     -10.277  20.150  68.179  1.00  0.00    -0.479 C  
BRANCH  23  24
HETATM   24  C   UNL     1      -9.840  20.402  66.729  1.00  0.00    -0.541 C  
HETATM   25  C   UNL     1     -10.730  19.619  65.757  1.00  0.00    -0.493 C  
ENDBRANCH  23  24
ENDBRANCH  22  23
ENDBRANCH   5  22
ENDBRANCH   4   5
ENDBRANCH   3   4
ENDBRANCH   2   3
TORSDOF 14
ENDMDL
MODEL       63
REMARK 921   NORMALIZED FREE ENERGY PREDICTED BY IDOCK:   -3.96 KCAL/MOL
REMARK 922        TOTAL FREE ENERGY PREDICTED BY IDOCK:   -8.59 KCAL/MOL
REMARK 923 INTER-LIGAND FREE ENERGY PREDICTED BY IDOCK:   -7.09 KCAL/MOL
REMARK 924 INTRA-LIGAND FREE ENERGY PREDICTED BY IDOCK:   -1.50 KCAL/MOL
REMARK 927      BINDING AFFINITY PREDICTED BY RF-SCORE:    0.00 PKD
ROOT
HETATM    1  C   UNL     1      -8.940   8.894  69.477  1.00  0.00    -0.145 C  
HETATM    2  C   UNL     1     -10.019   9.150  68.424  1.00  0.00    -0.202 C  
ENDROOT
BRANCH   2   3
HETATM    3  C   UNL     1     -10.092  10.641  68.041  1.00  0.00    -0.181 C  
BRANCH   3   4
HETATM    4  C   UNL     1     -11.541  11.171  68.082  1.00  0.00    -0.280 C  
BRANCH   4   5
HETATM    5  N   UNL     1     -11.725  12.268  69.049  1.00  0.00    -0.309 NA 
BRANCH   5   6
HETATM    6  C   UNL     1     -11.686  13.649  68.585  1.00  0.00    -0.354 C  
HETATM    7  S   UNL     1     -10.840  14.952  69.564  1.00  0.00    -0.247 SA 
HETATM    8  C   UNL     1      -8.964  17.206  66.651  1.00  0.00    -0.253 C  
HETATM    9  S   UNL     1     -12.113  14.112  67.039  1.00  0.00    -0.344 SA 
HETATM   10 ZN   UNL     1     -10.584  15.589  67.553  1.00  0.00    -0.249 Zn 
HETATM   11  S   UNL     1     -10.354  17.745  67.383  1.00  0.00    -0.369 SA 
HETATM   12  S   UNL     1      -8.822  15.397  66.363  1.00  0.00    -0.262 SA 
BRANCH   8  13
HETATM   13  N   UNL     1      -7.800  18.038  66.509  1.00  0.00    -0.246 NA 
BRANCH  13  14
HETATM   14  C   UNL     1      -6.462  17.469  66.362  1.00  0.00    -0.248 C  
BRANCH  14  15
HETATM   15  C   UNL     1      -5.676  17.475  67.697  1.00  0.00    -0.143 C  
BRANCH  15  16
HETATM   16  C   UNL     1      -5.622  16.110  68.413  1.00  0.00    -0.102 C  
HETATM   17  C   UNL     1      -6.758  15.985  69.436  1.00  0.00    -0.200 C  
ENDBRANCH  15  16
ENDBRANCH  14  15
ENDBRANCH  13  14
BRANCH  13  18
HETATM   18  C   UNL     1      -7.958  19.497  66.482  1.00  0.00    -0.301 C  
BRANCH  18  19
HETATM   19  C   UNL     1      -6.927  20.181  65.553  1.00  0.00    -0.332 C  
BRANCH  19  20
HETATM   20  C   UNL     1      -5.958  21.138  66.270  1.00  0.00    -0.328 C  
HETATM   21  C   UNL     1      -6.244  21.167  67.777  1.00  0.00    -0.421 C  
ENDBRANCH  19  20
ENDBRANCH  18  19
ENDBRANCH  13  18
ENDBRANCH   8  13
ENDBRANCH   5   6
BRANCH   5  22
HETATM   22  C   UNL     1     -12.009  11.947  70.454  1.00  0.00    -0.311 C  
BRANCH  22  23
HETATM   23  C   UNL     1     -12.692  10.588  70.697  1.00  0.00    -0.441 C  
BRANCH  23  24
HETATM   24  C   UNL     1     -11.884   9.610  71.562  1.00  0.00    -0.483 C  
HETATM   25  C   UNL     1     -12.533   8.221  71.549  1.00  0.00    -0.340 C  
ENDBRANCH  23  24
ENDBRANCH  22  23
ENDBRANCH   5  22
ENDBRANCH   4   5
ENDBRANCH   3   4
ENDBRANCH   2   3
TORSDOF 14
ENDMDL
MODEL       64
REMARK 921   NORMALIZED FREE ENERGY PREDICTED BY IDOCK:   -3.96 KCAL/MOL
REMARK 922        TOTAL FREE ENERGY PREDICTED BY IDOCK:   -8.59 KCAL/MOL
REMARK 923 INTER-LIGAND FREE ENERGY PREDICTED BY IDOCK:   -7.36 KCAL/MOL
REMARK 924 INTRA-LIGAND FREE ENERGY PREDICTED BY IDOCK:   -1.23 KCAL/MOL
REMARK 927      BINDING AFFINITY PREDICTED BY RF-SCORE:    0.00 PKD
ROOT
HETATM    1  C   UNL     1      -8.908   7.886  73.496  1.00  0.00    -0.333 C  
HETATM    2  C   UNL     1     -10.357   7.491  73.202  1.00  0.00    -0.402 C  
ENDROOT
BRANCH   2   3
HETATM    3  C   UNL     1     -11.024   8.479  72.225  1.00  0.00    -0.426 C  
BRANCH   3   4
HETATM    4  C   UNL     1     -10.066   8.889  71.086  1.00  0.00    -0.271 C  
BRANCH   4   5
HETATM    5  N   UNL     1     -10.624   8.633  69.745  1.00  0.00    -0.224 NA 
BRANCH   5   6
HETATM    6  C   UNL     1     -11.021   9.756  68.906  1.00  0.00    -0.150 C  
HETATM    7  S   UNL     1     -11.864  11.221  69.625  1.00  0.00    -0.384 SA 
HETATM    8  C   UNL     1     -10.110  14.366  67.595  1.00  0.00    -0.222 C  
HETATM    9  S   UNL     1     -10.499   9.959  67.334  1.00  0.00    -0.272 SA 
HETATM   10 ZN   UNL     1     -10.752  12.026  68.002  1.00  0.00    -0.181 Zn 
HETATM   11  S   UNL     1     -11.638  13.845  67.203  1.00  0.00    -0.386 SA 
HETATM   12  S   UNL     1      -8.902  13.085  68.119  1.00  0.00    -0.183 SA 
BRANCH   8  13
HETATM   13  N   UNL     1      -9.805  15.755  67.806  1.00  0.00    -0.224 NA 
BRANCH  13  14
HETATM   14  C   UNL     1      -9.659  16.688  66.690  1.00  0.00    -0.263 C  
BRANCH  14  15
HETATM   15  C   UNL     1      -8.626  17.803  66.993  1.00  0.00    -0.248 C  
BRANCH  15  16
HETATM   16  C   UNL     1      -9.232  19.213  67.136  1.00  0.00    -0.340 C  
HETATM   17  C   UNL     1     -10.294  19.464  66.060  1.00  0.00    -0.584 C  
ENDBRANCH  15  16
ENDBRANCH  14  15
ENDBRANCH  13  14
BRANCH  13  18
HETATM   18  C   UNL     1      -9.663  16.260  69.177  1.00  0.00    -0.265 C  
BRANCH  18  19
HETATM   19  C   UNL     1     -11.026  16.390  69.898  1.00  0.00    -0.339 C  
BRANCH  19  20
HETATM   20  C   UNL     1     -11.292  15.307  70.958  1.00  0.00    -0.393 C  
HETATM   21  C   UNL     1     -12.682  15.490  71.581  1.00  0.00    -0.502 C  
ENDBRANCH  19  20
ENDBRANCH  18  19
ENDBRANCH  13  18
ENDBRANCH   8  13
ENDBRANCH   5   6
BRANCH   5  22
HETATM   22  C   UNL     1     -10.707   7.251  69.255  1.00  0.00    -0.198 C  
BRANCH  22  23
HETATM   23  C   UNL     1      -9.416   6.421  69.391  1.00  0.00    -0.146 C  
BRANCH  23  24
HETATM   24  C   UNL     1      -9.635   4.958  69.801  1.00  0.00    -0.243 C  
HETATM   25  C   UNL     1      -9.090   4.710  71.213  1.00  0.00    -0.179 C  
ENDBRANCH  23  24
ENDBRANCH  22  23
ENDBRANCH   5  22
ENDBRANCH   4   5
ENDBRANCH   3   4
ENDBRANCH   2   3
TORSDOF 14
ENDMDL
MODEL       65
REMARK 921   NORMALIZED FREE ENERGY PREDICTED BY IDOCK:   -3.95 KCAL/MOL
REMARK 922        TOTAL FREE ENERGY PREDICTED BY IDOCK:   -8.56 KCAL/MOL
REMARK 923 INTER-LIGAND FREE ENERGY PREDICTED BY IDOCK:   -7.23 KCAL/MOL
REMARK 924 INTRA-LIGAND FREE ENERGY PREDICTED BY IDOCK:   -1.34 KCAL/MOL
REMARK 927      BINDING AFFINITY PREDICTED BY RF-SCORE:    0.00 PKD
ROOT
HETATM    1  C   UNL     1     -11.487   8.630  72.171  1.00  0.00    -0.443 C  
HETATM    2  C   UNL     1     -12.943   9.094  72.096  1.00  0.00    -0.498 C  
ENDROOT
BRANCH   2   3
HETATM    3  C   UNL     1     -13.173  10.039  70.899  1.00  0.00    -0.336 C  
BRANCH   3   4
HETATM    4  C   UNL     1     -11.918  10.883  70.589  1.00  0.00    -0.368 C  
BRANCH   4   5
HETATM    5  N   UNL     1     -11.578  10.903  69.155  1.00  0.00    -0.296 NA 
BRANCH   5   6
HETATM    6  C   UNL     1     -11.611  12.164  68.426  1.00  0.00    -0.327 C  
HETATM    7  S   UNL     1     -11.606  13.771  69.317  1.00  0.00    -0.331 SA 
HETATM    8  C   UNL     1      -9.096  16.091  66.993  1.00  0.00    -0.214 C  
HETATM    9  S   UNL     1     -11.354  12.283  66.782  1.00  0.00    -0.355 SA 
HETATM   10 ZN   UNL     1     -10.579  14.197  67.505  1.00  0.00    -0.236 Zn 
HETATM   11  S   UNL     1     -10.744  16.286  66.924  1.00  0.00    -0.152 SA 
HETATM   12  S   UNL     1      -8.469  14.382  67.243  1.00  0.00    -0.209 SA 
BRANCH   8  13
HETATM   13  N   UNL     1      -8.198  17.204  67.147  1.00  0.00    -0.186 NA 
BRANCH  13  14
HETATM   14  C   UNL     1      -7.577  17.855  65.996  1.00  0.00    -0.214 C  
BRANCH  14  15
HETATM   15  C   UNL     1      -6.037  17.952  66.141  1.00  0.00    -0.256 C  
BRANCH  15  16
HETATM   16  C   UNL     1      -5.409  19.194  65.479  1.00  0.00    -0.189 C  
HETATM   17  C   UNL     1      -6.482  20.241  65.153  1.00  0.00    -0.325 C  
ENDBRANCH  15  16
ENDBRANCH  14  15
ENDBRANCH  13  14
BRANCH  13  18
HETATM   18  C   UNL     1      -7.917  17.719  68.492  1.00  0.00    -0.294 C  
BRANCH  18  19
HETATM   19  C   UNL     1      -8.232  19.229  68.619  1.00  0.00    -0.408 C  
BRANCH  19  20
HETATM   20  C   UNL     1      -9.726  19.581  68.497  1.00  0.00    -0.503 C  
HETATM   21  C   UNL     1      -9.988  20.388  67.220  1.00  0.00    -0.564 C  
ENDBRANCH  19  20
ENDBRANCH  18  19
ENDBRANCH  13  18
ENDBRANCH   8  13
ENDBRANCH   5   6
BRANCH   5  22
HETATM   22  C   UNL     1     -11.147   9.659  68.503  1.00  0.00    -0.041 C  
BRANCH  22  23
HETATM   23  C   UNL     1      -9.828   9.059  69.025  1.00  0.00    -0.178 C  
BRANCH  23  24
HETATM   24  C   UNL     1      -8.777  10.094  69.449  1.00  0.00    -0.186 C  
HETATM   25  C   UNL     1      -8.062  10.667  68.220  1.00  0.00    -0.118 C  
ENDBRANCH  23  24
ENDBRANCH  22  23
ENDBRANCH   5  22
ENDBRANCH   4   5
ENDBRANCH   3   4
ENDBRANCH   2   3
TORSDOF 14
ENDMDL
MODEL       66
REMARK 921   NORMALIZED FREE ENERGY PREDICTED BY IDOCK:   -3.95 KCAL/MOL
REMARK 922        TOTAL FREE ENERGY PREDICTED BY IDOCK:   -8.56 KCAL/MOL
REMARK 923 INTER-LIGAND FREE ENERGY PREDICTED BY IDOCK:   -7.32 KCAL/MOL
REMARK 924 INTRA-LIGAND FREE ENERGY PREDICTED BY IDOCK:   -1.24 KCAL/MOL
REMARK 927      BINDING AFFINITY PREDICTED BY RF-SCORE:    0.00 PKD
ROOT
HETATM    1  C   UNL     1     -12.035  12.952  63.739  1.00  0.00    -0.582 C  
HETATM    2  C   UNL     1     -10.937  11.888  63.775  1.00  0.00    -0.494 C  
ENDROOT
BRANCH   2   3
HETATM    3  C   UNL     1     -10.257  11.825  65.156  1.00  0.00    -0.309 C  
BRANCH   3   4
HETATM    4  C   UNL     1     -10.878  10.730  66.050  1.00  0.00    -0.032 C  
BRANCH   4   5
HETATM    5  N   UNL     1     -10.556  10.901  67.478  1.00  0.00    -0.214 NA 
BRANCH   5   6
HETATM    6  C   UNL     1     -10.273  12.233  67.997  1.00  0.00    -0.206 C  
HETATM    7  S   UNL     1      -8.545  12.833  68.167  1.00  0.00    -0.177 SA 
HETATM    8  C   UNL     1      -8.827  16.773  66.950  1.00  0.00    -0.218 C  
HETATM    9  S   UNL     1     -11.438  13.412  68.186  1.00  0.00    -0.326 SA 
HETATM   10 ZN   UNL     1      -9.653  14.599  67.752  1.00  0.00    -0.192 Zn 
HETATM   11  S   UNL     1      -8.710  16.385  68.561  1.00  0.00    -0.233 SA 
HETATM   12  S   UNL     1      -9.779  15.621  65.882  1.00  0.00    -0.353 SA 
BRANCH   8  13
HETATM   13  N   UNL     1      -7.999  17.780  66.343  1.00  0.00    -0.296 NA 
BRANCH  13  14
HETATM   14  C   UNL     1      -8.561  19.029  65.830  1.00  0.00     0.106 C  
BRANCH  14  15
HETATM   15  C   UNL     1     -10.026  19.240  66.287  1.00  0.00    -0.484 C  
BRANCH  15  16
HETATM   16  C   UNL     1     -10.222  20.387  67.297  1.00  0.00    -0.432 C  
HETATM   17  C   UNL     1     -10.103  19.874  68.737  1.00  0.00    -0.487 C  
ENDBRANCH  15  16
ENDBRANCH  14  15
ENDBRANCH  13  14
BRANCH  13  18
HETATM   18  C   UNL     1      -6.550  17.565  66.258  1.00  0.00    -0.260 C  
BRANCH  18  19
HETATM   19  C   UNL     1      -5.747  18.724  66.896  1.00  0.00    -0.161 C  
BRANCH  19  20
HETATM   20  C   UNL     1      -5.880  18.825  68.426  1.00  0.00    -0.207 C  
HETATM   21  C   UNL     1      -6.382  20.215  68.835  1.00  0.00    -0.358 C  
ENDBRANCH  19  20
ENDBRANCH  18  19
ENDBRANCH  13  18
ENDBRANCH   8  13
ENDBRANCH   5   6
BRANCH   5  22
HETATM   22  C   UNL     1     -10.590   9.731  68.366  1.00  0.00    -0.226 C  
BRANCH  22  23
HETATM   23  C   UNL     1     -10.201  10.000  69.832  1.00  0.00    -0.304 C  
BRANCH  23  24
HETATM   24  C   UNL     1     -11.337   9.797  70.843  1.00  0.00    -0.439 C  
HETATM   25  C   UNL     1     -12.540  10.676  70.483  1.00  0.00    -0.433 C  
ENDBRANCH  23  24
ENDBRANCH  22  23
ENDBRANCH   5  22
ENDBRANCH   4   5
ENDBRANCH   3   4
ENDBRANCH   2   3
TORSDOF 14
ENDMDL
MODEL       67
REMARK 921   NORMALIZED FREE ENERGY PREDICTED BY IDOCK:   -3.94 KCAL/MOL
REMARK 922        TOTAL FREE ENERGY PREDICTED BY IDOCK:   -8.55 KCAL/MOL
REMARK 923 INTER-LIGAND FREE ENERGY PREDICTED BY IDOCK:   -7.52 KCAL/MOL
REMARK 924 INTRA-LIGAND FREE ENERGY PREDICTED BY IDOCK:   -1.03 KCAL/MOL
REMARK 927      BINDING AFFINITY PREDICTED BY RF-SCORE:    0.00 PKD
ROOT
HETATM    1  C   UNL     1      -7.283   7.651  68.452  1.00  0.00    -0.090 C  
HETATM    2  C   UNL     1      -7.020   8.393  69.763  1.00  0.00    -0.047 C  
ENDROOT
BRANCH   2   3
HETATM    3  C   UNL     1      -7.974   9.590  69.937  1.00  0.00    -0.154 C  
BRANCH   3   4
HETATM    4  C   UNL     1      -9.233   9.203  70.743  1.00  0.00    -0.262 C  
BRANCH   4   5
HETATM    5  N   UNL     1     -10.387   8.876  69.886  1.00  0.00    -0.200 NA 
BRANCH   5   6
HETATM    6  C   UNL     1     -10.920   9.887  68.982  1.00  0.00    -0.190 C  
HETATM    7  S   UNL     1     -11.922  11.289  69.617  1.00  0.00    -0.355 SA 
HETATM    8  C   UNL     1     -10.564  14.474  67.358  1.00  0.00    -0.271 C  
HETATM    9  S   UNL     1     -10.439  10.043  67.392  1.00  0.00    -0.270 SA 
HETATM   10 ZN   UNL     1     -10.925  12.108  67.928  1.00  0.00    -0.188 Zn 
HETATM   11  S   UNL     1     -12.025  13.754  67.026  1.00  0.00    -0.402 SA 
HETATM   12  S   UNL     1      -9.210  13.379  67.945  1.00  0.00    -0.224 SA 
BRANCH   8  13
HETATM   13  N   UNL     1     -10.421  15.900  67.474  1.00  0.00    -0.292 NA 
BRANCH  13  14
HETATM   14  C   UNL     1     -11.134  16.662  68.498  1.00  0.00    -0.301 C  
BRANCH  14  15
HETATM   15  C   UNL     1     -10.893  16.096  69.920  1.00  0.00    -0.355 C  
BRANCH  15  16
HETATM   16  C   UNL     1     -12.179  15.756  70.699  1.00  0.00    -0.422 C  
HETATM   17  C   UNL     1     -11.992  16.008  72.200  1.00  0.00    -0.629 C  
ENDBRANCH  15  16
ENDBRANCH  14  15
ENDBRANCH  13  14
BRANCH  13  18
HETATM   18  C   UNL     1      -9.518  16.609  66.561  1.00  0.00    -0.266 C  
BRANCH  18  19
HETATM   19  C   UNL     1      -8.927  17.889  67.198  1.00  0.00    -0.252 C  
BRANCH  19  20
HETATM   20  C   UNL     1      -9.005  19.140  66.305  1.00  0.00    -0.320 C  
HETATM   21  C   UNL     1     -10.460  19.592  66.134  1.00  0.00    -0.613 C  
ENDBRANCH  19  20
ENDBRANCH  18  19
ENDBRANCH  13  18
ENDBRANCH   8  13
ENDBRANCH   5   6
BRANCH   5  22
HETATM   22  C   UNL     1     -10.937   7.514  69.913  1.00  0.00    -0.211 C  
BRANCH  22  23
HETATM   23  C   UNL     1     -11.501   7.054  71.271  1.00  0.00    -0.324 C  
BRANCH  23  24
HETATM   24  C   UNL     1     -12.568   7.981  71.869  1.00  0.00    -0.359 C  
HETATM   25  C   UNL     1     -13.969   7.405  71.639  1.00  0.00    -0.523 C  
ENDBRANCH  23  24
ENDBRANCH  22  23
ENDBRANCH   5  22
ENDBRANCH   4   5
ENDBRANCH   3   4
ENDBRANCH   2   3
TORSDOF 14
ENDMDL
MODEL       68
REMARK 921   NORMALIZED FREE ENERGY PREDICTED BY IDOCK:   -3.93 KCAL/MOL
REMARK 922        TOTAL FREE ENERGY PREDICTED BY IDOCK:   -8.54 KCAL/MOL
REMARK 923 INTER-LIGAND FREE ENERGY PREDICTED BY IDOCK:   -7.41 KCAL/MOL
REMARK 924 INTRA-LIGAND FREE ENERGY PREDICTED BY IDOCK:   -1.13 KCAL/MOL
REMARK 927      BINDING AFFINITY PREDICTED BY RF-SCORE:    0.00 PKD
ROOT
HETATM    1  C   UNL     1     -12.282  12.286  63.553  1.00  0.00    -0.669 C  
HETATM    2  C   UNL     1     -10.760  12.290  63.401  1.00  0.00    -0.438 C  
ENDROOT
BRANCH   2   3
HETATM    3  C   UNL     1     -10.154  10.919  63.759  1.00  0.00    -0.413 C  
BRANCH   3   4
HETATM    4  C   UNL     1      -9.231  11.009  64.993  1.00  0.00    -0.197 C  
BRANCH   4   5
HETATM    5  N   UNL     1      -9.960  10.878  66.268  1.00  0.00    -0.219 NA 
BRANCH   5   6
HETATM    6  C   UNL     1     -10.084  12.034  67.146  1.00  0.00    -0.201 C  
HETATM    7  S   UNL     1      -8.599  12.820  67.889  1.00  0.00    -0.192 SA 
HETATM    8  C   UNL     1      -9.477  16.851  67.626  1.00  0.00    -0.241 C  
HETATM    9  S   UNL     1     -11.491  12.916  67.312  1.00  0.00    -0.356 SA 
HETATM   10 ZN   UNL     1      -9.956  14.438  67.644  1.00  0.00    -0.207 Zn 
HETATM   11  S   UNL     1      -9.608  16.042  69.072  1.00  0.00    -0.260 SA 
HETATM   12  S   UNL     1      -9.918  15.918  66.106  1.00  0.00    -0.340 SA 
BRANCH   8  13
HETATM   13  N   UNL     1      -8.782  18.104  67.510  1.00  0.00    -0.247 NA 
BRANCH  13  14
HETATM   14  C   UNL     1      -8.611  18.997  68.656  1.00  0.00    -0.354 C  
BRANCH  14  15
HETATM   15  C   UNL     1      -7.615  20.145  68.357  1.00  0.00    -0.170 C  
BRANCH  15  16
HETATM   16  C   UNL     1      -6.263  20.025  69.089  1.00  0.00    -0.355 C  
HETATM   17  C   UNL     1      -6.049  18.599  69.610  1.00  0.00    -0.271 C  
ENDBRANCH  15  16
ENDBRANCH  14  15
ENDBRANCH  13  14
BRANCH  13  18
HETATM   18  C   UNL     1      -8.204  18.490  66.217  1.00  0.00    -0.225 C  
BRANCH  18  19
HETATM   19  C   UNL     1      -6.812  17.855  65.985  1.00  0.00    -0.336 C  
BRANCH  19  20
HETATM   20  C   UNL     1      -5.787  18.792  65.323  1.00  0.00    -0.283 C  
HETATM   21  C   UNL     1      -6.457  20.096  64.875  1.00  0.00    -0.328 C  
ENDBRANCH  19  20
ENDBRANCH  18  19
ENDBRANCH  13  18
ENDBRANCH   8  13
ENDBRANCH   5   6
BRANCH   5  22
HETATM   22  C   UNL     1     -10.604   9.600  66.598  1.00  0.00    -0.103 C  
BRANCH  22  23
HETATM   23  C   UNL     1      -9.712   8.352  66.455  1.00  0.00    -0.330 C  
BRANCH  23  24
HETATM   24  C   UNL     1      -9.922   7.287  67.540  1.00  0.00    -0.218 C  
HETATM   25  C   UNL     1     -10.987   6.275  67.100  1.00  0.00    -0.453 C  
ENDBRANCH  23  24
ENDBRANCH  22  23
ENDBRANCH   5  22
ENDBRANCH   4   5
ENDBRANCH   3   4
ENDBRANCH   2   3
TORSDOF 14
ENDMDL
MODEL       69
REMARK 921   NORMALIZED FREE ENERGY PREDICTED BY IDOCK:   -3.92 KCAL/MOL
REMARK 922        TOTAL FREE ENERGY PREDICTED BY IDOCK:   -8.52 KCAL/MOL
REMARK 923 INTER-LIGAND FREE ENERGY PREDICTED BY IDOCK:   -7.47 KCAL/MOL
REMARK 924 INTRA-LIGAND FREE ENERGY PREDICTED BY IDOCK:   -1.04 KCAL/MOL
REMARK 927      BINDING AFFINITY PREDICTED BY RF-SCORE:    0.00 PKD
ROOT
HETATM    1  C   UNL     1      -7.655   7.309  62.964  1.00  0.00    -0.112 C  
HETATM    2  C   UNL     1      -8.217   8.167  64.099  1.00  0.00    -0.083 C  
ENDROOT
BRANCH   2   3
HETATM    3  C   UNL     1      -7.534   7.844  65.442  1.00  0.00    -0.080 C  
BRANCH   3   4
HETATM    4  C   UNL     1      -7.763   8.961  66.482  1.00  0.00    -0.099 C  
BRANCH   4   5
HETATM    5  N   UNL     1      -9.145   8.995  66.995  1.00  0.00    -0.128 NA 
BRANCH   5   6
HETATM    6  C   UNL     1      -9.966  10.177  66.770  1.00  0.00    -0.211 C  
HETATM    7  S   UNL     1     -11.270  10.664  67.969  1.00  0.00    -0.276 SA 
HETATM    8  C   UNL     1     -10.904  14.779  68.091  1.00  0.00    -0.254 C  
HETATM    9  S   UNL     1      -9.618  11.333  65.618  1.00  0.00    -0.236 SA 
HETATM   10 ZN   UNL     1     -10.604  12.518  67.170  1.00  0.00    -0.213 Zn 
HETATM   11  S   UNL     1     -12.138  14.058  67.244  1.00  0.00    -0.297 SA 
HETATM   12  S   UNL     1      -9.284  13.913  68.103  1.00  0.00    -0.205 SA 
BRANCH   8  13
HETATM   13  N   UNL     1     -11.135  15.860  69.011  1.00  0.00    -0.272 NA 
BRANCH  13  14
HETATM   14  C   UNL     1     -10.368  17.103  68.944  1.00  0.00    -0.348 C  
BRANCH  14  15
HETATM   15  C   UNL     1     -10.518  17.807  67.571  1.00  0.00    -0.376 C  
BRANCH  15  16
HETATM   16  C   UNL     1     -10.430  19.345  67.629  1.00  0.00    -0.573 C  
HETATM   17  C   UNL     1     -10.054  19.923  66.259  1.00  0.00    -0.613 C  
ENDBRANCH  15  16
ENDBRANCH  14  15
ENDBRANCH  13  14
BRANCH  13  18
HETATM   18  C   UNL     1     -12.185  15.727  70.027  1.00  0.00    -0.285 C  
BRANCH  18  19
HETATM   19  C   UNL     1     -11.619  15.293  71.400  1.00  0.00    -0.446 C  
BRANCH  19  20
HETATM   20  C   UNL     1     -12.083  16.160  72.584  1.00  0.00    -0.652 C  
HETATM   21  C   UNL     1     -12.730  15.291  73.669  1.00  0.00    -0.703 C  
ENDBRANCH  19  20
ENDBRANCH  18  19
ENDBRANCH  13  18
ENDBRANCH   8  13
ENDBRANCH   5   6
BRANCH   5  22
HETATM   22  C   UNL     1      -9.689   7.808  67.667  1.00  0.00    -0.155 C  
BRANCH  22  23
HETATM   23  C   UNL     1     -10.781   7.048  66.890  1.00  0.00    -0.376 C  
BRANCH  23  24
HETATM   24  C   UNL     1     -10.553   5.535  66.779  1.00  0.00    -0.360 C  
HETATM   25  C   UNL     1      -9.221   5.144  67.430  1.00  0.00    -0.121 C  
ENDBRANCH  23  24
ENDBRANCH  22  23
ENDBRANCH   5  22
ENDBRANCH   4   5
ENDBRANCH   3   4
ENDBRANCH   2   3
TORSDOF 14
ENDMDL
MODEL       70
REMARK 921   NORMALIZED FREE ENERGY PREDICTED BY IDOCK:   -3.92 KCAL/MOL
REMARK 922        TOTAL FREE ENERGY PREDICTED BY IDOCK:   -8.51 KCAL/MOL
REMARK 923 INTER-LIGAND FREE ENERGY PREDICTED BY IDOCK:   -7.41 KCAL/MOL
REMARK 924 INTRA-LIGAND FREE ENERGY PREDICTED BY IDOCK:   -1.10 KCAL/MOL
REMARK 927      BINDING AFFINITY PREDICTED BY RF-SCORE:    0.00 PKD
ROOT
HETATM    1  C   UNL     1     -10.654  19.244  65.811  1.00  0.00    -0.450 C  
HETATM    2  C   UNL     1      -9.826  20.255  66.606  1.00  0.00    -0.562 C  
ENDROOT
BRANCH   2   3
HETATM    3  C   UNL     1     -10.037  20.089  68.123  1.00  0.00    -0.547 C  
BRANCH   3   4
HETATM    4  C   UNL     1      -9.858  18.621  68.567  1.00  0.00    -0.386 C  
BRANCH   4   5
HETATM    5  N   UNL     1      -8.452  18.180  68.542  1.00  0.00    -0.305 NA 
BRANCH   5   6
HETATM    6  C   UNL     1      -8.129  16.835  68.082  1.00  0.00    -0.197 C  
HETATM    7  S   UNL     1      -7.825  15.475  69.279  1.00  0.00    -0.229 SA 
HETATM    8  C   UNL     1      -9.709  12.257  67.497  1.00  0.00    -0.190 C  
HETATM    9  S   UNL     1      -8.300  16.339  66.498  1.00  0.00    -0.326 SA 
HETATM   10 ZN   UNL     1      -8.677  14.487  67.601  1.00  0.00    -0.145 Zn 
HETATM   11  S   UNL     1      -8.055  12.408  67.452  1.00  0.00    -0.184 SA 
HETATM   12  S   UNL     1     -10.691  13.807  67.403  1.00  0.00    -0.277 SA 
BRANCH   8  13
HETATM   13  N   UNL     1     -10.357  11.032  67.883  1.00  0.00    -0.180 NA 
BRANCH  13  14
HETATM   14  C   UNL     1     -10.423   9.882  66.982  1.00  0.00    -0.230 C  
BRANCH  14  15
HETATM   15  C   UNL     1     -10.198  10.286  65.503  1.00  0.00    -0.308 C  
BRANCH  15  16
HETATM   16  C   UNL     1      -8.990   9.603  64.831  1.00  0.00    -0.260 C  
HETATM   17  C   UNL     1      -8.200   8.767  65.845  1.00  0.00    -0.118 C  
ENDBRANCH  15  16
ENDBRANCH  14  15
ENDBRANCH  13  14
BRANCH  13  18
HETATM   18  C   UNL     1     -10.943  10.919  69.223  1.00  0.00    -0.244 C  
BRANCH  18  19
HETATM   19  C   UNL     1     -10.796   9.495  69.809  1.00  0.00    -0.264 C  
BRANCH  19  20
HETATM   20  C   UNL     1     -11.168   9.377  71.298  1.00  0.00    -0.437 C  
HETATM   21  C   UNL     1     -10.094   8.594  72.063  1.00  0.00    -0.401 C  
ENDBRANCH  19  20
ENDBRANCH  18  19
ENDBRANCH  13  18
ENDBRANCH   8  13
ENDBRANCH   5   6
BRANCH   5  22
HETATM   22  C   UNL     1      -7.395  19.128  68.919  1.00  0.00    -0.344 C  
BRANCH  22  23
HETATM   23  C   UNL     1      -6.026  18.893  68.254  1.00  0.00    -0.218 C  
BRANCH  23  24
HETATM   24  C   UNL     1      -5.570  20.015  67.311  1.00  0.00    -0.175 C  
HETATM   25  C   UNL     1      -6.526  21.210  67.398  1.00  0.00    -0.436 C  
ENDBRANCH  23  24
ENDBRANCH  22  23
ENDBRANCH   5  22
ENDBRANCH   4   5
ENDBRANCH   3   4
ENDBRANCH   2   3
TORSDOF 14
ENDMDL
MODEL       71
REMARK 921   NORMALIZED FREE ENERGY PREDICTED BY IDOCK:   -3.92 KCAL/MOL
REMARK 922        TOTAL FREE ENERGY PREDICTED BY IDOCK:   -8.50 KCAL/MOL
REMARK 923 INTER-LIGAND FREE ENERGY PREDICTED BY IDOCK:   -7.47 KCAL/MOL
REMARK 924 INTRA-LIGAND FREE ENERGY PREDICTED BY IDOCK:   -1.04 KCAL/MOL
REMARK 927      BINDING AFFINITY PREDICTED BY RF-SCORE:    0.00 PKD
ROOT
HETATM    1  C   UNL     1      -9.033   2.558  71.314  1.00  0.00    -0.146 C  
HETATM    2  C   UNL     1      -9.752   2.803  72.642  1.00  0.00    -0.190 C  
ENDROOT
BRANCH   2   3
HETATM    3  C   UNL     1     -10.557   4.117  72.614  1.00  0.00    -0.200 C  
BRANCH   3   4
HETATM    4  C   UNL     1     -10.220   4.966  71.369  1.00  0.00    -0.187 C  
BRANCH   4   5
HETATM    5  N   UNL     1     -10.788   6.325  71.429  1.00  0.00    -0.251 NA 
BRANCH   5   6
HETATM    6  C   UNL     1     -10.046   7.440  70.856  1.00  0.00    -0.188 C  
HETATM    7  S   UNL     1      -9.780   7.565  69.042  1.00  0.00    -0.165 SA 
HETATM    8  C   UNL     1     -10.292  11.603  68.324  1.00  0.00    -0.200 C  
HETATM    9  S   UNL     1      -9.651   8.817  71.711  1.00  0.00    -0.286 SA 
HETATM   10 ZN   UNL     1      -9.878   9.591  69.678  1.00  0.00    -0.152 Zn 
HETATM   11  S   UNL     1      -8.773  10.931  68.367  1.00  0.00    -0.152 SA 
HETATM   12  S   UNL     1     -11.541  10.915  69.482  1.00  0.00    -0.341 SA 
BRANCH   8  13
HETATM   13  N   UNL     1     -10.717  12.468  67.256  1.00  0.00    -0.230 NA 
BRANCH  13  14
HETATM   14  C   UNL     1     -11.516  11.970  66.138  1.00  0.00    -0.339 C  
BRANCH  14  15
HETATM   15  C   UNL     1     -10.634  11.370  65.014  1.00  0.00    -0.359 C  
BRANCH  15  16
HETATM   16  C   UNL     1     -10.658  12.162  63.691  1.00  0.00    -0.504 C  
HETATM   17  C   UNL     1     -12.020  12.833  63.480  1.00  0.00    -0.633 C  
ENDBRANCH  15  16
ENDBRANCH  14  15
ENDBRANCH  13  14
BRANCH  13  18
HETATM   18  C   UNL     1     -10.366  13.892  67.300  1.00  0.00    -0.257 C  
BRANCH  18  19
HETATM   19  C   UNL     1     -11.603  14.793  67.531  1.00  0.00    -0.379 C  
BRANCH  19  20
HETATM   20  C   UNL     1     -11.882  15.128  69.007  1.00  0.00    -0.331 C  
HETATM   21  C   UNL     1     -10.568  15.307  69.778  1.00  0.00    -0.293 C  
ENDBRANCH  19  20
ENDBRANCH  18  19
ENDBRANCH  13  18
ENDBRANCH   8  13
ENDBRANCH   5   6
BRANCH   5  22
HETATM   22  C   UNL     1     -12.124   6.518  72.008  1.00  0.00    -0.312 C  
BRANCH  22  23
HETATM   23  C   UNL     1     -13.153   7.200  71.086  1.00  0.00    -0.294 C  
BRANCH  23  24
HETATM   24  C   UNL     1     -14.262   7.968  71.820  1.00  0.00    -0.550 C  
HETATM   25  C   UNL     1     -13.750   9.338  72.281  1.00  0.00    -0.527 C  
ENDBRANCH  23  24
ENDBRANCH  22  23
ENDBRANCH   5  22
ENDBRANCH   4   5
ENDBRANCH   3   4
ENDBRANCH   2   3
TORSDOF 14
ENDMDL
MODEL       72
REMARK 921   NORMALIZED FREE ENERGY PREDICTED BY IDOCK:   -3.90 KCAL/MOL
REMARK 922        TOTAL FREE ENERGY PREDICTED BY IDOCK:   -8.48 KCAL/MOL
REMARK 923 INTER-LIGAND FREE ENERGY PREDICTED BY IDOCK:   -6.88 KCAL/MOL
REMARK 924 INTRA-LIGAND FREE ENERGY PREDICTED BY IDOCK:   -1.60 KCAL/MOL
REMARK 927      BINDING AFFINITY PREDICTED BY RF-SCORE:    0.00 PKD
ROOT
HETATM    1  C   UNL     1     -10.387  18.084  66.092  1.00  0.00    -0.368 C  
HETATM    2  C   UNL     1      -9.361  17.236  66.845  1.00  0.00    -0.264 C  
ENDROOT
BRANCH   2   3
HETATM    3  C   UNL     1      -8.907  16.025  66.007  1.00  0.00    -0.314 C  
BRANCH   3   4
HETATM    4  C   UNL     1     -10.102  15.316  65.335  1.00  0.00    -0.362 C  
BRANCH   4   5
HETATM    5  N   UNL     1     -10.647  14.212  66.146  1.00  0.00    -0.288 NA 
BRANCH   5   6
HETATM    6  C   UNL     1      -9.852  13.008  66.347  1.00  0.00    -0.270 C  
HETATM    7  S   UNL     1      -8.580  12.925  67.670  1.00  0.00    -0.196 SA 
HETATM    8  C   UNL     1      -9.052   9.094  69.148  1.00  0.00    -0.144 C  
HETATM    9  S   UNL     1     -10.211  11.540  65.639  1.00  0.00    -0.259 SA 
HETATM   10 ZN   UNL     1      -9.280  10.924  67.519  1.00  0.00    -0.138 Zn 
HETATM   11  S   UNL     1      -7.787   9.468  68.138  1.00  0.00    -0.082 SA 
HETATM   12  S   UNL     1     -10.649   9.945  68.833  1.00  0.00    -0.225 SA 
BRANCH   8  13
HETATM   13  N   UNL     1      -8.863   8.378  70.380  1.00  0.00    -0.142 NA 
BRANCH  13  14
HETATM   14  C   UNL     1      -8.169   7.091  70.422  1.00  0.00    -0.124 C  
BRANCH  14  15
HETATM   15  C   UNL     1      -8.860   6.027  69.532  1.00  0.00    -0.125 C  
BRANCH  15  16
HETATM   16  C   UNL     1     -10.221   5.536  70.063  1.00  0.00    -0.337 C  
HETATM   17  C   UNL     1     -11.376   6.182  69.288  1.00  0.00    -0.361 C  
ENDBRANCH  15  16
ENDBRANCH  14  15
ENDBRANCH  13  14
BRANCH  13  18
HETATM   18  C   UNL     1      -9.352   8.962  71.634  1.00  0.00    -0.258 C  
BRANCH  18  19
HETATM   19  C   UNL     1      -9.571   7.894  72.732  1.00  0.00    -0.311 C  
BRANCH  19  20
HETATM   20  C   UNL     1     -11.046   7.544  72.995  1.00  0.00    -0.413 C  
HETATM   21  C   UNL     1     -11.972   8.562  72.319  1.00  0.00    -0.454 C  
ENDBRANCH  19  20
ENDBRANCH  18  19
ENDBRANCH  13  18
ENDBRANCH   8  13
ENDBRANCH   5   6
BRANCH   5  22
HETATM   22  C   UNL     1     -11.956  14.375  66.792  1.00  0.00    -0.399 C  
BRANCH  22  23
HETATM   23  C   UNL     1     -11.923  14.956  68.219  1.00  0.00    -0.245 C  
BRANCH  23  24
HETATM   24  C   UNL     1     -12.020  13.911  69.339  1.00  0.00    -0.402 C  
HETATM   25  C   UNL     1     -12.289  14.592  70.685  1.00  0.00    -0.398 C  
ENDBRANCH  23  24
ENDBRANCH  22  23
ENDBRANCH   5  22
ENDBRANCH   4   5
ENDBRANCH   3   4
ENDBRANCH   2   3
TORSDOF 14
ENDMDL
MODEL       73
REMARK 921   NORMALIZED FREE ENERGY PREDICTED BY IDOCK:   -3.90 KCAL/MOL
REMARK 922        TOTAL FREE ENERGY PREDICTED BY IDOCK:   -8.47 KCAL/MOL
REMARK 923 INTER-LIGAND FREE ENERGY PREDICTED BY IDOCK:   -7.25 KCAL/MOL
REMARK 924 INTRA-LIGAND FREE ENERGY PREDICTED BY IDOCK:   -1.22 KCAL/MOL
REMARK 927      BINDING AFFINITY PREDICTED BY RF-SCORE:    0.00 PKD
ROOT
HETATM    1  C   UNL     1     -10.576  18.903  65.825  1.00  0.00    -0.358 C  
HETATM    2  C   UNL     1     -10.759  19.767  67.074  1.00  0.00    -0.542 C  
ENDROOT
BRANCH   2   3
HETATM    3  C   UNL     1      -9.460  20.511  67.441  1.00  0.00    -0.551 C  
BRANCH   3   4
HETATM    4  C   UNL     1      -8.697  19.797  68.577  1.00  0.00    -0.227 C  
BRANCH   4   5
HETATM    5  N   UNL     1      -7.420  19.210  68.132  1.00  0.00    -0.272 NA 
BRANCH   5   6
HETATM    6  C   UNL     1      -7.355  17.790  67.812  1.00  0.00    -0.202 C  
HETATM    7  S   UNL     1      -7.468  16.517  69.132  1.00  0.00    -0.178 SA 
HETATM    8  C   UNL     1      -9.832  13.607  67.392  1.00  0.00    -0.234 C  
HETATM    9  S   UNL     1      -7.482  17.191  66.260  1.00  0.00    -0.271 SA 
HETATM   10 ZN   UNL     1      -8.353  15.573  67.446  1.00  0.00    -0.135 Zn 
HETATM   11  S   UNL     1      -8.187  13.406  67.521  1.00  0.00    -0.193 SA 
HETATM   12  S   UNL     1     -10.439  15.312  67.075  1.00  0.00    -0.297 SA 
BRANCH   8  13
HETATM   13  N   UNL     1     -10.763  12.587  67.791  1.00  0.00    -0.214 NA 
BRANCH  13  14
HETATM   14  C   UNL     1     -10.853  12.130  69.177  1.00  0.00    -0.115 C  
BRANCH  14  15
HETATM   15  C   UNL     1     -11.740  10.868  69.318  1.00  0.00    -0.395 C  
BRANCH  15  16
HETATM   16  C   UNL     1     -11.000   9.623  69.848  1.00  0.00    -0.281 C  
HETATM   17  C   UNL     1      -9.481   9.806  69.748  1.00  0.00    -0.253 C  
ENDBRANCH  15  16
ENDBRANCH  14  15
ENDBRANCH  13  14
BRANCH  13  18
HETATM   18  C   UNL     1     -11.666  12.006  66.792  1.00  0.00    -0.264 C  
BRANCH  18  19
HETATM   19  C   UNL     1     -10.921  11.594  65.499  1.00  0.00    -0.327 C  
BRANCH  19  20
HETATM   20  C   UNL     1     -10.046  10.335  65.640  1.00  0.00    -0.341 C  
HETATM   21  C   UNL     1      -9.214  10.111  64.373  1.00  0.00    -0.306 C  
ENDBRANCH  19  20
ENDBRANCH  18  19
ENDBRANCH  13  18
ENDBRANCH   8  13
ENDBRANCH   5   6
BRANCH   5  22
HETATM   22  C   UNL     1      -6.251  20.083  67.956  1.00  0.00    -0.239 C  
BRANCH  22  23
HETATM   23  C   UNL     1      -5.662  20.670  69.253  1.00  0.00    -0.408 C  
BRANCH  23  24
HETATM   24  C   UNL     1      -5.226  19.626  70.289  1.00  0.00    -0.227 C  
HETATM   25  C   UNL     1      -5.666  20.049  71.696  1.00  0.00    -0.413 C  
ENDBRANCH  23  24
ENDBRANCH  22  23
ENDBRANCH   5  22
ENDBRANCH   4   5
ENDBRANCH   3   4
ENDBRANCH   2   3
TORSDOF 14
ENDMDL
MODEL       74
REMARK 921   NORMALIZED FREE ENERGY PREDICTED BY IDOCK:   -3.89 KCAL/MOL
REMARK 922        TOTAL FREE ENERGY PREDICTED BY IDOCK:   -8.46 KCAL/MOL
REMARK 923 INTER-LIGAND FREE ENERGY PREDICTED BY IDOCK:   -7.28 KCAL/MOL
REMARK 924 INTRA-LIGAND FREE ENERGY PREDICTED BY IDOCK:   -1.18 KCAL/MOL
REMARK 927      BINDING AFFINITY PREDICTED BY RF-SCORE:    0.00 PKD
ROOT
HETATM    1  C   UNL     1      -6.723  18.588  66.933  1.00  0.00    -0.205 C  
HETATM    2  C   UNL     1      -7.151  18.447  68.395  1.00  0.00    -0.276 C  
ENDROOT
BRANCH   2   3
HETATM    3  C   UNL     1      -7.922  17.134  68.632  1.00  0.00    -0.265 C  
BRANCH   3   4
HETATM    4  C   UNL     1      -8.130  16.348  67.320  1.00  0.00    -0.171 C  
BRANCH   4   5
HETATM    5  N   UNL     1      -9.542  16.007  67.071  1.00  0.00    -0.217 NA 
BRANCH   5   6
HETATM    6  C   UNL     1      -9.928  14.609  66.922  1.00  0.00    -0.253 C  
HETATM    7  S   UNL     1      -8.780  13.256  67.397  1.00  0.00    -0.216 SA 
HETATM    8  C   UNL     1     -11.299  10.514  69.192  1.00  0.00    -0.257 C  
HETATM    9  S   UNL     1     -11.492  14.115  66.616  1.00  0.00    -0.382 SA 
HETATM   10 ZN   UNL     1     -10.705  12.442  67.784  1.00  0.00    -0.197 Zn 
HETATM   11  S   UNL     1     -10.735  10.271  67.648  1.00  0.00    -0.301 SA 
HETATM   12  S   UNL     1     -11.654  12.247  69.686  1.00  0.00    -0.243 SA 
BRANCH   8  13
HETATM   13  N   UNL     1     -11.242   9.489  70.198  1.00  0.00    -0.244 NA 
BRANCH  13  14
HETATM   14  C   UNL     1     -12.095   9.529  71.385  1.00  0.00    -0.378 C  
BRANCH  14  15
HETATM   15  C   UNL     1     -13.597   9.399  71.028  1.00  0.00    -0.120 C  
BRANCH  15  16
HETATM   16  C   UNL     1     -14.405   8.497  71.983  1.00  0.00    -0.537 C  
HETATM   17  C   UNL     1     -14.289   7.024  71.572  1.00  0.00    -0.435 C  
ENDBRANCH  15  16
ENDBRANCH  14  15
ENDBRANCH  13  14
BRANCH  13  18
HETATM   18  C   UNL     1     -10.325   8.357  70.021  1.00  0.00    -0.211 C  
BRANCH  18  19
HETATM   19  C   UNL     1     -11.062   6.996  70.050  1.00  0.00    -0.316 C  
BRANCH  19  20
HETATM   20  C   UNL     1     -11.132   6.280  68.689  1.00  0.00    -0.409 C  
HETATM   21  C   UNL     1     -10.176   6.935  67.685  1.00  0.00    -0.235 C  
ENDBRANCH  19  20
ENDBRANCH  18  19
ENDBRANCH  13  18
ENDBRANCH   8  13
ENDBRANCH   5   6
BRANCH   5  22
HETATM   22  C   UNL     1     -10.546  17.079  67.044  1.00  0.00    -0.226 C  
BRANCH  22  23
HETATM   23  C   UNL     1     -10.460  18.036  65.840  1.00  0.00    -0.268 C  
BRANCH  23  24
HETATM   24  C   UNL     1     -10.073  19.478  66.194  1.00  0.00    -0.557 C  
HETATM   25  C   UNL     1     -10.817  19.940  67.452  1.00  0.00    -0.365 C  
ENDBRANCH  23  24
ENDBRANCH  22  23
ENDBRANCH   5  22
ENDBRANCH   4   5
ENDBRANCH   3   4
ENDBRANCH   2   3
TORSDOF 14
ENDMDL
MODEL       75
REMARK 921   NORMALIZED FREE ENERGY PREDICTED BY IDOCK:   -3.89 KCAL/MOL
REMARK 922        TOTAL FREE ENERGY PREDICTED BY IDOCK:   -8.45 KCAL/MOL
REMARK 923 INTER-LIGAND FREE ENERGY PREDICTED BY IDOCK:   -7.68 KCAL/MOL
REMARK 924 INTRA-LIGAND FREE ENERGY PREDICTED BY IDOCK:   -0.78 KCAL/MOL
REMARK 927      BINDING AFFINITY PREDICTED BY RF-SCORE:    0.00 PKD
ROOT
HETATM    1  C   UNL     1     -13.646  15.516  72.924  1.00  0.00    -0.633 C  
HETATM    2  C   UNL     1     -13.497  14.842  71.559  1.00  0.00    -0.473 C  
ENDROOT
BRANCH   2   3
HETATM    3  C   UNL     1     -12.679  15.713  70.586  1.00  0.00    -0.443 C  
BRANCH   3   4
HETATM    4  C   UNL     1     -11.367  15.018  70.162  1.00  0.00    -0.269 C  
BRANCH   4   5
HETATM    5  N   UNL     1     -10.838  15.521  68.881  1.00  0.00    -0.241 NA 
BRANCH   5   6
HETATM    6  C   UNL     1     -10.735  14.619  67.742  1.00  0.00    -0.265 C  
HETATM    7  S   UNL     1      -9.137  13.822  67.309  1.00  0.00    -0.242 SA 
HETATM    8  C   UNL     1     -10.287   9.994  66.255  1.00  0.00    -0.165 C  
HETATM    9  S   UNL     1     -12.059  13.998  66.938  1.00  0.00    -0.385 SA 
HETATM   10 ZN   UNL     1     -10.591  12.392  66.709  1.00  0.00    -0.215 Zn 
HETATM   11  S   UNL     1      -9.890  11.114  65.095  1.00  0.00    -0.276 SA 
HETATM   12  S   UNL     1     -11.147  10.615  67.755  1.00  0.00    -0.306 SA 
BRANCH   8  13
HETATM   13  N   UNL     1      -9.743   8.662  66.253  1.00  0.00    -0.258 NA 
BRANCH  13  14
HETATM   14  C   UNL     1      -8.416   8.376  65.709  1.00  0.00    -0.156 C  
BRANCH  14  15
HETATM   15  C   UNL     1      -7.286   8.977  66.582  1.00  0.00    -0.086 C  
BRANCH  15  16
HETATM   16  C   UNL     1      -6.413   7.933  67.306  1.00  0.00    -0.056 C  
HETATM   17  C   UNL     1      -6.302   8.255  68.801  1.00  0.00    -0.049 C  
ENDBRANCH  15  16
ENDBRANCH  14  15
ENDBRANCH  13  14
BRANCH  13  18
HETATM   18  C   UNL     1     -10.525   7.565  66.834  1.00  0.00    -0.315 C  
BRANCH  18  19
HETATM   19  C   UNL     1     -10.066   7.215  68.270  1.00  0.00    -0.187 C  
BRANCH  19  20
HETATM   20  C   UNL     1     -10.846   6.061  68.925  1.00  0.00    -0.400 C  
HETATM   21  C   UNL     1     -11.336   6.464  70.321  1.00  0.00    -0.468 C  
ENDBRANCH  19  20
ENDBRANCH  18  19
ENDBRANCH  13  18
ENDBRANCH   8  13
ENDBRANCH   5   6
BRANCH   5  22
HETATM   22  C   UNL     1     -10.484  16.942  68.760  1.00  0.00    -0.343 C  
BRANCH  22  23
HETATM   23  C   UNL     1     -10.408  17.485  67.320  1.00  0.00    -0.337 C  
BRANCH  23  24
HETATM   24  C   UNL     1     -10.747  18.975  67.178  1.00  0.00    -0.541 C  
HETATM   25  C   UNL     1     -10.216  19.762  68.382  1.00  0.00    -0.568 C  
ENDBRANCH  23  24
ENDBRANCH  22  23
ENDBRANCH   5  22
ENDBRANCH   4   5
ENDBRANCH   3   4
ENDBRANCH   2   3
TORSDOF 14
ENDMDL
MODEL       76
REMARK 921   NORMALIZED FREE ENERGY PREDICTED BY IDOCK:   -3.89 KCAL/MOL
REMARK 922        TOTAL FREE ENERGY PREDICTED BY IDOCK:   -8.45 KCAL/MOL
REMARK 923 INTER-LIGAND FREE ENERGY PREDICTED BY IDOCK:   -7.22 KCAL/MOL
REMARK 924 INTRA-LIGAND FREE ENERGY PREDICTED BY IDOCK:   -1.23 KCAL/MOL
REMARK 927      BINDING AFFINITY PREDICTED BY RF-SCORE:    0.00 PKD
ROOT
HETATM    1  C   UNL     1      -6.424  19.631  67.764  1.00  0.00    -0.244 C  
HETATM    2  C   UNL     1      -7.256  18.937  68.843  1.00  0.00    -0.349 C  
ENDROOT
BRANCH   2   3
HETATM    3  C   UNL     1      -7.417  17.432  68.550  1.00  0.00    -0.251 C  
BRANCH   3   4
HETATM    4  C   UNL     1      -7.739  17.172  67.063  1.00  0.00    -0.189 C  
BRANCH   4   5
HETATM    5  N   UNL     1      -9.029  16.484  66.866  1.00  0.00    -0.207 NA 
BRANCH   5   6
HETATM    6  C   UNL     1      -9.045  15.057  66.576  1.00  0.00    -0.286 C  
HETATM    7  S   UNL     1      -7.892  13.907  67.427  1.00  0.00    -0.125 SA 
HETATM    8  C   UNL     1     -10.273  10.608  68.159  1.00  0.00    -0.168 C  
HETATM    9  S   UNL     1     -10.263  14.307  65.717  1.00  0.00    -0.349 SA 
HETATM   10 ZN   UNL     1      -9.621  12.720  67.079  1.00  0.00    -0.191 Zn 
HETATM   11  S   UNL     1      -9.161  10.600  66.924  1.00  0.00    -0.156 SA 
HETATM   12  S   UNL     1     -11.124  12.200  68.502  1.00  0.00    -0.273 SA 
BRANCH   8  13
HETATM   13  N   UNL     1     -10.372   9.533  69.109  1.00  0.00    -0.199 NA 
BRANCH  13  14
HETATM   14  C   UNL     1     -10.394   8.134  68.686  1.00  0.00    -0.200 C  
BRANCH  14  15
HETATM   15  C   UNL     1      -9.536   7.232  69.609  1.00  0.00    -0.155 C  
BRANCH  15  16
HETATM   16  C   UNL     1     -10.186   5.882  69.967  1.00  0.00    -0.286 C  
HETATM   17  C   UNL     1     -10.642   5.865  71.432  1.00  0.00    -0.309 C  
ENDBRANCH  15  16
ENDBRANCH  14  15
ENDBRANCH  13  14
BRANCH  13  18
HETATM   18  C   UNL     1     -10.424   9.843  70.542  1.00  0.00    -0.264 C  
BRANCH  18  19
HETATM   19  C   UNL     1     -11.735   9.350  71.201  1.00  0.00    -0.418 C  
BRANCH  19  20
HETATM   20  C   UNL     1     -12.981  10.176  70.837  1.00  0.00    -0.432 C  
HETATM   21  C   UNL     1     -13.183  11.319  71.838  1.00  0.00    -0.491 C  
ENDBRANCH  19  20
ENDBRANCH  18  19
ENDBRANCH  13  18
ENDBRANCH   8  13
ENDBRANCH   5   6
BRANCH   5  22
HETATM   22  C   UNL     1     -10.277  17.241  67.031  1.00  0.00    -0.320 C  
BRANCH  22  23
HETATM   23  C   UNL     1     -10.587  18.259  65.918  1.00  0.00    -0.274 C  
BRANCH  23  24
HETATM   24  C   UNL     1     -10.373  19.727  66.314  1.00  0.00    -0.626 C  
HETATM   25  C   UNL     1     -10.546  19.905  67.826  1.00  0.00    -0.460 C  
ENDBRANCH  23  24
ENDBRANCH  22  23
ENDBRANCH   5  22
ENDBRANCH   4   5
ENDBRANCH   3   4
ENDBRANCH   2   3
TORSDOF 14
ENDMDL
MODEL       77
REMARK 921   NORMALIZED FREE ENERGY PREDICTED BY IDOCK:   -3.88 KCAL/MOL
REMARK 922        TOTAL FREE ENERGY PREDICTED BY IDOCK:   -8.44 KCAL/MOL
REMARK 923 INTER-LIGAND FREE ENERGY PREDICTED BY IDOCK:   -7.89 KCAL/MOL
REMARK 924 INTRA-LIGAND FREE ENERGY PREDICTED BY IDOCK:   -0.56 KCAL/MOL
REMARK 927      BINDING AFFINITY PREDICTED BY RF-SCORE:    0.00 PKD
ROOT
HETATM    1  C   UNL     1     -10.831   6.111  66.976  1.00  0.00    -0.435 C  
HETATM    2  C   UNL     1      -9.848   7.279  67.069  1.00  0.00    -0.265 C  
ENDROOT
BRANCH   2   3
HETATM    3  C   UNL     1     -10.584   8.627  67.196  1.00  0.00    -0.304 C  
BRANCH   3   4
HETATM    4  C   UNL     1     -10.107   9.422  68.431  1.00  0.00    -0.185 C  
BRANCH   4   5
HETATM    5  N   UNL     1     -10.710  10.765  68.517  1.00  0.00    -0.195 NA 
BRANCH   5   6
HETATM    6  C   UNL     1     -10.162  11.851  67.714  1.00  0.00    -0.200 C  
HETATM    7  S   UNL     1     -11.118  13.395  67.436  1.00  0.00    -0.287 SA 
HETATM    8  C   UNL     1      -8.217  16.325  67.726  1.00  0.00    -0.149 C  
HETATM    9  S   UNL     1      -8.563  11.933  67.246  1.00  0.00    -0.177 SA 
HETATM   10 ZN   UNL     1      -9.095  14.047  67.425  1.00  0.00    -0.163 Zn 
HETATM   11  S   UNL     1      -8.806  15.852  66.246  1.00  0.00    -0.337 SA 
HETATM   12  S   UNL     1      -8.057  15.025  69.014  1.00  0.00    -0.180 SA 
BRANCH   8  13
HETATM   13  N   UNL     1      -8.111  17.710  68.101  1.00  0.00    -0.243 NA 
BRANCH  13  14
HETATM   14  C   UNL     1      -6.878  18.468  67.896  1.00  0.00    -0.219 C  
BRANCH  14  15
HETATM   15  C   UNL     1      -6.740  19.640  68.900  1.00  0.00    -0.353 C  
BRANCH  15  16
HETATM   16  C   UNL     1      -5.366  19.731  69.592  1.00  0.00    -0.232 C  
HETATM   17  C   UNL     1      -5.222  18.645  70.665  1.00  0.00    -0.250 C  
ENDBRANCH  15  16
ENDBRANCH  14  15
ENDBRANCH  13  14
BRANCH  13  18
HETATM   18  C   UNL     1      -9.275  18.390  68.680  1.00  0.00    -0.306 C  
BRANCH  18  19
HETATM   19  C   UNL     1     -10.523  18.292  67.770  1.00  0.00    -0.430 C  
BRANCH  19  20
HETATM   20  C   UNL     1     -10.666  19.443  66.759  1.00  0.00    -0.550 C  
HETATM   21  C   UNL     1      -9.792  20.635  67.169  1.00  0.00    -0.497 C  
ENDBRANCH  19  20
ENDBRANCH  18  19
ENDBRANCH  13  18
ENDBRANCH   8  13
ENDBRANCH   5   6
BRANCH   5  22
HETATM   22  C   UNL     1     -11.893  10.967  69.363  1.00  0.00    -0.335 C  
BRANCH  22  23
HETATM   23  C   UNL     1     -11.794  10.394  70.789  1.00  0.00    -0.466 C  
BRANCH  23  24
HETATM   24  C   UNL     1     -13.035  10.627  71.661  1.00  0.00    -0.582 C  
HETATM   25  C   UNL     1     -13.508   9.308  72.284  1.00  0.00    -0.548 C  
ENDBRANCH  23  24
ENDBRANCH  22  23
ENDBRANCH   5  22
ENDBRANCH   4   5
ENDBRANCH   3   4
ENDBRANCH   2   3
TORSDOF 14
ENDMDL
MODEL       78
REMARK 921   NORMALIZED FREE ENERGY PREDICTED BY IDOCK:   -3.88 KCAL/MOL
REMARK 922        TOTAL FREE ENERGY PREDICTED BY IDOCK:   -8.44 KCAL/MOL
REMARK 923 INTER-LIGAND FREE ENERGY PREDICTED BY IDOCK:   -7.84 KCAL/MOL
REMARK 924 INTRA-LIGAND FREE ENERGY PREDICTED BY IDOCK:   -0.60 KCAL/MOL
REMARK 927      BINDING AFFINITY PREDICTED BY RF-SCORE:    0.00 PKD
ROOT
HETATM    1  C   UNL     1     -11.199   4.582  73.231  1.00  0.00    -0.388 C  
HETATM    2  C   UNL     1     -11.462   5.974  72.656  1.00  0.00    -0.297 C  
ENDROOT
BRANCH   2   3
HETATM    3  C   UNL     1     -10.645   6.218  71.372  1.00  0.00    -0.284 C  
BRANCH   3   4
HETATM    4  C   UNL     1     -11.408   7.112  70.371  1.00  0.00    -0.289 C  
BRANCH   4   5
HETATM    5  N   UNL     1     -11.040   8.535  70.474  1.00  0.00    -0.246 NA 
BRANCH   5   6
HETATM    6  C   UNL     1     -10.330   9.176  69.374  1.00  0.00    -0.216 C  
HETATM    7  S   UNL     1     -11.143   9.434  67.748  1.00  0.00     0.286 SA 
HETATM    8  C   UNL     1      -9.830  13.201  66.663  1.00  0.00    -0.261 C  
HETATM    9  S   UNL     1      -8.882   9.985  69.562  1.00  0.00    -0.184 SA 
HETATM   10 ZN   UNL     1      -9.808  11.080  67.910  1.00  0.00    -0.155 Zn 
HETATM   11  S   UNL     1      -9.178  11.838  65.971  1.00  0.00    -0.152 SA 
HETATM   12  S   UNL     1     -10.309  13.088  68.433  1.00  0.00    -0.241 SA 
BRANCH   8  13
HETATM   13  N   UNL     1     -10.278  14.319  65.878  1.00  0.00    -0.310 NA 
BRANCH  13  14
HETATM   14  C   UNL     1     -11.526  14.272  65.118  1.00  0.00    -0.351 C  
BRANCH  14  15
HETATM   15  C   UNL     1     -12.392  13.043  65.493  1.00  0.00    -0.527 C  
BRANCH  15  16
HETATM   16  C   UNL     1     -12.732  12.116  64.310  1.00  0.00    -0.366 C  
HETATM   17  C   UNL     1     -11.550  12.013  63.339  1.00  0.00    -0.495 C  
ENDBRANCH  15  16
ENDBRANCH  14  15
ENDBRANCH  13  14
BRANCH  13  18
HETATM   18  C   UNL     1      -9.480  15.550  65.858  1.00  0.00    -0.342 C  
BRANCH  18  19
HETATM   19  C   UNL     1     -10.330  16.804  66.174  1.00  0.00    -0.338 C  
BRANCH  19  20
HETATM   20  C   UNL     1      -9.829  17.628  67.374  1.00  0.00    -0.305 C  
HETATM   21  C   UNL     1     -10.611  18.941  67.493  1.00  0.00    -0.524 C  
ENDBRANCH  19  20
ENDBRANCH  18  19
ENDBRANCH  13  18
ENDBRANCH   8  13
ENDBRANCH   5   6
BRANCH   5  22
HETATM   22  C   UNL     1     -11.454   9.300  71.658  1.00  0.00    -0.398 C  
BRANCH  22  23
HETATM   23  C   UNL     1     -12.788  10.059  71.523  1.00  0.00    -0.537 C  
BRANCH  23  24
HETATM   24  C   UNL     1     -12.649  11.529  71.103  1.00  0.00    -0.463 C  
HETATM   25  C   UNL     1     -13.489  12.429  72.016  1.00  0.00    -0.460 C  
ENDBRANCH  23  24
ENDBRANCH  22  23
ENDBRANCH   5  22
ENDBRANCH   4   5
ENDBRANCH   3   4
ENDBRANCH   2   3
TORSDOF 14
ENDMDL
MODEL       79
REMARK 921   NORMALIZED FREE ENERGY PREDICTED BY IDOCK:   -3.88 KCAL/MOL
REMARK 922        TOTAL FREE ENERGY PREDICTED BY IDOCK:   -8.43 KCAL/MOL
REMARK 923 INTER-LIGAND FREE ENERGY PREDICTED BY IDOCK:   -7.38 KCAL/MOL
REMARK 924 INTRA-LIGAND FREE ENERGY PREDICTED BY IDOCK:   -1.05 KCAL/MOL
REMARK 927      BINDING AFFINITY PREDICTED BY RF-SCORE:    0.00 PKD
ROOT
HETATM    1  C   UNL     1     -13.449   7.388  71.496  1.00  0.00    -0.445 C  
HETATM    2  C   UNL     1     -12.348   8.402  71.814  1.00  0.00    -0.375 C  
ENDROOT
BRANCH   2   3
HETATM    3  C   UNL     1     -10.964   7.888  71.371  1.00  0.00    -0.264 C  
BRANCH   3   4
HETATM    4  C   UNL     1     -10.896   7.678  69.842  1.00  0.00    -0.235 C  
BRANCH   4   5
HETATM    5  N   UNL     1     -10.044   8.671  69.163  1.00  0.00    -0.193 NA 
BRANCH   5   6
HETATM    6  C   UNL     1     -10.661   9.703  68.339  1.00  0.00    -0.225 C  
HETATM    7  S   UNL     1     -11.674  11.035  69.095  1.00  0.00    -0.343 SA 
HETATM    8  C   UNL     1     -10.553  14.371  66.927  1.00  0.00    -0.278 C  
HETATM    9  S   UNL     1     -10.273   9.952  66.735  1.00  0.00    -0.226 SA 
HETATM   10 ZN   UNL     1     -10.801  11.969  67.397  1.00  0.00    -0.201 Zn 
HETATM   11  S   UNL     1     -12.004  13.614  66.638  1.00  0.00    -0.413 SA 
HETATM   12  S   UNL     1      -9.132  13.301  67.386  1.00  0.00    -0.227 SA 
BRANCH   8  13
HETATM   13  N   UNL     1     -10.454  15.795  67.105  1.00  0.00    -0.303 NA 
BRANCH  13  14
HETATM   14  C   UNL     1      -9.804  16.649  66.112  1.00  0.00    -0.318 C  
BRANCH  14  15
HETATM   15  C   UNL     1      -9.259  17.958  66.737  1.00  0.00    -0.278 C  
BRANCH  15  16
HETATM   16  C   UNL     1      -9.959  19.241  66.247  1.00  0.00    -0.484 C  
HETATM   17  C   UNL     1     -10.524  20.041  67.426  1.00  0.00    -0.490 C  
ENDBRANCH  15  16
ENDBRANCH  14  15
ENDBRANCH  13  14
BRANCH  13  18
HETATM   18  C   UNL     1     -11.042  16.413  68.299  1.00  0.00    -0.337 C  
BRANCH  18  19
HETATM   19  C   UNL     1     -10.480  15.810  69.608  1.00  0.00    -0.289 C  
BRANCH  19  20
HETATM   20  C   UNL     1     -11.526  15.093  70.480  1.00  0.00    -0.342 C  
HETATM   21  C   UNL     1     -11.944  15.978  71.661  1.00  0.00    -0.569 C  
ENDBRANCH  19  20
ENDBRANCH  18  19
ENDBRANCH  13  18
ENDBRANCH   8  13
ENDBRANCH   5   6
BRANCH   5  22
HETATM   22  C   UNL     1      -8.592   8.641  69.382  1.00  0.00    -0.127 C  
BRANCH  22  23
HETATM   23  C   UNL     1      -7.986   9.924  69.983  1.00  0.00    -0.194 C  
BRANCH  23  24
HETATM   24  C   UNL     1      -6.502   9.818  70.356  1.00  0.00    -0.101 C  
HETATM   25  C   UNL     1      -5.790  11.153  70.111  1.00  0.00    -0.124 C  
ENDBRANCH  23  24
ENDBRANCH  22  23
ENDBRANCH   5  22
ENDBRANCH   4   5
ENDBRANCH   3   4
ENDBRANCH   2   3
TORSDOF 14
ENDMDL
MODEL       80
REMARK 921   NORMALIZED FREE ENERGY PREDICTED BY IDOCK:   -3.88 KCAL/MOL
REMARK 922        TOTAL FREE ENERGY PREDICTED BY IDOCK:   -8.43 KCAL/MOL
REMARK 923 INTER-LIGAND FREE ENERGY PREDICTED BY IDOCK:   -7.06 KCAL/MOL
REMARK 924 INTRA-LIGAND FREE ENERGY PREDICTED BY IDOCK:   -1.38 KCAL/MOL
REMARK 927      BINDING AFFINITY PREDICTED BY RF-SCORE:    0.00 PKD
ROOT
HETATM    1  C   UNL     1     -10.740   6.538  73.097  1.00  0.00    -0.297 C  
HETATM    2  C   UNL     1     -11.725   6.128  72.001  1.00  0.00    -0.354 C  
ENDROOT
BRANCH   2   3
HETATM    3  C   UNL     1     -12.057   7.310  71.070  1.00  0.00    -0.361 C  
BRANCH   3   4
HETATM    4  C   UNL     1     -11.044   8.464  71.229  1.00  0.00    -0.255 C  
BRANCH   4   5
HETATM    5  N   UNL     1     -10.348   8.797  69.973  1.00  0.00    -0.198 NA 
BRANCH   5   6
HETATM    6  C   UNL     1     -10.921   9.792  69.076  1.00  0.00    -0.163 C  
HETATM    7  S   UNL     1     -11.920  11.189  69.729  1.00  0.00    -0.370 SA 
HETATM    8  C   UNL     1     -10.669  14.368  67.403  1.00  0.00    -0.280 C  
HETATM    9  S   UNL     1     -10.489   9.940  67.471  1.00  0.00    -0.269 SA 
HETATM   10 ZN   UNL     1     -10.984  12.003  68.003  1.00  0.00    -0.181 Zn 
HETATM   11  S   UNL     1     -12.130  13.628  67.121  1.00  0.00    -0.313 SA 
HETATM   12  S   UNL     1      -9.285  13.295  67.958  1.00  0.00    -0.222 SA 
BRANCH   8  13
HETATM   13  N   UNL     1     -10.540  15.797  67.501  1.00  0.00    -0.303 NA 
BRANCH  13  14
HETATM   14  C   UNL     1     -11.363  16.580  68.421  1.00  0.00    -0.209 C  
BRANCH  14  15
HETATM   15  C   UNL     1     -10.843  16.502  69.879  1.00  0.00    -0.285 C  
BRANCH  15  16
HETATM   16  C   UNL     1     -11.459  15.363  70.716  1.00  0.00    -0.385 C  
HETATM   17  C   UNL     1     -12.985  15.497  70.784  1.00  0.00    -0.490 C  
ENDBRANCH  15  16
ENDBRANCH  14  15
ENDBRANCH  13  14
BRANCH  13  18
HETATM   18  C   UNL     1      -9.541  16.487  66.679  1.00  0.00    -0.258 C  
BRANCH  18  19
HETATM   19  C   UNL     1      -9.919  17.964  66.413  1.00  0.00    -0.358 C  
BRANCH  19  20
HETATM   20  C   UNL     1      -8.803  18.975  66.730  1.00  0.00    -0.321 C  
HETATM   21  C   UNL     1      -8.865  19.404  68.201  1.00  0.00    -0.376 C  
ENDBRANCH  19  20
ENDBRANCH  18  19
ENDBRANCH  13  18
ENDBRANCH   8  13
ENDBRANCH   5   6
BRANCH   5  22
HETATM   22  C   UNL     1      -9.055   8.164  69.680  1.00  0.00    -0.151 C  
BRANCH  22  23
HETATM   23  C   UNL     1      -9.111   6.657  69.363  1.00  0.00    -0.143 C  
BRANCH  23  24
HETATM   24  C   UNL     1      -9.481   6.321  67.912  1.00  0.00    -0.115 C  
HETATM   25  C   UNL     1     -10.995   6.123  67.777  1.00  0.00    -0.400 C  
ENDBRANCH  23  24
ENDBRANCH  22  23
ENDBRANCH   5  22
ENDBRANCH   4   5
ENDBRANCH   3   4
ENDBRANCH   2   3
TORSDOF 14
ENDMDL
MODEL       81
REMARK 921   NORMALIZED FREE ENERGY PREDICTED BY IDOCK:   -3.87 KCAL/MOL
REMARK 922        TOTAL FREE ENERGY PREDICTED BY IDOCK:   -8.42 KCAL/MOL
REMARK 923 INTER-LIGAND FREE ENERGY PREDICTED BY IDOCK:   -7.63 KCAL/MOL
REMARK 924 INTRA-LIGAND FREE ENERGY PREDICTED BY IDOCK:   -0.79 KCAL/MOL
REMARK 927      BINDING AFFINITY PREDICTED BY RF-SCORE:    0.00 PKD
ROOT
HETATM    1  C   UNL     1      -9.620   4.448  65.858  1.00  0.00    -0.188 C  
HETATM    2  C   UNL     1      -8.842   5.165  66.962  1.00  0.00    -0.109 C  
ENDROOT
BRANCH   2   3
HETATM    3  C   UNL     1      -9.595   5.114  68.307  1.00  0.00    -0.178 C  
BRANCH   3   4
HETATM    4  C   UNL     1     -10.847   6.016  68.294  1.00  0.00    -0.284 C  
BRANCH   4   5
HETATM    5  N   UNL     1     -10.745   7.155  69.224  1.00  0.00    -0.227 NA 
BRANCH   5   6
HETATM    6  C   UNL     1     -10.084   8.379  68.791  1.00  0.00    -0.196 C  
HETATM    7  S   UNL     1     -10.194   8.947  67.047  1.00  0.00    -0.278 SA 
HETATM    8  C   UNL     1     -10.641  13.036  67.449  1.00  0.00    -0.234 C  
HETATM    9  S   UNL     1      -9.450   9.505  69.847  1.00  0.00    -0.236 SA 
HETATM   10 ZN   UNL     1     -10.056  10.754  68.157  1.00  0.00    -0.148 Zn 
HETATM   11  S   UNL     1      -9.182  12.378  67.003  1.00  0.00    -0.213 SA 
HETATM   12  S   UNL     1     -11.655  12.081  68.647  1.00  0.00    -0.340 SA 
BRANCH   8  13
HETATM   13  N   UNL     1     -11.235  14.136  66.737  1.00  0.00    -0.313 NA 
BRANCH  13  14
HETATM   14  C   UNL     1     -10.592  15.447  66.675  1.00  0.00    -0.306 C  
BRANCH  14  15
HETATM   15  C   UNL     1     -11.119  16.407  67.771  1.00  0.00    -0.199 C  
BRANCH  15  16
HETATM   16  C   UNL     1     -10.104  17.475  68.226  1.00  0.00    -0.346 C  
HETATM   17  C   UNL     1     -10.417  18.834  67.588  1.00  0.00    -0.495 C  
ENDBRANCH  15  16
ENDBRANCH  14  15
ENDBRANCH  13  14
BRANCH  13  18
HETATM   18  C   UNL     1     -12.505  13.933  66.031  1.00  0.00    -0.461 C  
BRANCH  18  19
HETATM   19  C   UNL     1     -12.439  12.752  65.034  1.00  0.00    -0.572 C  
BRANCH  19  20
HETATM   20  C   UNL     1     -11.720  13.073  63.711  1.00  0.00    -0.547 C  
HETATM   21  C   UNL     1     -10.679  11.995  63.386  1.00  0.00    -0.475 C  
ENDBRANCH  19  20
ENDBRANCH  18  19
ENDBRANCH  13  18
ENDBRANCH   8  13
ENDBRANCH   5   6
BRANCH   5  22
HETATM   22  C   UNL     1     -11.371   7.057  70.549  1.00  0.00    -0.312 C  
BRANCH  22  23
HETATM   23  C   UNL     1     -10.839   5.928  71.452  1.00  0.00    -0.332 C  
BRANCH  23  24
HETATM   24  C   UNL     1     -11.725   5.604  72.663  1.00  0.00    -0.256 C  
HETATM   25  C   UNL     1     -10.942   4.786  73.696  1.00  0.00    -0.391 C  
ENDBRANCH  23  24
ENDBRANCH  22  23
ENDBRANCH   5  22
ENDBRANCH   4   5
ENDBRANCH   3   4
ENDBRANCH   2   3
TORSDOF 14
ENDMDL
MODEL       82
REMARK 921   NORMALIZED FREE ENERGY PREDICTED BY IDOCK:   -3.87 KCAL/MOL
REMARK 922        TOTAL FREE ENERGY PREDICTED BY IDOCK:   -8.41 KCAL/MOL
REMARK 923 INTER-LIGAND FREE ENERGY PREDICTED BY IDOCK:   -7.62 KCAL/MOL
REMARK 924 INTRA-LIGAND FREE ENERGY PREDICTED BY IDOCK:   -0.80 KCAL/MOL
REMARK 927      BINDING AFFINITY PREDICTED BY RF-SCORE:    0.00 PKD
ROOT
HETATM    1  C   UNL     1     -13.600  12.906  72.369  1.00  0.00    -0.577 C  
HETATM    2  C   UNL     1     -12.768  12.873  71.086  1.00  0.00    -0.366 C  
ENDROOT
BRANCH   2   3
HETATM    3  C   UNL     1     -12.209  11.463  70.813  1.00  0.00    -0.475 C  
BRANCH   3   4
HETATM    4  C   UNL     1     -12.120  11.168  69.300  1.00  0.00    -0.308 C  
BRANCH   4   5
HETATM    5  N   UNL     1     -10.732  11.112  68.806  1.00  0.00    -0.188 NA 
BRANCH   5   6
HETATM    6  C   UNL     1     -10.208  12.214  68.008  1.00  0.00    -0.201 C  
HETATM    7  S   UNL     1     -11.192  13.743  67.748  1.00  0.00    -0.303 SA 
HETATM    8  C   UNL     1      -8.340  16.721  68.045  1.00  0.00    -0.200 C  
HETATM    9  S   UNL     1      -8.613  12.327  67.533  1.00  0.00    -0.185 SA 
HETATM   10 ZN   UNL     1      -9.181  14.430  67.731  1.00  0.00    -0.167 Zn 
HETATM   11  S   UNL     1      -8.929  16.249  66.565  1.00  0.00    -0.307 SA 
HETATM   12  S   UNL     1      -8.151  15.413  69.322  1.00  0.00    -0.249 SA 
BRANCH   8  13
HETATM   13  N   UNL     1      -8.255  18.104  68.431  1.00  0.00    -0.297 NA 
BRANCH  13  14
HETATM   14  C   UNL     1      -9.385  18.801  69.044  1.00  0.00    -0.181 C  
BRANCH  14  15
HETATM   15  C   UNL     1      -9.985  19.877  68.106  1.00  0.00    -0.551 C  
BRANCH  15  16
HETATM   16  C   UNL     1     -11.003  19.337  67.082  1.00  0.00    -0.439 C  
HETATM   17  C   UNL     1     -10.629  19.768  65.659  1.00  0.00    -0.456 C  
ENDBRANCH  15  16
ENDBRANCH  14  15
ENDBRANCH  13  14
BRANCH  13  18
HETATM   18  C   UNL     1      -6.997  18.830  68.230  1.00  0.00    -0.246 C  
BRANCH  18  19
HETATM   19  C   UNL     1      -7.068  19.805  67.030  1.00  0.00    -0.240 C  
BRANCH  19  20
HETATM   20  C   UNL     1      -6.976  19.127  65.651  1.00  0.00    -0.293 C  
HETATM   21  C   UNL     1      -5.997  19.880  64.743  1.00  0.00    -0.289 C  
ENDBRANCH  19  20
ENDBRANCH  18  19
ENDBRANCH  13  18
ENDBRANCH   8  13
ENDBRANCH   5   6
BRANCH   5  22
HETATM   22  C   UNL     1      -9.882   9.975  69.182  1.00  0.00    -0.205 C  
BRANCH  22  23
HETATM   23  C   UNL     1     -10.466   8.582  68.879  1.00  0.00    -0.207 C  
BRANCH  23  24
HETATM   24  C   UNL     1     -10.285   7.553  70.003  1.00  0.00    -0.215 C  
HETATM   25  C   UNL     1     -11.158   6.319  69.746  1.00  0.00    -0.473 C  
ENDBRANCH  23  24
ENDBRANCH  22  23
ENDBRANCH   5  22
ENDBRANCH   4   5
ENDBRANCH   3   4
ENDBRANCH   2   3
TORSDOF 14
ENDMDL
MODEL       83
REMARK 921   NORMALIZED FREE ENERGY PREDICTED BY IDOCK:   -3.85 KCAL/MOL
REMARK 922        TOTAL FREE ENERGY PREDICTED BY IDOCK:   -8.38 KCAL/MOL
REMARK 923 INTER-LIGAND FREE ENERGY PREDICTED BY IDOCK:   -7.57 KCAL/MOL
REMARK 924 INTRA-LIGAND FREE ENERGY PREDICTED BY IDOCK:   -0.81 KCAL/MOL
REMARK 927      BINDING AFFINITY PREDICTED BY RF-SCORE:    0.00 PKD
ROOT
HETATM    1  C   UNL     1     -10.439   2.079  72.709  1.00  0.00    -0.238 C  
HETATM    2  C   UNL     1     -11.095   3.082  73.660  1.00  0.00    -0.323 C  
ENDROOT
BRANCH   2   3
HETATM    3  C   UNL     1     -10.748   4.533  73.276  1.00  0.00    -0.312 C  
BRANCH   3   4
HETATM    4  C   UNL     1      -9.609   4.592  72.236  1.00  0.00    -0.152 C  
BRANCH   4   5
HETATM    5  N   UNL     1      -9.511   5.900  71.564  1.00  0.00    -0.152 NA 
BRANCH   5   6
HETATM    6  C   UNL     1     -10.625   6.835  71.644  1.00  0.00    -0.214 C  
HETATM    7  S   UNL     1     -10.571   8.274  72.786  1.00  0.00    -0.135 SA 
HETATM    8  C   UNL     1     -12.273  11.290  70.531  1.00  0.00    -0.383 C  
HETATM    9  S   UNL     1     -11.873   6.876  70.537  1.00  0.00    -0.287 SA 
HETATM   10 ZN   UNL     1     -11.740   8.971  71.154  1.00  0.00    -0.241 Zn 
HETATM   11  S   UNL     1     -13.135  10.536  71.734  1.00  0.00    -0.427 SA 
HETATM   12  S   UNL     1     -11.095  10.254  69.574  1.00  0.00    -0.272 SA 
BRANCH   8  13
HETATM   13  N   UNL     1     -12.211  12.722  70.415  1.00  0.00    -0.338 NA 
BRANCH  13  14
HETATM   14  C   UNL     1     -13.003  13.597  71.277  1.00  0.00    -0.322 C  
BRANCH  14  15
HETATM   15  C   UNL     1     -12.178  14.797  71.807  1.00  0.00    -0.416 C  
BRANCH  15  16
HETATM   16  C   UNL     1     -12.895  15.643  72.878  1.00  0.00    -0.576 C  
HETATM   17  C   UNL     1     -12.294  15.390  74.266  1.00  0.00    -0.807 C  
ENDBRANCH  15  16
ENDBRANCH  14  15
ENDBRANCH  13  14
BRANCH  13  18
HETATM   18  C   UNL     1     -11.310  13.326  69.427  1.00  0.00    -0.219 C  
BRANCH  18  19
HETATM   19  C   UNL     1     -12.051  13.739  68.133  1.00  0.00    -0.316 C  
BRANCH  19  20
HETATM   20  C   UNL     1     -11.635  12.949  66.879  1.00  0.00    -0.425 C  
HETATM   21  C   UNL     1     -12.430  13.419  65.656  1.00  0.00    -0.519 C  
ENDBRANCH  19  20
ENDBRANCH  18  19
ENDBRANCH  13  18
ENDBRANCH   8  13
ENDBRANCH   5   6
BRANCH   5  22
HETATM   22  C   UNL     1      -8.262   6.263  70.879  1.00  0.00    -0.126 C  
BRANCH  22  23
HETATM   23  C   UNL     1      -8.432   7.013  69.544  1.00  0.00    -0.134 C  
BRANCH  23  24
HETATM   24  C   UNL     1      -7.455   8.177  69.334  1.00  0.00    -0.091 C  
HETATM   25  C   UNL     1      -7.725   9.293  70.351  1.00  0.00    -0.150 C  
ENDBRANCH  23  24
ENDBRANCH  22  23
ENDBRANCH   5  22
ENDBRANCH   4   5
ENDBRANCH   3   4
ENDBRANCH   2   3
TORSDOF 14
ENDMDL
MODEL       84
REMARK 921   NORMALIZED FREE ENERGY PREDICTED BY IDOCK:   -3.85 KCAL/MOL
REMARK 922        TOTAL FREE ENERGY PREDICTED BY IDOCK:   -8.38 KCAL/MOL
REMARK 923 INTER-LIGAND FREE ENERGY PREDICTED BY IDOCK:   -7.34 KCAL/MOL
REMARK 924 INTRA-LIGAND FREE ENERGY PREDICTED BY IDOCK:   -1.04 KCAL/MOL
REMARK 927      BINDING AFFINITY PREDICTED BY RF-SCORE:    0.00 PKD
ROOT
HETATM    1  C   UNL     1      -9.751   3.225  71.286  1.00  0.00    -0.222 C  
HETATM    2  C   UNL     1      -8.628   4.046  71.923  1.00  0.00    -0.118 C  
ENDROOT
BRANCH   2   3
HETATM    3  C   UNL     1      -8.587   5.479  71.358  1.00  0.00    -0.131 C  
BRANCH   3   4
HETATM    4  C   UNL     1      -9.410   5.604  70.058  1.00  0.00    -0.149 C  
BRANCH   4   5
HETATM    5  N   UNL     1     -10.340   6.748  70.074  1.00  0.00    -0.194 NA 
BRANCH   5   6
HETATM    6  C   UNL     1      -9.876   8.058  69.636  1.00  0.00    -0.184 C  
HETATM    7  S   UNL     1     -10.340   8.722  67.987  1.00  0.00    -0.205 SA 
HETATM    8  C   UNL     1     -11.073  12.710  68.786  1.00  0.00    -0.263 C  
HETATM    9  S   UNL     1      -9.171   9.172  70.658  1.00  0.00    -0.269 SA 
HETATM   10 ZN   UNL     1     -10.172  10.459  69.200  1.00  0.00    -0.158 Zn 
HETATM   11  S   UNL     1      -9.662  12.233  68.050  1.00  0.00    -0.209 SA 
HETATM   12  S   UNL     1     -11.772  11.582  70.057  1.00  0.00    -0.312 SA 
BRANCH   8  13
HETATM   13  N   UNL     1     -11.878  13.787  68.275  1.00  0.00    -0.363 NA 
BRANCH  13  14
HETATM   14  C   UNL     1     -12.486  14.778  69.161  1.00  0.00     0.035 C  
BRANCH  14  15
HETATM   15  C   UNL     1     -11.434  15.490  70.049  1.00  0.00    -0.344 C  
BRANCH  15  16
HETATM   16  C   UNL     1     -11.525  15.145  71.549  1.00  0.00    -0.422 C  
HETATM   17  C   UNL     1     -11.921  16.377  72.370  1.00  0.00    -0.553 C  
ENDBRANCH  15  16
ENDBRANCH  14  15
ENDBRANCH  13  14
BRANCH  13  18
HETATM   18  C   UNL     1     -12.075  13.913  66.827  1.00  0.00    -0.439 C  
BRANCH  18  19
HETATM   19  C   UNL     1     -11.178  15.011  66.207  1.00  0.00    -0.309 C  
BRANCH  19  20
HETATM   20  C   UNL     1     -10.414  14.572  64.945  1.00  0.00    -0.435 C  
HETATM   21  C   UNL     1     -10.930  13.219  64.443  1.00  0.00    -0.413 C  
ENDBRANCH  19  20
ENDBRANCH  18  19
ENDBRANCH  13  18
ENDBRANCH   8  13
ENDBRANCH   5   6
BRANCH   5  22
HETATM   22  C   UNL     1     -11.738   6.529  70.469  1.00  0.00    -0.375 C  
BRANCH  22  23
HETATM   23  C   UNL     1     -12.165   7.198  71.790  1.00  0.00    -0.379 C  
BRANCH  23  24
HETATM   24  C   UNL     1     -13.557   7.842  71.762  1.00  0.00    -0.396 C  
HETATM   25  C   UNL     1     -13.526   9.216  72.442  1.00  0.00    -0.535 C  
ENDBRANCH  23  24
ENDBRANCH  22  23
ENDBRANCH   5  22
ENDBRANCH   4   5
ENDBRANCH   3   4
ENDBRANCH   2   3
TORSDOF 14
ENDMDL
MODEL       85
REMARK 921   NORMALIZED FREE ENERGY PREDICTED BY IDOCK:   -3.84 KCAL/MOL
REMARK 922        TOTAL FREE ENERGY PREDICTED BY IDOCK:   -8.37 KCAL/MOL
REMARK 923 INTER-LIGAND FREE ENERGY PREDICTED BY IDOCK:   -7.43 KCAL/MOL
REMARK 924 INTRA-LIGAND FREE ENERGY PREDICTED BY IDOCK:   -0.94 KCAL/MOL
REMARK 927      BINDING AFFINITY PREDICTED BY RF-SCORE:    0.00 PKD
ROOT
HETATM    1  C   UNL     1     -11.139   6.036  72.431  1.00  0.00    -0.321 C  
HETATM    2  C   UNL     1     -10.122   5.127  71.738  1.00  0.00    -0.260 C  
ENDROOT
BRANCH   2   3
HETATM    3  C   UNL     1      -9.836   5.596  70.298  1.00  0.00    -0.254 C  
BRANCH   3   4
HETATM    4  C   UNL     1     -11.106   6.145  69.613  1.00  0.00    -0.419 C  
BRANCH   4   5
HETATM    5  N   UNL     1     -10.813   6.923  68.396  1.00  0.00    -0.204 NA 
BRANCH   5   6
HETATM    6  C   UNL     1     -10.135   8.208  68.511  1.00  0.00    -0.200 C  
HETATM    7  S   UNL     1      -9.815   9.243  67.027  1.00  0.00    -0.216 SA 
HETATM    8  C   UNL     1     -10.596  13.064  68.397  1.00  0.00    -0.251 C  
HETATM    9  S   UNL     1      -9.872   8.982  69.965  1.00  0.00    -0.196 SA 
HETATM   10 ZN   UNL     1     -10.083  10.665  68.584  1.00  0.00    -0.147 Zn 
HETATM   11  S   UNL     1      -9.034  12.531  68.199  1.00  0.00    -0.187 SA 
HETATM   12  S   UNL     1     -11.831  11.829  68.967  1.00  0.00    -0.300 SA 
BRANCH   8  13
HETATM   13  N   UNL     1     -11.045  14.328  67.880  1.00  0.00    -0.269 NA 
BRANCH  13  14
HETATM   14  C   UNL     1     -10.899  14.676  66.468  1.00  0.00    -0.315 C  
BRANCH  14  15
HETATM   15  C   UNL     1     -11.660  13.693  65.543  1.00  0.00    -0.337 C  
BRANCH  15  16
HETATM   16  C   UNL     1     -10.841  13.184  64.340  1.00  0.00    -0.417 C  
HETATM   17  C   UNL     1     -11.698  12.292  63.433  1.00  0.00    -0.542 C  
ENDBRANCH  15  16
ENDBRANCH  14  15
ENDBRANCH  13  14
BRANCH  13  18
HETATM   18  C   UNL     1     -11.693  15.285  68.784  1.00  0.00    -0.353 C  
BRANCH  18  19
HETATM   19  C   UNL     1     -11.044  15.295  70.189  1.00  0.00    -0.312 C  
BRANCH  19  20
HETATM   20  C   UNL     1     -12.021  15.014  71.345  1.00  0.00    -0.397 C  
HETATM   21  C   UNL     1     -11.870  16.068  72.448  1.00  0.00    -0.639 C  
ENDBRANCH  19  20
ENDBRANCH  18  19
ENDBRANCH  13  18
ENDBRANCH   8  13
ENDBRANCH   5   6
BRANCH   5  22
HETATM   22  C   UNL     1     -11.152   6.357  67.084  1.00  0.00    -0.341 C  
BRANCH  22  23
HETATM   23  C   UNL     1     -10.232   5.224  66.593  1.00  0.00    -0.291 C  
BRANCH  23  24
HETATM   24  C   UNL     1      -8.952   5.696  65.890  1.00  0.00    -0.160 C  
HETATM   25  C   UNL     1      -7.743   5.547  66.821  1.00  0.00    -0.100 C  
ENDBRANCH  23  24
ENDBRANCH  22  23
ENDBRANCH   5  22
ENDBRANCH   4   5
ENDBRANCH   3   4
ENDBRANCH   2   3
TORSDOF 14
ENDMDL
MODEL       86
REMARK 921   NORMALIZED FREE ENERGY PREDICTED BY IDOCK:   -3.83 KCAL/MOL
REMARK 922        TOTAL FREE ENERGY PREDICTED BY IDOCK:   -8.35 KCAL/MOL
REMARK 923 INTER-LIGAND FREE ENERGY PREDICTED BY IDOCK:   -6.99 KCAL/MOL
REMARK 924 INTRA-LIGAND FREE ENERGY PREDICTED BY IDOCK:   -1.36 KCAL/MOL
REMARK 927      BINDING AFFINITY PREDICTED BY RF-SCORE:    0.00 PKD
ROOT
HETATM    1  C   UNL     1      -9.976   7.982  71.604  1.00  0.00    -0.237 C  
HETATM    2  C   UNL     1     -11.328   8.300  70.965  1.00  0.00    -0.299 C  
ENDROOT
BRANCH   2   3
HETATM    3  C   UNL     1     -11.311   9.670  70.260  1.00  0.00    -0.311 C  
BRANCH   3   4
HETATM    4  C   UNL     1     -10.079   9.824  69.342  1.00  0.00    -0.209 C  
BRANCH   4   5
HETATM    5  N   UNL     1     -10.431   9.876  67.911  1.00  0.00    -0.219 NA 
BRANCH   5   6
HETATM    6  C   UNL     1     -10.510  11.165  67.237  1.00  0.00    -0.226 C  
HETATM    7  S   UNL     1     -11.639  12.481  67.844  1.00  0.00    -0.359 SA 
HETATM    8  C   UNL     1      -9.369  15.905  67.396  1.00  0.00    -0.210 C  
HETATM    9  S   UNL     1      -9.411  11.671  66.088  1.00  0.00    -0.221 SA 
HETATM   10 ZN   UNL     1     -10.008  13.561  67.013  1.00  0.00    -0.217 Zn 
HETATM   11  S   UNL     1     -10.584  15.542  66.323  1.00  0.00    -0.308 SA 
HETATM   12  S   UNL     1      -8.413  14.494  68.083  1.00  0.00    -0.166 SA 
BRANCH   8  13
HETATM   13  N   UNL     1      -9.241  17.206  67.997  1.00  0.00    -0.244 NA 
BRANCH  13  14
HETATM   14  C   UNL     1      -7.943  17.733  68.417  1.00  0.00    -0.293 C  
BRANCH  14  15
HETATM   15  C   UNL     1      -7.040  18.090  67.210  1.00  0.00    -0.204 C  
BRANCH  15  16
HETATM   16  C   UNL     1      -6.298  19.435  67.342  1.00  0.00    -0.204 C  
HETATM   17  C   UNL     1      -6.474  20.020  68.749  1.00  0.00    -0.349 C  
ENDBRANCH  15  16
ENDBRANCH  14  15
ENDBRANCH  13  14
BRANCH  13  18
HETATM   18  C   UNL     1     -10.436  18.039  68.171  1.00  0.00    -0.361 C  
BRANCH  18  19
HETATM   19  C   UNL     1     -10.082  19.516  68.466  1.00  0.00    -0.543 C  
BRANCH  19  20
HETATM   20  C   UNL     1     -10.065  20.428  67.227  1.00  0.00    -0.504 C  
HETATM   21  C   UNL     1     -10.406  19.629  65.963  1.00  0.00    -0.620 C  
ENDBRANCH  19  20
ENDBRANCH  18  19
ENDBRANCH  13  18
ENDBRANCH   8  13
ENDBRANCH   5   6
BRANCH   5  22
HETATM   22  C   UNL     1     -10.630   8.620  67.176  1.00  0.00    -0.234 C  
BRANCH  22  23
HETATM   23  C   UNL     1      -9.748   7.440  67.627  1.00  0.00    -0.178 C  
BRANCH  23  24
HETATM   24  C   UNL     1      -8.406   7.326  66.892  1.00  0.00    -0.118 C  
HETATM   25  C   UNL     1      -8.497   7.972  65.504  1.00  0.00    -0.159 C  
ENDBRANCH  23  24
ENDBRANCH  22  23
ENDBRANCH   5  22
ENDBRANCH   4   5
ENDBRANCH   3   4
ENDBRANCH   2   3
TORSDOF 14
ENDMDL
MODEL       87
REMARK 921   NORMALIZED FREE ENERGY PREDICTED BY IDOCK:   -3.83 KCAL/MOL
REMARK 922        TOTAL FREE ENERGY PREDICTED BY IDOCK:   -8.35 KCAL/MOL
REMARK 923 INTER-LIGAND FREE ENERGY PREDICTED BY IDOCK:   -7.49 KCAL/MOL
REMARK 924 INTRA-LIGAND FREE ENERGY PREDICTED BY IDOCK:   -0.86 KCAL/MOL
REMARK 927      BINDING AFFINITY PREDICTED BY RF-SCORE:    0.00 PKD
ROOT
HETATM    1  C   UNL     1     -10.719  19.659  65.773  1.00  0.00    -0.493 C  
HETATM    2  C   UNL     1      -9.921  20.437  66.820  1.00  0.00    -0.525 C  
ENDROOT
BRANCH   2   3
HETATM    3  C   UNL     1     -10.195  19.912  68.243  1.00  0.00    -0.562 C  
BRANCH   3   4
HETATM    4  C   UNL     1      -8.919  19.333  68.893  1.00  0.00    -0.301 C  
BRANCH   4   5
HETATM    5  N   UNL     1      -8.485  18.065  68.278  1.00  0.00    -0.280 NA 
BRANCH   5   6
HETATM    6  C   UNL     1      -9.458  17.004  68.056  1.00  0.00    -0.256 C  
HETATM    7  S   UNL     1      -9.676  16.253  66.394  1.00  0.00    -0.310 SA 
HETATM    8  C   UNL     1     -10.159  12.241  67.263  1.00  0.00    -0.204 C  
HETATM    9  S   UNL     1     -10.219  16.181  69.293  1.00  0.00    -0.272 SA 
HETATM   10 ZN   UNL     1     -10.111  14.657  67.727  1.00  0.00    -0.211 Zn 
HETATM   11  S   UNL     1     -11.462  13.189  66.859  1.00  0.00    -0.360 SA 
HETATM   12  S   UNL     1      -8.824  13.034  68.245  1.00  0.00    -0.138 SA 
BRANCH   8  13
HETATM   13  N   UNL     1      -9.920  10.964  66.647  1.00  0.00    -0.201 NA 
BRANCH  13  14
HETATM   14  C   UNL     1      -9.185  10.843  65.389  1.00  0.00    -0.207 C  
BRANCH  14  15
HETATM   15  C   UNL     1     -10.130  10.631  64.179  1.00  0.00    -0.402 C  
BRANCH  15  16
HETATM   16  C   UNL     1     -10.589  11.931  63.490  1.00  0.00    -0.507 C  
HETATM   17  C   UNL     1     -12.118  11.991  63.397  1.00  0.00    -0.597 C  
ENDBRANCH  15  16
ENDBRANCH  14  15
ENDBRANCH  13  14
BRANCH  13  18
HETATM   18  C   UNL     1     -10.401   9.746  67.308  1.00  0.00    -0.248 C  
BRANCH  18  19
HETATM   19  C   UNL     1     -11.501  10.043  68.355  1.00  0.00    -0.011 C  
BRANCH  19  20
HETATM   20  C   UNL     1     -11.010  10.043  69.814  1.00  0.00    -0.317 C  
HETATM   21  C   UNL     1     -11.914  10.919  70.688  1.00  0.00    -0.467 C  
ENDBRANCH  19  20
ENDBRANCH  18  19
ENDBRANCH  13  18
ENDBRANCH   8  13
ENDBRANCH   5   6
BRANCH   5  22
HETATM   22  C   UNL     1      -7.090  17.921  67.840  1.00  0.00    -0.210 C  
BRANCH  22  23
HETATM   23  C   UNL     1      -6.250  16.901  68.632  1.00  0.00    -0.154 C  
BRANCH  23  24
HETATM   24  C   UNL     1      -5.174  16.181  67.809  1.00  0.00    -0.146 C  
HETATM   25  C   UNL     1      -5.311  14.661  67.960  1.00  0.00    -0.114 C  
ENDBRANCH  23  24
ENDBRANCH  22  23
ENDBRANCH   5  22
ENDBRANCH   4   5
ENDBRANCH   3   4
ENDBRANCH   2   3
TORSDOF 14
ENDMDL
MODEL       88
REMARK 921   NORMALIZED FREE ENERGY PREDICTED BY IDOCK:   -3.83 KCAL/MOL
REMARK 922        TOTAL FREE ENERGY PREDICTED BY IDOCK:   -8.35 KCAL/MOL
REMARK 923 INTER-LIGAND FREE ENERGY PREDICTED BY IDOCK:   -7.02 KCAL/MOL
REMARK 924 INTRA-LIGAND FREE ENERGY PREDICTED BY IDOCK:   -1.33 KCAL/MOL
REMARK 927      BINDING AFFINITY PREDICTED BY RF-SCORE:    0.00 PKD
ROOT
HETATM    1  C   UNL     1      -7.529   6.698  71.306  1.00  0.00    -0.084 C  
HETATM    2  C   UNL     1      -7.663   8.121  71.852  1.00  0.00    -0.129 C  
ENDROOT
BRANCH   2   3
HETATM    3  C   UNL     1      -8.339   9.055  70.830  1.00  0.00    -0.228 C  
BRANCH   3   4
HETATM    4  C   UNL     1      -9.869   9.108  71.028  1.00  0.00    -0.296 C  
BRANCH   4   5
HETATM    5  N   UNL     1     -10.620   8.853  69.786  1.00  0.00    -0.223 NA 
BRANCH   5   6
HETATM    6  C   UNL     1     -11.022   9.975  68.947  1.00  0.00    -0.207 C  
HETATM    7  S   UNL     1     -11.765  11.486  69.681  1.00  0.00    -0.376 SA 
HETATM    8  C   UNL     1     -10.012  14.519  67.488  1.00  0.00    -0.224 C  
HETATM    9  S   UNL     1     -10.585  10.127  67.344  1.00  0.00    -0.271 SA 
HETATM   10 ZN   UNL     1     -10.719  12.215  67.981  1.00  0.00    -0.183 Zn 
HETATM   11  S   UNL     1     -11.579  14.052  67.196  1.00  0.00    -0.393 SA 
HETATM   12  S   UNL     1      -8.825  13.202  67.969  1.00  0.00    -0.196 SA 
BRANCH   8  13
HETATM   13  N   UNL     1      -9.642  15.899  67.653  1.00  0.00    -0.220 NA 
BRANCH  13  14
HETATM   14  C   UNL     1      -8.728  16.328  68.710  1.00  0.00    -0.244 C  
BRANCH  14  15
HETATM   15  C   UNL     1      -7.392  16.871  68.141  1.00  0.00    -0.180 C  
BRANCH  15  16
HETATM   16  C   UNL     1      -6.949  18.224  68.732  1.00  0.00    -0.280 C  
HETATM   17  C   UNL     1      -5.971  18.938  67.791  1.00  0.00    -0.201 C  
ENDBRANCH  15  16
ENDBRANCH  14  15
ENDBRANCH  13  14
BRANCH  13  18
HETATM   18  C   UNL     1     -10.171  16.902  66.721  1.00  0.00    -0.306 C  
BRANCH  18  19
HETATM   19  C   UNL     1     -10.741  18.140  67.455  1.00  0.00    -0.355 C  
BRANCH  19  20
HETATM   20  C   UNL     1     -10.602  19.461  66.677  1.00  0.00    -0.566 C  
HETATM   21  C   UNL     1      -9.693  20.438  67.431  1.00  0.00    -0.597 C  
ENDBRANCH  19  20
ENDBRANCH  18  19
ENDBRANCH  13  18
ENDBRANCH   8  13
ENDBRANCH   5   6
BRANCH   5  22
HETATM   22  C   UNL     1     -10.892   7.467  69.383  1.00  0.00    -0.171 C  
BRANCH  22  23
HETATM   23  C   UNL     1     -11.716   6.635  70.384  1.00  0.00    -0.446 C  
BRANCH  23  24
HETATM   24  C   UNL     1     -10.896   5.649  71.226  1.00  0.00    -0.289 C  
HETATM   25  C   UNL     1     -11.408   5.624  72.671  1.00  0.00    -0.356 C  
ENDBRANCH  23  24
ENDBRANCH  22  23
ENDBRANCH   5  22
ENDBRANCH   4   5
ENDBRANCH   3   4
ENDBRANCH   2   3
TORSDOF 14
ENDMDL
MODEL       89
REMARK 921   NORMALIZED FREE ENERGY PREDICTED BY IDOCK:   -3.82 KCAL/MOL
REMARK 922        TOTAL FREE ENERGY PREDICTED BY IDOCK:   -8.33 KCAL/MOL
REMARK 923 INTER-LIGAND FREE ENERGY PREDICTED BY IDOCK:   -7.00 KCAL/MOL
REMARK 924 INTRA-LIGAND FREE ENERGY PREDICTED BY IDOCK:   -1.33 KCAL/MOL
REMARK 927      BINDING AFFINITY PREDICTED BY RF-SCORE:    0.00 PKD
ROOT
HETATM    1  C   UNL     1      -9.374   8.141  68.300  1.00  0.00    -0.137 C  
HETATM    2  C   UNL     1     -10.486   8.329  67.266  1.00  0.00    -0.373 C  
ENDROOT
BRANCH   2   3
HETATM    3  C   UNL     1     -10.400   9.711  66.590  1.00  0.00    -0.279 C  
BRANCH   3   4
HETATM    4  C   UNL     1      -9.867  10.788  67.559  1.00  0.00    -0.172 C  
BRANCH   4   5
HETATM    5  N   UNL     1     -10.924  11.690  68.053  1.00  0.00    -0.210 NA 
BRANCH   5   6
HETATM    6  C   UNL     1     -10.984  13.061  67.566  1.00  0.00    -0.259 C  
HETATM    7  S   UNL     1     -11.292  14.460  68.716  1.00  0.00    -0.291 SA 
HETATM    8  C   UNL     1      -8.728  17.379  67.304  1.00  0.00    -0.224 C  
HETATM    9  S   UNL     1     -10.493  13.516  66.037  1.00  0.00    -0.305 SA 
HETATM   10 ZN   UNL     1     -10.055  15.309  67.211  1.00  0.00    -0.220 Zn 
HETATM   11  S   UNL     1     -10.358  17.452  66.991  1.00  0.00    -0.297 SA 
HETATM   12  S   UNL     1      -7.962  15.710  67.350  1.00  0.00    -0.197 SA 
BRANCH   8  13
HETATM   13  N   UNL     1      -7.993  18.509  67.806  1.00  0.00    -0.247 NA 
BRANCH  13  14
HETATM   14  C   UNL     1      -8.259  19.868  67.336  1.00  0.00    -0.320 C  
BRANCH  14  15
HETATM   15  C   UNL     1      -7.896  20.048  65.840  1.00  0.00    -0.277 C  
BRANCH  15  16
HETATM   16  C   UNL     1      -6.487  19.553  65.460  1.00  0.00    -0.284 C  
HETATM   17  C   UNL     1      -5.409  20.496  66.007  1.00  0.00    -0.211 C  
ENDBRANCH  15  16
ENDBRANCH  14  15
ENDBRANCH  13  14
BRANCH  13  18
HETATM   18  C   UNL     1      -6.969  18.301  68.835  1.00  0.00    -0.278 C  
BRANCH  18  19
HETATM   19  C   UNL     1      -6.579  19.618  69.549  1.00  0.00    -0.383 C  
BRANCH  19  20
HETATM   20  C   UNL     1      -5.209  19.582  70.250  1.00  0.00    -0.222 C  
HETATM   21  C   UNL     1      -5.365  19.171  71.719  1.00  0.00    -0.311 C  
ENDBRANCH  19  20
ENDBRANCH  18  19
ENDBRANCH  13  18
ENDBRANCH   8  13
ENDBRANCH   5   6
BRANCH   5  22
HETATM   22  C   UNL     1     -11.936  11.167  68.981  1.00  0.00    -0.320 C  
BRANCH  22  23
HETATM   23  C   UNL     1     -11.441  10.882  70.411  1.00  0.00    -0.367 C  
BRANCH  23  24
HETATM   24  C   UNL     1     -11.770   9.478  70.935  1.00  0.00    -0.391 C  
HETATM   25  C   UNL     1     -10.637   8.960  71.829  1.00  0.00    -0.432 C  
ENDBRANCH  23  24
ENDBRANCH  22  23
ENDBRANCH   5  22
ENDBRANCH   4   5
ENDBRANCH   3   4
ENDBRANCH   2   3
TORSDOF 14
ENDMDL
MODEL       90
REMARK 921   NORMALIZED FREE ENERGY PREDICTED BY IDOCK:   -3.82 KCAL/MOL
REMARK 922        TOTAL FREE ENERGY PREDICTED BY IDOCK:   -8.33 KCAL/MOL
REMARK 923 INTER-LIGAND FREE ENERGY PREDICTED BY IDOCK:   -7.08 KCAL/MOL
REMARK 924 INTRA-LIGAND FREE ENERGY PREDICTED BY IDOCK:   -1.25 KCAL/MOL
REMARK 927      BINDING AFFINITY PREDICTED BY RF-SCORE:    0.00 PKD
ROOT
HETATM    1  C   UNL     1      -9.074   3.799  68.316  1.00  0.00    -0.193 C  
HETATM    2  C   UNL     1      -9.468   3.471  69.757  1.00  0.00    -0.241 C  
ENDROOT
BRANCH   2   3
HETATM    3  C   UNL     1      -8.309   3.744  70.735  1.00  0.00    -0.091 C  
BRANCH   3   4
HETATM    4  C   UNL     1      -8.700   4.782  71.809  1.00  0.00    -0.123 C  
BRANCH   4   5
HETATM    5  N   UNL     1      -8.812   6.151  71.272  1.00  0.00    -0.136 NA 
BRANCH   5   6
HETATM    6  C   UNL     1     -10.095   6.839  71.323  1.00  0.00    -0.187 C  
HETATM    7  S   UNL     1     -10.515   7.954  72.722  1.00  0.00    -0.361 SA 
HETATM    8  C   UNL     1     -12.441  11.090  70.840  1.00  0.00    -0.410 C  
HETATM    9  S   UNL     1     -11.141   6.932  70.026  1.00  0.00    -0.303 SA 
HETATM   10 ZN   UNL     1     -11.540   8.812  71.070  1.00  0.00    -0.245 Zn 
HETATM   11  S   UNL     1     -13.300   9.938  71.674  1.00  0.00    -0.368 SA 
HETATM   12  S   UNL     1     -10.943  10.523  69.941  1.00  0.00    -0.287 SA 
BRANCH   8  13
HETATM   13  N   UNL     1     -12.659  12.498  71.033  1.00  0.00    -0.326 NA 
BRANCH  13  14
HETATM   14  C   UNL     1     -13.175  13.030  72.294  1.00  0.00    -0.435 C  
BRANCH  14  15
HETATM   15  C   UNL     1     -14.138  14.223  72.073  1.00  0.00    -0.618 C  
BRANCH  15  16
HETATM   16  C   UNL     1     -13.748  15.508  72.829  1.00  0.00    -0.642 C  
HETATM   17  C   UNL     1     -12.518  15.269  73.714  1.00  0.00    -0.746 C  
ENDBRANCH  15  16
ENDBRANCH  14  15
ENDBRANCH  13  14
BRANCH  13  18
HETATM   18  C   UNL     1     -12.333  13.432  69.949  1.00  0.00    -0.195 C  
BRANCH  18  19
HETATM   19  C   UNL     1     -11.177  14.388  70.329  1.00  0.00    -0.102 C  
BRANCH  19  20
HETATM   20  C   UNL     1     -11.373  15.842  69.863  1.00  0.00    -0.348 C  
HETATM   21  C   UNL     1     -11.156  15.959  68.350  1.00  0.00    -0.345 C  
ENDBRANCH  19  20
ENDBRANCH  18  19
ENDBRANCH  13  18
ENDBRANCH   8  13
ENDBRANCH   5   6
BRANCH   5  22
HETATM   22  C   UNL     1      -7.611   6.819  70.756  1.00  0.00    -0.092 C  
BRANCH  22  23
HETATM   23  C   UNL     1      -7.384   6.693  69.237  1.00  0.00    -0.093 C  
BRANCH  23  24
HETATM   24  C   UNL     1      -7.719   7.956  68.432  1.00  0.00    -0.114 C  
HETATM   25  C   UNL     1      -7.645   9.198  69.328  1.00  0.00    -0.079 C  
ENDBRANCH  23  24
ENDBRANCH  22  23
ENDBRANCH   5  22
ENDBRANCH   4   5
ENDBRANCH   3   4
ENDBRANCH   2   3
TORSDOF 14
ENDMDL
MODEL       91
REMARK 921   NORMALIZED FREE ENERGY PREDICTED BY IDOCK:   -3.82 KCAL/MOL
REMARK 922        TOTAL FREE ENERGY PREDICTED BY IDOCK:   -8.33 KCAL/MOL
REMARK 923 INTER-LIGAND FREE ENERGY PREDICTED BY IDOCK:   -7.14 KCAL/MOL
REMARK 924 INTRA-LIGAND FREE ENERGY PREDICTED BY IDOCK:   -1.19 KCAL/MOL
REMARK 927      BINDING AFFINITY PREDICTED BY RF-SCORE:    0.00 PKD
ROOT
HETATM    1  C   UNL     1      -9.407   4.894  67.835  1.00  0.00    -0.155 C  
HETATM    2  C   UNL     1     -10.502   5.197  66.810  1.00  0.00    -0.306 C  
ENDROOT
BRANCH   2   3
HETATM    3  C   UNL     1     -10.898   6.686  66.832  1.00  0.00    -0.415 C  
BRANCH   3   4
HETATM    4  C   UNL     1     -10.189   7.449  67.972  1.00  0.00    -0.191 C  
BRANCH   4   5
HETATM    5  N   UNL     1      -9.500   8.666  67.509  1.00  0.00    -0.146 NA 
BRANCH   5   6
HETATM    6  C   UNL     1     -10.284   9.806  67.051  1.00  0.00    -0.229 C  
HETATM    7  S   UNL     1     -11.361  10.739  68.211  1.00  0.00    -0.282 SA 
HETATM    8  C   UNL     1     -10.766  14.661  67.050  1.00  0.00    -0.290 C  
HETATM    9  S   UNL     1     -10.057  10.543  65.571  1.00  0.00    -0.270 SA 
HETATM   10 ZN   UNL     1     -10.729  12.212  66.815  1.00  0.00    -0.209 Zn 
HETATM   11  S   UNL     1     -12.152  13.847  66.627  1.00  0.00    -0.433 SA 
HETATM   12  S   UNL     1      -9.211  13.684  67.107  1.00  0.00    -0.252 SA 
BRANCH   8  13
HETATM   13  N   UNL     1     -10.797  15.977  67.627  1.00  0.00    -0.323 NA 
BRANCH  13  14
HETATM   14  C   UNL     1     -11.481  16.245  68.891  1.00  0.00    -0.282 C  
BRANCH  14  15
HETATM   15  C   UNL     1     -10.762  15.585  70.095  1.00  0.00    -0.345 C  
BRANCH  15  16
HETATM   16  C   UNL     1     -11.589  15.553  71.395  1.00  0.00    -0.481 C  
HETATM   17  C   UNL     1     -13.091  15.500  71.086  1.00  0.00    -0.573 C  
ENDBRANCH  15  16
ENDBRANCH  14  15
ENDBRANCH  13  14
BRANCH  13  18
HETATM   18  C   UNL     1     -10.103  17.077  66.948  1.00  0.00    -0.298 C  
BRANCH  18  19
HETATM   19  C   UNL     1      -8.930  17.637  67.788  1.00  0.00    -0.247 C  
BRANCH  19  20
HETATM   20  C   UNL     1      -9.073  19.120  68.175  1.00  0.00    -0.371 C  
HETATM   21  C   UNL     1     -10.431  19.668  67.721  1.00  0.00    -0.573 C  
ENDBRANCH  19  20
ENDBRANCH  18  19
ENDBRANCH  13  18
ENDBRANCH   8  13
ENDBRANCH   5   6
BRANCH   5  22
HETATM   22  C   UNL     1      -8.034   8.731  67.579  1.00  0.00    -0.102 C  
BRANCH  22  23
HETATM   23  C   UNL     1      -7.432   8.605  68.991  1.00  0.00    -0.089 C  
BRANCH  23  24
HETATM   24  C   UNL     1      -7.784   9.756  69.943  1.00  0.00    -0.162 C  
HETATM   25  C   UNL     1      -7.242  11.084  69.402  1.00  0.00    -0.114 C  
ENDBRANCH  23  24
ENDBRANCH  22  23
ENDBRANCH   5  22
ENDBRANCH   4   5
ENDBRANCH   3   4
ENDBRANCH   2   3
TORSDOF 14
ENDMDL
MODEL       92
REMARK 921   NORMALIZED FREE ENERGY PREDICTED BY IDOCK:   -3.82 KCAL/MOL
REMARK 922        TOTAL FREE ENERGY PREDICTED BY IDOCK:   -8.32 KCAL/MOL
REMARK 923 INTER-LIGAND FREE ENERGY PREDICTED BY IDOCK:   -7.41 KCAL/MOL
REMARK 924 INTRA-LIGAND FREE ENERGY PREDICTED BY IDOCK:   -0.92 KCAL/MOL
REMARK 927      BINDING AFFINITY PREDICTED BY RF-SCORE:    0.00 PKD
ROOT
HETATM    1  C   UNL     1     -10.268  10.825  64.660  1.00  0.00    -0.419 C  
HETATM    2  C   UNL     1      -9.743  10.118  65.911  1.00  0.00    -0.292 C  
ENDROOT
BRANCH   2   3
HETATM    3  C   UNL     1     -10.733  10.242  67.086  1.00  0.00    -0.303 C  
BRANCH   3   4
HETATM    4  C   UNL     1     -10.307  11.347  68.077  1.00  0.00    -0.184 C  
BRANCH   4   5
HETATM    5  N   UNL     1     -11.448  12.121  68.599  1.00  0.00    -0.270 NA 
BRANCH   5   6
HETATM    6  C   UNL     1     -11.551  13.542  68.296  1.00  0.00    -0.346 C  
HETATM    7  S   UNL     1     -10.864  14.804  69.440  1.00  0.00    -0.243 SA 
HETATM    8  C   UNL     1      -9.199  17.565  66.854  1.00  0.00    -0.265 C  
HETATM    9  S   UNL     1     -12.002  14.133  66.802  1.00  0.00    -0.441 SA 
HETATM   10 ZN   UNL     1     -10.649  15.694  67.522  1.00  0.00    -0.248 Zn 
HETATM   11  S   UNL     1     -10.650  17.867  67.604  1.00  0.00    -0.337 SA 
HETATM   12  S   UNL     1      -8.858  15.827  66.366  1.00  0.00    -0.349 SA 
BRANCH   8  13
HETATM   13  N   UNL     1      -8.129  18.527  66.839  1.00  0.00    -0.238 NA 
BRANCH  13  14
HETATM   14  C   UNL     1      -8.321  19.881  66.323  1.00  0.00    -0.340 C  
BRANCH  14  15
HETATM   15  C   UNL     1      -7.525  20.933  67.135  1.00  0.00    -0.332 C  
BRANCH  15  16
HETATM   16  C   UNL     1      -6.193  21.364  66.490  1.00  0.00    -0.308 C  
HETATM   17  C   UNL     1      -6.157  20.987  65.004  1.00  0.00    -0.254 C  
ENDBRANCH  15  16
ENDBRANCH  14  15
ENDBRANCH  13  14
BRANCH  13  18
HETATM   18  C   UNL     1      -6.817  18.152  67.379  1.00  0.00    -0.195 C  
BRANCH  18  19
HETATM   19  C   UNL     1      -6.852  17.946  68.912  1.00  0.00    -0.250 C  
BRANCH  19  20
HETATM   20  C   UNL     1      -6.518  16.515  69.371  1.00  0.00    -0.210 C  
HETATM   21  C   UNL     1      -5.472  15.882  68.446  1.00  0.00    -0.106 C  
ENDBRANCH  19  20
ENDBRANCH  18  19
ENDBRANCH  13  18
ENDBRANCH   8  13
ENDBRANCH   5   6
BRANCH   5  22
HETATM   22  C   UNL     1     -12.495  11.428  69.363  1.00  0.00     0.024 C  
BRANCH  22  23
HETATM   23  C   UNL     1     -12.134  11.082  70.820  1.00  0.00    -0.467 C  
BRANCH  23  24
HETATM   24  C   UNL     1     -13.216  11.434  71.849  1.00  0.00    -0.485 C  
HETATM   25  C   UNL     1     -13.272  12.950  72.072  1.00  0.00    -0.549 C  
ENDBRANCH  23  24
ENDBRANCH  22  23
ENDBRANCH   5  22
ENDBRANCH   4   5
ENDBRANCH   3   4
ENDBRANCH   2   3
TORSDOF 14
ENDMDL
MODEL       93
REMARK 921   NORMALIZED FREE ENERGY PREDICTED BY IDOCK:   -3.81 KCAL/MOL
REMARK 922        TOTAL FREE ENERGY PREDICTED BY IDOCK:   -8.31 KCAL/MOL
REMARK 923 INTER-LIGAND FREE ENERGY PREDICTED BY IDOCK:   -7.31 KCAL/MOL
REMARK 924 INTRA-LIGAND FREE ENERGY PREDICTED BY IDOCK:   -1.01 KCAL/MOL
REMARK 927      BINDING AFFINITY PREDICTED BY RF-SCORE:    0.00 PKD
ROOT
HETATM    1  C   UNL     1      -8.576   3.977  70.381  1.00  0.00    -0.109 C  
HETATM    2  C   UNL     1     -10.016   4.485  70.286  1.00  0.00    -0.288 C  
ENDROOT
BRANCH   2   3
HETATM    3  C   UNL     1     -10.087   6.014  70.468  1.00  0.00    -0.244 C  
BRANCH   3   4
HETATM    4  C   UNL     1     -11.196   6.641  69.595  1.00  0.00    -0.340 C  
BRANCH   4   5
HETATM    5  N   UNL     1     -10.687   7.186  68.323  1.00  0.00    -0.184 NA 
BRANCH   5   6
HETATM    6  C   UNL     1     -10.010   8.476  68.314  1.00  0.00    -0.184 C  
HETATM    7  S   UNL     1      -9.362   9.192  66.751  1.00  0.00    -0.178 SA 
HETATM    8  C   UNL     1     -10.295  13.200  67.130  1.00  0.00    -0.247 C  
HETATM    9  S   UNL     1     -10.028   9.534  69.605  1.00  0.00    -0.220 SA 
HETATM   10 ZN   UNL     1      -9.902  10.897  67.899  1.00  0.00    -0.155 Zn 
HETATM   11  S   UNL     1      -8.742  12.660  67.371  1.00  0.00    -0.200 SA 
HETATM   12  S   UNL     1     -11.657  12.091  67.669  1.00  0.00    -0.298 SA 
BRANCH   8  13
HETATM   13  N   UNL     1     -10.592  14.327  66.287  1.00  0.00    -0.286 NA 
BRANCH  13  14
HETATM   14  C   UNL     1     -10.614  14.211  64.830  1.00  0.00    -0.418 C  
BRANCH  14  15
HETATM   15  C   UNL     1     -12.028  13.869  64.294  1.00  0.00    -0.477 C  
BRANCH  15  16
HETATM   16  C   UNL     1     -12.162  12.452  63.704  1.00  0.00    -0.653 C  
HETATM   17  C   UNL     1     -10.794  11.765  63.615  1.00  0.00    -0.508 C  
ENDBRANCH  15  16
ENDBRANCH  14  15
ENDBRANCH  13  14
BRANCH  13  18
HETATM   18  C   UNL     1     -10.907  15.622  66.901  1.00  0.00    -0.282 C  
BRANCH  18  19
HETATM   19  C   UNL     1     -10.218  16.800  66.172  1.00  0.00    -0.363 C  
BRANCH  19  20
HETATM   20  C   UNL     1     -10.365  18.160  66.877  1.00  0.00    -0.386 C  
HETATM   21  C   UNL     1     -10.043  18.031  68.371  1.00  0.00    -0.392 C  
ENDBRANCH  19  20
ENDBRANCH  18  19
ENDBRANCH  13  18
ENDBRANCH   8  13
ENDBRANCH   5   6
BRANCH   5  22
HETATM   22  C   UNL     1     -10.815   6.386  67.098  1.00  0.00    -0.393 C  
BRANCH  22  23
HETATM   23  C   UNL     1      -9.549   5.619  66.672  1.00  0.00    -0.166 C  
BRANCH  23  24
HETATM   24  C   UNL     1      -9.785   4.150  66.298  1.00  0.00    -0.219 C  
HETATM   25  C   UNL     1     -10.565   4.050  64.982  1.00  0.00    -0.116 C  
ENDBRANCH  23  24
ENDBRANCH  22  23
ENDBRANCH   5  22
ENDBRANCH   4   5
ENDBRANCH   3   4
ENDBRANCH   2   3
TORSDOF 14
ENDMDL
MODEL       94
REMARK 921   NORMALIZED FREE ENERGY PREDICTED BY IDOCK:   -3.80 KCAL/MOL
REMARK 922        TOTAL FREE ENERGY PREDICTED BY IDOCK:   -8.30 KCAL/MOL
REMARK 923 INTER-LIGAND FREE ENERGY PREDICTED BY IDOCK:   -7.38 KCAL/MOL
REMARK 924 INTRA-LIGAND FREE ENERGY PREDICTED BY IDOCK:   -0.91 KCAL/MOL
REMARK 927      BINDING AFFINITY PREDICTED BY RF-SCORE:    0.00 PKD
ROOT
HETATM    1  C   UNL     1     -11.863   7.871  72.240  1.00  0.00    -0.404 C  
HETATM    2  C   UNL     1     -12.551   6.910  71.268  1.00  0.00    -0.394 C  
ENDROOT
BRANCH   2   3
HETATM    3  C   UNL     1     -11.615   6.517  70.108  1.00  0.00    -0.466 C  
BRANCH   3   4
HETATM    4  C   UNL     1     -10.264   5.976  70.623  1.00  0.00    -0.205 C  
BRANCH   4   5
HETATM    5  N   UNL     1      -9.129   6.346  69.758  1.00  0.00    -0.141 NA 
BRANCH   5   6
HETATM    6  C   UNL     1      -8.853   7.752  69.496  1.00  0.00    -0.139 C  
HETATM    7  S   UNL     1      -9.032   8.451  67.806  1.00  0.00    -0.136 SA 
HETATM    8  C   UNL     1     -10.739  12.146  68.527  1.00  0.00    -0.232 C  
HETATM    9  S   UNL     1      -8.659   8.891  70.699  1.00  0.00    -0.213 SA 
HETATM   10 ZN   UNL     1      -9.522  10.081  69.079  1.00  0.00    -0.138 Zn 
HETATM   11  S   UNL     1      -9.125  12.010  68.156  1.00  0.00    -0.191 SA 
HETATM   12  S   UNL     1     -11.477  10.803  69.540  1.00  0.00    -0.320 SA 
BRANCH   8  13
HETATM   13  N   UNL     1     -11.601  13.088  67.865  1.00  0.00    -0.320 NA 
BRANCH  13  14
HETATM   14  C   UNL     1     -12.089  12.859  66.506  1.00  0.00    -0.305 C  
BRANCH  14  15
HETATM   15  C   UNL     1     -12.120  14.163  65.670  1.00  0.00    -0.425 C  
BRANCH  15  16
HETATM   16  C   UNL     1     -10.832  14.439  64.869  1.00  0.00    -0.430 C  
HETATM   17  C   UNL     1      -9.868  15.322  65.671  1.00  0.00    -0.383 C  
ENDBRANCH  15  16
ENDBRANCH  14  15
ENDBRANCH  13  14
BRANCH  13  18
HETATM   18  C   UNL     1     -12.026  14.298  68.577  1.00  0.00    -0.317 C  
BRANCH  18  19
HETATM   19  C   UNL     1     -12.059  14.093  70.111  1.00  0.00    -0.411 C  
BRANCH  19  20
HETATM   20  C   UNL     1     -12.419  15.355  70.915  1.00  0.00    -0.474 C  
HETATM   21  C   UNL     1     -13.845  15.255  71.469  1.00  0.00    -0.617 C  
ENDBRANCH  19  20
ENDBRANCH  18  19
ENDBRANCH  13  18
ENDBRANCH   8  13
ENDBRANCH   5   6
BRANCH   5  22
HETATM   22  C   UNL     1      -8.257   5.288  69.228  1.00  0.00    -0.092 C  
BRANCH  22  23
HETATM   23  C   UNL     1      -8.479   4.925  67.748  1.00  0.00    -0.104 C  
BRANCH  23  24
HETATM   24  C   UNL     1      -9.856   4.324  67.436  1.00  0.00    -0.176 C  
HETATM   25  C   UNL     1     -10.502   5.050  66.250  1.00  0.00    -0.352 C  
ENDBRANCH  23  24
ENDBRANCH  22  23
ENDBRANCH   5  22
ENDBRANCH   4   5
ENDBRANCH   3   4
ENDBRANCH   2   3
TORSDOF 14
ENDMDL
MODEL       95
REMARK 921   NORMALIZED FREE ENERGY PREDICTED BY IDOCK:   -3.80 KCAL/MOL
REMARK 922        TOTAL FREE ENERGY PREDICTED BY IDOCK:   -8.29 KCAL/MOL
REMARK 923 INTER-LIGAND FREE ENERGY PREDICTED BY IDOCK:   -6.97 KCAL/MOL
REMARK 924 INTRA-LIGAND FREE ENERGY PREDICTED BY IDOCK:   -1.32 KCAL/MOL
REMARK 927      BINDING AFFINITY PREDICTED BY RF-SCORE:    0.00 PKD
ROOT
HETATM    1  C   UNL     1     -12.130  12.826  63.526  1.00  0.00    -0.642 C  
HETATM    2  C   UNL     1     -11.923  14.015  64.465  1.00  0.00    -0.470 C  
ENDROOT
BRANCH   2   3
HETATM    3  C   UNL     1     -10.439  14.182  64.845  1.00  0.00    -0.461 C  
BRANCH   3   4
HETATM    4  C   UNL     1     -10.270  14.577  66.328  1.00  0.00    -0.297 C  
BRANCH   4   5
HETATM    5  N   UNL     1     -10.772  13.549  67.258  1.00  0.00    -0.266 NA 
BRANCH   5   6
HETATM    6  C   UNL     1     -10.173  12.220  67.251  1.00  0.00    -0.210 C  
HETATM    7  S   UNL     1      -8.633  11.874  68.191  1.00  0.00    -0.168 SA 
HETATM    8  C   UNL     1      -9.357   8.125  69.774  1.00  0.00    -0.159 C  
HETATM    9  S   UNL     1     -10.953  10.863  66.675  1.00  0.00    -0.074 SA 
HETATM   10 ZN   UNL     1      -9.684  10.027  68.248  1.00  0.00    -0.134 Zn 
HETATM   11  S   UNL     1      -8.356   8.318  68.462  1.00  0.00    -0.129 SA 
HETATM   12  S   UNL     1     -10.809   9.245  69.885  1.00  0.00    -0.220 SA 
BRANCH   8  13
HETATM   13  N   UNL     1      -8.978   7.341  70.918  1.00  0.00    -0.150 NA 
BRANCH  13  14
HETATM   14  C   UNL     1      -9.406   5.952  71.073  1.00  0.00    -0.161 C  
BRANCH  14  15
HETATM   15  C   UNL     1     -10.948   5.807  71.024  1.00  0.00    -0.300 C  
BRANCH  15  16
HETATM   16  C   UNL     1     -11.637   5.836  72.403  1.00  0.00    -0.320 C  
HETATM   17  C   UNL     1     -11.075   4.741  73.318  1.00  0.00    -0.411 C  
ENDBRANCH  15  16
ENDBRANCH  14  15
ENDBRANCH  13  14
BRANCH  13  18
HETATM   18  C   UNL     1      -8.119   7.939  71.946  1.00  0.00    -0.115 C  
BRANCH  18  19
HETATM   19  C   UNL     1      -8.886   8.219  73.261  1.00  0.00    -0.283 C  
BRANCH  19  20
HETATM   20  C   UNL     1      -8.447   7.349  74.452  1.00  0.00    -0.249 C  
HETATM   21  C   UNL     1      -7.133   6.624  74.138  1.00  0.00    -0.090 C  
ENDBRANCH  19  20
ENDBRANCH  18  19
ENDBRANCH  13  18
ENDBRANCH   8  13
ENDBRANCH   5   6
BRANCH   5  22
HETATM   22  C   UNL     1     -11.824  13.903  68.220  1.00  0.00    -0.376 C  
BRANCH  22  23
HETATM   23  C   UNL     1     -11.794  13.127  69.550  1.00  0.00    -0.383 C  
BRANCH  23  24
HETATM   24  C   UNL     1     -12.425  13.867  70.738  1.00  0.00    -0.445 C  
HETATM   25  C   UNL     1     -12.398  15.381  70.501  1.00  0.00    -0.452 C  
ENDBRANCH  23  24
ENDBRANCH  22  23
ENDBRANCH   5  22
ENDBRANCH   4   5
ENDBRANCH   3   4
ENDBRANCH   2   3
TORSDOF 14
ENDMDL
MODEL       96
REMARK 921   NORMALIZED FREE ENERGY PREDICTED BY IDOCK:   -3.78 KCAL/MOL
REMARK 922        TOTAL FREE ENERGY PREDICTED BY IDOCK:   -8.26 KCAL/MOL
REMARK 923 INTER-LIGAND FREE ENERGY PREDICTED BY IDOCK:   -7.24 KCAL/MOL
REMARK 924 INTRA-LIGAND FREE ENERGY PREDICTED BY IDOCK:   -1.02 KCAL/MOL
REMARK 927      BINDING AFFINITY PREDICTED BY RF-SCORE:    0.00 PKD
ROOT
HETATM    1  C   UNL     1     -10.516   4.797  74.396  1.00  0.00    -0.331 C  
HETATM    2  C   UNL     1     -11.440   4.972  73.189  1.00  0.00    -0.362 C  
ENDROOT
BRANCH   2   3
HETATM    3  C   UNL     1     -11.173   6.306  72.463  1.00  0.00    -0.316 C  
BRANCH   3   4
HETATM    4  C   UNL     1     -11.077   6.114  70.934  1.00  0.00    -0.307 C  
BRANCH   4   5
HETATM    5  N   UNL     1      -9.710   6.299  70.416  1.00  0.00    -0.164 NA 
BRANCH   5   6
HETATM    6  C   UNL     1      -9.308   7.600  69.898  1.00  0.00    -0.150 C  
HETATM    7  S   UNL     1      -9.574   8.038  68.133  1.00  0.00    -0.156 SA 
HETATM    8  C   UNL     1     -10.784  11.985  68.349  1.00  0.00    -0.229 C  
HETATM    9  S   UNL     1      -8.871   8.883  70.872  1.00  0.00    -0.236 SA 
HETATM   10 ZN   UNL     1      -9.753   9.898  69.147  1.00  0.00    -0.149 Zn 
HETATM   11  S   UNL     1      -9.239  11.591  67.881  1.00  0.00    -0.174 SA 
HETATM   12  S   UNL     1     -11.562  10.923  69.631  1.00  0.00    -0.352 SA 
BRANCH   8  13
HETATM   13  N   UNL     1     -11.597  12.910  67.607  1.00  0.00    -0.334 NA 
BRANCH  13  14
HETATM   14  C   UNL     1     -11.935  12.680  66.204  1.00  0.00    -0.395 C  
BRANCH  14  15
HETATM   15  C   UNL     1     -12.744  13.856  65.599  1.00  0.00    -0.534 C  
BRANCH  15  16
HETATM   16  C   UNL     1     -12.038  14.588  64.441  1.00  0.00    -0.492 C  
HETATM   17  C   UNL     1     -10.943  15.521  64.970  1.00  0.00    -0.454 C  
ENDBRANCH  15  16
ENDBRANCH  14  15
ENDBRANCH  13  14
BRANCH  13  18
HETATM   18  C   UNL     1     -12.127  14.102  68.280  1.00  0.00    -0.262 C  
BRANCH  18  19
HETATM   19  C   UNL     1     -11.089  14.749  69.227  1.00  0.00    -0.283 C  
BRANCH  19  20
HETATM   20  C   UNL     1     -11.608  15.023  70.650  1.00  0.00    -0.358 C  
HETATM   21  C   UNL     1     -12.987  14.384  70.854  1.00  0.00    -0.413 C  
ENDBRANCH  19  20
ENDBRANCH  18  19
ENDBRANCH  13  18
ENDBRANCH   8  13
ENDBRANCH   5   6
BRANCH   5  22
HETATM   22  C   UNL     1      -8.757   5.183  70.491  1.00  0.00    -0.119 C  
BRANCH  22  23
HETATM   23  C   UNL     1      -9.375   3.776  70.387  1.00  0.00    -0.235 C  
BRANCH  23  24
HETATM   24  C   UNL     1      -9.395   3.188  68.970  1.00  0.00    -0.230 C  
HETATM   25  C   UNL     1      -9.293   4.306  67.925  1.00  0.00    -0.200 C  
ENDBRANCH  23  24
ENDBRANCH  22  23
ENDBRANCH   5  22
ENDBRANCH   4   5
ENDBRANCH   3   4
ENDBRANCH   2   3
TORSDOF 14
ENDMDL
MODEL       97
REMARK 921   NORMALIZED FREE ENERGY PREDICTED BY IDOCK:   -3.77 KCAL/MOL
REMARK 922        TOTAL FREE ENERGY PREDICTED BY IDOCK:   -8.24 KCAL/MOL
REMARK 923 INTER-LIGAND FREE ENERGY PREDICTED BY IDOCK:   -7.15 KCAL/MOL
REMARK 924 INTRA-LIGAND FREE ENERGY PREDICTED BY IDOCK:   -1.09 KCAL/MOL
REMARK 927      BINDING AFFINITY PREDICTED BY RF-SCORE:    0.00 PKD
ROOT
HETATM    1  C   UNL     1      -8.371   8.208  72.771  1.00  0.00    -0.240 C  
HETATM    2  C   UNL     1      -9.823   8.341  72.310  1.00  0.00    -0.364 C  
ENDROOT
BRANCH   2   3
HETATM    3  C   UNL     1      -9.937   9.235  71.059  1.00  0.00    -0.364 C  
BRANCH   3   4
HETATM    4  C   UNL     1     -11.021   8.721  70.088  1.00  0.00    -0.223 C  
BRANCH   4   5
HETATM    5  N   UNL     1     -10.598   8.770  68.676  1.00  0.00    -0.181 NA 
BRANCH   5   6
HETATM    6  C   UNL     1     -10.893   9.952  67.877  1.00  0.00    -0.258 C  
HETATM    7  S   UNL     1     -11.744  11.403  68.616  1.00  0.00    -0.319 SA 
HETATM    8  C   UNL     1      -9.737  14.594  66.920  1.00  0.00    -0.242 C  
HETATM    9  S   UNL     1     -10.242  10.226  66.366  1.00  0.00    -0.205 SA 
HETATM   10 ZN   UNL     1     -10.482  12.259  67.135  1.00  0.00    -0.205 Zn 
HETATM   11  S   UNL     1     -11.245  14.152  66.381  1.00  0.00    -0.337 SA 
HETATM   12  S   UNL     1      -8.614  13.243  67.458  1.00  0.00    -0.213 SA 
BRANCH   8  13
HETATM   13  N   UNL     1      -9.406  15.957  67.238  1.00  0.00    -0.209 NA 
BRANCH  13  14
HETATM   14  C   UNL     1     -10.434  16.991  67.349  1.00  0.00    -0.322 C  
BRANCH  14  15
HETATM   15  C   UNL     1     -10.406  17.972  66.150  1.00  0.00    -0.368 C  
BRANCH  15  16
HETATM   16  C   UNL     1     -10.430  19.462  66.544  1.00  0.00    -0.572 C  
HETATM   17  C   UNL     1     -10.401  19.626  68.068  1.00  0.00    -0.579 C  
ENDBRANCH  15  16
ENDBRANCH  14  15
ENDBRANCH  13  14
BRANCH  13  18
HETATM   18  C   UNL     1      -8.006  16.319  67.484  1.00  0.00    -0.151 C  
BRANCH  18  19
HETATM   19  C   UNL     1      -7.827  17.108  68.803  1.00  0.00    -0.258 C  
BRANCH  19  20
HETATM   20  C   UNL     1      -6.571  17.996  68.850  1.00  0.00    -0.241 C  
HETATM   21  C   UNL     1      -6.950  19.455  69.127  1.00  0.00    -0.390 C  
ENDBRANCH  19  20
ENDBRANCH  18  19
ENDBRANCH  13  18
ENDBRANCH   8  13
ENDBRANCH   5   6
BRANCH   5  22
HETATM   22  C   UNL     1      -9.828   7.649  68.120  1.00  0.00    -0.164 C  
BRANCH  22  23
HETATM   23  C   UNL     1      -9.350   6.601  69.142  1.00  0.00    -0.134 C  
BRANCH  23  24
HETATM   24  C   UNL     1     -10.305   5.415  69.338  1.00  0.00    -0.339 C  
HETATM   25  C   UNL     1     -10.247   4.913  70.785  1.00  0.00    -0.276 C  
ENDBRANCH  23  24
ENDBRANCH  22  23
ENDBRANCH   5  22
ENDBRANCH   4   5
ENDBRANCH   3   4
ENDBRANCH   2   3
TORSDOF 14
ENDMDL
MODEL       98
REMARK 921   NORMALIZED FREE ENERGY PREDICTED BY IDOCK:   -3.77 KCAL/MOL
REMARK 922        TOTAL FREE ENERGY PREDICTED BY IDOCK:   -8.23 KCAL/MOL
REMARK 923 INTER-LIGAND FREE ENERGY PREDICTED BY IDOCK:   -7.53 KCAL/MOL
REMARK 924 INTRA-LIGAND FREE ENERGY PREDICTED BY IDOCK:   -0.70 KCAL/MOL
REMARK 927      BINDING AFFINITY PREDICTED BY RF-SCORE:    0.00 PKD
ROOT
HETATM    1  C   UNL     1      -7.954   6.289  64.349  1.00  0.00    -0.113 C  
HETATM    2  C   UNL     1      -7.976   7.596  65.142  1.00  0.00    -0.130 C  
ENDROOT
BRANCH   2   3
HETATM    3  C   UNL     1      -7.629   7.362  66.625  1.00  0.00    -0.100 C  
BRANCH   3   4
HETATM    4  C   UNL     1      -7.967   8.595  67.492  1.00  0.00    -0.106 C  
BRANCH   4   5
HETATM    5  N   UNL     1      -9.413   8.748  67.736  1.00  0.00    -0.140 NA 
BRANCH   5   6
HETATM    6  C   UNL     1     -10.095   9.953  67.282  1.00  0.00    -0.211 C  
HETATM    7  S   UNL     1     -11.416  10.729  68.296  1.00  0.00    -0.218 SA 
HETATM    8  C   UNL     1     -10.644  14.766  67.859  1.00  0.00    -0.248 C  
HETATM    9  S   UNL     1      -9.560  10.887  66.008  1.00  0.00    -0.220 SA 
HETATM   10 ZN   UNL     1     -10.517  12.375  67.296  1.00  0.00    -0.207 Zn 
HETATM   11  S   UNL     1     -11.889  14.041  67.031  1.00  0.00    -0.442 SA 
HETATM   12  S   UNL     1      -9.124  13.768  68.119  1.00  0.00    -0.197 SA 
BRANCH   8  13
HETATM   13  N   UNL     1     -10.823  15.988  68.595  1.00  0.00    -0.283 NA 
BRANCH  13  14
HETATM   14  C   UNL     1     -10.785  17.293  67.937  1.00  0.00    -0.351 C  
BRANCH  14  15
HETATM   15  C   UNL     1     -10.054  18.358  68.794  1.00  0.00    -0.393 C  
BRANCH  15  16
HETATM   16  C   UNL     1     -10.085  19.782  68.207  1.00  0.00    -0.575 C  
HETATM   17  C   UNL     1     -10.473  19.754  66.724  1.00  0.00    -0.610 C  
ENDBRANCH  15  16
ENDBRANCH  14  15
ENDBRANCH  13  14
BRANCH  13  18
HETATM   18  C   UNL     1     -11.076  15.928  70.039  1.00  0.00    -0.354 C  
BRANCH  18  19
HETATM   19  C   UNL     1     -12.514  15.454  70.362  1.00  0.00    -0.447 C  
BRANCH  19  20
HETATM   20  C   UNL     1     -12.940  15.664  71.826  1.00  0.00    -0.541 C  
HETATM   21  C   UNL     1     -13.448  14.351  72.434  1.00  0.00    -0.557 C  
ENDBRANCH  19  20
ENDBRANCH  18  19
ENDBRANCH  13  18
ENDBRANCH   8  13
ENDBRANCH   5   6
BRANCH   5  22
HETATM   22  C   UNL     1     -10.152   7.651  68.375  1.00  0.00    -0.186 C  
BRANCH  22  23
HETATM   23  C   UNL     1      -9.563   7.141  69.704  1.00  0.00    -0.154 C  
BRANCH  23  24
HETATM   24  C   UNL     1     -10.419   6.090  70.423  1.00  0.00    -0.307 C  
HETATM   25  C   UNL     1     -11.858   6.592  70.589  1.00  0.00    -0.443 C  
ENDBRANCH  23  24
ENDBRANCH  22  23
ENDBRANCH   5  22
ENDBRANCH   4   5
ENDBRANCH   3   4
ENDBRANCH   2   3
TORSDOF 14
ENDMDL
MODEL       99
REMARK 921   NORMALIZED FREE ENERGY PREDICTED BY IDOCK:   -3.77 KCAL/MOL
REMARK 922        TOTAL FREE ENERGY PREDICTED BY IDOCK:   -8.23 KCAL/MOL
REMARK 923 INTER-LIGAND FREE ENERGY PREDICTED BY IDOCK:   -6.64 KCAL/MOL
REMARK 924 INTRA-LIGAND FREE ENERGY PREDICTED BY IDOCK:   -1.59 KCAL/MOL
REMARK 927      BINDING AFFINITY PREDICTED BY RF-SCORE:    0.00 PKD
ROOT
HETATM    1  C   UNL     1      -8.132   2.602  71.254  1.00  0.00    -0.063 C  
HETATM    2  C   UNL     1      -9.359   3.010  70.436  1.00  0.00    -0.226 C  
ENDROOT
BRANCH   2   3
HETATM    3  C   UNL     1      -9.412   4.535  70.221  1.00  0.00    -0.241 C  
BRANCH   3   4
HETATM    4  C   UNL     1      -8.814   5.301  71.421  1.00  0.00    -0.134 C  
BRANCH   4   5
HETATM    5  N   UNL     1      -9.843   5.905  72.288  1.00  0.00    -0.161 NA 
BRANCH   5   6
HETATM    6  C   UNL     1     -10.590   7.064  71.817  1.00  0.00    -0.210 C  
HETATM    7  S   UNL     1      -9.814   8.728  71.757  1.00  0.00    -0.317 SA 
HETATM    8  C   UNL     1     -11.248  10.273  68.201  1.00  0.00    -0.229 C  
HETATM    9  S   UNL     1     -12.055   6.953  71.025  1.00  0.00    -0.357 SA 
HETATM   10 ZN   UNL     1     -11.190   8.756  70.137  1.00  0.00    -0.233 Zn 
HETATM   11  S   UNL     1     -11.876  10.764  69.659  1.00  0.00    -0.317 SA 
HETATM   12  S   UNL     1     -10.733   8.514  68.066  1.00  0.00     0.021 SA 
BRANCH   8  13
HETATM   13  N   UNL     1     -10.844  11.209  67.187  1.00  0.00    -0.259 NA 
BRANCH  13  14
HETATM   14  C   UNL     1      -9.709  10.942  66.304  1.00  0.00    -0.204 C  
BRANCH  14  15
HETATM   15  C   UNL     1     -10.160  10.421  64.916  1.00  0.00    -0.382 C  
BRANCH  15  16
HETATM   16  C   UNL     1      -9.943  11.415  63.759  1.00  0.00    -0.381 C  
HETATM   17  C   UNL     1     -11.252  12.127  63.397  1.00  0.00    -0.494 C  
ENDBRANCH  15  16
ENDBRANCH  14  15
ENDBRANCH  13  14
BRANCH  13  18
HETATM   18  C   UNL     1     -11.604  12.451  67.011  1.00  0.00    -0.365 C  
BRANCH  18  19
HETATM   19  C   UNL     1     -10.683  13.676  66.796  1.00  0.00    -0.272 C  
BRANCH  19  20
HETATM   20  C   UNL     1     -11.352  14.858  66.073  1.00  0.00    -0.306 C  
HETATM   21  C   UNL     1     -10.413  15.444  65.012  1.00  0.00    -0.411 C  
ENDBRANCH  19  20
ENDBRANCH  18  19
ENDBRANCH  13  18
ENDBRANCH   8  13
ENDBRANCH   5   6
BRANCH   5  22
HETATM   22  C   UNL     1     -10.141   5.285  73.586  1.00  0.00    -0.192 C  
BRANCH  22  23
HETATM   23  C   UNL     1     -11.140   4.113  73.547  1.00  0.00    -0.359 C  
BRANCH  23  24
HETATM   24  C   UNL     1     -10.580   2.776  74.049  1.00  0.00    -0.249 C  
HETATM   25  C   UNL     1     -11.454   1.612  73.566  1.00  0.00    -0.304 C  
ENDBRANCH  23  24
ENDBRANCH  22  23
ENDBRANCH   5  22
ENDBRANCH   4   5
ENDBRANCH   3   4
ENDBRANCH   2   3
TORSDOF 14
ENDMDL
MODEL      100
REMARK 921   NORMALIZED FREE ENERGY PREDICTED BY IDOCK:   -3.75 KCAL/MOL
REMARK 922        TOTAL FREE ENERGY PREDICTED BY IDOCK:   -8.20 KCAL/MOL
REMARK 923 INTER-LIGAND FREE ENERGY PREDICTED BY IDOCK:   -7.04 KCAL/MOL
REMARK 924 INTRA-LIGAND FREE ENERGY PREDICTED BY IDOCK:   -1.16 KCAL/MOL
REMARK 927      BINDING AFFINITY PREDICTED BY RF-SCORE:    0.00 PKD
ROOT
HETATM    1  C   UNL     1      -6.581   6.172  68.096  1.00  0.00    -0.058 C  
HETATM    2  C   UNL     1      -6.736   7.201  69.217  1.00  0.00    -0.049 C  
ENDROOT
BRANCH   2   3
HETATM    3  C   UNL     1      -7.792   8.266  68.864  1.00  0.00    -0.111 C  
BRANCH   3   4
HETATM    4  C   UNL     1      -7.910   8.468  67.337  1.00  0.00    -0.098 C  
BRANCH   4   5
HETATM    5  N   UNL     1      -9.290   8.314  66.842  1.00  0.00    -0.164 NA 
BRANCH   5   6
HETATM    6  C   UNL     1     -10.084   9.499  66.545  1.00  0.00    -0.256 C  
HETATM    7  S   UNL     1     -11.150  10.267  67.829  1.00  0.00    -0.185 SA 
HETATM    8  C   UNL     1     -10.586  14.310  67.180  1.00  0.00    -0.279 C  
HETATM    9  S   UNL     1      -9.878  10.423  65.172  1.00  0.00    -0.331 SA 
HETATM   10 ZN   UNL     1     -10.542  11.913  66.629  1.00  0.00    -0.207 Zn 
HETATM   11  S   UNL     1     -11.973  13.550  66.672  1.00  0.00    -0.396 SA 
HETATM   12  S   UNL     1      -9.026  13.343  67.093  1.00  0.00    -0.227 SA 
BRANCH   8  13
HETATM   13  N   UNL     1     -10.615  15.540  67.925  1.00  0.00    -0.267 NA 
BRANCH  13  14
HETATM   14  C   UNL     1     -11.709  15.858  68.841  1.00  0.00    -0.370 C  
BRANCH  14  15
HETATM   15  C   UNL     1     -11.763  14.883  70.044  1.00  0.00    -0.338 C  
BRANCH  15  16
HETATM   16  C   UNL     1     -12.661  15.351  71.206  1.00  0.00    -0.477 C  
HETATM   17  C   UNL     1     -11.818  15.725  72.432  1.00  0.00    -0.606 C  
ENDBRANCH  15  16
ENDBRANCH  14  15
ENDBRANCH  13  14
BRANCH  13  18
HETATM   18  C   UNL     1      -9.507  16.492  67.784  1.00  0.00    -0.222 C  
BRANCH  18  19
HETATM   19  C   UNL     1      -9.492  17.173  66.395  1.00  0.00    -0.290 C  
BRANCH  19  20
HETATM   20  C   UNL     1     -10.588  18.235  66.194  1.00  0.00    -0.326 C  
HETATM   21  C   UNL     1     -10.332  19.452  67.091  1.00  0.00    -0.548 C  
ENDBRANCH  19  20
ENDBRANCH  18  19
ENDBRANCH  13  18
ENDBRANCH   8  13
ENDBRANCH   5   6
BRANCH   5  22
HETATM   22  C   UNL     1      -9.816   6.965  66.594  1.00  0.00    -0.153 C  
BRANCH  22  23
HETATM   23  C   UNL     1     -10.906   6.489  67.573  1.00  0.00    -0.433 C  
BRANCH  23  24
HETATM   24  C   UNL     1     -10.375   5.929  68.900  1.00  0.00    -0.290 C  
HETATM   25  C   UNL     1     -11.035   6.644  70.085  1.00  0.00    -0.358 C  
ENDBRANCH  23  24
ENDBRANCH  22  23
ENDBRANCH   5  22
ENDBRANCH   4   5
ENDBRANCH   3   4
ENDBRANCH   2   3
TORSDOF 14
ENDMDL
MODEL      101
REMARK 921   NORMALIZED FREE ENERGY PREDICTED BY IDOCK:   -3.74 KCAL/MOL
REMARK 922        TOTAL FREE ENERGY PREDICTED BY IDOCK:   -8.18 KCAL/MOL
REMARK 923 INTER-LIGAND FREE ENERGY PREDICTED BY IDOCK:   -7.28 KCAL/MOL
REMARK 924 INTRA-LIGAND FREE ENERGY PREDICTED BY IDOCK:   -0.91 KCAL/MOL
REMARK 927      BINDING AFFINITY PREDICTED BY RF-SCORE:    0.00 PKD
ROOT
HETATM    1  C   UNL     1     -12.275  12.708  63.425  1.00  0.00    -0.610 C  
HETATM    2  C   UNL     1     -12.708  12.597  64.888  1.00  0.00    -0.450 C  
ENDROOT
BRANCH   2   3
HETATM    3  C   UNL     1     -12.568  13.945  65.622  1.00  0.00    -0.553 C  
BRANCH   3   4
HETATM    4  C   UNL     1     -11.436  14.807  65.021  1.00  0.00    -0.389 C  
BRANCH   4   5
HETATM    5  N   UNL     1     -10.334  15.052  65.969  1.00  0.00    -0.294 NA 
BRANCH   5   6
HETATM    6  C   UNL     1      -9.639  13.922  66.571  1.00  0.00    -0.287 C  
HETATM    7  S   UNL     1      -9.470  13.779  68.395  1.00  0.00    -0.167 SA 
HETATM    8  C   UNL     1     -10.072   9.743  69.050  1.00  0.00    -0.187 C  
HETATM    9  S   UNL     1      -9.217  12.546  65.726  1.00  0.00     0.237 SA 
HETATM   10 ZN   UNL     1      -9.561  11.760  67.738  1.00  0.00    -0.160 Zn 
HETATM   11  S   UNL     1      -8.545  10.395  69.093  1.00  0.00    -0.150 SA 
HETATM   12  S   UNL     1     -11.250  10.457  67.834  1.00  0.00    -0.164 SA 
BRANCH   8  13
HETATM   13  N   UNL     1     -10.565   8.876  70.087  1.00  0.00    -0.216 NA 
BRANCH  13  14
HETATM   14  C   UNL     1     -10.754   7.444  69.865  1.00  0.00    -0.243 C  
BRANCH  14  15
HETATM   15  C   UNL     1      -9.459   6.636  70.136  1.00  0.00    -0.162 C  
BRANCH  15  16
HETATM   16  C   UNL     1      -8.595   6.376  68.886  1.00  0.00    -0.123 C  
HETATM   17  C   UNL     1      -7.307   5.632  69.257  1.00  0.00    -0.074 C  
ENDBRANCH  15  16
ENDBRANCH  14  15
ENDBRANCH  13  14
BRANCH  13  18
HETATM   18  C   UNL     1     -10.861   9.435  71.411  1.00  0.00    -0.360 C  
BRANCH  18  19
HETATM   19  C   UNL     1     -12.221   8.944  71.963  1.00  0.00    -0.447 C  
BRANCH  19  20
HETATM   20  C   UNL     1     -13.356   9.980  71.875  1.00  0.00    -0.516 C  
HETATM   21  C   UNL     1     -12.816  11.334  71.399  1.00  0.00    -0.515 C  
ENDBRANCH  19  20
ENDBRANCH  18  19
ENDBRANCH  13  18
ENDBRANCH   8  13
ENDBRANCH   5   6
BRANCH   5  22
HETATM   22  C   UNL     1      -9.915  16.434  66.239  1.00  0.00    -0.323 C  
BRANCH  22  23
HETATM   23  C   UNL     1     -10.609  17.115  67.435  1.00  0.00    -0.297 C  
BRANCH  23  24
HETATM   24  C   UNL     1     -10.890  18.612  67.245  1.00  0.00    -0.369 C  
HETATM   25  C   UNL     1      -9.896  19.222  66.250  1.00  0.00    -0.456 C  
ENDBRANCH  23  24
ENDBRANCH  22  23
ENDBRANCH   5  22
ENDBRANCH   4   5
ENDBRANCH   3   4
ENDBRANCH   2   3
TORSDOF 14
ENDMDL
MODEL      102
REMARK 921   NORMALIZED FREE ENERGY PREDICTED BY IDOCK:   -3.74 KCAL/MOL
REMARK 922        TOTAL FREE ENERGY PREDICTED BY IDOCK:   -8.17 KCAL/MOL
REMARK 923 INTER-LIGAND FREE ENERGY PREDICTED BY IDOCK:   -7.28 KCAL/MOL
REMARK 924 INTRA-LIGAND FREE ENERGY PREDICTED BY IDOCK:   -0.89 KCAL/MOL
REMARK 927      BINDING AFFINITY PREDICTED BY RF-SCORE:    0.00 PKD
ROOT
HETATM    1  C   UNL     1      -9.010   5.942  67.553  1.00  0.00    -0.107 C  
HETATM    2  C   UNL     1      -8.191   7.012  68.277  1.00  0.00    -0.124 C  
ENDROOT
BRANCH   2   3
HETATM    3  C   UNL     1      -7.887   6.602  69.731  1.00  0.00    -0.115 C  
BRANCH   3   4
HETATM    4  C   UNL     1      -8.765   5.416  70.184  1.00  0.00    -0.126 C  
BRANCH   4   5
HETATM    5  N   UNL     1      -9.468   5.672  71.455  1.00  0.00    -0.147 NA 
BRANCH   5   6
HETATM    6  C   UNL     1     -10.499   6.700  71.511  1.00  0.00    -0.215 C  
HETATM    7  S   UNL     1     -10.272   8.211  72.530  1.00  0.00    -0.320 SA 
HETATM    8  C   UNL     1     -11.845  11.178  70.120  1.00  0.00    -0.365 C  
HETATM    9  S   UNL     1     -11.795   6.760  70.462  1.00  0.00    -0.304 SA 
HETATM   10 ZN   UNL     1     -11.465   8.877  70.902  1.00  0.00    -0.240 Zn 
HETATM   11  S   UNL     1     -12.700  10.592  71.418  1.00  0.00    -0.466 SA 
HETATM   12  S   UNL     1     -10.804   9.978  69.197  1.00  0.00    -0.217 SA 
BRANCH   8  13
HETATM   13  N   UNL     1     -11.676  12.587  69.887  1.00  0.00    -0.289 NA 
BRANCH  13  14
HETATM   14  C   UNL     1     -10.893  13.091  68.760  1.00  0.00    -0.244 C  
BRANCH  14  15
HETATM   15  C   UNL     1     -11.693  13.057  67.433  1.00  0.00    -0.427 C  
BRANCH  15  16
HETATM   16  C   UNL     1     -11.920  14.439  66.789  1.00  0.00    -0.423 C  
HETATM   17  C   UNL     1     -11.676  14.384  65.276  1.00  0.00    -0.364 C  
ENDBRANCH  15  16
ENDBRANCH  14  15
ENDBRANCH  13  14
BRANCH  13  18
HETATM   18  C   UNL     1     -12.326  13.548  70.786  1.00  0.00    -0.363 C  
BRANCH  18  19
HETATM   19  C   UNL     1     -11.715  14.965  70.670  1.00  0.00    -0.357 C  
BRANCH  19  20
HETATM   20  C   UNL     1     -11.930  15.854  71.908  1.00  0.00    -0.588 C  
HETATM   21  C   UNL     1     -13.131  15.363  72.724  1.00  0.00    -0.568 C  
ENDBRANCH  19  20
ENDBRANCH  18  19
ENDBRANCH  13  18
ENDBRANCH   8  13
ENDBRANCH   5   6
BRANCH   5  22
HETATM   22  C   UNL     1      -9.159   4.840  72.625  1.00  0.00    -0.127 C  
BRANCH  22  23
HETATM   23  C   UNL     1      -9.750   3.418  72.601  1.00  0.00    -0.198 C  
BRANCH  23  24
HETATM   24  C   UNL     1     -11.027   3.240  73.434  1.00  0.00    -0.301 C  
HETATM   25  C   UNL     1     -11.526   1.793  73.349  1.00  0.00    -0.288 C  
ENDBRANCH  23  24
ENDBRANCH  22  23
ENDBRANCH   5  22
ENDBRANCH   4   5
ENDBRANCH   3   4
ENDBRANCH   2   3
TORSDOF 14
ENDMDL
MODEL      103
REMARK 921   NORMALIZED FREE ENERGY PREDICTED BY IDOCK:   -3.72 KCAL/MOL
REMARK 922        TOTAL FREE ENERGY PREDICTED BY IDOCK:   -8.15 KCAL/MOL
REMARK 923 INTER-LIGAND FREE ENERGY PREDICTED BY IDOCK:   -6.93 KCAL/MOL
REMARK 924 INTRA-LIGAND FREE ENERGY PREDICTED BY IDOCK:   -1.22 KCAL/MOL
REMARK 927      BINDING AFFINITY PREDICTED BY RF-SCORE:    0.00 PKD
ROOT
HETATM    1  C   UNL     1     -11.163   6.334  69.202  1.00  0.00    -0.439 C  
HETATM    2  C   UNL     1     -10.968   6.171  67.693  1.00  0.00    -0.400 C  
ENDROOT
BRANCH   2   3
HETATM    3  C   UNL     1     -10.588   7.507  67.026  1.00  0.00    -0.409 C  
BRANCH   3   4
HETATM    4  C   UNL     1      -9.145   7.480  66.478  1.00  0.00    -0.166 C  
BRANCH   4   5
HETATM    5  N   UNL     1      -8.149   7.957  67.455  1.00  0.00    -0.122 NA 
BRANCH   5   6
HETATM    6  C   UNL     1      -8.118   9.368  67.819  1.00  0.00    -0.107 C  
HETATM    7  S   UNL     1      -8.319  10.676  66.545  1.00  0.00    -0.149 SA 
HETATM    8  C   UNL     1     -10.708  13.452  68.462  1.00  0.00    -0.262 C  
HETATM    9  S   UNL     1      -8.206   9.914  69.393  1.00  0.00    -0.160 SA 
HETATM   10 ZN   UNL     1      -9.171  11.538  68.291  1.00  0.00    -0.139 Zn 
HETATM   11  S   UNL     1      -9.077  13.711  68.280  1.00  0.00    -0.173 SA 
HETATM   12  S   UNL     1     -11.249  11.719  68.745  1.00  0.00    -0.276 SA 
BRANCH   8  13
HETATM   13  N   UNL     1     -11.685  14.453  68.129  1.00  0.00    -0.330 NA 
BRANCH  13  14
HETATM   14  C   UNL     1     -11.849  15.663  68.932  1.00  0.00    -0.352 C  
BRANCH  14  15
HETATM   15  C   UNL     1     -12.440  15.358  70.331  1.00  0.00    -0.447 C  
BRANCH  15  16
HETATM   16  C   UNL     1     -11.757  16.110  71.491  1.00  0.00    -0.533 C  
HETATM   17  C   UNL     1     -12.009  15.399  72.827  1.00  0.00    -0.552 C  
ENDBRANCH  15  16
ENDBRANCH  14  15
ENDBRANCH  13  14
BRANCH  13  18
HETATM   18  C   UNL     1     -12.522  14.273  66.937  1.00  0.00    -0.042 C  
BRANCH  18  19
HETATM   19  C   UNL     1     -11.707  13.786  65.716  1.00  0.00    -0.365 C  
BRANCH  19  20
HETATM   20  C   UNL     1     -12.329  12.594  64.967  1.00  0.00    -0.561 C  
HETATM   21  C   UNL     1     -12.070  12.707  63.460  1.00  0.00    -0.648 C  
ENDBRANCH  19  20
ENDBRANCH  18  19
ENDBRANCH  13  18
ENDBRANCH   8  13
ENDBRANCH   5   6
BRANCH   5  22
HETATM   22  C   UNL     1      -7.250   6.987  68.095  1.00  0.00    -0.091 C  
BRANCH  22  23
HETATM   23  C   UNL     1      -7.318   5.553  67.537  1.00  0.00    -0.076 C  
BRANCH  23  24
HETATM   24  C   UNL     1      -7.811   4.499  68.538  1.00  0.00    -0.079 C  
HETATM   25  C   UNL     1      -7.154   4.711  69.907  1.00  0.00    -0.053 C  
ENDBRANCH  23  24
ENDBRANCH  22  23
ENDBRANCH   5  22
ENDBRANCH   4   5
ENDBRANCH   3   4
ENDBRANCH   2   3
TORSDOF 14
ENDMDL
MODEL      104
REMARK 921   NORMALIZED FREE ENERGY PREDICTED BY IDOCK:   -3.70 KCAL/MOL
REMARK 922        TOTAL FREE ENERGY PREDICTED BY IDOCK:   -8.12 KCAL/MOL
REMARK 923 INTER-LIGAND FREE ENERGY PREDICTED BY IDOCK:   -6.89 KCAL/MOL
REMARK 924 INTRA-LIGAND FREE ENERGY PREDICTED BY IDOCK:   -1.23 KCAL/MOL
REMARK 927      BINDING AFFINITY PREDICTED BY RF-SCORE:    0.00 PKD
ROOT
HETATM    1  C   UNL     1      -5.930  16.047  67.693  1.00  0.00    -0.176 C  
HETATM    2  C   UNL     1      -6.715  16.934  68.661  1.00  0.00    -0.178 C  
ENDROOT
BRANCH   2   3
HETATM    3  C   UNL     1      -8.081  17.338  68.074  1.00  0.00    -0.221 C  
BRANCH   3   4
HETATM    4  C   UNL     1      -8.457  16.472  66.853  1.00  0.00    -0.212 C  
BRANCH   4   5
HETATM    5  N   UNL     1      -9.615  15.596  67.103  1.00  0.00    -0.216 NA 
BRANCH   5   6
HETATM    6  C   UNL     1      -9.471  14.153  66.954  1.00  0.00    -0.267 C  
HETATM    7  S   UNL     1      -8.435  13.182  68.119  1.00  0.00    -0.171 SA 
HETATM    8  C   UNL     1     -10.674   9.753  68.684  1.00  0.00    -0.216 C  
HETATM    9  S   UNL     1     -10.433  13.232  65.949  1.00  0.00    -0.289 SA 
HETATM   10 ZN   UNL     1      -9.969  11.822  67.555  1.00  0.00    -0.177 Zn 
HETATM   11  S   UNL     1      -9.337   9.746  67.698  1.00  0.00    -0.141 SA 
HETATM   12  S   UNL     1     -11.688  11.285  68.701  1.00  0.00    -0.310 SA 
BRANCH   8  13
HETATM   13  N   UNL     1     -10.886   8.753  69.695  1.00  0.00    -0.209 NA 
BRANCH  13  14
HETATM   14  C   UNL     1     -11.234   9.112  71.069  1.00  0.00    -0.312 C  
BRANCH  14  15
HETATM   15  C   UNL     1     -12.515   8.387  71.554  1.00  0.00    -0.342 C  
BRANCH  15  16
HETATM   16  C   UNL     1     -13.506   9.285  72.321  1.00  0.00    -0.548 C  
HETATM   17  C   UNL     1     -13.250  10.766  72.017  1.00  0.00    -0.466 C  
ENDBRANCH  15  16
ENDBRANCH  14  15
ENDBRANCH  13  14
BRANCH  13  18
HETATM   18  C   UNL     1     -10.778   7.334  69.338  1.00  0.00    -0.225 C  
BRANCH  18  19
HETATM   19  C   UNL     1      -9.790   6.573  70.253  1.00  0.00    -0.185 C  
BRANCH  19  20
HETATM   20  C   UNL     1     -10.389   5.338  70.950  1.00  0.00    -0.303 C  
HETATM   21  C   UNL     1      -9.305   4.571  71.716  1.00  0.00    -0.194 C  
ENDBRANCH  19  20
ENDBRANCH  18  19
ENDBRANCH  13  18
ENDBRANCH   8  13
ENDBRANCH   5   6
BRANCH   5  22
HETATM   22  C   UNL     1     -10.878  16.189  67.563  1.00  0.00    -0.284 C  
BRANCH  22  23
HETATM   23  C   UNL     1     -11.478  15.565  68.838  1.00  0.00    -0.362 C  
BRANCH  23  24
HETATM   24  C   UNL     1     -10.668  15.817  70.117  1.00  0.00    -0.354 C  
HETATM   25  C   UNL     1     -11.595  15.876  71.336  1.00  0.00    -0.529 C  
ENDBRANCH  23  24
ENDBRANCH  22  23
ENDBRANCH   5  22
ENDBRANCH   4   5
ENDBRANCH   3   4
ENDBRANCH   2   3
TORSDOF 14
ENDMDL
MODEL      105
REMARK 921   NORMALIZED FREE ENERGY PREDICTED BY IDOCK:   -3.70 KCAL/MOL
REMARK 922        TOTAL FREE ENERGY PREDICTED BY IDOCK:   -8.12 KCAL/MOL
REMARK 923 INTER-LIGAND FREE ENERGY PREDICTED BY IDOCK:   -6.99 KCAL/MOL
REMARK 924 INTRA-LIGAND FREE ENERGY PREDICTED BY IDOCK:   -1.12 KCAL/MOL
REMARK 927      BINDING AFFINITY PREDICTED BY RF-SCORE:    0.00 PKD
ROOT
HETATM    1  C   UNL     1     -11.391   1.648  73.441  1.00  0.00    -0.292 C  
HETATM    2  C   UNL     1     -10.260   2.561  72.966  1.00  0.00    -0.219 C  
ENDROOT
BRANCH   2   3
HETATM    3  C   UNL     1     -10.548   4.037  73.304  1.00  0.00    -0.270 C  
BRANCH   3   4
HETATM    4  C   UNL     1      -9.317   4.932  73.043  1.00  0.00    -0.129 C  
BRANCH   4   5
HETATM    5  N   UNL     1      -9.419   5.700  71.789  1.00  0.00    -0.148 NA 
BRANCH   5   6
HETATM    6  C   UNL     1     -10.553   6.591  71.582  1.00  0.00    -0.217 C  
HETATM    7  S   UNL     1     -10.836   8.032  72.686  1.00  0.00    -0.364 SA 
HETATM    8  C   UNL     1     -12.041  10.976  70.046  1.00  0.00    -0.364 C  
HETATM    9  S   UNL     1     -11.490   6.581  70.201  1.00  0.00    -0.389 SA 
HETATM   10 ZN   UNL     1     -11.592   8.681  70.808  1.00  0.00    -0.252 Zn 
HETATM   11  S   UNL     1     -13.144  10.191  71.009  1.00  0.00    -0.316 SA 
HETATM   12  S   UNL     1     -10.626   9.985  69.420  1.00  0.00    -0.249 SA 
BRANCH   8  13
HETATM   13  N   UNL     1     -12.005  12.409  69.933  1.00  0.00    -0.324 NA 
BRANCH  13  14
HETATM   14  C   UNL     1     -12.834  13.267  70.779  1.00  0.00    -0.121 C  
BRANCH  14  15
HETATM   15  C   UNL     1     -12.042  14.477  71.336  1.00  0.00    -0.420 C  
BRANCH  15  16
HETATM   16  C   UNL     1     -12.918  15.663  71.784  1.00  0.00    -0.541 C  
HETATM   17  C   UNL     1     -14.407  15.341  71.605  1.00  0.00    -0.666 C  
ENDBRANCH  15  16
ENDBRANCH  14  15
ENDBRANCH  13  14
BRANCH  13  18
HETATM   18  C   UNL     1     -11.096  13.032  68.964  1.00  0.00    -0.231 C  
BRANCH  18  19
HETATM   19  C   UNL     1     -11.809  13.392  67.638  1.00  0.00    -0.394 C  
BRANCH  19  20
HETATM   20  C   UNL     1     -11.581  14.838  67.163  1.00  0.00    -0.373 C  
HETATM   21  C   UNL     1     -10.115  15.052  66.768  1.00  0.00    -0.257 C  
ENDBRANCH  19  20
ENDBRANCH  18  19
ENDBRANCH  13  18
ENDBRANCH   8  13
ENDBRANCH   5   6
BRANCH   5  22
HETATM   22  C   UNL     1      -8.340   5.601  70.798  1.00  0.00    -0.123 C  
BRANCH  22  23
HETATM   23  C   UNL     1      -7.524   4.295  70.835  1.00  0.00    -0.051 C  
BRANCH  23  24
HETATM   24  C   UNL     1      -7.846   3.305  69.707  1.00  0.00    -0.050 C  
HETATM   25  C   UNL     1      -9.349   3.304  69.408  1.00  0.00    -0.232 C  
ENDBRANCH  23  24
ENDBRANCH  22  23
ENDBRANCH   5  22
ENDBRANCH   4   5
ENDBRANCH   3   4
ENDBRANCH   2   3
TORSDOF 14
ENDMDL
MODEL      106
REMARK 921   NORMALIZED FREE ENERGY PREDICTED BY IDOCK:   -3.70 KCAL/MOL
REMARK 922        TOTAL FREE ENERGY PREDICTED BY IDOCK:   -8.11 KCAL/MOL
REMARK 923 INTER-LIGAND FREE ENERGY PREDICTED BY IDOCK:   -7.19 KCAL/MOL
REMARK 924 INTRA-LIGAND FREE ENERGY PREDICTED BY IDOCK:   -0.92 KCAL/MOL
REMARK 927      BINDING AFFINITY PREDICTED BY RF-SCORE:    0.00 PKD
ROOT
HETATM    1  C   UNL     1     -12.954  15.071  73.104  1.00  0.00    -0.631 C  
HETATM    2  C   UNL     1     -11.741  15.537  72.297  1.00  0.00    -0.578 C  
ENDROOT
BRANCH   2   3
HETATM    3  C   UNL     1     -11.739  14.929  70.880  1.00  0.00    -0.374 C  
BRANCH   3   4
HETATM    4  C   UNL     1     -12.374  13.522  70.863  1.00  0.00    -0.356 C  
BRANCH   4   5
HETATM    5  N   UNL     1     -11.830  12.658  69.799  1.00  0.00    -0.327 NA 
BRANCH   5   6
HETATM    6  C   UNL     1     -12.027  11.217  69.872  1.00  0.00    -0.363 C  
HETATM    7  S   UNL     1     -11.119  10.081  68.749  1.00  0.00    -0.126 SA 
HETATM    8  C   UNL     1     -10.144   6.928  71.238  1.00  0.00    -0.190 C  
HETATM    9  S   UNL     1     -12.820  10.460  71.130  1.00  0.00    -0.440 SA 
HETATM   10 ZN   UNL     1     -11.367   8.940  70.526  1.00  0.00    -0.232 Zn 
HETATM   11  S   UNL     1     -11.389   6.799  70.146  1.00  0.00    -0.347 SA 
HETATM   12  S   UNL     1      -9.892   8.570  72.025  1.00  0.00    -0.328 SA 
BRANCH   8  13
HETATM   13  N   UNL     1      -9.124   5.921  71.361  1.00  0.00    -0.140 NA 
BRANCH  13  14
HETATM   14  C   UNL     1      -8.685   5.429  72.666  1.00  0.00    -0.123 C  
BRANCH  14  15
HETATM   15  C   UNL     1      -9.195   3.993  72.948  1.00  0.00    -0.130 C  
BRANCH  15  16
HETATM   16  C   UNL     1     -10.612   3.925  73.551  1.00  0.00    -0.283 C  
HETATM   17  C   UNL     1     -11.160   2.494  73.500  1.00  0.00    -0.315 C  
ENDBRANCH  15  16
ENDBRANCH  14  15
ENDBRANCH  13  14
BRANCH  13  18
HETATM   18  C   UNL     1      -8.526   5.351  70.149  1.00  0.00    -0.119 C  
BRANCH  18  19
HETATM   19  C   UNL     1      -7.478   6.296  69.513  1.00  0.00    -0.093 C  
BRANCH  19  20
HETATM   20  C   UNL     1      -7.970   7.044  68.261  1.00  0.00    -0.123 C  
HETATM   21  C   UNL     1      -8.841   6.129  67.392  1.00  0.00    -0.106 C  
ENDBRANCH  19  20
ENDBRANCH  18  19
ENDBRANCH  13  18
ENDBRANCH   8  13
ENDBRANCH   5   6
BRANCH   5  22
HETATM   22  C   UNL     1     -11.155  13.276  68.649  1.00  0.00    -0.268 C  
BRANCH  22  23
HETATM   23  C   UNL     1     -12.058  13.589  67.441  1.00  0.00    -0.360 C  
BRANCH  23  24
HETATM   24  C   UNL     1     -11.753  12.766  66.182  1.00  0.00    -0.458 C  
HETATM   25  C   UNL     1     -11.668  13.677  64.953  1.00  0.00    -0.379 C  
ENDBRANCH  23  24
ENDBRANCH  22  23
ENDBRANCH   5  22
ENDBRANCH   4   5
ENDBRANCH   3   4
ENDBRANCH   2   3
TORSDOF 14
ENDMDL
MODEL      107
REMARK 921   NORMALIZED FREE ENERGY PREDICTED BY IDOCK:   -3.70 KCAL/MOL
REMARK 922        TOTAL FREE ENERGY PREDICTED BY IDOCK:   -8.11 KCAL/MOL
REMARK 923 INTER-LIGAND FREE ENERGY PREDICTED BY IDOCK:   -7.24 KCAL/MOL
REMARK 924 INTRA-LIGAND FREE ENERGY PREDICTED BY IDOCK:   -0.87 KCAL/MOL
REMARK 927      BINDING AFFINITY PREDICTED BY RF-SCORE:    0.00 PKD
ROOT
HETATM    1  C   UNL     1     -13.953  15.311  71.467  1.00  0.00    -0.627 C  
HETATM    2  C   UNL     1     -12.461  15.007  71.329  1.00  0.00    -0.402 C  
ENDROOT
BRANCH   2   3
HETATM    3  C   UNL     1     -11.840  15.759  70.136  1.00  0.00    -0.369 C  
BRANCH   3   4
HETATM    4  C   UNL     1     -10.364  15.361  69.916  1.00  0.00    -0.285 C  
BRANCH   4   5
HETATM    5  N   UNL     1     -10.071  14.989  68.520  1.00  0.00    -0.219 NA 
BRANCH   5   6
HETATM    6  C   UNL     1     -10.300  13.620  68.076  1.00  0.00    -0.250 C  
HETATM    7  S   UNL     1      -8.967  12.360  68.173  1.00  0.00    -0.186 SA 
HETATM    8  C   UNL     1     -10.998   8.983  69.421  1.00  0.00    -0.065 C  
HETATM    9  S   UNL     1     -11.814  13.003  67.744  1.00  0.00    -0.313 SA 
HETATM   10 ZN   UNL     1     -10.747  11.234  68.460  1.00  0.00    -0.159 Zn 
HETATM   11  S   UNL     1     -10.532   9.161  67.836  1.00  0.00    -0.218 SA 
HETATM   12  S   UNL     1     -11.515  10.503  70.313  1.00  0.00    -0.348 SA 
BRANCH   8  13
HETATM   13  N   UNL     1     -10.742   7.779  70.164  1.00  0.00    -0.238 NA 
BRANCH  13  14
HETATM   14  C   UNL     1      -9.485   7.571  70.881  1.00  0.00    -0.165 C  
BRANCH  14  15
HETATM   15  C   UNL     1      -8.475   6.734  70.057  1.00  0.00    -0.140 C  
BRANCH  15  16
HETATM   16  C   UNL     1      -8.438   5.237  70.423  1.00  0.00    -0.116 C  
HETATM   17  C   UNL     1      -8.679   4.365  69.184  1.00  0.00    -0.116 C  
ENDBRANCH  15  16
ENDBRANCH  14  15
ENDBRANCH  13  14
BRANCH  13  18
HETATM   18  C   UNL     1     -11.777   6.740  70.229  1.00  0.00    -0.341 C  
BRANCH  18  19
HETATM   19  C   UNL     1     -12.520   6.738  71.587  1.00  0.00    -0.398 C  
BRANCH  19  20
HETATM   20  C   UNL     1     -14.036   6.981  71.484  1.00  0.00    -0.396 C  
HETATM   21  C   UNL     1     -14.356   8.473  71.641  1.00  0.00    -0.497 C  
ENDBRANCH  19  20
ENDBRANCH  18  19
ENDBRANCH  13  18
ENDBRANCH   8  13
ENDBRANCH   5   6
BRANCH   5  22
HETATM   22  C   UNL     1      -9.613  16.025  67.583  1.00  0.00    -0.218 C  
BRANCH  22  23
HETATM   23  C   UNL     1     -10.711  16.960  67.041  1.00  0.00    -0.153 C  
BRANCH  23  24
HETATM   24  C   UNL     1     -10.550  18.434  67.437  1.00  0.00    -0.445 C  
HETATM   25  C   UNL     1     -10.384  19.309  66.189  1.00  0.00    -0.578 C  
ENDBRANCH  23  24
ENDBRANCH  22  23
ENDBRANCH   5  22
ENDBRANCH   4   5
ENDBRANCH   3   4
ENDBRANCH   2   3
TORSDOF 14
ENDMDL
MODEL      108
REMARK 921   NORMALIZED FREE ENERGY PREDICTED BY IDOCK:   -3.68 KCAL/MOL
REMARK 922        TOTAL FREE ENERGY PREDICTED BY IDOCK:   -8.07 KCAL/MOL
REMARK 923 INTER-LIGAND FREE ENERGY PREDICTED BY IDOCK:   -6.97 KCAL/MOL
REMARK 924 INTRA-LIGAND FREE ENERGY PREDICTED BY IDOCK:   -1.10 KCAL/MOL
REMARK 927      BINDING AFFINITY PREDICTED BY RF-SCORE:    0.00 PKD
ROOT
HETATM    1  C   UNL     1     -11.597   1.754  73.468  1.00  0.00    -0.311 C  
HETATM    2  C   UNL     1     -10.424   2.733  73.394  1.00  0.00    -0.239 C  
ENDROOT
BRANCH   2   3
HETATM    3  C   UNL     1     -10.911   4.196  73.383  1.00  0.00    -0.331 C  
BRANCH   3   4
HETATM    4  C   UNL     1      -9.740   5.185  73.202  1.00  0.00    -0.148 C  
BRANCH   4   5
HETATM    5  N   UNL     1      -9.651   5.728  71.834  1.00  0.00    -0.151 NA 
BRANCH   5   6
HETATM    6  C   UNL     1     -10.436   6.902  71.474  1.00  0.00    -0.212 C  
HETATM    7  S   UNL     1      -9.765   8.595  71.712  1.00  0.00    -0.311 SA 
HETATM    8  C   UNL     1     -11.041  10.564  68.308  1.00  0.00    -0.284 C  
HETATM    9  S   UNL     1     -11.831   6.830  70.562  1.00  0.00    -0.304 SA 
HETATM   10 ZN   UNL     1     -11.023   8.786  70.008  1.00  0.00    -0.217 Zn 
HETATM   11  S   UNL     1     -11.800  10.803  69.766  1.00  0.00    -0.344 SA 
HETATM   12  S   UNL     1     -10.407   8.874  67.966  1.00  0.00    -0.208 SA 
BRANCH   8  13
HETATM   13  N   UNL     1     -10.627  11.657  67.471  1.00  0.00    -0.202 NA 
BRANCH  13  14
HETATM   14  C   UNL     1      -9.609  12.613  67.903  1.00  0.00    -0.211 C  
BRANCH  14  15
HETATM   15  C   UNL     1     -10.037  14.079  67.640  1.00  0.00    -0.241 C  
BRANCH  15  16
HETATM   16  C   UNL     1      -9.277  14.770  66.491  1.00  0.00    -0.304 C  
HETATM   17  C   UNL     1     -10.247  15.254  65.406  1.00  0.00    -0.414 C  
ENDBRANCH  15  16
ENDBRANCH  14  15
ENDBRANCH  13  14
BRANCH  13  18
HETATM   18  C   UNL     1     -11.219  11.806  66.136  1.00  0.00    -0.306 C  
BRANCH  18  19
HETATM   19  C   UNL     1     -10.239  11.397  65.011  1.00  0.00    -0.333 C  
BRANCH  19  20
HETATM   20  C   UNL     1     -10.786  11.594  63.586  1.00  0.00    -0.500 C  
HETATM   21  C   UNL     1     -12.206  12.171  63.628  1.00  0.00    -0.663 C  
ENDBRANCH  19  20
ENDBRANCH  18  19
ENDBRANCH  13  18
ENDBRANCH   8  13
ENDBRANCH   5   6
BRANCH   5  22
HETATM   22  C   UNL     1      -8.721   5.112  70.877  1.00  0.00    -0.130 C  
BRANCH  22  23
HETATM   23  C   UNL     1      -9.376   4.270  69.766  1.00  0.00    -0.231 C  
BRANCH  23  24
HETATM   24  C   UNL     1      -8.989   4.680  68.339  1.00  0.00    -0.140 C  
HETATM   25  C   UNL     1      -9.505   3.650  67.327  1.00  0.00    -0.235 C  
ENDBRANCH  23  24
ENDBRANCH  22  23
ENDBRANCH   5  22
ENDBRANCH   4   5
ENDBRANCH   3   4
ENDBRANCH   2   3
TORSDOF 14
ENDMDL
MODEL      109
REMARK 921   NORMALIZED FREE ENERGY PREDICTED BY IDOCK:   -3.67 KCAL/MOL
REMARK 922        TOTAL FREE ENERGY PREDICTED BY IDOCK:   -8.06 KCAL/MOL
REMARK 923 INTER-LIGAND FREE ENERGY PREDICTED BY IDOCK:   -7.24 KCAL/MOL
REMARK 924 INTRA-LIGAND FREE ENERGY PREDICTED BY IDOCK:   -0.82 KCAL/MOL
REMARK 927      BINDING AFFINITY PREDICTED BY RF-SCORE:    0.00 PKD
ROOT
HETATM    1  C   UNL     1     -14.352  15.196  71.969  1.00  0.00    -0.682 C  
HETATM    2  C   UNL     1     -12.911  15.701  72.061  1.00  0.00    -0.530 C  
ENDROOT
BRANCH   2   3
HETATM    3  C   UNL     1     -11.926  14.715  71.403  1.00  0.00    -0.405 C  
BRANCH   3   4
HETATM    4  C   UNL     1     -12.549  13.313  71.234  1.00  0.00    -0.308 C  
BRANCH   4   5
HETATM    5  N   UNL     1     -11.917  12.529  70.157  1.00  0.00    -0.343 NA 
BRANCH   5   6
HETATM    6  C   UNL     1     -12.101  11.084  70.117  1.00  0.00    -0.356 C  
HETATM    7  S   UNL     1     -10.979  10.016  69.129  1.00  0.00    -0.197 SA 
HETATM    8  C   UNL     1     -10.440   6.740  71.592  1.00  0.00    -0.209 C  
HETATM    9  S   UNL     1     -13.104  10.255  71.162  1.00  0.00    -0.357 SA 
HETATM   10 ZN   UNL     1     -11.539   8.780  70.766  1.00  0.00    -0.252 Zn 
HETATM   11  S   UNL     1     -11.454   6.662  70.279  1.00  0.00    -0.388 SA 
HETATM   12  S   UNL     1     -10.368   8.338  72.496  1.00  0.00    -0.307 SA 
BRANCH   8  13
HETATM   13  N   UNL     1      -9.445   5.734  71.854  1.00  0.00    -0.151 NA 
BRANCH  13  14
HETATM   14  C   UNL     1      -8.804   4.989  70.772  1.00  0.00    -0.131 C  
BRANCH  14  15
HETATM   15  C   UNL     1      -9.699   3.838  70.247  1.00  0.00    -0.222 C  
BRANCH  15  16
HETATM   16  C   UNL     1      -8.943   2.530  69.940  1.00  0.00    -0.161 C  
HETATM   17  C   UNL     1      -8.598   1.781  71.233  1.00  0.00    -0.086 C  
ENDBRANCH  15  16
ENDBRANCH  14  15
ENDBRANCH  13  14
BRANCH  13  18
HETATM   18  C   UNL     1      -9.042   5.465  73.238  1.00  0.00    -0.126 C  
BRANCH  18  19
HETATM   19  C   UNL     1      -9.597   4.118  73.759  1.00  0.00    -0.128 C  
BRANCH  19  20
HETATM   20  C   UNL     1     -11.121   3.959  73.618  1.00  0.00    -0.328 C  
HETATM   21  C   UNL     1     -11.498   2.481  73.465  1.00  0.00    -0.260 C  
ENDBRANCH  19  20
ENDBRANCH  18  19
ENDBRANCH  13  18
ENDBRANCH   8  13
ENDBRANCH   5   6
BRANCH   5  22
HETATM   22  C   UNL     1     -11.168  13.229  69.105  1.00  0.00    -0.251 C  
BRANCH  22  23
HETATM   23  C   UNL     1     -12.010  13.742  67.922  1.00  0.00    -0.391 C  
BRANCH  23  24
HETATM   24  C   UNL     1     -11.282  14.727  66.997  1.00  0.00    -0.347 C  
HETATM   25  C   UNL     1     -10.906  16.002  67.761  1.00  0.00    -0.324 C  
ENDBRANCH  23  24
ENDBRANCH  22  23
ENDBRANCH   5  22
ENDBRANCH   4   5
ENDBRANCH   3   4
ENDBRANCH   2   3
TORSDOF 14
ENDMDL
MODEL      110
REMARK 921   NORMALIZED FREE ENERGY PREDICTED BY IDOCK:   -3.63 KCAL/MOL
REMARK 922        TOTAL FREE ENERGY PREDICTED BY IDOCK:   -7.98 KCAL/MOL
REMARK 923 INTER-LIGAND FREE ENERGY PREDICTED BY IDOCK:   -6.95 KCAL/MOL
REMARK 924 INTRA-LIGAND FREE ENERGY PREDICTED BY IDOCK:   -1.03 KCAL/MOL
REMARK 927      BINDING AFFINITY PREDICTED BY RF-SCORE:    0.00 PKD
ROOT
HETATM    1  C   UNL     1      -8.113  20.823  67.044  1.00  0.00    -0.209 C  
HETATM    2  C   UNL     1      -9.588  21.038  67.386  1.00  0.00    -0.261 C  
ENDROOT
BRANCH   2   3
HETATM    3  C   UNL     1     -10.352  19.701  67.451  1.00  0.00    -0.581 C  
BRANCH   3   4
HETATM    4  C   UNL     1     -10.343  18.972  66.090  1.00  0.00    -0.468 C  
BRANCH   4   5
HETATM    5  N   UNL     1      -9.630  17.683  66.132  1.00  0.00    -0.492 NA 
BRANCH   5   6
HETATM    6  C   UNL     1     -10.374  16.459  66.402  1.00  0.00    -0.313 C  
HETATM    7  S   UNL     1     -10.633  15.202  65.088  1.00  0.00    -0.424 SA 
HETATM    8  C   UNL     1     -10.133  11.640  67.126  1.00  0.00    -0.204 C  
HETATM    9  S   UNL     1     -10.779  15.949  67.938  1.00  0.00    -0.320 SA 
HETATM   10 ZN   UNL     1     -10.546  14.053  66.874  1.00  0.00    -0.258 Zn 
HETATM   11  S   UNL     1     -11.649  12.185  66.719  1.00  0.00    -0.308 SA 
HETATM   12  S   UNL     1      -8.886  12.911  67.581  1.00  0.00    -0.199 SA 
BRANCH   8  13
HETATM   13  N   UNL     1      -9.706  10.293  66.861  1.00  0.00    -0.179 NA 
BRANCH  13  14
HETATM   14  C   UNL     1      -8.546  10.006  66.019  1.00  0.00    -0.138 C  
BRANCH  14  15
HETATM   15  C   UNL     1      -8.813  10.333  64.528  1.00  0.00    -0.223 C  
BRANCH  15  16
HETATM   16  C   UNL     1      -8.220   9.314  63.534  1.00  0.00    -0.173 C  
HETATM   17  C   UNL     1      -7.082   9.943  62.722  1.00  0.00    -0.121 C  
ENDBRANCH  15  16
ENDBRANCH  14  15
ENDBRANCH  13  14
BRANCH  13  18
HETATM   18  C   UNL     1     -10.433   9.175  67.473  1.00  0.00    -0.270 C  
BRANCH  18  19
HETATM   19  C   UNL     1     -10.159   7.833  66.753  1.00  0.00    -0.341 C  
BRANCH  19  20
HETATM   20  C   UNL     1     -10.950   6.637  67.311  1.00  0.00    -0.456 C  
HETATM   21  C   UNL     1     -10.453   5.325  66.691  1.00  0.00    -0.345 C  
ENDBRANCH  19  20
ENDBRANCH  18  19
ENDBRANCH  13  18
ENDBRANCH   8  13
ENDBRANCH   5   6
BRANCH   5  22
HETATM   22  C   UNL     1      -8.192  17.649  65.837  1.00  0.00     0.026 C  
BRANCH  22  23
HETATM   23  C   UNL     1      -7.413  16.479  66.469  1.00  0.00    -0.270 C  
BRANCH  23  24
HETATM   24  C   UNL     1      -6.452  16.883  67.595  1.00  0.00    -0.165 C  
HETATM   25  C   UNL     1      -7.193  17.686  68.670  1.00  0.00    -0.255 C  
ENDBRANCH  23  24
ENDBRANCH  22  23
ENDBRANCH   5  22
ENDBRANCH   4   5
ENDBRANCH   3   4
ENDBRANCH   2   3
TORSDOF 14
ENDMDL
MODEL      111
REMARK 921   NORMALIZED FREE ENERGY PREDICTED BY IDOCK:   -3.61 KCAL/MOL
REMARK 922        TOTAL FREE ENERGY PREDICTED BY IDOCK:   -7.95 KCAL/MOL
REMARK 923 INTER-LIGAND FREE ENERGY PREDICTED BY IDOCK:   -7.16 KCAL/MOL
REMARK 924 INTRA-LIGAND FREE ENERGY PREDICTED BY IDOCK:   -0.79 KCAL/MOL
REMARK 927      BINDING AFFINITY PREDICTED BY RF-SCORE:    0.00 PKD
ROOT
HETATM    1  C   UNL     1     -11.194   5.307  72.935  1.00  0.00    -0.375 C  
HETATM    2  C   UNL     1     -11.374   6.269  71.759  1.00  0.00    -0.346 C  
ENDROOT
BRANCH   2   3
HETATM    3  C   UNL     1     -11.434   7.734  72.233  1.00  0.00    -0.384 C  
BRANCH   3   4
HETATM    4  C   UNL     1     -12.007   8.663  71.142  1.00  0.00    -0.279 C  
BRANCH   4   5
HETATM    5  N   UNL     1     -10.976   9.495  70.495  1.00  0.00    -0.264 NA 
BRANCH   5   6
HETATM    6  C   UNL     1     -11.372  10.503  69.520  1.00  0.00    -0.278 C  
HETATM    7  S   UNL     1     -11.868  12.189  70.054  1.00  0.00    -0.244 SA 
HETATM    8  C   UNL     1     -10.124  14.600  67.184  1.00  0.00    -0.244 C  
HETATM    9  S   UNL     1     -11.128  10.339  67.878  1.00  0.00    -0.212 SA 
HETATM   10 ZN   UNL     1     -10.980  12.505  68.148  1.00  0.00    -0.188 Zn 
HETATM   11  S   UNL     1     -11.754  14.275  67.150  1.00  0.00    -0.418 SA 
HETATM   12  S   UNL     1      -9.018  13.250  67.758  1.00  0.00    -0.208 SA 
BRANCH   8  13
HETATM   13  N   UNL     1      -9.606  15.936  67.062  1.00  0.00    -0.219 NA 
BRANCH  13  14
HETATM   14  C   UNL     1      -8.322  16.318  67.647  1.00  0.00    -0.161 C  
BRANCH  14  15
HETATM   15  C   UNL     1      -7.351  16.904  66.591  1.00  0.00    -0.298 C  
BRANCH  15  16
HETATM   16  C   UNL     1      -6.152  17.670  67.182  1.00  0.00    -0.169 C  
HETATM   17  C   UNL     1      -6.617  18.697  68.222  1.00  0.00    -0.233 C  
ENDBRANCH  15  16
ENDBRANCH  14  15
ENDBRANCH  13  14
BRANCH  13  18
HETATM   18  C   UNL     1     -10.369  16.937  66.308  1.00  0.00    -0.308 C  
BRANCH  18  19
HETATM   19  C   UNL     1     -10.581  18.241  67.114  1.00  0.00    -0.392 C  
BRANCH  19  20
HETATM   20  C   UNL     1     -10.307  19.532  66.321  1.00  0.00    -0.601 C  
HETATM   21  C   UNL     1      -9.658  20.591  67.221  1.00  0.00    -0.580 C  
ENDBRANCH  19  20
ENDBRANCH  18  19
ENDBRANCH  13  18
ENDBRANCH   8  13
ENDBRANCH   5   6
BRANCH   5  22
HETATM   22  C   UNL     1      -9.571   9.335  70.895  1.00  0.00    -0.269 C  
BRANCH  22  23
HETATM   23  C   UNL     1      -8.531   9.840  69.877  1.00  0.00    -0.217 C  
BRANCH  23  24
HETATM   24  C   UNL     1      -7.086   9.857  70.392  1.00  0.00    -0.146 C  
HETATM   25  C   UNL     1      -6.326  11.059  69.819  1.00  0.00    -0.124 C  
ENDBRANCH  23  24
ENDBRANCH  22  23
ENDBRANCH   5  22
ENDBRANCH   4   5
ENDBRANCH   3   4
ENDBRANCH   2   3
TORSDOF 14
ENDMDL
MODEL      112
REMARK 921   NORMALIZED FREE ENERGY PREDICTED BY IDOCK:   -3.60 KCAL/MOL
REMARK 922        TOTAL FREE ENERGY PREDICTED BY IDOCK:   -7.94 KCAL/MOL
REMARK 923 INTER-LIGAND FREE ENERGY PREDICTED BY IDOCK:   -6.16 KCAL/MOL
REMARK 924 INTRA-LIGAND FREE ENERGY PREDICTED BY IDOCK:   -1.78 KCAL/MOL
REMARK 927      BINDING AFFINITY PREDICTED BY RF-SCORE:    0.00 PKD
ROOT
HETATM    1  C   UNL     1      -9.370   5.418  67.454  1.00  0.00    -0.117 C  
HETATM    2  C   UNL     1      -7.963   5.632  68.014  1.00  0.00    -0.097 C  
ENDROOT
BRANCH   2   3
HETATM    3  C   UNL     1      -7.924   6.808  69.009  1.00  0.00    -0.116 C  
BRANCH   3   4
HETATM    4  C   UNL     1      -7.811   6.317  70.468  1.00  0.00    -0.106 C  
BRANCH   4   5
HETATM    5  N   UNL     1      -9.122   6.071  71.095  1.00  0.00    -0.146 NA 
BRANCH   5   6
HETATM    6  C   UNL     1     -10.148   7.104  71.046  1.00  0.00    -0.192 C  
HETATM    7  S   UNL     1      -9.789   8.820  71.597  1.00  0.00    -0.320 SA 
HETATM    8  C   UNL     1     -11.767  11.111  68.782  1.00  0.00    -0.326 C  
HETATM    9  S   UNL     1     -11.594   6.926  70.232  1.00  0.00    -0.279 SA 
HETATM   10 ZN   UNL     1     -11.233   9.077  70.058  1.00  0.00    -0.226 Zn 
HETATM   11  S   UNL     1     -12.399  10.897  70.304  1.00  0.00    -0.321 SA 
HETATM   12  S   UNL     1     -10.865   9.690  68.047  1.00  0.00    -0.143 SA 
BRANCH   8  13
HETATM   13  N   UNL     1     -11.659  12.409  68.173  1.00  0.00    -0.321 NA 
BRANCH  13  14
HETATM   14  C   UNL     1     -11.976  13.632  68.910  1.00  0.00    -0.356 C  
BRANCH  14  15
HETATM   15  C   UNL     1     -10.861  14.700  68.775  1.00  0.00    -0.261 C  
BRANCH  15  16
HETATM   16  C   UNL     1     -11.373  16.125  68.489  1.00  0.00    -0.359 C  
HETATM   17  C   UNL     1     -10.334  16.931  67.700  1.00  0.00    -0.317 C  
ENDBRANCH  15  16
ENDBRANCH  14  15
ENDBRANCH  13  14
BRANCH  13  18
HETATM   18  C   UNL     1     -11.193  12.517  66.786  1.00  0.00    -0.296 C  
BRANCH  18  19
HETATM   19  C   UNL     1     -12.309  12.997  65.829  1.00  0.00    -0.477 C  
BRANCH  19  20
HETATM   20  C   UNL     1     -11.899  14.153  64.899  1.00  0.00    -0.407 C  
HETATM   21  C   UNL     1     -10.380  14.360  64.933  1.00  0.00    -0.419 C  
ENDBRANCH  19  20
ENDBRANCH  18  19
ENDBRANCH  13  18
ENDBRANCH   8  13
ENDBRANCH   5   6
BRANCH   5  22
HETATM   22  C   UNL     1      -9.392   4.760  71.702  1.00  0.00    -0.145 C  
BRANCH  22  23
HETATM   23  C   UNL     1      -9.643   3.610  70.709  1.00  0.00    -0.249 C  
BRANCH  23  24
HETATM   24  C   UNL     1      -8.737   2.386  70.903  1.00  0.00    -0.116 C  
HETATM   25  C   UNL     1      -7.550   2.440  69.934  1.00  0.00    -0.043 C  
ENDBRANCH  23  24
ENDBRANCH  22  23
ENDBRANCH   5  22
ENDBRANCH   4   5
ENDBRANCH   3   4
ENDBRANCH   2   3
TORSDOF 14
ENDMDL
MODEL      113
REMARK 921   NORMALIZED FREE ENERGY PREDICTED BY IDOCK:   -3.59 KCAL/MOL
REMARK 922        TOTAL FREE ENERGY PREDICTED BY IDOCK:   -7.92 KCAL/MOL
REMARK 923 INTER-LIGAND FREE ENERGY PREDICTED BY IDOCK:   -6.75 KCAL/MOL
REMARK 924 INTRA-LIGAND FREE ENERGY PREDICTED BY IDOCK:   -1.17 KCAL/MOL
REMARK 927      BINDING AFFINITY PREDICTED BY RF-SCORE:    0.00 PKD
ROOT
HETATM    1  C   UNL     1     -10.508  19.212  66.439  1.00  0.00    -0.548 C  
HETATM    2  C   UNL     1      -9.931  17.860  66.861  1.00  0.00    -0.335 C  
ENDROOT
BRANCH   2   3
HETATM    3  C   UNL     1     -10.406  16.729  65.929  1.00  0.00    -0.341 C  
BRANCH   3   4
HETATM    4  C   UNL     1      -9.667  15.404  66.217  1.00  0.00    -0.299 C  
BRANCH   4   5
HETATM    5  N   UNL     1     -10.520  14.402  66.881  1.00  0.00    -0.268 NA 
BRANCH   5   6
HETATM    6  C   UNL     1     -10.111  13.003  66.893  1.00  0.00    -0.243 C  
HETATM    7  S   UNL     1      -8.616  12.464  67.814  1.00  0.00    -0.184 SA 
HETATM    8  C   UNL     1      -9.822   8.880  69.484  1.00  0.00    -0.180 C  
HETATM    9  S   UNL     1     -11.082  11.757  66.357  1.00  0.00    -0.298 SA 
HETATM   10 ZN   UNL     1      -9.911  10.782  67.926  1.00  0.00    -0.152 Zn 
HETATM   11  S   UNL     1      -8.828   8.909  68.153  1.00  0.00    -0.133 SA 
HETATM   12  S   UNL     1     -11.103  10.193  69.597  1.00  0.00    -0.269 SA 
BRANCH   8  13
HETATM   13  N   UNL     1      -9.534   8.072  70.639  1.00  0.00    -0.161 NA 
BRANCH  13  14
HETATM   14  C   UNL     1      -8.959   8.647  71.854  1.00  0.00    -0.231 C  
BRANCH  14  15
HETATM   15  C   UNL     1      -7.591   8.011  72.209  1.00  0.00    -0.133 C  
BRANCH  15  16
HETATM   16  C   UNL     1      -6.484   8.251  71.164  1.00  0.00    -0.041 C  
HETATM   17  C   UNL     1      -6.272   9.751  70.927  1.00  0.00    -0.084 C  
ENDBRANCH  15  16
ENDBRANCH  14  15
ENDBRANCH  13  14
BRANCH  13  18
HETATM   18  C   UNL     1      -9.848   6.639  70.610  1.00  0.00    -0.183 C  
BRANCH  18  19
HETATM   19  C   UNL     1     -11.370   6.375  70.520  1.00  0.00    -0.438 C  
BRANCH  19  20
HETATM   20  C   UNL     1     -12.129   6.563  71.845  1.00  0.00    -0.388 C  
HETATM   21  C   UNL     1     -13.172   7.680  71.716  1.00  0.00    -0.360 C  
ENDBRANCH  19  20
ENDBRANCH  18  19
ENDBRANCH  13  18
ENDBRANCH   8  13
ENDBRANCH   5   6
BRANCH   5  22
HETATM   22  C   UNL     1     -11.736  14.843  67.577  1.00  0.00    -0.308 C  
BRANCH  22  23
HETATM   23  C   UNL     1     -11.909  14.311  69.013  1.00  0.00    -0.370 C  
BRANCH  23  24
HETATM   24  C   UNL     1     -12.214  15.387  70.063  1.00  0.00    -0.392 C  
HETATM   25  C   UNL     1     -11.167  15.357  71.182  1.00  0.00    -0.410 C  
ENDBRANCH  23  24
ENDBRANCH  22  23
ENDBRANCH   5  22
ENDBRANCH   4   5
ENDBRANCH   3   4
ENDBRANCH   2   3
TORSDOF 14
ENDMDL
MODEL      114
REMARK 921   NORMALIZED FREE ENERGY PREDICTED BY IDOCK:   -3.59 KCAL/MOL
REMARK 922        TOTAL FREE ENERGY PREDICTED BY IDOCK:   -7.91 KCAL/MOL
REMARK 923 INTER-LIGAND FREE ENERGY PREDICTED BY IDOCK:   -6.50 KCAL/MOL
REMARK 924 INTRA-LIGAND FREE ENERGY PREDICTED BY IDOCK:   -1.40 KCAL/MOL
REMARK 927      BINDING AFFINITY PREDICTED BY RF-SCORE:    0.00 PKD
ROOT
HETATM    1  C   UNL     1     -10.303   7.140  73.883  1.00  0.00    -0.339 C  
HETATM    2  C   UNL     1     -10.484   8.000  72.631  1.00  0.00    -0.408 C  
ENDROOT
BRANCH   2   3
HETATM    3  C   UNL     1      -9.130   8.493  72.085  1.00  0.00    -0.319 C  
BRANCH   3   4
HETATM    4  C   UNL     1      -8.131   7.331  71.902  1.00  0.00    -0.099 C  
BRANCH   4   5
HETATM    5  N   UNL     1      -8.469   6.454  70.767  1.00  0.00    -0.133 NA 
BRANCH   5   6
HETATM    6  C   UNL     1      -8.648   7.032  69.441  1.00  0.00    -0.134 C  
HETATM    7  S   UNL     1     -10.302   7.588  68.868  1.00  0.00    -0.206 SA 
HETATM    8  C   UNL     1      -9.436  11.094  66.857  1.00  0.00    -0.185 C  
HETATM    9  S   UNL     1      -7.380   7.515  68.470  1.00  0.00    -0.101 SA 
HETATM   10 ZN   UNL     1      -8.959   8.913  67.889  1.00  0.00    -0.128 Zn 
HETATM   11  S   UNL     1      -9.766   9.694  66.026  1.00  0.00    -0.280 SA 
HETATM   12  S   UNL     1      -8.517  10.927  68.440  1.00  0.00    -0.147 SA 
BRANCH   8  13
HETATM   13  N   UNL     1     -10.072  12.344  66.537  1.00  0.00    -0.227 NA 
BRANCH  13  14
HETATM   14  C   UNL     1     -10.292  12.760  65.153  1.00  0.00    -0.295 C  
BRANCH  14  15
HETATM   15  C   UNL     1     -11.794  12.743  64.771  1.00  0.00    -0.423 C  
BRANCH  15  16
HETATM   16  C   UNL     1     -12.379  14.125  64.416  1.00  0.00    -0.410 C  
HETATM   17  C   UNL     1     -11.364  15.238  64.702  1.00  0.00    -0.364 C  
ENDBRANCH  15  16
ENDBRANCH  14  15
ENDBRANCH  13  14
BRANCH  13  18
HETATM   18  C   UNL     1     -10.537  13.214  67.623  1.00  0.00    -0.228 C  
BRANCH  18  19
HETATM   19  C   UNL     1     -11.910  12.770  68.182  1.00  0.00    -0.372 C  
BRANCH  19  20
HETATM   20  C   UNL     1     -11.923  12.495  69.696  1.00  0.00    -0.339 C  
HETATM   21  C   UNL     1     -11.973  10.987  69.970  1.00  0.00    -0.430 C  
ENDBRANCH  19  20
ENDBRANCH  18  19
ENDBRANCH  13  18
ENDBRANCH   8  13
ENDBRANCH   5   6
BRANCH   5  22
HETATM   22  C   UNL     1      -8.555   5.003  70.981  1.00  0.00    -0.123 C  
BRANCH  22  23
HETATM   23  C   UNL     1      -9.957   4.468  71.331  1.00  0.00    -0.259 C  
BRANCH  23  24
HETATM   24  C   UNL     1      -9.962   3.237  72.248  1.00  0.00    -0.235 C  
HETATM   25  C   UNL     1     -10.864   3.478  73.464  1.00  0.00    -0.321 C  
ENDBRANCH  23  24
ENDBRANCH  22  23
ENDBRANCH   5  22
ENDBRANCH   4   5
ENDBRANCH   3   4
ENDBRANCH   2   3
TORSDOF 14
ENDMDL
MODEL      115
REMARK 921   NORMALIZED FREE ENERGY PREDICTED BY IDOCK:   -3.59 KCAL/MOL
REMARK 922        TOTAL FREE ENERGY PREDICTED BY IDOCK:   -7.90 KCAL/MOL
REMARK 923 INTER-LIGAND FREE ENERGY PREDICTED BY IDOCK:   -7.06 KCAL/MOL
REMARK 924 INTRA-LIGAND FREE ENERGY PREDICTED BY IDOCK:   -0.84 KCAL/MOL
REMARK 927      BINDING AFFINITY PREDICTED BY RF-SCORE:    0.00 PKD
ROOT
HETATM    1  C   UNL     1      -8.403   7.157  67.199  1.00  0.00    -0.118 C  
HETATM    2  C   UNL     1      -8.134   7.284  68.699  1.00  0.00    -0.125 C  
ENDROOT
BRANCH   2   3
HETATM    3  C   UNL     1      -8.165   5.909  69.396  1.00  0.00    -0.113 C  
BRANCH   3   4
HETATM    4  C   UNL     1      -8.228   6.049  70.932  1.00  0.00    -0.125 C  
BRANCH   4   5
HETATM    5  N   UNL     1      -9.544   5.686  71.489  1.00  0.00    -0.150 NA 
BRANCH   5   6
HETATM    6  C   UNL     1     -10.636   6.649  71.439  1.00  0.00    -0.224 C  
HETATM    7  S   UNL     1     -10.745   8.018  72.659  1.00  0.00    -0.358 SA 
HETATM    8  C   UNL     1     -11.981  11.207  70.338  1.00  0.00    -0.378 C  
HETATM    9  S   UNL     1     -11.679   6.790  70.145  1.00  0.00    -0.246 SA 
HETATM   10 ZN   UNL     1     -11.608   8.841  70.900  1.00  0.00    -0.248 Zn 
HETATM   11  S   UNL     1     -13.048  10.413  71.334  1.00  0.00    -0.402 SA 
HETATM   12  S   UNL     1     -10.681  10.191  69.530  1.00  0.00    -0.265 SA 
BRANCH   8  13
HETATM   13  N   UNL     1     -11.870  12.641  70.322  1.00  0.00    -0.274 NA 
BRANCH  13  14
HETATM   14  C   UNL     1     -12.491  13.471  71.353  1.00  0.00    -0.255 C  
BRANCH  14  15
HETATM   15  C   UNL     1     -12.028  14.948  71.269  1.00  0.00    -0.393 C  
BRANCH  15  16
HETATM   16  C   UNL     1     -11.874  15.647  72.634  1.00  0.00    -0.590 C  
HETATM   17  C   UNL     1     -12.752  14.974  73.696  1.00  0.00    -0.650 C  
ENDBRANCH  15  16
ENDBRANCH  14  15
ENDBRANCH  13  14
BRANCH  13  18
HETATM   18  C   UNL     1     -11.094  13.290  69.260  1.00  0.00    -0.153 C  
BRANCH  18  19
HETATM   19  C   UNL     1     -11.834  13.277  67.901  1.00  0.00    -0.388 C  
BRANCH  19  20
HETATM   20  C   UNL     1     -11.597  14.526  67.033  1.00  0.00    -0.402 C  
HETATM   21  C   UNL     1     -10.431  15.355  67.587  1.00  0.00    -0.272 C  
ENDBRANCH  19  20
ENDBRANCH  18  19
ENDBRANCH  13  18
ENDBRANCH   8  13
ENDBRANCH   5   6
BRANCH   5  22
HETATM   22  C   UNL     1      -9.746   4.334  72.027  1.00  0.00    -0.164 C  
BRANCH  22  23
HETATM   23  C   UNL     1     -10.368   4.266  73.434  1.00  0.00    -0.236 C  
BRANCH  23  24
HETATM   24  C   UNL     1     -11.066   2.940  73.764  1.00  0.00    -0.302 C  
HETATM   25  C   UNL     1     -10.457   1.796  72.945  1.00  0.00    -0.224 C  
ENDBRANCH  23  24
ENDBRANCH  22  23
ENDBRANCH   5  22
ENDBRANCH   4   5
ENDBRANCH   3   4
ENDBRANCH   2   3
TORSDOF 14
ENDMDL
MODEL      116
REMARK 921   NORMALIZED FREE ENERGY PREDICTED BY IDOCK:   -3.58 KCAL/MOL
REMARK 922        TOTAL FREE ENERGY PREDICTED BY IDOCK:   -7.90 KCAL/MOL
REMARK 923 INTER-LIGAND FREE ENERGY PREDICTED BY IDOCK:   -6.87 KCAL/MOL
REMARK 924 INTRA-LIGAND FREE ENERGY PREDICTED BY IDOCK:   -1.03 KCAL/MOL
REMARK 927      BINDING AFFINITY PREDICTED BY RF-SCORE:    0.00 PKD
ROOT
HETATM    1  C   UNL     1      -9.510  20.777  66.991  1.00  0.00    -0.396 C  
HETATM    2  C   UNL     1     -10.146  19.606  66.241  1.00  0.00    -0.578 C  
ENDROOT
BRANCH   2   3
HETATM    3  C   UNL     1     -10.689  18.540  67.213  1.00  0.00    -0.417 C  
BRANCH   3   4
HETATM    4  C   UNL     1     -10.597  17.121  66.613  1.00  0.00    -0.179 C  
BRANCH   4   5
HETATM    5  N   UNL     1      -9.957  16.153  67.523  1.00  0.00    -0.239 NA 
BRANCH   5   6
HETATM    6  C   UNL     1      -9.976  14.734  67.191  1.00  0.00    -0.236 C  
HETATM    7  S   UNL     1      -8.634  13.614  67.758  1.00  0.00    -0.197 SA 
HETATM    8  C   UNL     1     -10.696  10.194  68.825  1.00  0.00    -0.220 C  
HETATM    9  S   UNL     1     -11.310  13.954  66.561  1.00  0.00    -0.344 SA 
HETATM   10 ZN   UNL     1     -10.351  12.361  67.713  1.00  0.00    -0.192 Zn 
HETATM   11  S   UNL     1      -9.850  10.269  67.397  1.00  0.00    -0.186 SA 
HETATM   12  S   UNL     1     -11.523  11.736  69.385  1.00  0.00    -0.311 SA 
BRANCH   8  13
HETATM   13  N   UNL     1     -10.564   9.090  69.737  1.00  0.00    -0.225 NA 
BRANCH  13  14
HETATM   14  C   UNL     1     -10.654   7.703  69.283  1.00  0.00    -0.201 C  
BRANCH  14  15
HETATM   15  C   UNL     1      -9.387   6.888  69.644  1.00  0.00    -0.145 C  
BRANCH  15  16
HETATM   16  C   UNL     1      -8.225   7.037  68.644  1.00  0.00    -0.122 C  
HETATM   17  C   UNL     1      -7.122   7.936  69.216  1.00  0.00    -0.071 C  
ENDBRANCH  15  16
ENDBRANCH  14  15
ENDBRANCH  13  14
BRANCH  13  18
HETATM   18  C   UNL     1     -10.304   9.357  71.156  1.00  0.00    -0.307 C  
BRANCH  18  19
HETATM   19  C   UNL     1     -11.374   8.723  72.077  1.00  0.00    -0.441 C  
BRANCH  19  20
HETATM   20  C   UNL     1     -12.818   8.858  71.564  1.00  0.00    -0.383 C  
HETATM   21  C   UNL     1     -13.409  10.216  71.963  1.00  0.00    -0.492 C  
ENDBRANCH  19  20
ENDBRANCH  18  19
ENDBRANCH  13  18
ENDBRANCH   8  13
ENDBRANCH   5   6
BRANCH   5  22
HETATM   22  C   UNL     1      -9.255  16.645  68.716  1.00  0.00    -0.253 C  
BRANCH  22  23
HETATM   23  C   UNL     1      -7.768  16.991  68.513  1.00  0.00    -0.238 C  
BRANCH  23  24
HETATM   24  C   UNL     1      -7.376  18.412  68.938  1.00  0.00    -0.269 C  
HETATM   25  C   UNL     1      -6.181  18.908  68.116  1.00  0.00    -0.231 C  
ENDBRANCH  23  24
ENDBRANCH  22  23
ENDBRANCH   5  22
ENDBRANCH   4   5
ENDBRANCH   3   4
ENDBRANCH   2   3
TORSDOF 14
ENDMDL
MODEL      117
REMARK 921   NORMALIZED FREE ENERGY PREDICTED BY IDOCK:   -3.56 KCAL/MOL
REMARK 922        TOTAL FREE ENERGY PREDICTED BY IDOCK:   -7.85 KCAL/MOL
REMARK 923 INTER-LIGAND FREE ENERGY PREDICTED BY IDOCK:   -6.92 KCAL/MOL
REMARK 924 INTRA-LIGAND FREE ENERGY PREDICTED BY IDOCK:   -0.92 KCAL/MOL
REMARK 927      BINDING AFFINITY PREDICTED BY RF-SCORE:    0.00 PKD
ROOT
HETATM    1  C   UNL     1     -10.285   3.667  73.355  1.00  0.00    -0.220 C  
HETATM    2  C   UNL     1     -11.447   4.637  73.135  1.00  0.00    -0.317 C  
ENDROOT
BRANCH   2   3
HETATM    3  C   UNL     1     -10.956   5.992  72.588  1.00  0.00    -0.301 C  
BRANCH   3   4
HETATM    4  C   UNL     1     -11.069   6.061  71.050  1.00  0.00    -0.282 C  
BRANCH   4   5
HETATM    5  N   UNL     1      -9.762   6.203  70.383  1.00  0.00    -0.167 NA 
BRANCH   5   6
HETATM    6  C   UNL     1      -9.285   7.529  70.011  1.00  0.00    -0.151 C  
HETATM    7  S   UNL     1      -9.298   8.080  68.258  1.00  0.00    -0.140 SA 
HETATM    8  C   UNL     1     -10.509  12.021  68.553  1.00  0.00    -0.229 C  
HETATM    9  S   UNL     1      -8.985   8.742  71.116  1.00  0.00    -0.240 SA 
HETATM   10 ZN   UNL     1      -9.610   9.875  69.353  1.00  0.00    -0.145 Zn 
HETATM   11  S   UNL     1      -8.915  11.637  68.282  1.00  0.00    -0.183 SA 
HETATM   12  S   UNL     1     -11.465  10.891  69.642  1.00  0.00    -0.333 SA 
BRANCH   8  13
HETATM   13  N   UNL     1     -11.206  13.001  67.765  1.00  0.00    -0.265 NA 
BRANCH  13  14
HETATM   14  C   UNL     1     -12.047  14.025  68.381  1.00  0.00    -0.283 C  
BRANCH  14  15
HETATM   15  C   UNL     1     -11.516  14.457  69.771  1.00  0.00    -0.328 C  
BRANCH  15  16
HETATM   16  C   UNL     1     -10.483  15.601  69.734  1.00  0.00    -0.312 C  
HETATM   17  C   UNL     1     -10.852  16.636  68.664  1.00  0.00    -0.344 C  
ENDBRANCH  15  16
ENDBRANCH  14  15
ENDBRANCH  13  14
BRANCH  13  18
HETATM   18  C   UNL     1     -11.050  12.993  66.306  1.00  0.00    -0.289 C  
BRANCH  18  19
HETATM   19  C   UNL     1     -12.317  13.502  65.578  1.00  0.00    -0.524 C  
BRANCH  19  20
HETATM   20  C   UNL     1     -12.234  13.452  64.042  1.00  0.00    -0.466 C  
HETATM   21  C   UNL     1     -12.322  12.005  63.543  1.00  0.00    -0.661 C  
ENDBRANCH  19  20
ENDBRANCH  18  19
ENDBRANCH  13  18
ENDBRANCH   8  13
ENDBRANCH   5   6
BRANCH   5  22
HETATM   22  C   UNL     1      -8.935   5.009  70.165  1.00  0.00    -0.111 C  
BRANCH  22  23
HETATM   23  C   UNL     1      -9.591   3.892  69.331  1.00  0.00    -0.239 C  
BRANCH  23  24
HETATM   24  C   UNL     1      -9.149   3.844  67.863  1.00  0.00    -0.187 C  
HETATM   25  C   UNL     1     -10.149   4.596  66.977  1.00  0.00    -0.207 C  
ENDBRANCH  23  24
ENDBRANCH  22  23
ENDBRANCH   5  22
ENDBRANCH   4   5
ENDBRANCH   3   4
ENDBRANCH   2   3
TORSDOF 14
ENDMDL
MODEL      118
REMARK 921   NORMALIZED FREE ENERGY PREDICTED BY IDOCK:   -3.55 KCAL/MOL
REMARK 922        TOTAL FREE ENERGY PREDICTED BY IDOCK:   -7.85 KCAL/MOL
REMARK 923 INTER-LIGAND FREE ENERGY PREDICTED BY IDOCK:   -7.00 KCAL/MOL
REMARK 924 INTRA-LIGAND FREE ENERGY PREDICTED BY IDOCK:   -0.85 KCAL/MOL
REMARK 927      BINDING AFFINITY PREDICTED BY RF-SCORE:    0.00 PKD
ROOT
HETATM    1  C   UNL     1      -6.719  19.543  65.332  1.00  0.00    -0.309 C  
HETATM    2  C   UNL     1      -5.742  18.993  66.372  1.00  0.00    -0.175 C  
ENDROOT
BRANCH   2   3
HETATM    3  C   UNL     1      -6.290  17.716  67.040  1.00  0.00    -0.192 C  
BRANCH   3   4
HETATM    4  C   UNL     1      -7.612  17.254  66.390  1.00  0.00    -0.314 C  
BRANCH   4   5
HETATM    5  N   UNL     1      -8.742  17.231  67.336  1.00  0.00    -0.205 NA 
BRANCH   5   6
HETATM    6  C   UNL     1      -9.705  16.139  67.280  1.00  0.00    -0.233 C  
HETATM    7  S   UNL     1      -9.954  15.178  65.734  1.00  0.00    -0.358 SA 
HETATM    8  C   UNL     1     -10.356  11.307  67.126  1.00  0.00    -0.209 C  
HETATM    9  S   UNL     1     -10.420  15.474  68.633  1.00  0.00    -0.245 SA 
HETATM   10 ZN   UNL     1     -10.332  13.762  67.274  1.00  0.00    -0.231 Zn 
HETATM   11  S   UNL     1     -11.683  12.180  66.640  1.00  0.00    -0.237 SA 
HETATM   12  S   UNL     1      -9.008  12.235  67.961  1.00  0.00    -0.194 SA 
BRANCH   8  13
HETATM   13  N   UNL     1     -10.115   9.963  66.673  1.00  0.00    -0.223 NA 
BRANCH  13  14
HETATM   14  C   UNL     1     -10.164   8.824  67.588  1.00  0.00    -0.239 C  
BRANCH  14  15
HETATM   15  C   UNL     1     -10.579   7.516  66.868  1.00  0.00    -0.367 C  
BRANCH  15  16
HETATM   16  C   UNL     1     -11.140   6.424  67.801  1.00  0.00    -0.376 C  
HETATM   17  C   UNL     1     -10.074   5.959  68.801  1.00  0.00    -0.220 C  
ENDBRANCH  15  16
ENDBRANCH  14  15
ENDBRANCH  13  14
BRANCH  13  18
HETATM   18  C   UNL     1      -9.839   9.722  65.252  1.00  0.00    -0.265 C  
BRANCH  18  19
HETATM   19  C   UNL     1      -8.435   9.111  65.024  1.00  0.00    -0.187 C  
BRANCH  19  20
HETATM   20  C   UNL     1      -7.605   9.812  63.933  1.00  0.00    -0.133 C  
HETATM   21  C   UNL     1      -6.211  10.170  64.462  1.00  0.00    -0.133 C  
ENDBRANCH  19  20
ENDBRANCH  18  19
ENDBRANCH  13  18
ENDBRANCH   8  13
ENDBRANCH   5   6
BRANCH   5  22
HETATM   22  C   UNL     1      -8.838  18.278  68.363  1.00  0.00    -0.305 C  
BRANCH  22  23
HETATM   23  C   UNL     1     -10.027  19.246  68.212  1.00  0.00    -0.497 C  
BRANCH  23  24
HETATM   24  C   UNL     1      -9.864  20.293  67.101  1.00  0.00    -0.606 C  
HETATM   25  C   UNL     1     -10.524  19.807  65.806  1.00  0.00    -0.545 C  
ENDBRANCH  23  24
ENDBRANCH  22  23
ENDBRANCH   5  22
ENDBRANCH   4   5
ENDBRANCH   3   4
ENDBRANCH   2   3
TORSDOF 14
ENDMDL
MODEL      119
REMARK 921   NORMALIZED FREE ENERGY PREDICTED BY IDOCK:   -3.55 KCAL/MOL
REMARK 922        TOTAL FREE ENERGY PREDICTED BY IDOCK:   -7.85 KCAL/MOL
REMARK 923 INTER-LIGAND FREE ENERGY PREDICTED BY IDOCK:   -6.93 KCAL/MOL
REMARK 924 INTRA-LIGAND FREE ENERGY PREDICTED BY IDOCK:   -0.91 KCAL/MOL
REMARK 927      BINDING AFFINITY PREDICTED BY RF-SCORE:    0.00 PKD
ROOT
HETATM    1  C   UNL     1     -10.919  15.366  64.884  1.00  0.00    -0.453 C  
HETATM    2  C   UNL     1     -12.210  14.709  64.391  1.00  0.00    -0.473 C  
ENDROOT
BRANCH   2   3
HETATM    3  C   UNL     1     -12.781  13.733  65.438  1.00  0.00    -0.513 C  
BRANCH   3   4
HETATM    4  C   UNL     1     -11.774  12.615  65.786  1.00  0.00    -0.419 C  
BRANCH   4   5
HETATM    5  N   UNL     1     -11.420  12.585  67.216  1.00  0.00    -0.331 NA 
BRANCH   5   6
HETATM    6  C   UNL     1     -10.469  11.592  67.700  1.00  0.00    -0.189 C  
HETATM    7  S   UNL     1     -10.766  10.687  69.271  1.00  0.00    -0.252 SA 
HETATM    8  C   UNL     1      -9.537   6.848  68.356  1.00  0.00    -0.126 C  
HETATM    9  S   UNL     1      -9.230  10.975  66.769  1.00  0.00    -0.164 SA 
HETATM   10 ZN   UNL     1      -9.702   9.287  68.077  1.00  0.00    -0.137 Zn 
HETATM   11  S   UNL     1      -8.582   7.854  69.270  1.00  0.00    -0.138 SA 
HETATM   12  S   UNL     1     -10.522   7.627  67.014  1.00  0.00    -0.321 SA 
BRANCH   8  13
HETATM   13  N   UNL     1      -9.825   5.496  68.751  1.00  0.00    -0.142 NA 
BRANCH  13  14
HETATM   14  C   UNL     1     -10.459   5.189  70.032  1.00  0.00    -0.235 C  
BRANCH  14  15
HETATM   15  C   UNL     1     -11.462   6.288  70.464  1.00  0.00    -0.407 C  
BRANCH  15  16
HETATM   16  C   UNL     1     -11.544   6.516  71.987  1.00  0.00    -0.354 C  
HETATM   17  C   UNL     1     -11.337   7.996  72.330  1.00  0.00    -0.443 C  
ENDBRANCH  15  16
ENDBRANCH  14  15
ENDBRANCH  13  14
BRANCH  13  18
HETATM   18  C   UNL     1      -9.500   4.394  67.838  1.00  0.00    -0.161 C  
BRANCH  18  19
HETATM   19  C   UNL     1      -8.110   4.569  67.180  1.00  0.00    -0.102 C  
BRANCH  19  20
HETATM   20  C   UNL     1      -7.994   3.971  65.766  1.00  0.00    -0.097 C  
HETATM   21  C   UNL     1      -6.540   4.006  65.283  1.00  0.00    -0.047 C  
ENDBRANCH  19  20
ENDBRANCH  18  19
ENDBRANCH  13  18
ENDBRANCH   8  13
ENDBRANCH   5   6
BRANCH   5  22
HETATM   22  C   UNL     1     -11.983  13.600  68.117  1.00  0.00    -0.355 C  
BRANCH  22  23
HETATM   23  C   UNL     1     -10.965  14.582  68.727  1.00  0.00    -0.262 C  
BRANCH  23  24
HETATM   24  C   UNL     1     -11.579  15.863  69.307  1.00  0.00    -0.372 C  
HETATM   25  C   UNL     1     -11.696  15.759  70.832  1.00  0.00    -0.441 C  
ENDBRANCH  23  24
ENDBRANCH  22  23
ENDBRANCH   5  22
ENDBRANCH   4   5
ENDBRANCH   3   4
ENDBRANCH   2   3
TORSDOF 14
ENDMDL
MODEL      120
REMARK 921   NORMALIZED FREE ENERGY PREDICTED BY IDOCK:   -3.55 KCAL/MOL
REMARK 922        TOTAL FREE ENERGY PREDICTED BY IDOCK:   -7.84 KCAL/MOL
REMARK 923 INTER-LIGAND FREE ENERGY PREDICTED BY IDOCK:   -7.03 KCAL/MOL
REMARK 924 INTRA-LIGAND FREE ENERGY PREDICTED BY IDOCK:   -0.81 KCAL/MOL
REMARK 927      BINDING AFFINITY PREDICTED BY RF-SCORE:    0.00 PKD
ROOT
HETATM    1  C   UNL     1     -12.161  14.004  64.273  1.00  0.00    -0.453 C  
HETATM    2  C   UNL     1     -11.240  12.796  64.096  1.00  0.00    -0.435 C  
ENDROOT
BRANCH   2   3
HETATM    3  C   UNL     1     -11.431  11.770  65.231  1.00  0.00    -0.250 C  
BRANCH   3   4
HETATM    4  C   UNL     1     -10.081  11.339  65.843  1.00  0.00    -0.245 C  
BRANCH   4   5
HETATM    5  N   UNL     1     -10.019  11.544  67.301  1.00  0.00    -0.190 NA 
BRANCH   5   6
HETATM    6  C   UNL     1      -9.547  12.818  67.829  1.00  0.00    -0.204 C  
HETATM    7  S   UNL     1      -7.792  13.327  67.640  1.00  0.00    -0.180 SA 
HETATM    8  C   UNL     1      -8.102  17.358  66.783  1.00  0.00    -0.250 C  
HETATM    9  S   UNL     1     -10.567  14.028  68.357  1.00  0.00    -0.259 SA 
HETATM   10 ZN   UNL     1      -8.856  15.166  67.607  1.00  0.00    -0.154 Zn 
HETATM   11  S   UNL     1      -7.651  16.840  68.296  1.00  0.00    -0.197 SA 
HETATM   12  S   UNL     1      -9.337  16.336  65.887  1.00  0.00    -0.181 SA 
BRANCH   8  13
HETATM   13  N   UNL     1      -7.373  18.373  66.072  1.00  0.00    -0.381 NA 
BRANCH  13  14
HETATM   14  C   UNL     1      -7.871  19.743  65.962  1.00  0.00    -0.336 C  
BRANCH  14  15
HETATM   15  C   UNL     1      -9.395  19.832  66.230  1.00  0.00    -0.472 C  
BRANCH  15  16
HETATM   16  C   UNL     1      -9.778  20.650  67.479  1.00  0.00    -0.509 C  
HETATM   17  C   UNL     1     -10.256  19.730  68.609  1.00  0.00    -0.515 C  
ENDBRANCH  15  16
ENDBRANCH  14  15
ENDBRANCH  13  14
BRANCH  13  18
HETATM   18  C   UNL     1      -6.082  18.036  65.461  1.00  0.00    -0.171 C  
BRANCH  18  19
HETATM   19  C   UNL     1      -5.429  19.252  64.762  1.00  0.00    -0.243 C  
BRANCH  19  20
HETATM   20  C   UNL     1      -5.501  19.219  63.225  1.00  0.00    -0.344 C  
HETATM   21  C   UNL     1      -5.627  20.638  62.658  1.00  0.00    -0.267 C  
ENDBRANCH  19  20
ENDBRANCH  18  19
ENDBRANCH  13  18
ENDBRANCH   8  13
ENDBRANCH   5   6
BRANCH   5  22
HETATM   22  C   UNL     1     -10.497  10.481  68.196  1.00  0.00    -0.186 C  
BRANCH  22  23
HETATM   23  C   UNL     1      -9.686   9.172  68.161  1.00  0.00    -0.174 C  
BRANCH  23  24
HETATM   24  C   UNL     1     -10.376   7.973  68.826  1.00  0.00    -0.223 C  
HETATM   25  C   UNL     1     -10.956   8.375  70.187  1.00  0.00    -0.216 C  
ENDBRANCH  23  24
ENDBRANCH  22  23
ENDBRANCH   5  22
ENDBRANCH   4   5
ENDBRANCH   3   4
ENDBRANCH   2   3
TORSDOF 14
ENDMDL
MODEL      121
REMARK 921   NORMALIZED FREE ENERGY PREDICTED BY IDOCK:   -3.55 KCAL/MOL
REMARK 922        TOTAL FREE ENERGY PREDICTED BY IDOCK:   -7.83 KCAL/MOL
REMARK 923 INTER-LIGAND FREE ENERGY PREDICTED BY IDOCK:   -6.60 KCAL/MOL
REMARK 924 INTRA-LIGAND FREE ENERGY PREDICTED BY IDOCK:   -1.23 KCAL/MOL
REMARK 927      BINDING AFFINITY PREDICTED BY RF-SCORE:    0.00 PKD
ROOT
HETATM    1  C   UNL     1     -11.155   6.391  69.113  1.00  0.00    -0.428 C  
HETATM    2  C   UNL     1     -11.087   6.291  67.588  1.00  0.00    -0.368 C  
ENDROOT
BRANCH   2   3
HETATM    3  C   UNL     1     -10.527   7.583  66.962  1.00  0.00    -0.409 C  
BRANCH   3   4
HETATM    4  C   UNL     1      -9.129   7.361  66.348  1.00  0.00    -0.160 C  
BRANCH   4   5
HETATM    5  N   UNL     1      -8.035   7.798  67.234  1.00  0.00    -0.116 NA 
BRANCH   5   6
HETATM    6  C   UNL     1      -7.850   9.219  67.499  1.00  0.00    -0.096 C  
HETATM    7  S   UNL     1      -8.075  10.466  66.169  1.00  0.00    -0.145 SA 
HETATM    8  C   UNL     1     -10.014  13.546  68.128  1.00  0.00    -0.240 C  
HETATM    9  S   UNL     1      -7.728   9.859  69.035  1.00  0.00    -0.096 SA 
HETATM   10 ZN   UNL     1      -8.666  11.497  67.931  1.00  0.00    -0.119 Zn 
HETATM   11  S   UNL     1      -8.396  13.649  67.769  1.00  0.00    -0.197 SA 
HETATM   12  S   UNL     1     -10.664  11.886  68.576  1.00  0.00    -0.233 SA 
BRANCH   8  13
HETATM   13  N   UNL     1     -10.936  14.609  67.829  1.00  0.00    -0.278 NA 
BRANCH  13  14
HETATM   14  C   UNL     1     -10.803  15.933  68.435  1.00  0.00    -0.316 C  
BRANCH  14  15
HETATM   15  C   UNL     1     -10.119  16.944  67.481  1.00  0.00    -0.282 C  
BRANCH  15  16
HETATM   16  C   UNL     1     -10.612  18.397  67.631  1.00  0.00    -0.437 C  
HETATM   17  C   UNL     1     -10.241  19.230  66.398  1.00  0.00    -0.533 C  
ENDBRANCH  15  16
ENDBRANCH  14  15
ENDBRANCH  13  14
BRANCH  13  18
HETATM   18  C   UNL     1     -12.022  14.371  66.872  1.00  0.00    -0.399 C  
BRANCH  18  19
HETATM   19  C   UNL     1     -11.495  13.911  65.491  1.00  0.00    -0.319 C  
BRANCH  19  20
HETATM   20  C   UNL     1     -12.186  12.655  64.932  1.00  0.00    -0.531 C  
HETATM   21  C   UNL     1     -12.017  12.577  63.410  1.00  0.00    -0.602 C  
ENDBRANCH  19  20
ENDBRANCH  18  19
ENDBRANCH  13  18
ENDBRANCH   8  13
ENDBRANCH   5   6
BRANCH   5  22
HETATM   22  C   UNL     1      -7.191   6.787  67.885  1.00  0.00    -0.091 C  
BRANCH  22  23
HETATM   23  C   UNL     1      -7.379   5.343  67.382  1.00  0.00    -0.083 C  
BRANCH  23  24
HETATM   24  C   UNL     1      -8.053   4.398  68.385  1.00  0.00    -0.082 C  
HETATM   25  C   UNL     1      -7.022   3.443  68.998  1.00  0.00    -0.045 C  
ENDBRANCH  23  24
ENDBRANCH  22  23
ENDBRANCH   5  22
ENDBRANCH   4   5
ENDBRANCH   3   4
ENDBRANCH   2   3
TORSDOF 14
ENDMDL
MODEL      122
REMARK 921   NORMALIZED FREE ENERGY PREDICTED BY IDOCK:   -3.53 KCAL/MOL
REMARK 922        TOTAL FREE ENERGY PREDICTED BY IDOCK:   -7.80 KCAL/MOL
REMARK 923 INTER-LIGAND FREE ENERGY PREDICTED BY IDOCK:   -6.51 KCAL/MOL
REMARK 924 INTRA-LIGAND FREE ENERGY PREDICTED BY IDOCK:   -1.29 KCAL/MOL
REMARK 927      BINDING AFFINITY PREDICTED BY RF-SCORE:    0.00 PKD
ROOT
HETATM    1  C   UNL     1      -8.759  18.887  68.533  1.00  0.00    -0.382 C  
HETATM    2  C   UNL     1      -8.624  18.331  67.115  1.00  0.00    -0.249 C  
ENDROOT
BRANCH   2   3
HETATM    3  C   UNL     1      -8.597  16.790  67.113  1.00  0.00    -0.217 C  
BRANCH   3   4
HETATM    4  C   UNL     1      -9.003  16.211  68.485  1.00  0.00    -0.204 C  
BRANCH   4   5
HETATM    5  N   UNL     1     -10.273  15.463  68.441  1.00  0.00    -0.219 NA 
BRANCH   5   6
HETATM    6  C   UNL     1     -10.307  14.140  67.832  1.00  0.00    -0.234 C  
HETATM    7  S   UNL     1      -8.834  13.044  67.870  1.00  0.00    -0.203 SA 
HETATM    8  C   UNL     1     -10.486   9.325  68.595  1.00  0.00    -0.209 C  
HETATM    9  S   UNL     1     -11.714  13.393  67.335  1.00  0.00    -0.379 SA 
HETATM   10 ZN   UNL     1     -10.470  11.689  67.913  1.00  0.00    -0.171 Zn 
HETATM   11  S   UNL     1      -9.968   9.746  67.073  1.00  0.00    -0.216 SA 
HETATM   12  S   UNL     1     -11.232  10.655  69.619  1.00  0.00    -0.310 SA 
BRANCH   8  13
HETATM   13  N   UNL     1     -10.119   8.079  69.211  1.00  0.00    -0.193 NA 
BRANCH  13  14
HETATM   14  C   UNL     1     -11.008   7.394  70.148  1.00  0.00    -0.255 C  
BRANCH  14  15
HETATM   15  C   UNL     1     -10.926   5.853  70.010  1.00  0.00    -0.430 C  
BRANCH  15  16
HETATM   16  C   UNL     1     -10.492   5.119  71.295  1.00  0.00    -0.245 C  
HETATM   17  C   UNL     1     -11.223   5.681  72.519  1.00  0.00    -0.346 C  
ENDBRANCH  15  16
ENDBRANCH  14  15
ENDBRANCH  13  14
BRANCH  13  18
HETATM   18  C   UNL     1      -8.831   7.461  68.874  1.00  0.00    -0.131 C  
BRANCH  18  19
HETATM   19  C   UNL     1      -7.675   8.000  69.752  1.00  0.00    -0.101 C  
BRANCH  19  20
HETATM   20  C   UNL     1      -7.229   7.045  70.874  1.00  0.00    -0.072 C  
HETATM   21  C   UNL     1      -7.668   7.578  72.243  1.00  0.00    -0.099 C  
ENDBRANCH  19  20
ENDBRANCH  18  19
ENDBRANCH  13  18
ENDBRANCH   8  13
ENDBRANCH   5   6
BRANCH   5  22
HETATM   22  C   UNL     1     -11.468  16.041  69.072  1.00  0.00    -0.360 C  
BRANCH  22  23
HETATM   23  C   UNL     1     -11.430  16.125  70.609  1.00  0.00    -0.386 C  
BRANCH  23  24
HETATM   24  C   UNL     1     -12.261  15.056  71.331  1.00  0.00    -0.388 C  
HETATM   25  C   UNL     1     -12.746  15.579  72.688  1.00  0.00    -0.510 C  
ENDBRANCH  23  24
ENDBRANCH  22  23
ENDBRANCH   5  22
ENDBRANCH   4   5
ENDBRANCH   3   4
ENDBRANCH   2   3
TORSDOF 14
ENDMDL
MODEL      123
REMARK 921   NORMALIZED FREE ENERGY PREDICTED BY IDOCK:   -3.53 KCAL/MOL
REMARK 922        TOTAL FREE ENERGY PREDICTED BY IDOCK:   -7.80 KCAL/MOL
REMARK 923 INTER-LIGAND FREE ENERGY PREDICTED BY IDOCK:   -6.47 KCAL/MOL
REMARK 924 INTRA-LIGAND FREE ENERGY PREDICTED BY IDOCK:   -1.32 KCAL/MOL
REMARK 927      BINDING AFFINITY PREDICTED BY RF-SCORE:    0.00 PKD
ROOT
HETATM    1  C   UNL     1     -10.717  19.494  65.922  1.00  0.00    -0.518 C  
HETATM    2  C   UNL     1     -10.083  19.940  67.241  1.00  0.00    -0.569 C  
ENDROOT
BRANCH   2   3
HETATM    3  C   UNL     1     -10.163  18.831  68.308  1.00  0.00    -0.425 C  
BRANCH   3   4
HETATM    4  C   UNL     1      -8.781  18.197  68.577  1.00  0.00    -0.296 C  
BRANCH   4   5
HETATM    5  N   UNL     1      -8.498  17.044  67.703  1.00  0.00    -0.203 NA 
BRANCH   5   6
HETATM    6  C   UNL     1      -9.469  15.962  67.604  1.00  0.00    -0.219 C  
HETATM    7  S   UNL     1      -9.770  15.107  66.006  1.00  0.00    -0.347 SA 
HETATM    8  C   UNL     1     -10.154  11.153  67.149  1.00  0.00    -0.191 C  
HETATM    9  S   UNL     1     -10.149  15.211  68.930  1.00  0.00    -0.247 SA 
HETATM   10 ZN   UNL     1     -10.111  13.593  67.459  1.00  0.00    -0.213 Zn 
HETATM   11  S   UNL     1     -11.490  12.062  66.762  1.00  0.00    -0.317 SA 
HETATM   12  S   UNL     1      -8.777  12.018  68.003  1.00  0.00    -0.180 SA 
BRANCH   8  13
HETATM   13  N   UNL     1      -9.935   9.842  66.601  1.00  0.00    -0.215 NA 
BRANCH  13  14
HETATM   14  C   UNL     1      -9.137   9.637  65.393  1.00  0.00    -0.215 C  
BRANCH  14  15
HETATM   15  C   UNL     1      -7.684   9.212  65.720  1.00  0.00    -0.094 C  
BRANCH  15  16
HETATM   16  C   UNL     1      -7.249   7.878  65.081  1.00  0.00    -0.061 C  
HETATM   17  C   UNL     1      -8.343   6.815  65.237  1.00  0.00    -0.108 C  
ENDBRANCH  15  16
ENDBRANCH  14  15
ENDBRANCH  13  14
BRANCH  13  18
HETATM   18  C   UNL     1     -10.503   8.673  67.283  1.00  0.00    -0.289 C  
BRANCH  18  19
HETATM   19  C   UNL     1      -9.938   8.498  68.714  1.00  0.00    -0.197 C  
BRANCH  19  20
HETATM   20  C   UNL     1      -9.846   7.037  69.188  1.00  0.00    -0.158 C  
HETATM   21  C   UNL     1     -11.236   6.494  69.539  1.00  0.00    -0.434 C  
ENDBRANCH  19  20
ENDBRANCH  18  19
ENDBRANCH  13  18
ENDBRANCH   8  13
ENDBRANCH   5   6
BRANCH   5  22
HETATM   22  C   UNL     1      -7.270  17.038  66.898  1.00  0.00    -0.209 C  
BRANCH  22  23
HETATM   23  C   UNL     1      -7.128  18.201  65.897  1.00  0.00    -0.300 C  
BRANCH  23  24
HETATM   24  C   UNL     1      -5.946  19.141  66.168  1.00  0.00    -0.186 C  
HETATM   25  C   UNL     1      -6.436  20.583  66.338  1.00  0.00    -0.282 C  
ENDBRANCH  23  24
ENDBRANCH  22  23
ENDBRANCH   5  22
ENDBRANCH   4   5
ENDBRANCH   3   4
ENDBRANCH   2   3
TORSDOF 14
ENDMDL
MODEL      124
REMARK 921   NORMALIZED FREE ENERGY PREDICTED BY IDOCK:   -3.53 KCAL/MOL
REMARK 922        TOTAL FREE ENERGY PREDICTED BY IDOCK:   -7.79 KCAL/MOL
REMARK 923 INTER-LIGAND FREE ENERGY PREDICTED BY IDOCK:   -7.04 KCAL/MOL
REMARK 924 INTRA-LIGAND FREE ENERGY PREDICTED BY IDOCK:   -0.75 KCAL/MOL
REMARK 927      BINDING AFFINITY PREDICTED BY RF-SCORE:    0.00 PKD
ROOT
HETATM    1  C   UNL     1      -9.964  20.438  66.913  1.00  0.00    -0.549 C  
HETATM    2  C   UNL     1      -9.683  19.413  68.013  1.00  0.00    -0.447 C  
ENDROOT
BRANCH   2   3
HETATM    3  C   UNL     1     -10.599  18.180  67.883  1.00  0.00    -0.389 C  
BRANCH   3   4
HETATM    4  C   UNL     1      -9.933  16.911  68.456  1.00  0.00    -0.275 C  
BRANCH   4   5
HETATM    5  N   UNL     1     -10.846  15.755  68.507  1.00  0.00    -0.274 NA 
BRANCH   5   6
HETATM    6  C   UNL     1     -10.769  14.732  67.472  1.00  0.00    -0.269 C  
HETATM    7  S   UNL     1      -9.174  13.913  67.070  1.00  0.00    -0.257 SA 
HETATM    8  C   UNL     1     -10.292   9.976  66.496  1.00  0.00    -0.198 C  
HETATM    9  S   UNL     1     -12.110  14.007  66.795  1.00  0.00    -0.414 SA 
HETATM   10 ZN   UNL     1     -10.623  12.406  66.691  1.00  0.00    -0.218 Zn 
HETATM   11  S   UNL     1      -9.959  10.964  65.203  1.00  0.00    -0.306 SA 
HETATM   12  S   UNL     1     -11.108  10.750  67.949  1.00  0.00    -0.319 SA 
BRANCH   8  13
HETATM   13  N   UNL     1      -9.725   8.660  66.622  1.00  0.00    -0.224 NA 
BRANCH  13  14
HETATM   14  C   UNL     1     -10.508   7.530  67.119  1.00  0.00    -0.336 C  
BRANCH  14  15
HETATM   15  C   UNL     1      -9.654   6.559  67.972  1.00  0.00    -0.119 C  
BRANCH  15  16
HETATM   16  C   UNL     1      -9.639   6.878  69.480  1.00  0.00    -0.148 C  
HETATM   17  C   UNL     1      -8.201   6.990  70.001  1.00  0.00    -0.133 C  
ENDBRANCH  15  16
ENDBRANCH  14  15
ENDBRANCH  13  14
BRANCH  13  18
HETATM   18  C   UNL     1      -8.333   8.435  66.215  1.00  0.00    -0.122 C  
BRANCH  18  19
HETATM   19  C   UNL     1      -8.231   7.748  64.832  1.00  0.00    -0.111 C  
BRANCH  19  20
HETATM   20  C   UNL     1      -7.286   8.450  63.840  1.00  0.00    -0.094 C  
HETATM   21  C   UNL     1      -8.049   8.887  62.584  1.00  0.00    -0.164 C  
ENDBRANCH  19  20
ENDBRANCH  18  19
ENDBRANCH  13  18
ENDBRANCH   8  13
ENDBRANCH   5   6
BRANCH   5  22
HETATM   22  C   UNL     1     -11.773  15.623  69.638  1.00  0.00    -0.361 C  
BRANCH  22  23
HETATM   23  C   UNL     1     -11.691  14.293  70.412  1.00  0.00    -0.329 C  
BRANCH  23  24
HETATM   24  C   UNL     1     -12.999  13.864  71.089  1.00  0.00    -0.388 C  
HETATM   25  C   UNL     1     -13.813  15.092  71.511  1.00  0.00    -0.597 C  
ENDBRANCH  23  24
ENDBRANCH  22  23
ENDBRANCH   5  22
ENDBRANCH   4   5
ENDBRANCH   3   4
ENDBRANCH   2   3
TORSDOF 14
ENDMDL
MODEL      125
REMARK 921   NORMALIZED FREE ENERGY PREDICTED BY IDOCK:   -3.52 KCAL/MOL
REMARK 922        TOTAL FREE ENERGY PREDICTED BY IDOCK:   -7.78 KCAL/MOL
REMARK 923 INTER-LIGAND FREE ENERGY PREDICTED BY IDOCK:   -6.94 KCAL/MOL
REMARK 924 INTRA-LIGAND FREE ENERGY PREDICTED BY IDOCK:   -0.84 KCAL/MOL
REMARK 927      BINDING AFFINITY PREDICTED BY RF-SCORE:    0.00 PKD
ROOT
HETATM    1  C   UNL     1     -13.955  14.277  72.249  1.00  0.00    -0.629 C  
HETATM    2  C   UNL     1     -13.501  15.436  71.361  1.00  0.00    -0.607 C  
ENDROOT
BRANCH   2   3
HETATM    3  C   UNL     1     -12.596  14.948  70.214  1.00  0.00    -0.361 C  
BRANCH   3   4
HETATM    4  C   UNL     1     -11.877  13.630  70.576  1.00  0.00    -0.203 C  
BRANCH   4   5
HETATM    5  N   UNL     1     -11.674  12.747  69.413  1.00  0.00    -0.308 NA 
BRANCH   5   6
HETATM    6  C   UNL     1     -11.962  11.324  69.532  1.00  0.00    -0.351 C  
HETATM    7  S   UNL     1     -11.035  10.086  68.541  1.00  0.00    -0.175 SA 
HETATM    8  C   UNL     1     -10.461   7.007  71.238  1.00  0.00    -0.206 C  
HETATM    9  S   UNL     1     -12.901  10.674  70.749  1.00  0.00    -0.314 SA 
HETATM   10 ZN   UNL     1     -11.497   9.048  70.337  1.00  0.00    -0.242 Zn 
HETATM   11  S   UNL     1     -11.617   6.896  70.050  1.00  0.00    -0.196 SA 
HETATM   12  S   UNL     1     -10.177   8.667  71.971  1.00  0.00    -0.330 SA 
BRANCH   8  13
HETATM   13  N   UNL     1      -9.518   5.951  71.491  1.00  0.00    -0.152 NA 
BRANCH  13  14
HETATM   14  C   UNL     1      -8.076   6.193  71.491  1.00  0.00    -0.114 C  
BRANCH  14  15
HETATM   15  C   UNL     1      -7.531   6.467  70.067  1.00  0.00    -0.094 C  
BRANCH  15  16
HETATM   16  C   UNL     1      -6.398   7.512  70.007  1.00  0.00    -0.031 C  
HETATM   17  C   UNL     1      -6.864   8.782  69.285  1.00  0.00    -0.050 C  
ENDBRANCH  15  16
ENDBRANCH  14  15
ENDBRANCH  13  14
BRANCH  13  18
HETATM   18  C   UNL     1     -10.012   4.601  71.783  1.00  0.00    -0.192 C  
BRANCH  18  19
HETATM   19  C   UNL     1     -10.966   4.577  73.001  1.00  0.00    -0.308 C  
BRANCH  19  20
HETATM   20  C   UNL     1     -10.695   3.438  74.001  1.00  0.00    -0.283 C  
HETATM   21  C   UNL     1     -11.425   2.159  73.574  1.00  0.00    -0.305 C  
ENDBRANCH  19  20
ENDBRANCH  18  19
ENDBRANCH  13  18
ENDBRANCH   8  13
ENDBRANCH   5   6
BRANCH   5  22
HETATM   22  C   UNL     1     -11.245  13.332  68.136  1.00  0.00    -0.270 C  
BRANCH  22  23
HETATM   23  C   UNL     1     -12.272  13.247  66.991  1.00  0.00    -0.310 C  
BRANCH  23  24
HETATM   24  C   UNL     1     -11.730  12.644  65.687  1.00  0.00    -0.458 C  
HETATM   25  C   UNL     1     -11.879  13.641  64.533  1.00  0.00    -0.445 C  
ENDBRANCH  23  24
ENDBRANCH  22  23
ENDBRANCH   5  22
ENDBRANCH   4   5
ENDBRANCH   3   4
ENDBRANCH   2   3
TORSDOF 14
ENDMDL
MODEL      126
REMARK 921   NORMALIZED FREE ENERGY PREDICTED BY IDOCK:   -3.48 KCAL/MOL
REMARK 922        TOTAL FREE ENERGY PREDICTED BY IDOCK:   -7.71 KCAL/MOL
REMARK 923 INTER-LIGAND FREE ENERGY PREDICTED BY IDOCK:   -6.60 KCAL/MOL
REMARK 924 INTRA-LIGAND FREE ENERGY PREDICTED BY IDOCK:   -1.11 KCAL/MOL
REMARK 927      BINDING AFFINITY PREDICTED BY RF-SCORE:    0.00 PKD
ROOT
HETATM    1  C   UNL     1      -6.350  16.878  67.034  1.00  0.00    -0.229 C  
HETATM    2  C   UNL     1      -6.845  17.313  68.414  1.00  0.00    -0.191 C  
ENDROOT
BRANCH   2   3
HETATM    3  C   UNL     1      -8.384  17.387  68.463  1.00  0.00    -0.271 C  
BRANCH   3   4
HETATM    4  C   UNL     1      -9.015  17.055  67.094  1.00  0.00    -0.222 C  
BRANCH   4   5
HETATM    5  N   UNL     1     -10.023  15.982  67.170  1.00  0.00    -0.244 NA 
BRANCH   5   6
HETATM    6  C   UNL     1      -9.726  14.676  66.595  1.00  0.00    -0.270 C  
HETATM    7  S   UNL     1      -8.452  13.583  67.342  1.00  0.00    -0.201 SA 
HETATM    8  C   UNL     1     -10.185   9.841  67.056  1.00  0.00    -0.229 C  
HETATM    9  S   UNL     1     -10.683  13.939  65.444  1.00  0.00    -0.344 SA 
HETATM   10 ZN   UNL     1      -9.868  12.223  66.528  1.00  0.00    -0.198 Zn 
HETATM   11  S   UNL     1      -8.981  10.306  66.009  1.00  0.00    -0.158 SA 
HETATM   12  S   UNL     1     -11.365  11.140  67.598  1.00  0.00    -0.246 SA 
BRANCH   8  13
HETATM   13  N   UNL     1     -10.156   8.579  67.745  1.00  0.00    -0.198 NA 
BRANCH  13  14
HETATM   14  C   UNL     1      -9.673   8.466  69.120  1.00  0.00    -0.171 C  
BRANCH  14  15
HETATM   15  C   UNL     1     -10.726   7.823  70.057  1.00  0.00    -0.245 C  
BRANCH  15  16
HETATM   16  C   UNL     1     -11.453   8.821  70.981  1.00  0.00    -0.337 C  
HETATM   17  C   UNL     1     -11.288   8.423  72.453  1.00  0.00    -0.448 C  
ENDBRANCH  15  16
ENDBRANCH  14  15
ENDBRANCH  13  14
BRANCH  13  18
HETATM   18  C   UNL     1     -10.648   7.376  67.064  1.00  0.00    -0.344 C  
BRANCH  18  19
HETATM   19  C   UNL     1      -9.523   6.344  66.811  1.00  0.00    -0.176 C  
BRANCH  19  20
HETATM   20  C   UNL     1      -9.946   4.878  67.009  1.00  0.00    -0.238 C  
HETATM   21  C   UNL     1      -8.716   3.974  67.148  1.00  0.00    -0.118 C  
ENDBRANCH  19  20
ENDBRANCH  18  19
ENDBRANCH  13  18
ENDBRANCH   8  13
ENDBRANCH   5   6
BRANCH   5  22
HETATM   22  C   UNL     1     -11.283  16.230  67.882  1.00  0.00    -0.213 C  
BRANCH  22  23
HETATM   23  C   UNL     1     -11.652  15.190  68.958  1.00  0.00    -0.350 C  
BRANCH  23  24
HETATM   24  C   UNL     1     -11.774  15.754  70.380  1.00  0.00    -0.390 C  
HETATM   25  C   UNL     1     -13.115  15.352  71.003  1.00  0.00    -0.565 C  
ENDBRANCH  23  24
ENDBRANCH  22  23
ENDBRANCH   5  22
ENDBRANCH   4   5
ENDBRANCH   3   4
ENDBRANCH   2   3
TORSDOF 14
ENDMDL
MODEL      127
REMARK 921   NORMALIZED FREE ENERGY PREDICTED BY IDOCK:   -3.46 KCAL/MOL
REMARK 922        TOTAL FREE ENERGY PREDICTED BY IDOCK:   -7.67 KCAL/MOL
REMARK 923 INTER-LIGAND FREE ENERGY PREDICTED BY IDOCK:   -6.81 KCAL/MOL
REMARK 924 INTRA-LIGAND FREE ENERGY PREDICTED BY IDOCK:   -0.86 KCAL/MOL
REMARK 927      BINDING AFFINITY PREDICTED BY RF-SCORE:    0.00 PKD
ROOT
HETATM    1  C   UNL     1      -8.209  16.272  66.459  1.00  0.00    -0.344 C  
HETATM    2  C   UNL     1      -9.487  16.859  65.858  1.00  0.00    -0.148 C  
ENDROOT
BRANCH   2   3
HETATM    3  C   UNL     1     -10.581  15.785  65.701  1.00  0.00    -0.393 C  
BRANCH   3   4
HETATM    4  C   UNL     1     -10.128  14.422  66.266  1.00  0.00    -0.297 C  
BRANCH   4   5
HETATM    5  N   UNL     1     -10.712  14.123  67.586  1.00  0.00    -0.256 NA 
BRANCH   5   6
HETATM    6  C   UNL     1     -10.274  12.939  68.315  1.00  0.00    -0.245 C  
HETATM    7  S   UNL     1     -11.468  11.925  69.274  1.00  0.00    -0.317 SA 
HETATM    8  C   UNL     1     -10.222   8.064  68.481  1.00  0.00    -0.207 C  
HETATM    9  S   UNL     1      -8.774  12.236  68.110  1.00  0.00    -0.182 SA 
HETATM   10 ZN   UNL     1     -10.023  10.512  68.614  1.00  0.00    -0.145 Zn 
HETATM   11  S   UNL     1      -9.875   8.790  69.935  1.00  0.00    -0.189 SA 
HETATM   12  S   UNL     1     -10.223   9.139  66.992  1.00  0.00    -0.265 SA 
BRANCH   8  13
HETATM   13  N   UNL     1     -10.780   6.741  68.400  1.00  0.00    -0.228 NA 
BRANCH  13  14
HETATM   14  C   UNL     1     -11.261   6.036  69.587  1.00  0.00    -0.357 C  
BRANCH  14  15
HETATM   15  C   UNL     1     -10.175   5.116  70.199  1.00  0.00    -0.348 C  
BRANCH  15  16
HETATM   16  C   UNL     1     -10.191   5.045  71.738  1.00  0.00    -0.272 C  
HETATM   17  C   UNL     1      -9.746   3.661  72.227  1.00  0.00    -0.223 C  
ENDBRANCH  15  16
ENDBRANCH  14  15
ENDBRANCH  13  14
BRANCH  13  18
HETATM   18  C   UNL     1     -10.898   6.089  67.091  1.00  0.00    -0.329 C  
BRANCH  18  19
HETATM   19  C   UNL     1      -9.634   5.273  66.728  1.00  0.00    -0.156 C  
BRANCH  19  20
HETATM   20  C   UNL     1      -9.776   4.407  65.462  1.00  0.00    -0.206 C  
HETATM   21  C   UNL     1      -8.890   3.160  65.559  1.00  0.00    -0.138 C  
ENDBRANCH  19  20
ENDBRANCH  18  19
ENDBRANCH  13  18
ENDBRANCH   8  13
ENDBRANCH   5   6
BRANCH   5  22
HETATM   22  C   UNL     1     -11.679  15.061  68.171  1.00  0.00    -0.312 C  
BRANCH  22  23
HETATM   23  C   UNL     1     -11.126  15.980  69.276  1.00  0.00    -0.331 C  
BRANCH  23  24
HETATM   24  C   UNL     1     -11.457  15.534  70.706  1.00  0.00    -0.396 C  
HETATM   25  C   UNL     1     -12.958  15.257  70.848  1.00  0.00    -0.522 C  
ENDBRANCH  23  24
ENDBRANCH  22  23
ENDBRANCH   5  22
ENDBRANCH   4   5
ENDBRANCH   3   4
ENDBRANCH   2   3
TORSDOF 14
ENDMDL
MODEL      128
REMARK 921   NORMALIZED FREE ENERGY PREDICTED BY IDOCK:   -3.44 KCAL/MOL
REMARK 922        TOTAL FREE ENERGY PREDICTED BY IDOCK:   -7.64 KCAL/MOL
REMARK 923 INTER-LIGAND FREE ENERGY PREDICTED BY IDOCK:   -6.61 KCAL/MOL
REMARK 924 INTRA-LIGAND FREE ENERGY PREDICTED BY IDOCK:   -1.03 KCAL/MOL
REMARK 927      BINDING AFFINITY PREDICTED BY RF-SCORE:    0.00 PKD
ROOT
HETATM    1  C   UNL     1      -6.751  16.497  67.622  1.00  0.00    -0.161 C  
HETATM    2  C   UNL     1      -7.586  16.948  68.822  1.00  0.00    -0.243 C  
ENDROOT
BRANCH   2   3
HETATM    3  C   UNL     1      -8.802  16.027  69.041  1.00  0.00    -0.244 C  
BRANCH   3   4
HETATM    4  C   UNL     1      -8.555  14.611  68.476  1.00  0.00    -0.170 C  
BRANCH   4   5
HETATM    5  N   UNL     1      -9.666  14.124  67.638  1.00  0.00    -0.224 NA 
BRANCH   5   6
HETATM    6  C   UNL     1      -9.910  12.692  67.530  1.00  0.00    -0.203 C  
HETATM    7  S   UNL     1      -8.616  11.475  67.999  1.00  0.00    -0.156 SA 
HETATM    8  C   UNL     1     -10.790   8.533  69.925  1.00  0.00    -0.205 C  
HETATM    9  S   UNL     1     -11.423  12.033  67.281  1.00  0.00    -0.321 SA 
HETATM   10 ZN   UNL     1     -10.436  10.477  68.459  1.00  0.00    -0.153 Zn 
HETATM   11  S   UNL     1     -10.247   8.312  68.370  1.00  0.00    -0.204 SA 
HETATM   12  S   UNL     1     -11.308  10.232  70.393  1.00  0.00    -0.346 SA 
BRANCH   8  13
HETATM   13  N   UNL     1     -10.600   7.543  70.951  1.00  0.00    -0.218 NA 
BRANCH  13  14
HETATM   14  C   UNL     1     -11.334   7.596  72.214  1.00  0.00    -0.306 C  
BRANCH  14  15
HETATM   15  C   UNL     1     -10.414   7.340  73.434  1.00  0.00    -0.423 C  
BRANCH  15  16
HETATM   16  C   UNL     1      -9.129   8.191  73.455  1.00  0.00    -0.309 C  
HETATM   17  C   UNL     1      -7.994   7.452  74.174  1.00  0.00    -0.178 C  
ENDBRANCH  15  16
ENDBRANCH  14  15
ENDBRANCH  13  14
BRANCH  13  18
HETATM   18  C   UNL     1      -9.668   6.435  70.717  1.00  0.00    -0.180 C  
BRANCH  18  19
HETATM   19  C   UNL     1     -10.401   5.099  70.447  1.00  0.00    -0.326 C  
BRANCH  19  20
HETATM   20  C   UNL     1      -9.715   3.862  71.054  1.00  0.00    -0.252 C  
HETATM   21  C   UNL     1     -10.013   3.760  72.555  1.00  0.00    -0.228 C  
ENDBRANCH  19  20
ENDBRANCH  18  19
ENDBRANCH  13  18
ENDBRANCH   8  13
ENDBRANCH   5   6
BRANCH   5  22
HETATM   22  C   UNL     1     -10.548  15.097  66.980  1.00  0.00    -0.300 C  
BRANCH  22  23
HETATM   23  C   UNL     1     -10.194  15.430  65.518  1.00  0.00    -0.411 C  
BRANCH  23  24
HETATM   24  C   UNL     1     -11.403  15.678  64.606  1.00  0.00    -0.355 C  
HETATM   25  C   UNL     1     -12.154  14.368  64.343  1.00  0.00    -0.491 C  
ENDBRANCH  23  24
ENDBRANCH  22  23
ENDBRANCH   5  22
ENDBRANCH   4   5
ENDBRANCH   3   4
ENDBRANCH   2   3
TORSDOF 14
ENDMDL
MODEL      129
REMARK 921   NORMALIZED FREE ENERGY PREDICTED BY IDOCK:   -3.42 KCAL/MOL
REMARK 922        TOTAL FREE ENERGY PREDICTED BY IDOCK:   -7.60 KCAL/MOL
REMARK 923 INTER-LIGAND FREE ENERGY PREDICTED BY IDOCK:   -6.51 KCAL/MOL
REMARK 924 INTRA-LIGAND FREE ENERGY PREDICTED BY IDOCK:   -1.09 KCAL/MOL
REMARK 927      BINDING AFFINITY PREDICTED BY RF-SCORE:    0.00 PKD
ROOT
HETATM    1  C   UNL     1      -9.289   3.504  69.575  1.00  0.00    -0.243 C  
HETATM    2  C   UNL     1      -9.820   4.378  70.713  1.00  0.00    -0.273 C  
ENDROOT
BRANCH   2   3
HETATM    3  C   UNL     1      -9.377   5.845  70.552  1.00  0.00    -0.185 C  
BRANCH   3   4
HETATM    4  C   UNL     1     -10.385   6.656  69.710  1.00  0.00    -0.193 C  
BRANCH   4   5
HETATM    5  N   UNL     1      -9.758   7.349  68.570  1.00  0.00    -0.149 NA 
BRANCH   5   6
HETATM    6  C   UNL     1      -9.328   8.733  68.718  1.00  0.00    -0.141 C  
HETATM    7  S   UNL     1      -9.203   9.844  67.260  1.00  0.00    -0.138 SA 
HETATM    8  C   UNL     1     -10.673  13.423  68.715  1.00  0.00    -0.232 C  
HETATM    9  S   UNL     1      -9.211   9.507  70.191  1.00  0.00    -0.249 SA 
HETATM   10 ZN   UNL     1      -9.728  11.155  68.848  1.00  0.00    -0.159 Zn 
HETATM   11  S   UNL     1      -9.040  13.191  68.513  1.00  0.00     0.021 SA 
HETATM   12  S   UNL     1     -11.661  11.969  69.250  1.00  0.00    -0.339 SA 
BRANCH   8  13
HETATM   13  N   UNL     1     -11.348  14.595  68.226  1.00  0.00    -0.283 NA 
BRANCH  13  14
HETATM   14  C   UNL     1     -11.922  14.646  66.883  1.00  0.00    -0.272 C  
BRANCH  14  15
HETATM   15  C   UNL     1     -10.834  14.587  65.781  1.00  0.00    -0.317 C  
BRANCH  15  16
HETATM   16  C   UNL     1      -9.842  15.767  65.798  1.00  0.00    -0.383 C  
HETATM   17  C   UNL     1     -10.580  17.103  65.648  1.00  0.00    -0.187 C  
ENDBRANCH  15  16
ENDBRANCH  14  15
ENDBRANCH  13  14
BRANCH  13  18
HETATM   18  C   UNL     1     -11.489  15.762  69.104  1.00  0.00    -0.380 C  
BRANCH  18  19
HETATM   19  C   UNL     1     -11.091  15.447  70.566  1.00  0.00    -0.361 C  
BRANCH  19  20
HETATM   20  C   UNL     1     -12.109  15.920  71.620  1.00  0.00    -0.554 C  
HETATM   21  C   UNL     1     -13.518  15.429  71.268  1.00  0.00    -0.598 C  
ENDBRANCH  19  20
ENDBRANCH  18  19
ENDBRANCH  13  18
ENDBRANCH   8  13
ENDBRANCH   5   6
BRANCH   5  22
HETATM   22  C   UNL     1      -9.518   6.607  67.325  1.00  0.00    -0.133 C  
BRANCH  22  23
HETATM   23  C   UNL     1     -10.713   5.789  66.800  1.00  0.00    -0.369 C  
BRANCH  23  24
HETATM   24  C   UNL     1     -10.331   4.503  66.055  1.00  0.00    -0.276 C  
HETATM   25  C   UNL     1      -8.816   4.443  65.830  1.00  0.00    -0.120 C  
ENDBRANCH  23  24
ENDBRANCH  22  23
ENDBRANCH   5  22
ENDBRANCH   4   5
ENDBRANCH   3   4
ENDBRANCH   2   3
TORSDOF 14
ENDMDL
MODEL      130
REMARK 921   NORMALIZED FREE ENERGY PREDICTED BY IDOCK:   -3.42 KCAL/MOL
REMARK 922        TOTAL FREE ENERGY PREDICTED BY IDOCK:   -7.60 KCAL/MOL
REMARK 923 INTER-LIGAND FREE ENERGY PREDICTED BY IDOCK:   -6.41 KCAL/MOL
REMARK 924 INTRA-LIGAND FREE ENERGY PREDICTED BY IDOCK:   -1.19 KCAL/MOL
REMARK 927      BINDING AFFINITY PREDICTED BY RF-SCORE:    0.00 PKD
ROOT
HETATM    1  C   UNL     1     -10.757   6.115  67.043  1.00  0.00    -0.423 C  
HETATM    2  C   UNL     1      -9.323   5.596  66.926  1.00  0.00    -0.129 C  
ENDROOT
BRANCH   2   3
HETATM    3  C   UNL     1      -8.450   6.536  66.072  1.00  0.00    -0.145 C  
BRANCH   3   4
HETATM    4  C   UNL     1      -7.460   7.341  66.940  1.00  0.00    -0.097 C  
BRANCH   4   5
HETATM    5  N   UNL     1      -7.712   8.793  66.904  1.00  0.00    -0.094 NA 
BRANCH   5   6
HETATM    6  C   UNL     1      -8.950   9.322  67.461  1.00  0.00    -0.118 C  
HETATM    7  S   UNL     1      -9.023   9.930  69.193  1.00  0.00    -0.180 SA 
HETATM    8  C   UNL     1     -11.389  13.304  68.874  1.00  0.00    -0.288 C  
HETATM    9  S   UNL     1     -10.285   9.704  66.536  1.00  0.00    -0.195 SA 
HETATM   10 ZN   UNL     1     -10.435  11.148  68.172  1.00  0.00    -0.162 Zn 
HETATM   11  S   UNL     1     -12.003  11.887  69.486  1.00  0.00    -0.262 SA 
HETATM   12  S   UNL     1     -10.154  13.161  67.521  1.00  0.00    -0.225 SA 
BRANCH   8  13
HETATM   13  N   UNL     1     -11.569  14.567  69.537  1.00  0.00    -0.289 NA 
BRANCH  13  14
HETATM   14  C   UNL     1     -11.822  14.650  70.975  1.00  0.00    -0.322 C  
BRANCH  14  15
HETATM   15  C   UNL     1     -13.238  15.196  71.287  1.00  0.00    -0.536 C  
BRANCH  15  16
HETATM   16  C   UNL     1     -13.495  15.493  72.778  1.00  0.00    -0.650 C  
HETATM   17  C   UNL     1     -12.208  15.955  73.472  1.00  0.00    -0.628 C  
ENDBRANCH  15  16
ENDBRANCH  14  15
ENDBRANCH  13  14
BRANCH  13  18
HETATM   18  C   UNL     1     -11.470  15.808  68.761  1.00  0.00    -0.388 C  
BRANCH  18  19
HETATM   19  C   UNL     1     -10.481  16.817  69.393  1.00  0.00    -0.312 C  
BRANCH  19  20
HETATM   20  C   UNL     1      -9.162  16.988  68.619  1.00  0.00    -0.266 C  
HETATM   21  C   UNL     1      -8.073  16.078  69.199  1.00  0.00    -0.238 C  
ENDBRANCH  19  20
ENDBRANCH  18  19
ENDBRANCH  13  18
ENDBRANCH   8  13
ENDBRANCH   5   6
BRANCH   5  22
HETATM   22  C   UNL     1      -6.679   9.687  66.364  1.00  0.00    -0.076 C  
BRANCH  22  23
HETATM   23  C   UNL     1      -6.963  10.258  64.962  1.00  0.00    -0.112 C  
BRANCH  23  24
HETATM   24  C   UNL     1      -6.846   9.240  63.820  1.00  0.00    -0.092 C  
HETATM   25  C   UNL     1      -8.204   9.044  63.136  1.00  0.00    -0.181 C  
ENDBRANCH  23  24
ENDBRANCH  22  23
ENDBRANCH   5  22
ENDBRANCH   4   5
ENDBRANCH   3   4
ENDBRANCH   2   3
TORSDOF 14
ENDMDL
MODEL      131
REMARK 921   NORMALIZED FREE ENERGY PREDICTED BY IDOCK:   -3.41 KCAL/MOL
REMARK 922        TOTAL FREE ENERGY PREDICTED BY IDOCK:   -7.58 KCAL/MOL
REMARK 923 INTER-LIGAND FREE ENERGY PREDICTED BY IDOCK:   -6.47 KCAL/MOL
REMARK 924 INTRA-LIGAND FREE ENERGY PREDICTED BY IDOCK:   -1.11 KCAL/MOL
REMARK 927      BINDING AFFINITY PREDICTED BY RF-SCORE:    0.00 PKD
ROOT
HETATM    1  C   UNL     1     -11.615   6.577  71.553  1.00  0.00    -0.366 C  
HETATM    2  C   UNL     1     -11.646   6.621  70.025  1.00  0.00    -0.423 C  
ENDROOT
BRANCH   2   3
HETATM    3  C   UNL     1     -10.772   5.511  69.410  1.00  0.00    -0.312 C  
BRANCH   3   4
HETATM    4  C   UNL     1      -9.612   6.094  68.576  1.00  0.00    -0.119 C  
BRANCH   4   5
HETATM    5  N   UNL     1      -8.681   6.910  69.376  1.00  0.00    -0.133 NA 
BRANCH   5   6
HETATM    6  C   UNL     1      -8.508   8.322  69.060  1.00  0.00    -0.131 C  
HETATM    7  S   UNL     1      -8.425   8.896  67.317  1.00  0.00    -0.114 SA 
HETATM    8  C   UNL     1     -10.619  12.398  67.407  1.00  0.00    -0.216 C  
HETATM    9  S   UNL     1      -8.675   9.543  70.185  1.00  0.00    -0.234 SA 
HETATM   10 ZN   UNL     1      -9.323  10.527  68.342  1.00  0.00    -0.130 Zn 
HETATM   11  S   UNL     1      -8.959  12.433  67.359  1.00  0.00    -0.195 SA 
HETATM   12  S   UNL     1     -11.396  11.037  68.367  1.00  0.00    -0.311 SA 
BRANCH   8  13
HETATM   13  N   UNL     1     -11.429  13.191  66.522  1.00  0.00    -0.322 NA 
BRANCH  13  14
HETATM   14  C   UNL     1     -12.066  12.614  65.340  1.00  0.00    -0.462 C  
BRANCH  14  15
HETATM   15  C   UNL     1     -11.088  12.510  64.142  1.00  0.00    -0.426 C  
BRANCH  15  16
HETATM   16  C   UNL     1     -10.441  11.122  63.965  1.00  0.00    -0.447 C  
HETATM   17  C   UNL     1      -9.352  11.161  62.885  1.00  0.00    -0.385 C  
ENDBRANCH  15  16
ENDBRANCH  14  15
ENDBRANCH  13  14
BRANCH  13  18
HETATM   18  C   UNL     1     -11.645  14.611  66.824  1.00  0.00    -0.360 C  
BRANCH  18  19
HETATM   19  C   UNL     1     -11.716  14.882  68.345  1.00  0.00    -0.336 C  
BRANCH  19  20
HETATM   20  C   UNL     1     -11.156  16.249  68.776  1.00  0.00    -0.355 C  
HETATM   21  C   UNL     1     -10.564  16.994  67.574  1.00  0.00    -0.310 C  
ENDBRANCH  19  20
ENDBRANCH  18  19
ENDBRANCH  13  18
ENDBRANCH   8  13
ENDBRANCH   5   6
BRANCH   5  22
HETATM   22  C   UNL     1      -7.993   6.298  70.521  1.00  0.00    -0.112 C  
BRANCH  22  23
HETATM   23  C   UNL     1      -7.525   4.845  70.313  1.00  0.00    -0.058 C  
BRANCH  23  24
HETATM   24  C   UNL     1      -8.038   3.850  71.363  1.00  0.00    -0.069 C  
HETATM   25  C   UNL     1      -8.821   2.717  70.689  1.00  0.00    -0.144 C  
ENDBRANCH  23  24
ENDBRANCH  22  23
ENDBRANCH   5  22
ENDBRANCH   4   5
ENDBRANCH   3   4
ENDBRANCH   2   3
TORSDOF 14
ENDMDL
MODEL      132
REMARK 921   NORMALIZED FREE ENERGY PREDICTED BY IDOCK:   -3.40 KCAL/MOL
REMARK 922        TOTAL FREE ENERGY PREDICTED BY IDOCK:   -7.57 KCAL/MOL
REMARK 923 INTER-LIGAND FREE ENERGY PREDICTED BY IDOCK:   -6.46 KCAL/MOL
REMARK 924 INTRA-LIGAND FREE ENERGY PREDICTED BY IDOCK:   -1.10 KCAL/MOL
REMARK 927      BINDING AFFINITY PREDICTED BY RF-SCORE:    0.00 PKD
ROOT
HETATM    1  C   UNL     1     -12.031  15.961  72.382  1.00  0.00    -0.620 C  
HETATM    2  C   UNL     1     -12.439  15.476  70.990  1.00  0.00    -0.492 C  
ENDROOT
BRANCH   2   3
HETATM    3  C   UNL     1     -11.310  15.694  69.963  1.00  0.00    -0.341 C  
BRANCH   3   4
HETATM    4  C   UNL     1     -11.850  15.711  68.517  1.00  0.00    -0.237 C  
BRANCH   4   5
HETATM    5  N   UNL     1     -11.206  14.708  67.650  1.00  0.00    -0.307 NA 
BRANCH   5   6
HETATM    6  C   UNL     1     -10.370  13.674  68.246  1.00  0.00    -0.251 C  
HETATM    7  S   UNL     1     -11.095  12.086  68.819  1.00  0.00    -0.266 SA 
HETATM    8  C   UNL     1      -8.259   9.316  67.648  1.00  0.00    -0.115 C  
HETATM    9  S   UNL     1      -8.702  13.693  68.188  1.00  0.00    -0.180 SA 
HETATM   10 ZN   UNL     1      -9.135  11.549  68.197  1.00  0.00    -0.136 Zn 
HETATM   11  S   UNL     1      -8.382   9.792  69.235  1.00  0.00    -0.156 SA 
HETATM   12  S   UNL     1      -8.590  10.592  66.368  1.00  0.00    -0.149 SA 
BRANCH   8  13
HETATM   13  N   UNL     1      -8.192   7.932  67.266  1.00  0.00    -0.121 NA 
BRANCH  13  14
HETATM   14  C   UNL     1      -9.095   7.366  66.266  1.00  0.00    -0.156 C  
BRANCH  14  15
HETATM   15  C   UNL     1     -10.314   6.662  66.912  1.00  0.00    -0.324 C  
BRANCH  15  16
HETATM   16  C   UNL     1     -10.366   5.138  66.687  1.00  0.00    -0.325 C  
HETATM   17  C   UNL     1      -9.681   4.392  67.838  1.00  0.00    -0.186 C  
ENDBRANCH  15  16
ENDBRANCH  14  15
ENDBRANCH  13  14
BRANCH  13  18
HETATM   18  C   UNL     1      -7.174   7.067  67.874  1.00  0.00    -0.091 C  
BRANCH  18  19
HETATM   19  C   UNL     1      -6.383   6.260  66.817  1.00  0.00    -0.041 C  
BRANCH  19  20
HETATM   20  C   UNL     1      -5.392   7.096  65.988  1.00  0.00    -0.024 C  
HETATM   21  C   UNL     1      -5.664   6.928  64.488  1.00  0.00    -0.032 C  
ENDBRANCH  19  20
ENDBRANCH  18  19
ENDBRANCH  13  18
ENDBRANCH   8  13
ENDBRANCH   5   6
BRANCH   5  22
HETATM   22  C   UNL     1     -11.472  14.730  66.206  1.00  0.00    -0.316 C  
BRANCH  22  23
HETATM   23  C   UNL     1     -12.598  13.795  65.725  1.00  0.00    -0.525 C  
BRANCH  23  24
HETATM   24  C   UNL     1     -12.121  12.578  64.922  1.00  0.00    -0.499 C  
HETATM   25  C   UNL     1     -12.208  12.861  63.417  1.00  0.00    -0.574 C  
ENDBRANCH  23  24
ENDBRANCH  22  23
ENDBRANCH   5  22
ENDBRANCH   4   5
ENDBRANCH   3   4
ENDBRANCH   2   3
TORSDOF 14
ENDMDL
MODEL      133
REMARK 921   NORMALIZED FREE ENERGY PREDICTED BY IDOCK:   -3.40 KCAL/MOL
REMARK 922        TOTAL FREE ENERGY PREDICTED BY IDOCK:   -7.56 KCAL/MOL
REMARK 923 INTER-LIGAND FREE ENERGY PREDICTED BY IDOCK:   -6.73 KCAL/MOL
REMARK 924 INTRA-LIGAND FREE ENERGY PREDICTED BY IDOCK:   -0.83 KCAL/MOL
REMARK 927      BINDING AFFINITY PREDICTED BY RF-SCORE:    0.00 PKD
ROOT
HETATM    1  C   UNL     1     -12.160  12.907  63.363  1.00  0.00    -0.610 C  
HETATM    2  C   UNL     1     -12.791  12.729  64.745  1.00  0.00    -0.374 C  
ENDROOT
BRANCH   2   3
HETATM    3  C   UNL     1     -12.326  13.827  65.722  1.00  0.00    -0.523 C  
BRANCH   3   4
HETATM    4  C   UNL     1     -10.883  14.286  65.420  1.00  0.00    -0.342 C  
BRANCH   4   5
HETATM    5  N   UNL     1      -9.962  14.066  66.550  1.00  0.00    -0.276 NA 
BRANCH   5   6
HETATM    6  C   UNL     1      -9.265  12.792  66.672  1.00  0.00    -0.212 C  
HETATM    7  S   UNL     1      -8.201  12.433  68.126  1.00  0.00    -0.178 SA 
HETATM    8  C   UNL     1      -9.071   8.473  68.932  1.00  0.00    -0.146 C  
HETATM    9  S   UNL     1      -9.591  11.470  65.709  1.00  0.00    -0.237 SA 
HETATM   10 ZN   UNL     1      -8.972  10.528  67.583  1.00  0.00    -0.128 Zn 
HETATM   11  S   UNL     1      -7.657   8.897  68.170  1.00  0.00    -0.093 SA 
HETATM   12  S   UNL     1     -10.562   9.471  68.538  1.00  0.00    -0.188 SA 
BRANCH   8  13
HETATM   13  N   UNL     1      -9.096   7.578  70.057  1.00  0.00    -0.148 NA 
BRANCH  13  14
HETATM   14  C   UNL     1      -8.607   7.984  71.374  1.00  0.00    -0.132 C  
BRANCH  14  15
HETATM   15  C   UNL     1      -7.742   6.884  72.040  1.00  0.00    -0.094 C  
BRANCH  15  16
HETATM   16  C   UNL     1      -8.250   6.420  73.419  1.00  0.00    -0.113 C  
HETATM   17  C   UNL     1      -8.994   7.553  74.137  1.00  0.00    -0.267 C  
ENDBRANCH  15  16
ENDBRANCH  14  15
ENDBRANCH  13  14
BRANCH  13  18
HETATM   18  C   UNL     1      -9.651   6.229  69.891  1.00  0.00    -0.156 C  
BRANCH  18  19
HETATM   19  C   UNL     1     -11.198   6.234  69.842  1.00  0.00    -0.498 C  
BRANCH  19  20
HETATM   20  C   UNL     1     -11.873   6.821  71.095  1.00  0.00    -0.410 C  
HETATM   21  C   UNL     1     -11.702   5.878  72.292  1.00  0.00    -0.309 C  
ENDBRANCH  19  20
ENDBRANCH  18  19
ENDBRANCH  13  18
ENDBRANCH   8  13
ENDBRANCH   5   6
BRANCH   5  22
HETATM   22  C   UNL     1      -9.714  15.162  67.497  1.00  0.00    -0.205 C  
BRANCH  22  23
HETATM   23  C   UNL     1     -10.594  16.412  67.309  1.00  0.00    -0.293 C  
BRANCH  23  24
HETATM   24  C   UNL     1      -9.841  17.746  67.400  1.00  0.00    -0.311 C  
HETATM   25  C   UNL     1     -10.362  18.729  66.346  1.00  0.00    -0.489 C  
ENDBRANCH  23  24
ENDBRANCH  22  23
ENDBRANCH   5  22
ENDBRANCH   4   5
ENDBRANCH   3   4
ENDBRANCH   2   3
TORSDOF 14
ENDMDL
MODEL      134
REMARK 921   NORMALIZED FREE ENERGY PREDICTED BY IDOCK:   -3.40 KCAL/MOL
REMARK 922        TOTAL FREE ENERGY PREDICTED BY IDOCK:   -7.56 KCAL/MOL
REMARK 923 INTER-LIGAND FREE ENERGY PREDICTED BY IDOCK:   -6.59 KCAL/MOL
REMARK 924 INTRA-LIGAND FREE ENERGY PREDICTED BY IDOCK:   -0.97 KCAL/MOL
REMARK 927      BINDING AFFINITY PREDICTED BY RF-SCORE:    0.00 PKD
ROOT
HETATM    1  C   UNL     1     -10.321  19.343  65.833  1.00  0.00    -0.536 C  
HETATM    2  C   UNL     1     -10.858  19.464  67.260  1.00  0.00    -0.561 C  
ENDROOT
BRANCH   2   3
HETATM    3  C   UNL     1      -9.754  19.197  68.302  1.00  0.00    -0.439 C  
BRANCH   3   4
HETATM    4  C   UNL     1      -9.635  17.694  68.636  1.00  0.00    -0.307 C  
BRANCH   4   5
HETATM    5  N   UNL     1      -8.287  17.154  68.385  1.00  0.00    -0.242 NA 
BRANCH   5   6
HETATM    6  C   UNL     1      -8.141  15.857  67.737  1.00  0.00    -0.143 C  
HETATM    7  S   UNL     1      -7.196  14.501  68.540  1.00  0.00    -0.130 SA 
HETATM    8  C   UNL     1      -9.490  11.169  67.694  1.00  0.00    -0.166 C  
HETATM    9  S   UNL     1      -9.036  15.386  66.410  1.00  0.00    -0.321 SA 
HETATM   10 ZN   UNL     1      -8.694  13.481  67.430  1.00  0.00    -0.152 Zn 
HETATM   11  S   UNL     1      -8.087  11.473  66.857  1.00  0.00    -0.162 SA 
HETATM   12  S   UNL     1     -10.493  12.624  68.195  1.00  0.00    -0.236 SA 
BRANCH   8  13
HETATM   13  N   UNL     1      -9.779   9.880  68.264  1.00  0.00    -0.143 NA 
BRANCH  13  14
HETATM   14  C   UNL     1      -9.560   9.601  69.682  1.00  0.00    -0.208 C  
BRANCH  14  15
HETATM   15  C   UNL     1     -10.338   8.348  70.157  1.00  0.00    -0.214 C  
BRANCH  15  16
HETATM   16  C   UNL     1     -11.506   8.646  71.117  1.00  0.00    -0.332 C  
HETATM   17  C   UNL     1     -11.800  10.150  71.171  1.00  0.00    -0.472 C  
ENDBRANCH  15  16
ENDBRANCH  14  15
ENDBRANCH  13  14
BRANCH  13  18
HETATM   18  C   UNL     1     -10.332   8.823  67.409  1.00  0.00    -0.280 C  
BRANCH  18  19
HETATM   19  C   UNL     1      -9.228   8.029  66.671  1.00  0.00    -0.225 C  
BRANCH  19  20
HETATM   20  C   UNL     1      -9.599   6.570  66.349  1.00  0.00    -0.151 C  
HETATM   21  C   UNL     1     -10.654   6.052  67.333  1.00  0.00    -0.355 C  
ENDBRANCH  19  20
ENDBRANCH  18  19
ENDBRANCH  13  18
ENDBRANCH   8  13
ENDBRANCH   5   6
BRANCH   5  22
HETATM   22  C   UNL     1      -7.113  17.965  68.733  1.00  0.00    -0.268 C  
BRANCH  22  23
HETATM   23  C   UNL     1      -5.914  17.843  67.773  1.00  0.00    -0.157 C  
BRANCH  23  24
HETATM   24  C   UNL     1      -5.848  18.928  66.689  1.00  0.00    -0.176 C  
HETATM   25  C   UNL     1      -5.210  18.370  65.411  1.00  0.00    -0.212 C  
ENDBRANCH  23  24
ENDBRANCH  22  23
ENDBRANCH   5  22
ENDBRANCH   4   5
ENDBRANCH   3   4
ENDBRANCH   2   3
TORSDOF 14
ENDMDL
MODEL      135
REMARK 921   NORMALIZED FREE ENERGY PREDICTED BY IDOCK:   -3.39 KCAL/MOL
REMARK 922        TOTAL FREE ENERGY PREDICTED BY IDOCK:   -7.56 KCAL/MOL
REMARK 923 INTER-LIGAND FREE ENERGY PREDICTED BY IDOCK:   -6.77 KCAL/MOL
REMARK 924 INTRA-LIGAND FREE ENERGY PREDICTED BY IDOCK:   -0.78 KCAL/MOL
REMARK 927      BINDING AFFINITY PREDICTED BY RF-SCORE:    0.00 PKD
ROOT
HETATM    1  C   UNL     1     -11.061  11.964  63.467  1.00  0.00    -0.506 C  
HETATM    2  C   UNL     1     -12.215  12.967  63.438  1.00  0.00    -0.574 C  
ENDROOT
BRANCH   2   3
HETATM    3  C   UNL     1     -11.954  14.156  64.383  1.00  0.00    -0.478 C  
BRANCH   3   4
HETATM    4  C   UNL     1     -10.644  13.973  65.180  1.00  0.00    -0.386 C  
BRANCH   4   5
HETATM    5  N   UNL     1     -10.740  14.464  66.566  1.00  0.00    -0.301 NA 
BRANCH   5   6
HETATM    6  C   UNL     1     -10.938  13.514  67.653  1.00  0.00    -0.263 C  
HETATM    7  S   UNL     1     -11.592  11.829  67.328  1.00  0.00    -0.213 SA 
HETATM    8  C   UNL     1      -9.323   9.469  69.851  1.00  0.00    -0.223 C  
HETATM    9  S   UNL     1     -10.327  13.735  69.190  1.00  0.00     0.127 SA 
HETATM   10 ZN   UNL     1     -10.309  11.556  69.000  1.00  0.00    -0.175 Zn 
HETATM   11  S   UNL     1     -10.892   9.861  70.232  1.00  0.00    -0.329 SA 
HETATM   12  S   UNL     1      -8.333  10.748  68.979  1.00  0.00    -0.103 SA 
BRANCH   8  13
HETATM   13  N   UNL     1      -8.832   8.120  69.921  1.00  0.00    -0.139 NA 
BRANCH  13  14
HETATM   14  C   UNL     1      -8.318   7.553  71.166  1.00  0.00    -0.109 C  
BRANCH  14  15
HETATM   15  C   UNL     1      -8.353   8.575  72.330  1.00  0.00    -0.177 C  
BRANCH  15  16
HETATM   16  C   UNL     1      -9.070   8.073  73.599  1.00  0.00    -0.299 C  
HETATM   17  C   UNL     1     -10.334   7.283  73.237  1.00  0.00    -0.389 C  
ENDBRANCH  15  16
ENDBRANCH  14  15
ENDBRANCH  13  14
BRANCH  13  18
HETATM   18  C   UNL     1      -8.870   7.278  68.720  1.00  0.00    -0.127 C  
BRANCH  18  19
HETATM   19  C   UNL     1      -8.766   5.771  69.057  1.00  0.00    -0.112 C  
BRANCH  19  20
HETATM   20  C   UNL     1     -10.113   5.092  69.365  1.00  0.00    -0.305 C  
HETATM   21  C   UNL     1     -11.247   6.123  69.377  1.00  0.00    -0.466 C  
ENDBRANCH  19  20
ENDBRANCH  18  19
ENDBRANCH  13  18
ENDBRANCH   8  13
ENDBRANCH   5   6
BRANCH   5  22
HETATM   22  C   UNL     1     -10.570  15.899  66.833  1.00  0.00    -0.309 C  
BRANCH  22  23
HETATM   23  C   UNL     1      -9.333  16.551  66.186  1.00  0.00    -0.339 C  
BRANCH  23  24
HETATM   24  C   UNL     1      -8.637  17.608  67.054  1.00  0.00    -0.252 C  
HETATM   25  C   UNL     1      -9.670  18.401  67.863  1.00  0.00    -0.325 C  
ENDBRANCH  23  24
ENDBRANCH  22  23
ENDBRANCH   5  22
ENDBRANCH   4   5
ENDBRANCH   3   4
ENDBRANCH   2   3
TORSDOF 14
ENDMDL
MODEL      136
REMARK 921   NORMALIZED FREE ENERGY PREDICTED BY IDOCK:   -3.37 KCAL/MOL
REMARK 922        TOTAL FREE ENERGY PREDICTED BY IDOCK:   -7.52 KCAL/MOL
REMARK 923 INTER-LIGAND FREE ENERGY PREDICTED BY IDOCK:   -6.45 KCAL/MOL
REMARK 924 INTRA-LIGAND FREE ENERGY PREDICTED BY IDOCK:   -1.07 KCAL/MOL
REMARK 927      BINDING AFFINITY PREDICTED BY RF-SCORE:    0.00 PKD
ROOT
HETATM    1  C   UNL     1     -12.117  13.087  63.662  1.00  0.00    -0.604 C  
HETATM    2  C   UNL     1     -12.158  14.433  64.388  1.00  0.00    -0.491 C  
ENDROOT
BRANCH   2   3
HETATM    3  C   UNL     1     -10.750  14.876  64.832  1.00  0.00    -0.426 C  
BRANCH   3   4
HETATM    4  C   UNL     1     -10.708  15.215  66.338  1.00  0.00    -0.317 C  
BRANCH   4   5
HETATM    5  N   UNL     1      -9.977  14.211  67.133  1.00  0.00    -0.251 NA 
BRANCH   5   6
HETATM    6  C   UNL     1     -10.280  12.797  66.958  1.00  0.00    -0.241 C  
HETATM    7  S   UNL     1      -8.961  11.595  66.521  1.00  0.00    -0.189 SA 
HETATM    8  C   UNL     1      -9.923   8.308  68.836  1.00  0.00    -0.186 C  
HETATM    9  S   UNL     1     -11.725  12.102  67.420  1.00  0.00    -0.238 SA 
HETATM   10 ZN   UNL     1     -10.316  10.451  67.694  1.00  0.00    -0.164 Zn 
HETATM   11  S   UNL     1     -10.256   8.332  67.208  1.00  0.00    -0.300 SA 
HETATM   12  S   UNL     1     -10.084   9.898  69.742  1.00  0.00    -0.252 SA 
BRANCH   8  13
HETATM   13  N   UNL     1      -9.262   7.198  69.467  1.00  0.00    -0.149 NA 
BRANCH  13  14
HETATM   14  C   UNL     1      -7.940   6.745  69.036  1.00  0.00    -0.116 C  
BRANCH  14  15
HETATM   15  C   UNL     1      -7.016   7.927  68.652  1.00  0.00    -0.071 C  
BRANCH  15  16
HETATM   16  C   UNL     1      -6.300   8.592  69.845  1.00  0.00    -0.038 C  
HETATM   17  C   UNL     1      -6.076   7.585  70.979  1.00  0.00    -0.035 C  
ENDBRANCH  15  16
ENDBRANCH  14  15
ENDBRANCH  13  14
BRANCH  13  18
HETATM   18  C   UNL     1      -9.915   6.516  70.590  1.00  0.00    -0.184 C  
BRANCH  18  19
HETATM   19  C   UNL     1     -11.452   6.453  70.423  1.00  0.00    -0.458 C  
BRANCH  19  20
HETATM   20  C   UNL     1     -12.241   7.229  71.493  1.00  0.00    -0.387 C  
HETATM   21  C   UNL     1     -11.299   7.759  72.581  1.00  0.00    -0.449 C  
ENDBRANCH  19  20
ENDBRANCH  18  19
ENDBRANCH  13  18
ENDBRANCH   8  13
ENDBRANCH   5   6
BRANCH   5  22
HETATM   22  C   UNL     1      -8.910  14.654  68.040  1.00  0.00    -0.169 C  
BRANCH  22  23
HETATM   23  C   UNL     1      -9.090  16.062  68.638  1.00  0.00    -0.213 C  
BRANCH  23  24
HETATM   24  C   UNL     1      -7.947  17.039  68.332  1.00  0.00    -0.239 C  
HETATM   25  C   UNL     1      -7.688  17.104  66.823  1.00  0.00    -0.279 C  
ENDBRANCH  23  24
ENDBRANCH  22  23
ENDBRANCH   5  22
ENDBRANCH   4   5
ENDBRANCH   3   4
ENDBRANCH   2   3
TORSDOF 14
ENDMDL
MODEL      137
REMARK 921   NORMALIZED FREE ENERGY PREDICTED BY IDOCK:   -3.37 KCAL/MOL
REMARK 922        TOTAL FREE ENERGY PREDICTED BY IDOCK:   -7.52 KCAL/MOL
REMARK 923 INTER-LIGAND FREE ENERGY PREDICTED BY IDOCK:   -6.40 KCAL/MOL
REMARK 924 INTRA-LIGAND FREE ENERGY PREDICTED BY IDOCK:   -1.12 KCAL/MOL
REMARK 927      BINDING AFFINITY PREDICTED BY RF-SCORE:    0.00 PKD
ROOT
HETATM    1  C   UNL     1     -11.754  14.862  70.265  1.00  0.00    -0.352 C  
HETATM    2  C   UNL     1     -11.865  15.645  68.956  1.00  0.00    -0.379 C  
ENDROOT
BRANCH   2   3
HETATM    3  C   UNL     1     -10.539  15.624  68.172  1.00  0.00    -0.274 C  
BRANCH   3   4
HETATM    4  C   UNL     1      -9.804  14.275  68.329  1.00  0.00    -0.235 C  
BRANCH   4   5
HETATM    5  N   UNL     1      -9.710  13.521  67.067  1.00  0.00    -0.243 NA 
BRANCH   5   6
HETATM    6  C   UNL     1      -9.135  12.182  67.071  1.00  0.00    -0.198 C  
HETATM    7  S   UNL     1      -7.978  11.654  68.397  1.00  0.00    -0.142 SA 
HETATM    8  C   UNL     1      -9.156   7.762  69.136  1.00  0.00    -0.145 C  
HETATM    9  S   UNL     1      -9.682  10.943  66.095  1.00  0.00    -0.220 SA 
HETATM   10 ZN   UNL     1      -8.983   9.859  67.862  1.00  0.00    -0.121 Zn 
HETATM   11  S   UNL     1      -7.786   8.085  68.253  1.00  0.00    -0.124 SA 
HETATM   12  S   UNL     1     -10.572   8.915  68.930  1.00  0.00    -0.115 SA 
BRANCH   8  13
HETATM   13  N   UNL     1      -9.163   6.821  70.224  1.00  0.00    -0.156 NA 
BRANCH  13  14
HETATM   14  C   UNL     1      -8.049   6.729  71.166  1.00  0.00    -0.111 C  
BRANCH  14  15
HETATM   15  C   UNL     1      -7.957   7.975  72.083  1.00  0.00    -0.154 C  
BRANCH  15  16
HETATM   16  C   UNL     1      -9.061   8.064  73.154  1.00  0.00    -0.341 C  
HETATM   17  C   UNL     1      -8.694   7.232  74.389  1.00  0.00    -0.242 C  
ENDBRANCH  15  16
ENDBRANCH  14  15
ENDBRANCH  13  14
BRANCH  13  18
HETATM   18  C   UNL     1     -10.326   5.947  70.412  1.00  0.00    -0.231 C  
BRANCH  18  19
HETATM   19  C   UNL     1      -9.931   4.555  70.960  1.00  0.00    -0.257 C  
BRANCH  19  20
HETATM   20  C   UNL     1     -10.403   4.279  72.398  1.00  0.00    -0.230 C  
HETATM   21  C   UNL     1     -11.473   5.292  72.820  1.00  0.00    -0.317 C  
ENDBRANCH  19  20
ENDBRANCH  18  19
ENDBRANCH  13  18
ENDBRANCH   8  13
ENDBRANCH   5   6
BRANCH   5  22
HETATM   22  C   UNL     1     -10.258  14.108  65.837  1.00  0.00    -0.319 C  
BRANCH  22  23
HETATM   23  C   UNL     1     -11.735  13.780  65.547  1.00  0.00    -0.356 C  
BRANCH  23  24
HETATM   24  C   UNL     1     -12.096  13.712  64.057  1.00  0.00    -0.474 C  
HETATM   25  C   UNL     1     -12.363  12.262  63.636  1.00  0.00    -0.664 C  
ENDBRANCH  23  24
ENDBRANCH  22  23
ENDBRANCH   5  22
ENDBRANCH   4   5
ENDBRANCH   3   4
ENDBRANCH   2   3
TORSDOF 14
ENDMDL
MODEL      138
REMARK 921   NORMALIZED FREE ENERGY PREDICTED BY IDOCK:   -3.37 KCAL/MOL
REMARK 922        TOTAL FREE ENERGY PREDICTED BY IDOCK:   -7.51 KCAL/MOL
REMARK 923 INTER-LIGAND FREE ENERGY PREDICTED BY IDOCK:   -6.03 KCAL/MOL
REMARK 924 INTRA-LIGAND FREE ENERGY PREDICTED BY IDOCK:   -1.48 KCAL/MOL
REMARK 927      BINDING AFFINITY PREDICTED BY RF-SCORE:    0.00 PKD
ROOT
HETATM    1  C   UNL     1      -6.732  17.156  67.645  1.00  0.00    -0.160 C  
HETATM    2  C   UNL     1      -7.328  16.923  69.035  1.00  0.00    -0.231 C  
ENDROOT
BRANCH   2   3
HETATM    3  C   UNL     1      -8.374  15.792  69.017  1.00  0.00    -0.236 C  
BRANCH   3   4
HETATM    4  C   UNL     1      -8.288  14.955  67.723  1.00  0.00    -0.157 C  
BRANCH   4   5
HETATM    5  N   UNL     1      -9.611  14.604  67.176  1.00  0.00    -0.227 NA 
BRANCH   5   6
HETATM    6  C   UNL     1      -9.897  13.220  66.819  1.00  0.00    -0.264 C  
HETATM    7  S   UNL     1      -8.563  11.957  66.789  1.00  0.00    -0.158 SA 
HETATM    8  C   UNL     1     -10.413   8.640  68.418  1.00  0.00    -0.176 C  
HETATM    9  S   UNL     1     -11.442  12.598  66.711  1.00  0.00    -0.371 SA 
HETATM   10 ZN   UNL     1     -10.290  10.852  67.348  1.00  0.00    -0.171 Zn 
HETATM   11  S   UNL     1     -10.159   8.756  66.780  1.00  0.00    -0.288 SA 
HETATM   12  S   UNL     1     -10.809  10.195  69.312  1.00  0.00    -0.246 SA 
BRANCH   8  13
HETATM   13  N   UNL     1     -10.063   7.463  69.167  1.00  0.00    -0.184 NA 
BRANCH  13  14
HETATM   14  C   UNL     1      -8.671   7.130  69.467  1.00  0.00    -0.134 C  
BRANCH  14  15
HETATM   15  C   UNL     1      -8.172   7.824  70.760  1.00  0.00    -0.107 C  
BRANCH  15  16
HETATM   16  C   UNL     1      -6.752   7.413  71.198  1.00  0.00    -0.047 C  
HETATM   17  C   UNL     1      -6.796   6.182  72.112  1.00  0.00    -0.073 C  
ENDBRANCH  15  16
ENDBRANCH  14  15
ENDBRANCH  13  14
BRANCH  13  18
HETATM   18  C   UNL     1     -11.127   6.586  69.667  1.00  0.00    -0.376 C  
BRANCH  18  19
HETATM   19  C   UNL     1     -11.724   7.092  71.002  1.00  0.00    -0.375 C  
BRANCH  19  20
HETATM   20  C   UNL     1     -11.699   6.060  72.144  1.00  0.00    -0.335 C  
HETATM   21  C   UNL     1     -10.506   5.110  71.987  1.00  0.00    -0.278 C  
ENDBRANCH  19  20
ENDBRANCH  18  19
ENDBRANCH  13  18
ENDBRANCH   8  13
ENDBRANCH   5   6
BRANCH   5  22
HETATM   22  C   UNL     1     -10.641  15.645  67.064  1.00  0.00    -0.311 C  
BRANCH  22  23
HETATM   23  C   UNL     1     -10.485  16.604  65.868  1.00  0.00    -0.324 C  
BRANCH  23  24
HETATM   24  C   UNL     1     -10.081  18.036  66.243  1.00  0.00    -0.363 C  
HETATM   25  C   UNL     1     -10.646  18.410  67.618  1.00  0.00    -0.437 C  
ENDBRANCH  23  24
ENDBRANCH  22  23
ENDBRANCH   5  22
ENDBRANCH   4   5
ENDBRANCH   3   4
ENDBRANCH   2   3
TORSDOF 14
ENDMDL
MODEL      139
REMARK 921   NORMALIZED FREE ENERGY PREDICTED BY IDOCK:   -3.37 KCAL/MOL
REMARK 922        TOTAL FREE ENERGY PREDICTED BY IDOCK:   -7.50 KCAL/MOL
REMARK 923 INTER-LIGAND FREE ENERGY PREDICTED BY IDOCK:   -6.71 KCAL/MOL
REMARK 924 INTRA-LIGAND FREE ENERGY PREDICTED BY IDOCK:   -0.80 KCAL/MOL
REMARK 927      BINDING AFFINITY PREDICTED BY RF-SCORE:    0.00 PKD
ROOT
HETATM    1  C   UNL     1     -13.650  12.976  72.221  1.00  0.00    -0.643 C  
HETATM    2  C   UNL     1     -12.586  13.052  71.125  1.00  0.00    -0.388 C  
ENDROOT
BRANCH   2   3
HETATM    3  C   UNL     1     -12.112  11.648  70.701  1.00  0.00    -0.432 C  
BRANCH   3   4
HETATM    4  C   UNL     1     -12.459  11.351  69.226  1.00  0.00     0.090 C  
BRANCH   4   5
HETATM    5  N   UNL     1     -11.291  11.440  68.331  1.00  0.00    -0.254 NA 
BRANCH   5   6
HETATM    6  C   UNL     1     -11.163  12.576  67.427  1.00  0.00    -0.293 C  
HETATM    7  S   UNL     1     -11.665  14.263  67.953  1.00  0.00    -0.361 SA 
HETATM    8  C   UNL     1      -8.692  16.640  66.341  1.00  0.00    -0.310 C  
HETATM    9  S   UNL     1     -10.299  12.523  66.001  1.00  0.00    -0.262 SA 
HETATM   10 ZN   UNL     1     -10.062  14.613  66.602  1.00  0.00    -0.239 Zn 
HETATM   11  S   UNL     1     -10.194  16.557  65.636  1.00  0.00    -0.239 SA 
HETATM   12  S   UNL     1      -8.046  15.100  67.107  1.00  0.00    -0.207 SA 
BRANCH   8  13
HETATM   13  N   UNL     1      -8.042  17.893  66.613  1.00  0.00    -0.242 NA 
BRANCH  13  14
HETATM   14  C   UNL     1      -8.393  18.704  67.778  1.00  0.00    -0.267 C  
BRANCH  14  15
HETATM   15  C   UNL     1      -7.608  18.277  69.044  1.00  0.00    -0.161 C  
BRANCH  15  16
HETATM   16  C   UNL     1      -6.151  18.780  69.092  1.00  0.00    -0.252 C  
HETATM   17  C   UNL     1      -6.083  20.201  69.664  1.00  0.00    -0.389 C  
ENDBRANCH  15  16
ENDBRANCH  14  15
ENDBRANCH  13  14
BRANCH  13  18
HETATM   18  C   UNL     1      -6.979  18.361  65.717  1.00  0.00    -0.253 C  
BRANCH  18  19
HETATM   19  C   UNL     1      -7.001  19.897  65.533  1.00  0.00    -0.336 C  
BRANCH  19  20
HETATM   20  C   UNL     1      -5.704  20.489  64.952  1.00  0.00    -0.250 C  
HETATM   21  C   UNL     1      -5.131  19.570  63.866  1.00  0.00    -0.227 C  
ENDBRANCH  19  20
ENDBRANCH  18  19
ENDBRANCH  13  18
ENDBRANCH   8  13
ENDBRANCH   5   6
BRANCH   5  22
HETATM   22  C   UNL     1     -10.243  10.414  68.415  1.00  0.00    -0.165 C  
BRANCH  22  23
HETATM   23  C   UNL     1     -10.734   8.956  68.318  1.00  0.00    -0.135 C  
BRANCH  23  24
HETATM   24  C   UNL     1     -10.278   8.049  69.469  1.00  0.00    -0.209 C  
HETATM   25  C   UNL     1     -10.120   8.860  70.761  1.00  0.00    -0.282 C  
ENDBRANCH  23  24
ENDBRANCH  22  23
ENDBRANCH   5  22
ENDBRANCH   4   5
ENDBRANCH   3   4
ENDBRANCH   2   3
TORSDOF 14
ENDMDL
MODEL      140
REMARK 921   NORMALIZED FREE ENERGY PREDICTED BY IDOCK:   -3.37 KCAL/MOL
REMARK 922        TOTAL FREE ENERGY PREDICTED BY IDOCK:   -7.50 KCAL/MOL
REMARK 923 INTER-LIGAND FREE ENERGY PREDICTED BY IDOCK:   -7.12 KCAL/MOL
REMARK 924 INTRA-LIGAND FREE ENERGY PREDICTED BY IDOCK:   -0.38 KCAL/MOL
REMARK 927      BINDING AFFINITY PREDICTED BY RF-SCORE:    0.00 PKD
ROOT
HETATM    1  C   UNL     1     -13.139  15.489  73.065  1.00  0.00    -0.632 C  
HETATM    2  C   UNL     1     -14.104  14.941  72.013  1.00  0.00    -0.613 C  
ENDROOT
BRANCH   2   3
HETATM    3  C   UNL     1     -13.723  13.510  71.588  1.00  0.00    -0.276 C  
BRANCH   3   4
HETATM    4  C   UNL     1     -12.256  13.428  71.112  1.00  0.00    -0.152 C  
BRANCH   4   5
HETATM    5  N   UNL     1     -12.132  13.056  69.691  1.00  0.00    -0.278 NA 
BRANCH   5   6
HETATM    6  C   UNL     1     -12.025  14.101  68.681  1.00  0.00    -0.338 C  
HETATM    7  S   UNL     1     -11.715  15.848  69.158  1.00  0.00    -0.310 SA 
HETATM    8  C   UNL     1      -9.048  17.121  66.268  1.00  0.00    -0.228 C  
HETATM    9  S   UNL     1     -11.865  13.790  67.050  1.00  0.00    -0.418 SA 
HETATM   10 ZN   UNL     1     -10.762  15.666  67.267  1.00  0.00    -0.259 Zn 
HETATM   11  S   UNL     1     -10.649  17.561  66.205  1.00  0.00    -0.118 SA 
HETATM   12  S   UNL     1      -8.671  15.438  66.903  1.00  0.00    -0.274 SA 
BRANCH   8  13
HETATM   13  N   UNL     1      -7.984  18.077  66.123  1.00  0.00    -0.468 NA 
BRANCH  13  14
HETATM   14  C   UNL     1      -8.251  19.489  65.853  1.00  0.00    -0.164 C  
BRANCH  14  15
HETATM   15  C   UNL     1      -9.349  20.062  66.784  1.00  0.00    -0.510 C  
BRANCH  15  16
HETATM   16  C   UNL     1      -8.971  20.088  68.278  1.00  0.00    -0.223 C  
HETATM   17  C   UNL     1     -10.192  19.790  69.157  1.00  0.00    -0.299 C  
ENDBRANCH  15  16
ENDBRANCH  14  15
ENDBRANCH  13  14
BRANCH  13  18
HETATM   18  C   UNL     1      -6.593  17.634  66.276  1.00  0.00    -0.265 C  
BRANCH  18  19
HETATM   19  C   UNL     1      -5.879  18.343  67.452  1.00  0.00    -0.155 C  
BRANCH  19  20
HETATM   20  C   UNL     1      -6.182  17.744  68.837  1.00  0.00    -0.209 C  
HETATM   21  C   UNL     1      -5.836  18.744  69.946  1.00  0.00    -0.255 C  
ENDBRANCH  19  20
ENDBRANCH  18  19
ENDBRANCH  13  18
ENDBRANCH   8  13
ENDBRANCH   5   6
BRANCH   5  22
HETATM   22  C   UNL     1     -12.054  11.635  69.326  1.00  0.00    -0.259 C  
BRANCH  22  23
HETATM   23  C   UNL     1     -10.764  10.911  69.755  1.00  0.00    -0.193 C  
BRANCH  23  24
HETATM   24  C   UNL     1      -9.512  11.307  68.960  1.00  0.00    -0.030 C  
HETATM   25  C   UNL     1      -9.751  11.121  67.457  1.00  0.00    -0.193 C  
ENDBRANCH  23  24
ENDBRANCH  22  23
ENDBRANCH   5  22
ENDBRANCH   4   5
ENDBRANCH   3   4
ENDBRANCH   2   3
TORSDOF 14
ENDMDL
MODEL      141
REMARK 921   NORMALIZED FREE ENERGY PREDICTED BY IDOCK:   -3.36 KCAL/MOL
REMARK 922        TOTAL FREE ENERGY PREDICTED BY IDOCK:   -7.50 KCAL/MOL
REMARK 923 INTER-LIGAND FREE ENERGY PREDICTED BY IDOCK:   -6.51 KCAL/MOL
REMARK 924 INTRA-LIGAND FREE ENERGY PREDICTED BY IDOCK:   -0.99 KCAL/MOL
REMARK 927      BINDING AFFINITY PREDICTED BY RF-SCORE:    0.00 PKD
ROOT
HETATM    1  C   UNL     1     -12.046  13.039  63.417  1.00  0.00    -0.591 C  
HETATM    2  C   UNL     1     -12.040  14.198  64.416  1.00  0.00    -0.486 C  
ENDROOT
BRANCH   2   3
HETATM    3  C   UNL     1     -10.614  14.507  64.912  1.00  0.00    -0.450 C  
BRANCH   3   4
HETATM    4  C   UNL     1     -10.618  15.056  66.355  1.00  0.00    -0.310 C  
BRANCH   4   5
HETATM    5  N   UNL     1     -11.068  14.063  67.347  1.00  0.00    -0.296 NA 
BRANCH   5   6
HETATM    6  C   UNL     1     -10.442  12.747  67.383  1.00  0.00    -0.228 C  
HETATM    7  S   UNL     1      -8.847  12.484  68.256  1.00  0.00    -0.137 SA 
HETATM    8  C   UNL     1      -9.406   8.818  70.083  1.00  0.00    -0.169 C  
HETATM    9  S   UNL     1     -11.222  11.345  66.926  1.00  0.00    -0.197 SA 
HETATM   10 ZN   UNL     1      -9.853  10.624  68.473  1.00  0.00    -0.138 Zn 
HETATM   11  S   UNL     1      -8.479   8.955  68.710  1.00  0.00    -0.132 SA 
HETATM   12  S   UNL     1     -10.874   9.916  70.209  1.00  0.00    -0.329 SA 
BRANCH   8  13
HETATM   13  N   UNL     1      -8.950   8.109  71.248  1.00  0.00    -0.138 NA 
BRANCH  13  14
HETATM   14  C   UNL     1      -7.614   7.519  71.314  1.00  0.00    -0.081 C  
BRANCH  14  15
HETATM   15  C   UNL     1      -6.578   8.491  71.934  1.00  0.00    -0.077 C  
BRANCH  15  16
HETATM   16  C   UNL     1      -5.917   7.978  73.229  1.00  0.00    -0.062 C  
HETATM   17  C   UNL     1      -6.492   8.694  74.457  1.00  0.00    -0.168 C  
ENDBRANCH  15  16
ENDBRANCH  14  15
ENDBRANCH  13  14
BRANCH  13  18
HETATM   18  C   UNL     1      -9.836   7.994  72.412  1.00  0.00    -0.247 C  
BRANCH  18  19
HETATM   19  C   UNL     1      -9.438   6.819  73.337  1.00  0.00    -0.177 C  
BRANCH  19  20
HETATM   20  C   UNL     1     -10.623   5.975  73.840  1.00  0.00    -0.236 C  
HETATM   21  C   UNL     1     -11.595   5.671  72.694  1.00  0.00    -0.307 C  
ENDBRANCH  19  20
ENDBRANCH  18  19
ENDBRANCH  13  18
ENDBRANCH   8  13
ENDBRANCH   5   6
BRANCH   5  22
HETATM   22  C   UNL     1     -12.097  14.441  68.325  1.00  0.00    -0.225 C  
BRANCH  22  23
HETATM   23  C   UNL     1     -11.959  13.795  69.716  1.00  0.00    -0.406 C  
BRANCH  23  24
HETATM   24  C   UNL     1     -11.931  14.789  70.885  1.00  0.00    -0.384 C  
HETATM   25  C   UNL     1     -13.285  15.494  71.021  1.00  0.00    -0.539 C  
ENDBRANCH  23  24
ENDBRANCH  22  23
ENDBRANCH   5  22
ENDBRANCH   4   5
ENDBRANCH   3   4
ENDBRANCH   2   3
TORSDOF 14
ENDMDL
MODEL      142
REMARK 921   NORMALIZED FREE ENERGY PREDICTED BY IDOCK:   -3.36 KCAL/MOL
REMARK 922        TOTAL FREE ENERGY PREDICTED BY IDOCK:   -7.50 KCAL/MOL
REMARK 923 INTER-LIGAND FREE ENERGY PREDICTED BY IDOCK:   -6.31 KCAL/MOL
REMARK 924 INTRA-LIGAND FREE ENERGY PREDICTED BY IDOCK:   -1.18 KCAL/MOL
REMARK 927      BINDING AFFINITY PREDICTED BY RF-SCORE:    0.00 PKD
ROOT
HETATM    1  C   UNL     1     -10.940  15.495  64.721  1.00  0.00    -0.416 C  
HETATM    2  C   UNL     1     -12.216  14.731  64.363  1.00  0.00    -0.447 C  
ENDROOT
BRANCH   2   3
HETATM    3  C   UNL     1     -12.749  13.928  65.566  1.00  0.00    -0.536 C  
BRANCH   3   4
HETATM    4  C   UNL     1     -12.011  12.581  65.725  1.00  0.00    -0.420 C  
BRANCH   4   5
HETATM    5  N   UNL     1     -11.010  12.598  66.807  1.00  0.00    -0.254 NA 
BRANCH   5   6
HETATM    6  C   UNL     1     -10.035  11.519  66.900  1.00  0.00    -0.205 C  
HETATM    7  S   UNL     1      -8.843  11.442  68.296  1.00  0.00    -0.171 SA 
HETATM    8  C   UNL     1      -8.741   7.406  69.183  1.00  0.00    -0.136 C  
HETATM    9  S   UNL     1     -10.100  10.137  65.968  1.00  0.00    -0.226 SA 
HETATM   10 ZN   UNL     1      -9.185   9.401  67.813  1.00  0.00    -0.124 Zn 
HETATM   11  S   UNL     1      -7.503   8.126  68.339  1.00  0.00    -0.101 SA 
HETATM   12  S   UNL     1     -10.439   8.029  68.863  1.00  0.00    -0.151 SA 
BRANCH   8  13
HETATM   13  N   UNL     1      -8.502   6.552  70.315  1.00  0.00    -0.134 NA 
BRANCH  13  14
HETATM   14  C   UNL     1      -7.674   6.983  71.440  1.00  0.00    -0.094 C  
BRANCH  14  15
HETATM   15  C   UNL     1      -8.188   8.302  72.070  1.00  0.00    -0.211 C  
BRANCH  15  16
HETATM   16  C   UNL     1      -9.314   8.119  73.107  1.00  0.00    -0.328 C  
HETATM   17  C   UNL     1      -8.789   7.420  74.367  1.00  0.00    -0.220 C  
ENDBRANCH  15  16
ENDBRANCH  14  15
ENDBRANCH  13  14
BRANCH  13  18
HETATM   18  C   UNL     1      -9.124   5.224  70.358  1.00  0.00    -0.139 C  
BRANCH  18  19
HETATM   19  C   UNL     1     -10.426   5.215  71.195  1.00  0.00    -0.240 C  
BRANCH  19  20
HETATM   20  C   UNL     1     -10.298   4.523  72.565  1.00  0.00    -0.257 C  
HETATM   21  C   UNL     1      -9.046   3.638  72.608  1.00  0.00    -0.131 C  
ENDBRANCH  19  20
ENDBRANCH  18  19
ENDBRANCH  13  18
ENDBRANCH   8  13
ENDBRANCH   5   6
BRANCH   5  22
HETATM   22  C   UNL     1     -10.974  13.738  67.732  1.00  0.00    -0.256 C  
BRANCH  22  23
HETATM   23  C   UNL     1     -11.881  13.615  68.972  1.00  0.00    -0.393 C  
BRANCH  23  24
HETATM   24  C   UNL     1     -12.263  14.951  69.622  1.00  0.00    -0.299 C  
HETATM   25  C   UNL     1     -13.034  14.712  70.925  1.00  0.00    -0.425 C  
ENDBRANCH  23  24
ENDBRANCH  22  23
ENDBRANCH   5  22
ENDBRANCH   4   5
ENDBRANCH   3   4
ENDBRANCH   2   3
TORSDOF 14
ENDMDL
MODEL      143
REMARK 921   NORMALIZED FREE ENERGY PREDICTED BY IDOCK:   -3.36 KCAL/MOL
REMARK 922        TOTAL FREE ENERGY PREDICTED BY IDOCK:   -7.49 KCAL/MOL
REMARK 923 INTER-LIGAND FREE ENERGY PREDICTED BY IDOCK:   -6.52 KCAL/MOL
REMARK 924 INTRA-LIGAND FREE ENERGY PREDICTED BY IDOCK:   -0.97 KCAL/MOL
REMARK 927      BINDING AFFINITY PREDICTED BY RF-SCORE:    0.00 PKD
ROOT
HETATM    1  C   UNL     1     -10.875  12.157  63.482  1.00  0.00    -0.518 C  
HETATM    2  C   UNL     1     -12.345  12.347  63.860  1.00  0.00    -0.602 C  
ENDROOT
BRANCH   2   3
HETATM    3  C   UNL     1     -12.493  12.890  65.294  1.00  0.00    -0.552 C  
BRANCH   3   4
HETATM    4  C   UNL     1     -11.159  13.452  65.832  1.00  0.00    -0.280 C  
BRANCH   4   5
HETATM    5  N   UNL     1     -10.833  12.965  67.184  1.00  0.00    -0.253 NA 
BRANCH   5   6
HETATM    6  C   UNL     1     -11.027  11.558  67.508  1.00  0.00    -0.255 C  
HETATM    7  S   UNL     1     -10.084  10.248  66.631  1.00  0.00    -0.229 SA 
HETATM    8  C   UNL     1      -9.171   7.596  69.668  1.00  0.00    -0.146 C  
HETATM    9  S   UNL     1     -11.854  11.030  68.858  1.00  0.00    -0.251 SA 
HETATM   10 ZN   UNL     1     -10.379   9.440  68.574  1.00  0.00    -0.164 Zn 
HETATM   11  S   UNL     1     -10.384   7.264  68.582  1.00  0.00    -0.192 SA 
HETATM   12  S   UNL     1      -8.948   9.353  70.156  1.00  0.00    -0.242 SA 
BRANCH   8  13
HETATM   13  N   UNL     1      -8.153   6.636  69.997  1.00  0.00    -0.119 NA 
BRANCH  13  14
HETATM   14  C   UNL     1      -8.049   6.054  71.334  1.00  0.00    -0.115 C  
BRANCH  14  15
HETATM   15  C   UNL     1      -9.439   5.822  71.978  1.00  0.00    -0.166 C  
BRANCH  15  16
HETATM   16  C   UNL     1      -9.777   6.785  73.133  1.00  0.00    -0.189 C  
HETATM   17  C   UNL     1     -11.098   7.517  72.865  1.00  0.00    -0.426 C  
ENDBRANCH  15  16
ENDBRANCH  14  15
ENDBRANCH  13  14
BRANCH  13  18
HETATM   18  C   UNL     1      -7.208   6.205  68.959  1.00  0.00    -0.083 C  
BRANCH  18  19
HETATM   19  C   UNL     1      -7.776   5.058  68.090  1.00  0.00    -0.083 C  
BRANCH  19  20
HETATM   20  C   UNL     1      -7.961   3.724  68.837  1.00  0.00    -0.062 C  
HETATM   21  C   UNL     1      -9.348   3.135  68.553  1.00  0.00    -0.240 C  
ENDBRANCH  19  20
ENDBRANCH  18  19
ENDBRANCH  13  18
ENDBRANCH   8  13
ENDBRANCH   5   6
BRANCH   5  22
HETATM   22  C   UNL     1     -10.256  13.897  68.162  1.00  0.00    -0.249 C  
BRANCH  22  23
HETATM   23  C   UNL     1     -11.190  15.028  68.632  1.00  0.00    -0.289 C  
BRANCH  23  24
HETATM   24  C   UNL     1     -12.174  14.627  69.740  1.00  0.00    -0.347 C  
HETATM   25  C   UNL     1     -12.190  15.684  70.851  1.00  0.00    -0.466 C  
ENDBRANCH  23  24
ENDBRANCH  22  23
ENDBRANCH   5  22
ENDBRANCH   4   5
ENDBRANCH   3   4
ENDBRANCH   2   3
TORSDOF 14
ENDMDL
MODEL      144
REMARK 921   NORMALIZED FREE ENERGY PREDICTED BY IDOCK:   -3.36 KCAL/MOL
REMARK 922        TOTAL FREE ENERGY PREDICTED BY IDOCK:   -7.49 KCAL/MOL
REMARK 923 INTER-LIGAND FREE ENERGY PREDICTED BY IDOCK:   -6.52 KCAL/MOL
REMARK 924 INTRA-LIGAND FREE ENERGY PREDICTED BY IDOCK:   -0.96 KCAL/MOL
REMARK 927      BINDING AFFINITY PREDICTED BY RF-SCORE:    0.00 PKD
ROOT
HETATM    1  C   UNL     1      -6.622  18.197  65.783  1.00  0.00    -0.313 C  
HETATM    2  C   UNL     1      -7.513  19.407  66.068  1.00  0.00    -0.305 C  
ENDROOT
BRANCH   2   3
HETATM    3  C   UNL     1      -8.960  18.981  66.381  1.00  0.00    -0.331 C  
BRANCH   3   4
HETATM    4  C   UNL     1      -9.236  17.529  65.936  1.00  0.00     0.089 C  
BRANCH   4   5
HETATM    5  N   UNL     1      -9.338  16.590  67.068  1.00  0.00    -0.224 NA 
BRANCH   5   6
HETATM    6  C   UNL     1      -9.780  15.222  66.830  1.00  0.00    -0.233 C  
HETATM    7  S   UNL     1      -8.686  13.796  67.213  1.00  0.00    -0.219 SA 
HETATM    8  C   UNL     1     -11.311  11.045  68.833  1.00  0.00    -0.280 C  
HETATM    9  S   UNL     1     -11.362  14.811  66.497  1.00  0.00    -0.319 SA 
HETATM   10 ZN   UNL     1     -10.642  13.035  67.551  1.00  0.00    -0.213 Zn 
HETATM   11  S   UNL     1     -10.759  10.881  67.275  1.00  0.00    -0.282 SA 
HETATM   12  S   UNL     1     -11.597  12.756  69.440  1.00  0.00    -0.281 SA 
BRANCH   8  13
HETATM   13  N   UNL     1     -11.295   9.955  69.771  1.00  0.00    -0.223 NA 
BRANCH  13  14
HETATM   14  C   UNL     1     -11.768  10.117  71.145  1.00  0.00    -0.366 C  
BRANCH  14  15
HETATM   15  C   UNL     1     -13.304   9.947  71.257  1.00  0.00    -0.419 C  
BRANCH  15  16
HETATM   16  C   UNL     1     -13.754   8.800  72.182  1.00  0.00    -0.498 C  
HETATM   17  C   UNL     1     -13.771   7.464  71.428  1.00  0.00    -0.419 C  
ENDBRANCH  15  16
ENDBRANCH  14  15
ENDBRANCH  13  14
BRANCH  13  18
HETATM   18  C   UNL     1     -10.817   8.638  69.335  1.00  0.00    -0.095 C  
BRANCH  18  19
HETATM   19  C   UNL     1      -9.979   7.929  70.425  1.00  0.00    -0.192 C  
BRANCH  19  20
HETATM   20  C   UNL     1      -9.685   6.445  70.138  1.00  0.00    -0.185 C  
HETATM   21  C   UNL     1     -10.738   5.548  70.798  1.00  0.00    -0.294 C  
ENDBRANCH  19  20
ENDBRANCH  18  19
ENDBRANCH  13  18
ENDBRANCH   8  13
ENDBRANCH   5   6
BRANCH   5  22
HETATM   22  C   UNL     1      -8.929  17.034  68.408  1.00  0.00    -0.247 C  
BRANCH  22  23
HETATM   23  C   UNL     1      -7.485  16.679  68.811  1.00  0.00    -0.224 C  
BRANCH  23  24
HETATM   24  C   UNL     1      -6.655  17.862  69.328  1.00  0.00    -0.235 C  
HETATM   25  C   UNL     1      -5.308  17.374  69.874  1.00  0.00    -0.213 C  
ENDBRANCH  23  24
ENDBRANCH  22  23
ENDBRANCH   5  22
ENDBRANCH   4   5
ENDBRANCH   3   4
ENDBRANCH   2   3
TORSDOF 14
ENDMDL
MODEL      145
REMARK 921   NORMALIZED FREE ENERGY PREDICTED BY IDOCK:   -3.35 KCAL/MOL
REMARK 922        TOTAL FREE ENERGY PREDICTED BY IDOCK:   -7.47 KCAL/MOL
REMARK 923 INTER-LIGAND FREE ENERGY PREDICTED BY IDOCK:   -6.47 KCAL/MOL
REMARK 924 INTRA-LIGAND FREE ENERGY PREDICTED BY IDOCK:   -0.99 KCAL/MOL
REMARK 927      BINDING AFFINITY PREDICTED BY RF-SCORE:    0.00 PKD
ROOT
HETATM    1  C   UNL     1     -11.101   7.811  72.932  1.00  0.00    -0.457 C  
HETATM    2  C   UNL     1     -11.556   7.726  71.474  1.00  0.00    -0.303 C  
ENDROOT
BRANCH   2   3
HETATM    3  C   UNL     1     -11.394   6.299  70.915  1.00  0.00    -0.389 C  
BRANCH   3   4
HETATM    4  C   UNL     1     -11.249   6.301  69.378  1.00  0.00    -0.420 C  
BRANCH   4   5
HETATM    5  N   UNL     1      -9.856   6.477  68.931  1.00  0.00    -0.133 NA 
BRANCH   5   6
HETATM    6  C   UNL     1      -9.421   7.773  68.427  1.00  0.00    -0.147 C  
HETATM    7  S   UNL     1      -9.995   8.392  66.795  1.00  0.00    -0.301 SA 
HETATM    8  C   UNL     1     -10.668  12.404  67.529  1.00  0.00    -0.228 C  
HETATM    9  S   UNL     1      -8.647   8.914  69.367  1.00  0.00    -0.136 SA 
HETATM   10 ZN   UNL     1      -9.743  10.162  67.944  1.00  0.00    -0.138 Zn 
HETATM   11  S   UNL     1      -9.310  11.903  66.713  1.00  0.00    -0.206 SA 
HETATM   12  S   UNL     1     -11.282  11.314  68.875  1.00  0.00    -0.282 SA 
BRANCH   8  13
HETATM   13  N   UNL     1     -11.505  13.468  67.044  1.00  0.00    -0.324 NA 
BRANCH  13  14
HETATM   14  C   UNL     1     -12.160  13.395  65.739  1.00  0.00    -0.436 C  
BRANCH  14  15
HETATM   15  C   UNL     1     -11.182  13.703  64.577  1.00  0.00    -0.395 C  
BRANCH  15  16
HETATM   16  C   UNL     1     -10.543  15.104  64.635  1.00  0.00    -0.167 C  
HETATM   17  C   UNL     1     -11.603  16.197  64.452  1.00  0.00    -0.146 C  
ENDBRANCH  15  16
ENDBRANCH  14  15
ENDBRANCH  13  14
BRANCH  13  18
HETATM   18  C   UNL     1     -11.731  14.647  67.887  1.00  0.00    -0.351 C  
BRANCH  18  19
HETATM   19  C   UNL     1     -10.495  14.996  68.750  1.00  0.00    -0.238 C  
BRANCH  19  20
HETATM   20  C   UNL     1     -10.393  16.480  69.147  1.00  0.00    -0.316 C  
HETATM   21  C   UNL     1     -10.858  17.380  67.995  1.00  0.00    -0.281 C  
ENDBRANCH  19  20
ENDBRANCH  18  19
ENDBRANCH  13  18
ENDBRANCH   8  13
ENDBRANCH   5   6
BRANCH   5  22
HETATM   22  C   UNL     1      -8.913   5.359  69.065  1.00  0.00    -0.107 C  
BRANCH  22  23
HETATM   23  C   UNL     1      -8.429   4.739  67.740  1.00  0.00    -0.103 C  
BRANCH  23  24
HETATM   24  C   UNL     1      -9.492   3.929  66.985  1.00  0.00    -0.226 C  
HETATM   25  C   UNL     1      -9.961   4.691  65.741  1.00  0.00    -0.246 C  
ENDBRANCH  23  24
ENDBRANCH  22  23
ENDBRANCH   5  22
ENDBRANCH   4   5
ENDBRANCH   3   4
ENDBRANCH   2   3
TORSDOF 14
ENDMDL
MODEL      146
REMARK 921   NORMALIZED FREE ENERGY PREDICTED BY IDOCK:   -3.34 KCAL/MOL
REMARK 922        TOTAL FREE ENERGY PREDICTED BY IDOCK:   -7.46 KCAL/MOL
REMARK 923 INTER-LIGAND FREE ENERGY PREDICTED BY IDOCK:   -6.17 KCAL/MOL
REMARK 924 INTRA-LIGAND FREE ENERGY PREDICTED BY IDOCK:   -1.29 KCAL/MOL
REMARK 927      BINDING AFFINITY PREDICTED BY RF-SCORE:    0.00 PKD
ROOT
HETATM    1  C   UNL     1     -10.892  11.767  64.054  1.00  0.00    -0.446 C  
HETATM    2  C   UNL     1      -9.796  10.734  64.321  1.00  0.00    -0.384 C  
ENDROOT
BRANCH   2   3
HETATM    3  C   UNL     1     -10.062   9.952  65.622  1.00  0.00    -0.307 C  
BRANCH   3   4
HETATM    4  C   UNL     1      -9.147   8.714  65.741  1.00  0.00    -0.187 C  
BRANCH   4   5
HETATM    5  N   UNL     1      -8.419   8.658  67.022  1.00  0.00    -0.109 NA 
BRANCH   5   6
HETATM    6  C   UNL     1      -7.844   9.877  67.576  1.00  0.00    -0.098 C  
HETATM    7  S   UNL     1      -6.678  10.903  66.594  1.00  0.00    -0.136 SA 
HETATM    8  C   UNL     1      -7.853  14.756  67.523  1.00  0.00    -0.188 C  
HETATM    9  S   UNL     1      -8.399  10.603  68.972  1.00  0.00    -0.133 SA 
HETATM   10 ZN   UNL     1      -7.688  12.319  67.817  1.00  0.00    -0.092 Zn 
HETATM   11  S   UNL     1      -6.489  14.093  68.203  1.00  0.00    -0.143 SA 
HETATM   12  S   UNL     1      -9.269  13.625  67.225  1.00  0.00    -0.242 SA 
BRANCH   8  13
HETATM   13  N   UNL     1      -7.852  16.062  66.922  1.00  0.00    -0.228 NA 
BRANCH  13  14
HETATM   14  C   UNL     1      -6.759  17.008  67.143  1.00  0.00    -0.179 C  
BRANCH  14  15
HETATM   15  C   UNL     1      -6.565  17.966  65.940  1.00  0.00    -0.304 C  
BRANCH  15  16
HETATM   16  C   UNL     1      -6.050  19.369  66.317  1.00  0.00    -0.175 C  
HETATM   17  C   UNL     1      -7.177  20.225  66.907  1.00  0.00    -0.316 C  
ENDBRANCH  15  16
ENDBRANCH  14  15
ENDBRANCH  13  14
BRANCH  13  18
HETATM   18  C   UNL     1      -8.960  16.451  66.043  1.00  0.00    -0.272 C  
BRANCH  18  19
HETATM   19  C   UNL     1     -10.040  17.271  66.789  1.00  0.00    -0.302 C  
BRANCH  19  20
HETATM   20  C   UNL     1     -10.475  18.558  66.065  1.00  0.00    -0.433 C  
HETATM   21  C   UNL     1     -10.776  19.671  67.076  1.00  0.00    -0.575 C  
ENDBRANCH  19  20
ENDBRANCH  18  19
ENDBRANCH  13  18
ENDBRANCH   8  13
ENDBRANCH   5   6
BRANCH   5  22
HETATM   22  C   UNL     1      -8.343   7.384  67.749  1.00  0.00    -0.118 C  
BRANCH  22  23
HETATM   23  C   UNL     1      -9.694   6.693  68.018  1.00  0.00    -0.126 C  
BRANCH  23  24
HETATM   24  C   UNL     1     -10.591   7.414  69.034  1.00  0.00    -0.203 C  
HETATM   25  C   UNL     1     -11.241   6.403  69.986  1.00  0.00    -0.475 C  
ENDBRANCH  23  24
ENDBRANCH  22  23
ENDBRANCH   5  22
ENDBRANCH   4   5
ENDBRANCH   3   4
ENDBRANCH   2   3
TORSDOF 14
ENDMDL
MODEL      147
REMARK 921   NORMALIZED FREE ENERGY PREDICTED BY IDOCK:   -3.34 KCAL/MOL
REMARK 922        TOTAL FREE ENERGY PREDICTED BY IDOCK:   -7.46 KCAL/MOL
REMARK 923 INTER-LIGAND FREE ENERGY PREDICTED BY IDOCK:   -6.16 KCAL/MOL
REMARK 924 INTRA-LIGAND FREE ENERGY PREDICTED BY IDOCK:   -1.30 KCAL/MOL
REMARK 927      BINDING AFFINITY PREDICTED BY RF-SCORE:    0.00 PKD
ROOT
HETATM    1  C   UNL     1     -10.063  17.188  67.908  1.00  0.00    -0.308 C  
HETATM    2  C   UNL     1      -9.038  16.243  67.279  1.00  0.00    -0.214 C  
ENDROOT
BRANCH   2   3
HETATM    3  C   UNL     1      -9.541  15.679  65.936  1.00  0.00    -0.385 C  
BRANCH   3   4
HETATM    4  C   UNL     1     -10.974  15.118  66.054  1.00  0.00    -0.332 C  
BRANCH   4   5
HETATM    5  N   UNL     1     -11.025  13.805  66.723  1.00  0.00    -0.301 NA 
BRANCH   5   6
HETATM    6  C   UNL     1     -10.018  12.800  66.410  1.00  0.00    -0.265 C  
HETATM    7  S   UNL     1      -8.727  12.343  67.635  1.00  0.00    -0.190 SA 
HETATM    8  C   UNL     1      -8.457   8.243  67.184  1.00  0.00    -0.123 C  
HETATM    9  S   UNL     1     -10.114  11.781  65.092  1.00  0.00    -0.265 SA 
HETATM   10 ZN   UNL     1      -9.050  10.544  66.549  1.00  0.00    -0.143 Zn 
HETATM   11  S   UNL     1      -7.302   9.249  66.540  1.00  0.00    -0.093 SA 
HETATM   12  S   UNL     1     -10.189   8.854  67.182  1.00  0.00    -0.281 SA 
BRANCH   8  13
HETATM   13  N   UNL     1      -8.115   7.088  67.969  1.00  0.00    -0.118 NA 
BRANCH  13  14
HETATM   14  C   UNL     1      -8.063   5.749  67.384  1.00  0.00    -0.102 C  
BRANCH  14  15
HETATM   15  C   UNL     1      -8.288   5.774  65.851  1.00  0.00    -0.130 C  
BRANCH  15  16
HETATM   16  C   UNL     1      -9.391   4.820  65.352  1.00  0.00    -0.161 C  
HETATM   17  C   UNL     1     -10.660   4.958  66.201  1.00  0.00    -0.322 C  
ENDBRANCH  15  16
ENDBRANCH  14  15
ENDBRANCH  13  14
BRANCH  13  18
HETATM   18  C   UNL     1      -7.782   7.256  69.388  1.00  0.00    -0.107 C  
BRANCH  18  19
HETATM   19  C   UNL     1      -9.037   7.498  70.260  1.00  0.00    -0.154 C  
BRANCH  19  20
HETATM   20  C   UNL     1      -9.843   6.228  70.585  1.00  0.00    -0.213 C  
HETATM   21  C   UNL     1     -11.145   6.192  69.776  1.00  0.00    -0.486 C  
ENDBRANCH  19  20
ENDBRANCH  18  19
ENDBRANCH  13  18
ENDBRANCH   8  13
ENDBRANCH   5   6
BRANCH   5  22
HETATM   22  C   UNL     1     -12.054  13.559  67.742  1.00  0.00    -0.280 C  
BRANCH  22  23
HETATM   23  C   UNL     1     -11.807  14.229  69.108  1.00  0.00    -0.368 C  
BRANCH  23  24
HETATM   24  C   UNL     1     -12.182  13.367  70.321  1.00  0.00    -0.405 C  
HETATM   25  C   UNL     1     -12.840  14.227  71.406  1.00  0.00    -0.415 C  
ENDBRANCH  23  24
ENDBRANCH  22  23
ENDBRANCH   5  22
ENDBRANCH   4   5
ENDBRANCH   3   4
ENDBRANCH   2   3
TORSDOF 14
ENDMDL
MODEL      148
REMARK 921   NORMALIZED FREE ENERGY PREDICTED BY IDOCK:   -3.34 KCAL/MOL
REMARK 922        TOTAL FREE ENERGY PREDICTED BY IDOCK:   -7.45 KCAL/MOL
REMARK 923 INTER-LIGAND FREE ENERGY PREDICTED BY IDOCK:   -5.98 KCAL/MOL
REMARK 924 INTRA-LIGAND FREE ENERGY PREDICTED BY IDOCK:   -1.47 KCAL/MOL
REMARK 927      BINDING AFFINITY PREDICTED BY RF-SCORE:    0.00 PKD
ROOT
HETATM    1  C   UNL     1     -10.959  12.137  63.542  1.00  0.00    -0.521 C  
HETATM    2  C   UNL     1     -10.201  10.946  64.131  1.00  0.00    -0.424 C  
ENDROOT
BRANCH   2   3
HETATM    3  C   UNL     1     -10.502  10.772  65.632  1.00  0.00    -0.255 C  
BRANCH   3   4
HETATM    4  C   UNL     1     -10.000   9.411  66.161  1.00  0.00    -0.281 C  
BRANCH   4   5
HETATM    5  N   UNL     1      -8.586   9.442  66.577  1.00  0.00    -0.132 NA 
BRANCH   5   6
HETATM    6  C   UNL     1      -8.120  10.503  67.461  1.00  0.00    -0.107 C  
HETATM    7  S   UNL     1      -7.048  11.855  66.831  1.00  0.00    -0.008 SA 
HETATM    8  C   UNL     1      -8.553  15.185  68.763  1.00  0.00    -0.182 C  
HETATM    9  S   UNL     1      -8.736  10.762  68.990  1.00  0.00    -0.086 SA 
HETATM   10 ZN   UNL     1      -8.176  12.785  68.374  1.00  0.00    -0.120 Zn 
HETATM   11  S   UNL     1      -7.137  14.475  69.265  1.00  0.00    -0.128 SA 
HETATM   12  S   UNL     1      -9.866  14.067  68.128  1.00  0.00    -0.240 SA 
BRANCH   8  13
HETATM   13  N   UNL     1      -8.666  16.602  68.548  1.00  0.00    -0.232 NA 
BRANCH  13  14
HETATM   14  C   UNL     1      -9.911  17.322  68.812  1.00  0.00    -0.306 C  
BRANCH  14  15
HETATM   15  C   UNL     1     -10.639  17.725  67.505  1.00  0.00    -0.365 C  
BRANCH  15  16
HETATM   16  C   UNL     1     -10.896  19.238  67.357  1.00  0.00    -0.554 C  
HETATM   17  C   UNL     1     -10.051  19.828  66.222  1.00  0.00    -0.601 C  
ENDBRANCH  15  16
ENDBRANCH  14  15
ENDBRANCH  13  14
BRANCH  13  18
HETATM   18  C   UNL     1      -7.497  17.354  68.079  1.00  0.00    -0.201 C  
BRANCH  18  19
HETATM   19  C   UNL     1      -7.144  18.534  69.015  1.00  0.00    -0.282 C  
BRANCH  19  20
HETATM   20  C   UNL     1      -7.018  19.894  68.307  1.00  0.00    -0.332 C  
HETATM   21  C   UNL     1      -6.103  19.783  67.082  1.00  0.00    -0.196 C  
ENDBRANCH  19  20
ENDBRANCH  18  19
ENDBRANCH  13  18
ENDBRANCH   8  13
ENDBRANCH   5   6
BRANCH   5  22
HETATM   22  C   UNL     1      -7.687   8.364  66.144  1.00  0.00    -0.097 C  
BRANCH  22  23
HETATM   23  C   UNL     1      -7.723   8.036  64.639  1.00  0.00    -0.126 C  
BRANCH  23  24
HETATM   24  C   UNL     1      -6.626   8.716  63.809  1.00  0.00    -0.084 C  
HETATM   25  C   UNL     1      -7.221   9.842  62.955  1.00  0.00    -0.123 C  
ENDBRANCH  23  24
ENDBRANCH  22  23
ENDBRANCH   5  22
ENDBRANCH   4   5
ENDBRANCH   3   4
ENDBRANCH   2   3
TORSDOF 14
ENDMDL
MODEL      149
REMARK 921   NORMALIZED FREE ENERGY PREDICTED BY IDOCK:   -3.33 KCAL/MOL
REMARK 922        TOTAL FREE ENERGY PREDICTED BY IDOCK:   -7.44 KCAL/MOL
REMARK 923 INTER-LIGAND FREE ENERGY PREDICTED BY IDOCK:   -6.27 KCAL/MOL
REMARK 924 INTRA-LIGAND FREE ENERGY PREDICTED BY IDOCK:   -1.17 KCAL/MOL
REMARK 927      BINDING AFFINITY PREDICTED BY RF-SCORE:    0.00 PKD
ROOT
HETATM    1  C   UNL     1      -6.472   9.278  69.371  1.00  0.00    -0.044 C  
HETATM    2  C   UNL     1      -7.605   8.252  69.408  1.00  0.00    -0.096 C  
ENDROOT
BRANCH   2   3
HETATM    3  C   UNL     1      -7.319   7.132  70.427  1.00  0.00    -0.079 C  
BRANCH   3   4
HETATM    4  C   UNL     1      -8.268   5.929  70.235  1.00  0.00    -0.114 C  
BRANCH   4   5
HETATM    5  N   UNL     1      -9.215   5.760  71.353  1.00  0.00    -0.143 NA 
BRANCH   5   6
HETATM    6  C   UNL     1     -10.367   6.645  71.459  1.00  0.00    -0.209 C  
HETATM    7  S   UNL     1     -10.360   8.070  72.618  1.00  0.00    -0.339 SA 
HETATM    8  C   UNL     1     -12.221  11.037  70.422  1.00  0.00    -0.373 C  
HETATM    9  S   UNL     1     -11.630   6.645  70.368  1.00  0.00    -0.377 SA 
HETATM   10 ZN   UNL     1     -11.580   8.735  71.009  1.00  0.00    -0.245 Zn 
HETATM   11  S   UNL     1     -13.033  10.231  71.626  1.00  0.00    -0.483 SA 
HETATM   12  S   UNL     1     -11.012  10.064  69.437  1.00  0.00    -0.236 SA 
BRANCH   8  13
HETATM   13  N   UNL     1     -12.222  12.472  70.323  1.00  0.00    -0.310 NA 
BRANCH  13  14
HETATM   14  C   UNL     1     -11.297  13.181  69.441  1.00  0.00    -0.213 C  
BRANCH  14  15
HETATM   15  C   UNL     1     -12.037  14.126  68.460  1.00  0.00    -0.312 C  
BRANCH  15  16
HETATM   16  C   UNL     1     -11.417  14.195  67.050  1.00  0.00    -0.370 C  
HETATM   17  C   UNL     1     -12.363  13.590  66.006  1.00  0.00    -0.486 C  
ENDBRANCH  15  16
ENDBRANCH  14  15
ENDBRANCH  13  14
BRANCH  13  18
HETATM   18  C   UNL     1     -13.192  13.245  71.106  1.00  0.00    -0.070 C  
BRANCH  18  19
HETATM   19  C   UNL     1     -12.542  13.929  72.334  1.00  0.00    -0.199 C  
BRANCH  19  20
HETATM   20  C   UNL     1     -12.576  15.467  72.299  1.00  0.00    -0.455 C  
HETATM   21  C   UNL     1     -12.860  16.033  73.696  1.00  0.00    -0.708 C  
ENDBRANCH  19  20
ENDBRANCH  18  19
ENDBRANCH  13  18
ENDBRANCH   8  13
ENDBRANCH   5   6
BRANCH   5  22
HETATM   22  C   UNL     1      -9.013   4.658  72.303  1.00  0.00    -0.126 C  
BRANCH  22  23
HETATM   23  C   UNL     1      -8.561   5.075  73.715  1.00  0.00    -0.107 C  
BRANCH  23  24
HETATM   24  C   UNL     1      -7.105   5.551  73.807  1.00  0.00    -0.086 C  
HETATM   25  C   UNL     1      -7.049   7.028  74.217  1.00  0.00    -0.093 C  
ENDBRANCH  23  24
ENDBRANCH  22  23
ENDBRANCH   5  22
ENDBRANCH   4   5
ENDBRANCH   3   4
ENDBRANCH   2   3
TORSDOF 14
ENDMDL
MODEL      150
REMARK 921   NORMALIZED FREE ENERGY PREDICTED BY IDOCK:   -3.33 KCAL/MOL
REMARK 922        TOTAL FREE ENERGY PREDICTED BY IDOCK:   -7.44 KCAL/MOL
REMARK 923 INTER-LIGAND FREE ENERGY PREDICTED BY IDOCK:   -6.56 KCAL/MOL
REMARK 924 INTRA-LIGAND FREE ENERGY PREDICTED BY IDOCK:   -0.89 KCAL/MOL
REMARK 927      BINDING AFFINITY PREDICTED BY RF-SCORE:    0.00 PKD
ROOT
HETATM    1  C   UNL     1     -10.981   2.767  73.673  1.00  0.00    -0.313 C  
HETATM    2  C   UNL     1     -11.263   4.247  73.406  1.00  0.00    -0.361 C  
ENDROOT
BRANCH   2   3
HETATM    3  C   UNL     1      -9.968   5.020  73.090  1.00  0.00    -0.185 C  
BRANCH   3   4
HETATM    4  C   UNL     1      -9.441   4.696  71.675  1.00  0.00    -0.153 C  
BRANCH   4   5
HETATM    5  N   UNL     1      -9.424   5.871  70.785  1.00  0.00    -0.163 NA 
BRANCH   5   6
HETATM    6  C   UNL     1     -10.387   6.944  70.993  1.00  0.00    -0.205 C  
HETATM    7  S   UNL     1      -9.916   8.475  71.892  1.00  0.00    -0.321 SA 
HETATM    8  C   UNL     1     -11.802  11.432  69.705  1.00  0.00    -0.362 C  
HETATM    9  S   UNL     1     -11.854   7.028  70.203  1.00  0.00    -0.063 SA 
HETATM   10 ZN   UNL     1     -11.369   9.142  70.491  1.00  0.00    -0.228 Zn 
HETATM   11  S   UNL     1     -12.419  10.924  71.161  1.00  0.00    -0.403 SA 
HETATM   12  S   UNL     1     -11.000  10.159  68.651  1.00  0.00    -0.208 SA 
BRANCH   8  13
HETATM   13  N   UNL     1     -11.627  12.824  69.390  1.00  0.00    -0.297 NA 
BRANCH  13  14
HETATM   14  C   UNL     1     -10.459  13.304  68.654  1.00  0.00    -0.228 C  
BRANCH  14  15
HETATM   15  C   UNL     1     -10.831  13.821  67.242  1.00  0.00    -0.292 C  
BRANCH  15  16
HETATM   16  C   UNL     1      -9.645  14.388  66.436  1.00  0.00    -0.320 C  
HETATM   17  C   UNL     1      -8.379  14.452  67.298  1.00  0.00    -0.228 C  
ENDBRANCH  15  16
ENDBRANCH  14  15
ENDBRANCH  13  14
BRANCH  13  18
HETATM   18  C   UNL     1     -12.658  13.787  69.791  1.00  0.00    -0.031 C  
BRANCH  18  19
HETATM   19  C   UNL     1     -12.065  14.999  70.549  1.00  0.00    -0.379 C  
BRANCH  19  20
HETATM   20  C   UNL     1     -12.167  14.905  72.082  1.00  0.00    -0.428 C  
HETATM   21  C   UNL     1     -11.925  16.276  72.724  1.00  0.00    -0.636 C  
ENDBRANCH  19  20
ENDBRANCH  18  19
ENDBRANCH  13  18
ENDBRANCH   8  13
ENDBRANCH   5   6
BRANCH   5  22
HETATM   22  C   UNL     1      -8.391   5.967  69.745  1.00  0.00    -0.126 C  
BRANCH  22  23
HETATM   23  C   UNL     1      -8.786   5.407  68.365  1.00  0.00    -0.102 C  
BRANCH  23  24
HETATM   24  C   UNL     1      -9.362   6.445  67.393  1.00  0.00    -0.119 C  
HETATM   25  C   UNL     1     -10.741   6.001  66.889  1.00  0.00    -0.407 C  
ENDBRANCH  23  24
ENDBRANCH  22  23
ENDBRANCH   5  22
ENDBRANCH   4   5
ENDBRANCH   3   4
ENDBRANCH   2   3
TORSDOF 14
ENDMDL
MODEL      151
REMARK 921   NORMALIZED FREE ENERGY PREDICTED BY IDOCK:   -3.33 KCAL/MOL
REMARK 922        TOTAL FREE ENERGY PREDICTED BY IDOCK:   -7.44 KCAL/MOL
REMARK 923 INTER-LIGAND FREE ENERGY PREDICTED BY IDOCK:   -6.27 KCAL/MOL
REMARK 924 INTRA-LIGAND FREE ENERGY PREDICTED BY IDOCK:   -1.16 KCAL/MOL
REMARK 927      BINDING AFFINITY PREDICTED BY RF-SCORE:    0.00 PKD
ROOT
HETATM    1  C   UNL     1     -10.683   5.843  67.195  1.00  0.00    -0.387 C  
HETATM    2  C   UNL     1      -9.268   5.397  67.564  1.00  0.00    -0.114 C  
ENDROOT
BRANCH   2   3
HETATM    3  C   UNL     1      -8.204   6.184  66.774  1.00  0.00    -0.109 C  
BRANCH   3   4
HETATM    4  C   UNL     1      -7.473   7.209  67.668  1.00  0.00    -0.101 C  
BRANCH   4   5
HETATM    5  N   UNL     1      -7.758   8.606  67.292  1.00  0.00    -0.096 NA 
BRANCH   5   6
HETATM    6  C   UNL     1      -8.949   9.262  67.816  1.00  0.00    -0.126 C  
HETATM    7  S   UNL     1      -8.930  10.080  69.461  1.00  0.00    -0.193 SA 
HETATM    8  C   UNL     1     -11.143  13.508  68.795  1.00  0.00    -0.264 C  
HETATM    9  S   UNL     1     -10.296   9.597  66.890  1.00  0.00    -0.219 SA 
HETATM   10 ZN   UNL     1     -10.318  11.235  68.339  1.00  0.00    -0.156 Zn 
HETATM   11  S   UNL     1     -11.802  12.209  69.596  1.00  0.00    -0.292 SA 
HETATM   12  S   UNL     1      -9.965  13.137  67.435  1.00  0.00    -0.233 SA 
BRANCH   8  13
HETATM   13  N   UNL     1     -11.239  14.850  69.302  1.00  0.00    -0.269 NA 
BRANCH  13  14
HETATM   14  C   UNL     1     -11.268  15.128  70.737  1.00  0.00    -0.286 C  
BRANCH  14  15
HETATM   15  C   UNL     1     -12.468  16.026  71.133  1.00  0.00    -0.270 C  
BRANCH  15  16
HETATM   16  C   UNL     1     -13.736  15.253  71.546  1.00  0.00    -0.610 C  
HETATM   17  C   UNL     1     -13.377  14.031  72.400  1.00  0.00    -0.617 C  
ENDBRANCH  15  16
ENDBRANCH  14  15
ENDBRANCH  13  14
BRANCH  13  18
HETATM   18  C   UNL     1     -11.282  15.974  68.360  1.00  0.00    -0.364 C  
BRANCH  18  19
HETATM   19  C   UNL     1      -9.999  16.838  68.421  1.00  0.00    -0.268 C  
BRANCH  19  20
HETATM   20  C   UNL     1     -10.255  18.348  68.571  1.00  0.00    -0.394 C  
HETATM   21  C   UNL     1     -10.551  18.984  67.207  1.00  0.00    -0.554 C  
ENDBRANCH  19  20
ENDBRANCH  18  19
ENDBRANCH  13  18
ENDBRANCH   8  13
ENDBRANCH   5   6
BRANCH   5  22
HETATM   22  C   UNL     1      -6.799   9.331  66.448  1.00  0.00    -0.083 C  
BRANCH  22  23
HETATM   23  C   UNL     1      -5.953  10.397  67.171  1.00  0.00    -0.050 C  
BRANCH  23  24
HETATM   24  C   UNL     1      -6.431  11.841  66.969  1.00  0.00    -0.147 C  
HETATM   25  C   UNL     1      -6.289  12.640  68.269  1.00  0.00    -0.072 C  
ENDBRANCH  23  24
ENDBRANCH  22  23
ENDBRANCH   5  22
ENDBRANCH   4   5
ENDBRANCH   3   4
ENDBRANCH   2   3
TORSDOF 14
ENDMDL
MODEL      152
REMARK 921   NORMALIZED FREE ENERGY PREDICTED BY IDOCK:   -3.33 KCAL/MOL
REMARK 922        TOTAL FREE ENERGY PREDICTED BY IDOCK:   -7.44 KCAL/MOL
REMARK 923 INTER-LIGAND FREE ENERGY PREDICTED BY IDOCK:   -6.39 KCAL/MOL
REMARK 924 INTRA-LIGAND FREE ENERGY PREDICTED BY IDOCK:   -1.05 KCAL/MOL
REMARK 927      BINDING AFFINITY PREDICTED BY RF-SCORE:    0.00 PKD
ROOT
HETATM    1  C   UNL     1     -11.413  10.453  70.667  1.00  0.00    -0.438 C  
HETATM    2  C   UNL     1     -12.712   9.728  71.025  1.00  0.00    -0.392 C  
ENDROOT
BRANCH   2   3
HETATM    3  C   UNL     1     -12.520   8.790  72.233  1.00  0.00    -0.455 C  
BRANCH   3   4
HETATM    4  C   UNL     1     -11.066   8.283  72.337  1.00  0.00    -0.377 C  
BRANCH   4   5
HETATM    5  N   UNL     1     -10.899   6.906  71.839  1.00  0.00    -0.226 NA 
BRANCH   5   6
HETATM    6  C   UNL     1     -10.178   6.673  70.595  1.00  0.00    -0.189 C  
HETATM    7  S   UNL     1     -11.079   6.384  69.021  1.00  0.00    -0.332 SA 
HETATM    8  C   UNL     1      -8.829   8.510  66.282  1.00  0.00    -0.156 C  
HETATM    9  S   UNL     1      -8.541   6.943  70.417  1.00  0.00    -0.144 SA 
HETATM   10 ZN   UNL     1      -9.294   7.362  68.407  1.00  0.00    -0.138 Zn 
HETATM   11  S   UNL     1      -8.722   6.854  66.371  1.00  0.00    -0.146 SA 
HETATM   12  S   UNL     1      -9.083   9.415  67.860  1.00  0.00    -0.129 SA 
BRANCH   8  13
HETATM   13  N   UNL     1      -9.012   9.200  65.033  1.00  0.00    -0.196 NA 
BRANCH  13  14
HETATM   14  C   UNL     1      -9.902  10.354  64.917  1.00  0.00    -0.334 C  
BRANCH  14  15
HETATM   15  C   UNL     1      -9.924  10.931  63.479  1.00  0.00    -0.419 C  
BRANCH  15  16
HETATM   16  C   UNL     1     -10.845  12.153  63.295  1.00  0.00    -0.381 C  
HETATM   17  C   UNL     1     -11.709  12.379  64.542  1.00  0.00    -0.427 C  
ENDBRANCH  15  16
ENDBRANCH  14  15
ENDBRANCH  13  14
BRANCH  13  18
HETATM   18  C   UNL     1      -8.267   8.755  63.850  1.00  0.00    -0.160 C  
BRANCH  18  19
HETATM   19  C   UNL     1      -6.737   8.895  64.033  1.00  0.00    -0.087 C  
BRANCH  19  20
HETATM   20  C   UNL     1      -6.213  10.339  63.937  1.00  0.00    -0.112 C  
HETATM   21  C   UNL     1      -5.467  10.557  62.615  1.00  0.00    -0.147 C  
ENDBRANCH  19  20
ENDBRANCH  18  19
ENDBRANCH  13  18
ENDBRANCH   8  13
ENDBRANCH   5   6
BRANCH   5  22
HETATM   22  C   UNL     1     -11.409   5.787  72.643  1.00  0.00    -0.300 C  
BRANCH  22  23
HETATM   23  C   UNL     1     -10.486   5.316  73.784  1.00  0.00    -0.304 C  
BRANCH  23  24
HETATM   24  C   UNL     1      -9.986   3.872  73.650  1.00  0.00    -0.169 C  
HETATM   25  C   UNL     1     -10.034   3.422  72.185  1.00  0.00    -0.230 C  
ENDBRANCH  23  24
ENDBRANCH  22  23
ENDBRANCH   5  22
ENDBRANCH   4   5
ENDBRANCH   3   4
ENDBRANCH   2   3
TORSDOF 14
ENDMDL
MODEL      153
REMARK 921   NORMALIZED FREE ENERGY PREDICTED BY IDOCK:   -3.32 KCAL/MOL
REMARK 922        TOTAL FREE ENERGY PREDICTED BY IDOCK:   -7.43 KCAL/MOL
REMARK 923 INTER-LIGAND FREE ENERGY PREDICTED BY IDOCK:   -6.26 KCAL/MOL
REMARK 924 INTRA-LIGAND FREE ENERGY PREDICTED BY IDOCK:   -1.16 KCAL/MOL
REMARK 927      BINDING AFFINITY PREDICTED BY RF-SCORE:    0.00 PKD
ROOT
HETATM    1  C   UNL     1      -8.746   2.886  73.100  1.00  0.00    -0.081 C  
HETATM    2  C   UNL     1      -7.364   3.466  72.796  1.00  0.00    -0.050 C  
ENDROOT
BRANCH   2   3
HETATM    3  C   UNL     1      -7.456   4.938  72.350  1.00  0.00    -0.089 C  
BRANCH   3   4
HETATM    4  C   UNL     1      -8.910   5.457  72.389  1.00  0.00    -0.131 C  
BRANCH   4   5
HETATM    5  N   UNL     1      -9.365   5.992  71.094  1.00  0.00    -0.159 NA 
BRANCH   5   6
HETATM    6  C   UNL     1      -8.890   7.296  70.648  1.00  0.00    -0.148 C  
HETATM    7  S   UNL     1      -8.522   7.611  68.876  1.00  0.00    -0.129 SA 
HETATM    8  C   UNL     1      -9.990  11.434  68.309  1.00  0.00    -0.198 C  
HETATM    9  S   UNL     1      -8.928   8.664  71.602  1.00  0.00    -0.233 SA 
HETATM   10 ZN   UNL     1      -9.184   9.498  69.596  1.00  0.00    -0.131 Zn 
HETATM   11  S   UNL     1      -8.359  11.161  68.463  1.00  0.00    -0.156 SA 
HETATM   12  S   UNL     1     -11.110  10.374  69.310  1.00  0.00    -0.262 SA 
BRANCH   8  13
HETATM   13  N   UNL     1     -10.537  12.237  67.249  1.00  0.00    -0.221 NA 
BRANCH  13  14
HETATM   14  C   UNL     1      -9.818  12.442  65.993  1.00  0.00    -0.257 C  
BRANCH  14  15
HETATM   15  C   UNL     1     -10.359  11.537  64.857  1.00  0.00    -0.340 C  
BRANCH  15  16
HETATM   16  C   UNL     1     -10.837  12.298  63.605  1.00  0.00    -0.522 C  
HETATM   17  C   UNL     1     -12.361  12.214  63.462  1.00  0.00    -0.682 C  
ENDBRANCH  15  16
ENDBRANCH  14  15
ENDBRANCH  13  14
BRANCH  13  18
HETATM   18  C   UNL     1     -11.861  12.846  67.418  1.00  0.00    -0.360 C  
BRANCH  18  19
HETATM   19  C   UNL     1     -11.788  14.389  67.514  1.00  0.00    -0.418 C  
BRANCH  19  20
HETATM   20  C   UNL     1     -11.536  14.928  68.934  1.00  0.00    -0.320 C  
HETATM   21  C   UNL     1     -12.236  14.050  69.977  1.00  0.00    -0.414 C  
ENDBRANCH  19  20
ENDBRANCH  18  19
ENDBRANCH  13  18
ENDBRANCH   8  13
ENDBRANCH   5   6
BRANCH   5  22
HETATM   22  C   UNL     1     -10.240   5.171  70.246  1.00  0.00    -0.271 C  
BRANCH  22  23
HETATM   23  C   UNL     1      -9.575   3.937  69.607  1.00  0.00    -0.259 C  
BRANCH  23  24
HETATM   24  C   UNL     1      -9.431   4.004  68.081  1.00  0.00    -0.215 C  
HETATM   25  C   UNL     1      -9.114   2.617  67.511  1.00  0.00    -0.215 C  
ENDBRANCH  23  24
ENDBRANCH  22  23
ENDBRANCH   5  22
ENDBRANCH   4   5
ENDBRANCH   3   4
ENDBRANCH   2   3
TORSDOF 14
ENDMDL
MODEL      154
REMARK 921   NORMALIZED FREE ENERGY PREDICTED BY IDOCK:   -3.31 KCAL/MOL
REMARK 922        TOTAL FREE ENERGY PREDICTED BY IDOCK:   -7.40 KCAL/MOL
REMARK 923 INTER-LIGAND FREE ENERGY PREDICTED BY IDOCK:   -6.98 KCAL/MOL
REMARK 924 INTRA-LIGAND FREE ENERGY PREDICTED BY IDOCK:   -0.42 KCAL/MOL
REMARK 927      BINDING AFFINITY PREDICTED BY RF-SCORE:    0.00 PKD
ROOT
HETATM    1  C   UNL     1      -9.662   4.250  70.260  1.00  0.00    -0.280 C  
HETATM    2  C   UNL     1     -10.647   5.238  70.888  1.00  0.00    -0.247 C  
ENDROOT
BRANCH   2   3
HETATM    3  C   UNL     1     -10.413   6.672  70.373  1.00  0.00    -0.249 C  
BRANCH   3   4
HETATM    4  C   UNL     1     -10.775   6.808  68.879  1.00  0.00    -0.240 C  
BRANCH   4   5
HETATM    5  N   UNL     1      -9.608   7.106  68.029  1.00  0.00    -0.133 NA 
BRANCH   5   6
HETATM    6  C   UNL     1      -9.219   8.492  67.803  1.00  0.00    -0.135 C  
HETATM    7  S   UNL     1      -9.640   9.348  66.233  1.00  0.00    -0.254 SA 
HETATM    8  C   UNL     1     -10.704  13.130  67.518  1.00  0.00    -0.238 C  
HETATM    9  S   UNL     1      -8.653   9.496  69.010  1.00  0.00    -0.140 SA 
HETATM   10 ZN   UNL     1      -9.665  10.906  67.679  1.00  0.00    -0.156 Zn 
HETATM   11  S   UNL     1      -9.224  12.853  66.816  1.00  0.00    -0.209 SA 
HETATM   12  S   UNL     1     -11.388  11.792  68.576  1.00  0.00    -0.302 SA 
BRANCH   8  13
HETATM   13  N   UNL     1     -11.557  14.213  67.107  1.00  0.00    -0.356 NA 
BRANCH  13  14
HETATM   14  C   UNL     1     -11.577  15.488  67.822  1.00  0.00    -0.187 C  
BRANCH  14  15
HETATM   15  C   UNL     1     -10.377  16.390  67.440  1.00  0.00    -0.295 C  
BRANCH  15  16
HETATM   16  C   UNL     1     -10.305  17.721  68.214  1.00  0.00    -0.387 C  
HETATM   17  C   UNL     1      -8.860  18.224  68.304  1.00  0.00    -0.301 C  
ENDBRANCH  15  16
ENDBRANCH  14  15
ENDBRANCH  13  14
BRANCH  13  18
HETATM   18  C   UNL     1     -12.411  14.047  65.925  1.00  0.00    -0.486 C  
BRANCH  18  19
HETATM   19  C   UNL     1     -12.295  12.631  65.313  1.00  0.00    -0.528 C  
BRANCH  19  20
HETATM   20  C   UNL     1     -12.036  12.612  63.795  1.00  0.00    -0.588 C  
HETATM   21  C   UNL     1     -10.707  11.913  63.483  1.00  0.00    -0.504 C  
ENDBRANCH  19  20
ENDBRANCH  18  19
ENDBRANCH  13  18
ENDBRANCH   8  13
ENDBRANCH   5   6
BRANCH   5  22
HETATM   22  C   UNL     1      -8.820   5.996  67.477  1.00  0.00    -0.109 C  
BRANCH  22  23
HETATM   23  C   UNL     1      -9.191   5.567  66.045  1.00  0.00    -0.168 C  
BRANCH  23  24
HETATM   24  C   UNL     1     -10.130   4.357  65.960  1.00  0.00    -0.260 C  
HETATM   25  C   UNL     1     -10.283   3.897  64.506  1.00  0.00    -0.231 C  
ENDBRANCH  23  24
ENDBRANCH  22  23
ENDBRANCH   5  22
ENDBRANCH   4   5
ENDBRANCH   3   4
ENDBRANCH   2   3
TORSDOF 14
ENDMDL
MODEL      155
REMARK 921   NORMALIZED FREE ENERGY PREDICTED BY IDOCK:   -3.31 KCAL/MOL
REMARK 922        TOTAL FREE ENERGY PREDICTED BY IDOCK:   -7.40 KCAL/MOL
REMARK 923 INTER-LIGAND FREE ENERGY PREDICTED BY IDOCK:   -6.26 KCAL/MOL
REMARK 924 INTRA-LIGAND FREE ENERGY PREDICTED BY IDOCK:   -1.14 KCAL/MOL
REMARK 927      BINDING AFFINITY PREDICTED BY RF-SCORE:    0.00 PKD
ROOT
HETATM    1  C   UNL     1     -11.168   3.055  73.486  1.00  0.00    -0.293 C  
HETATM    2  C   UNL     1     -11.256   4.562  73.241  1.00  0.00    -0.388 C  
ENDROOT
BRANCH   2   3
HETATM    3  C   UNL     1      -9.859   5.185  73.051  1.00  0.00    -0.177 C  
BRANCH   3   4
HETATM    4  C   UNL     1      -9.201   4.719  71.735  1.00  0.00    -0.138 C  
BRANCH   4   5
HETATM    5  N   UNL     1      -8.924   5.829  70.805  1.00  0.00    -0.146 NA 
BRANCH   5   6
HETATM    6  C   UNL     1      -9.871   6.932  70.702  1.00  0.00    -0.182 C  
HETATM    7  S   UNL     1      -9.366   8.651  71.110  1.00  0.00    -0.239 SA 
HETATM    8  C   UNL     1     -11.250  10.872  68.176  1.00  0.00    -0.301 C  
HETATM    9  S   UNL     1     -11.349   6.807  69.939  1.00  0.00    -0.298 SA 
HETATM   10 ZN   UNL     1     -10.833   8.904  69.592  1.00  0.00    -0.209 Zn 
HETATM   11  S   UNL     1     -11.850  10.822  69.725  1.00  0.00    -0.344 SA 
HETATM   12  S   UNL     1     -10.481   9.334  67.531  1.00  0.00    -0.260 SA 
BRANCH   8  13
HETATM   13  N   UNL     1     -11.063  12.109  67.467  1.00  0.00    -0.259 NA 
BRANCH  13  14
HETATM   14  C   UNL     1     -10.073  12.239  66.399  1.00  0.00    -0.226 C  
BRANCH  14  15
HETATM   15  C   UNL     1     -10.728  12.246  64.995  1.00  0.00    -0.336 C  
BRANCH  15  16
HETATM   16  C   UNL     1     -10.454  10.982  64.155  1.00  0.00    -0.434 C  
HETATM   17  C   UNL     1      -9.565  11.309  62.949  1.00  0.00    -0.377 C  
ENDBRANCH  15  16
ENDBRANCH  14  15
ENDBRANCH  13  14
BRANCH  13  18
HETATM   18  C   UNL     1     -11.902  13.264  67.801  1.00  0.00    -0.353 C  
BRANCH  18  19
HETATM   19  C   UNL     1     -11.075  14.450  68.352  1.00  0.00    -0.272 C  
BRANCH  19  20
HETATM   20  C   UNL     1     -11.028  15.679  67.425  1.00  0.00    -0.293 C  
HETATM   21  C   UNL     1     -10.664  16.940  68.218  1.00  0.00    -0.377 C  
ENDBRANCH  19  20
ENDBRANCH  18  19
ENDBRANCH  13  18
ENDBRANCH   8  13
ENDBRANCH   5   6
BRANCH   5  22
HETATM   22  C   UNL     1      -7.666   5.834  70.048  1.00  0.00    -0.087 C  
BRANCH  22  23
HETATM   23  C   UNL     1      -7.780   5.415  68.570  1.00  0.00    -0.084 C  
BRANCH  23  24
HETATM   24  C   UNL     1      -7.824   6.583  67.575  1.00  0.00    -0.113 C  
HETATM   25  C   UNL     1      -6.993   7.762  68.095  1.00  0.00    -0.079 C  
ENDBRANCH  23  24
ENDBRANCH  22  23
ENDBRANCH   5  22
ENDBRANCH   4   5
ENDBRANCH   3   4
ENDBRANCH   2   3
TORSDOF 14
ENDMDL
MODEL      156
REMARK 921   NORMALIZED FREE ENERGY PREDICTED BY IDOCK:   -3.31 KCAL/MOL
REMARK 922        TOTAL FREE ENERGY PREDICTED BY IDOCK:   -7.40 KCAL/MOL
REMARK 923 INTER-LIGAND FREE ENERGY PREDICTED BY IDOCK:   -6.13 KCAL/MOL
REMARK 924 INTRA-LIGAND FREE ENERGY PREDICTED BY IDOCK:   -1.27 KCAL/MOL
REMARK 927      BINDING AFFINITY PREDICTED BY RF-SCORE:    0.00 PKD
ROOT
HETATM    1  C   UNL     1     -12.493  12.878  65.134  1.00  0.00    -0.561 C  
HETATM    2  C   UNL     1     -12.138  13.756  66.335  1.00  0.00    -0.483 C  
ENDROOT
BRANCH   2   3
HETATM    3  C   UNL     1     -10.656  13.601  66.729  1.00  0.00    -0.273 C  
BRANCH   3   4
HETATM    4  C   UNL     1     -10.501  13.099  68.180  1.00  0.00    -0.248 C  
BRANCH   4   5
HETATM    5  N   UNL     1     -10.877  11.682  68.342  1.00  0.00    -0.206 NA 
BRANCH   5   6
HETATM    6  C   UNL     1      -9.950  10.640  67.921  1.00  0.00    -0.166 C  
HETATM    7  S   UNL     1      -8.935   9.726  69.150  1.00  0.00    -0.172 SA 
HETATM    8  C   UNL     1      -9.050   5.849  67.721  1.00  0.00    -0.109 C  
HETATM    9  S   UNL     1      -9.942   9.981  66.389  1.00  0.00    -0.243 SA 
HETATM   10 ZN   UNL     1      -9.273   8.297  67.614  1.00  0.00    -0.129 Zn 
HETATM   11  S   UNL     1      -7.701   6.797  67.509  1.00  0.00    -0.112 SA 
HETATM   12  S   UNL     1     -10.680   6.692  67.645  1.00  0.00    -0.326 SA 
BRANCH   8  13
HETATM   13  N   UNL     1      -8.971   4.506  68.228  1.00  0.00    -0.111 NA 
BRANCH  13  14
HETATM   14  C   UNL     1      -8.604   4.229  69.616  1.00  0.00    -0.072 C  
BRANCH  14  15
HETATM   15  C   UNL     1      -9.821   4.321  70.570  1.00  0.00    -0.269 C  
BRANCH  15  16
HETATM   16  C   UNL     1      -9.823   5.561  71.487  1.00  0.00    -0.221 C  
HETATM   17  C   UNL     1     -11.149   6.323  71.373  1.00  0.00    -0.339 C  
ENDBRANCH  15  16
ENDBRANCH  14  15
ENDBRANCH  13  14
BRANCH  13  18
HETATM   18  C   UNL     1      -9.291   3.382  67.341  1.00  0.00    -0.203 C  
BRANCH  18  19
HETATM   19  C   UNL     1      -8.362   3.327  66.105  1.00  0.00    -0.100 C  
BRANCH  19  20
HETATM   20  C   UNL     1      -7.119   2.436  66.281  1.00  0.00    -0.056 C  
HETATM   21  C   UNL     1      -5.890   3.284  66.627  1.00  0.00    -0.023 C  
ENDBRANCH  19  20
ENDBRANCH  18  19
ENDBRANCH  13  18
ENDBRANCH   8  13
ENDBRANCH   5   6
BRANCH   5  22
HETATM   22  C   UNL     1     -12.155  11.349  68.986  1.00  0.00    -0.249 C  
BRANCH  22  23
HETATM   23  C   UNL     1     -12.149  11.382  70.526  1.00  0.00    -0.487 C  
BRANCH  23  24
HETATM   24  C   UNL     1     -12.167  10.003  71.198  1.00  0.00    -0.477 C  
HETATM   25  C   UNL     1     -13.434   9.835  72.044  1.00  0.00    -0.498 C  
ENDBRANCH  23  24
ENDBRANCH  22  23
ENDBRANCH   5  22
ENDBRANCH   4   5
ENDBRANCH   3   4
ENDBRANCH   2   3
TORSDOF 14
ENDMDL
MODEL      157
REMARK 921   NORMALIZED FREE ENERGY PREDICTED BY IDOCK:   -3.30 KCAL/MOL
REMARK 922        TOTAL FREE ENERGY PREDICTED BY IDOCK:   -7.38 KCAL/MOL
REMARK 923 INTER-LIGAND FREE ENERGY PREDICTED BY IDOCK:   -6.55 KCAL/MOL
REMARK 924 INTRA-LIGAND FREE ENERGY PREDICTED BY IDOCK:   -0.83 KCAL/MOL
REMARK 927      BINDING AFFINITY PREDICTED BY RF-SCORE:    0.00 PKD
ROOT
HETATM    1  C   UNL     1     -11.110   5.067  73.281  1.00  0.00    -0.406 C  
HETATM    2  C   UNL     1     -11.413   5.994  72.102  1.00  0.00    -0.356 C  
ENDROOT
BRANCH   2   3
HETATM    3  C   UNL     1     -10.672   5.547  70.828  1.00  0.00    -0.294 C  
BRANCH   3   4
HETATM    4  C   UNL     1     -11.060   6.411  69.608  1.00  0.00    -0.401 C  
BRANCH   4   5
HETATM    5  N   UNL     1     -10.013   6.447  68.571  1.00  0.00    -0.137 NA 
BRANCH   5   6
HETATM    6  C   UNL     1      -9.503   7.731  68.109  1.00  0.00    -0.146 C  
HETATM    7  S   UNL     1     -10.157   8.512  66.580  1.00  0.00    -0.261 SA 
HETATM    8  C   UNL     1     -10.375  12.506  67.622  1.00  0.00    -0.218 C  
HETATM    9  S   UNL     1      -8.543   8.728  69.041  1.00  0.00    -0.133 SA 
HETATM   10 ZN   UNL     1      -9.636  10.167  67.808  1.00  0.00    -0.139 Zn 
HETATM   11  S   UNL     1      -9.149  11.944  66.652  1.00  0.00    -0.204 SA 
HETATM   12  S   UNL     1     -10.968  11.384  68.950  1.00  0.00    -0.243 SA 
BRANCH   8  13
HETATM   13  N   UNL     1     -11.146  13.673  67.285  1.00  0.00    -0.287 NA 
BRANCH  13  14
HETATM   14  C   UNL     1     -12.103  14.258  68.222  1.00  0.00    -0.243 C  
BRANCH  14  15
HETATM   15  C   UNL     1     -11.405  15.103  69.317  1.00  0.00    -0.313 C  
BRANCH  15  16
HETATM   16  C   UNL     1     -12.327  15.541  70.472  1.00  0.00    -0.461 C  
HETATM   17  C   UNL     1     -12.354  14.483  71.582  1.00  0.00    -0.420 C  
ENDBRANCH  15  16
ENDBRANCH  14  15
ENDBRANCH  13  14
BRANCH  13  18
HETATM   18  C   UNL     1     -10.950  14.311  65.979  1.00  0.00    -0.312 C  
BRANCH  18  19
HETATM   19  C   UNL     1     -10.574  15.807  66.108  1.00  0.00    -0.318 C  
BRANCH  19  20
HETATM   20  C   UNL     1      -9.061  16.088  66.084  1.00  0.00    -0.387 C  
HETATM   21  C   UNL     1      -8.642  16.893  67.320  1.00  0.00    -0.212 C  
ENDBRANCH  19  20
ENDBRANCH  18  19
ENDBRANCH  13  18
ENDBRANCH   8  13
ENDBRANCH   5   6
BRANCH   5  22
HETATM   22  C   UNL     1      -9.457   5.183  68.070  1.00  0.00    -0.127 C  
BRANCH  22  23
HETATM   23  C   UNL     1     -10.065   4.667  66.752  1.00  0.00    -0.246 C  
BRANCH  23  24
HETATM   24  C   UNL     1      -9.042   4.144  65.735  1.00  0.00    -0.136 C  
HETATM   25  C   UNL     1      -8.448   5.304  64.928  1.00  0.00    -0.150 C  
ENDBRANCH  23  24
ENDBRANCH  22  23
ENDBRANCH   5  22
ENDBRANCH   4   5
ENDBRANCH   3   4
ENDBRANCH   2   3
TORSDOF 14
ENDMDL
MODEL      158
REMARK 921   NORMALIZED FREE ENERGY PREDICTED BY IDOCK:   -3.30 KCAL/MOL
REMARK 922        TOTAL FREE ENERGY PREDICTED BY IDOCK:   -7.38 KCAL/MOL
REMARK 923 INTER-LIGAND FREE ENERGY PREDICTED BY IDOCK:   -5.84 KCAL/MOL
REMARK 924 INTRA-LIGAND FREE ENERGY PREDICTED BY IDOCK:   -1.54 KCAL/MOL
REMARK 927      BINDING AFFINITY PREDICTED BY RF-SCORE:    0.00 PKD
ROOT
HETATM    1  C   UNL     1      -7.418   8.418  66.069  1.00  0.00    -0.084 C  
HETATM    2  C   UNL     1      -7.104   8.277  67.559  1.00  0.00    -0.083 C  
ENDROOT
BRANCH   2   3
HETATM    3  C   UNL     1      -7.701   9.442  68.374  1.00  0.00    -0.086 C  
BRANCH   3   4
HETATM    4  C   UNL     1      -8.757   8.948  69.385  1.00  0.00    -0.142 C  
BRANCH   4   5
HETATM    5  N   UNL     1     -10.112   8.871  68.810  1.00  0.00    -0.195 NA 
BRANCH   5   6
HETATM    6  C   UNL     1     -10.733  10.073  68.269  1.00  0.00    -0.240 C  
HETATM    7  S   UNL     1     -11.303  11.423  69.376  1.00  0.00    -0.312 SA 
HETATM    8  C   UNL     1     -10.211  14.825  67.299  1.00  0.00    -0.241 C  
HETATM    9  S   UNL     1     -10.708  10.470  66.648  1.00  0.00    -0.101 SA 
HETATM   10 ZN   UNL     1     -10.725  12.439  67.601  1.00  0.00    -0.199 Zn 
HETATM   11  S   UNL     1     -11.792  14.314  67.327  1.00  0.00    -0.405 SA 
HETATM   12  S   UNL     1      -8.915  13.524  67.279  1.00  0.00    -0.230 SA 
BRANCH   8  13
HETATM   13  N   UNL     1      -9.841  16.188  67.571  1.00  0.00    -0.235 NA 
BRANCH  13  14
HETATM   14  C   UNL     1     -10.359  17.298  66.773  1.00  0.00    -0.308 C  
BRANCH  14  15
HETATM   15  C   UNL     1     -11.010  18.395  67.654  1.00  0.00    -0.160 C  
BRANCH  15  16
HETATM   16  C   UNL     1     -10.685  19.838  67.221  1.00  0.00    -0.532 C  
HETATM   17  C   UNL     1      -9.842  19.849  65.940  1.00  0.00    -0.444 C  
ENDBRANCH  15  16
ENDBRANCH  14  15
ENDBRANCH  13  14
BRANCH  13  18
HETATM   18  C   UNL     1      -8.942  16.479  68.694  1.00  0.00    -0.236 C  
BRANCH  18  19
HETATM   19  C   UNL     1      -7.632  17.161  68.234  1.00  0.00    -0.224 C  
BRANCH  19  20
HETATM   20  C   UNL     1      -7.480  18.623  68.690  1.00  0.00    -0.332 C  
HETATM   21  C   UNL     1      -6.128  19.191  68.244  1.00  0.00    -0.239 C  
ENDBRANCH  19  20
ENDBRANCH  18  19
ENDBRANCH  13  18
ENDBRANCH   8  13
ENDBRANCH   5   6
BRANCH   5  22
HETATM   22  C   UNL     1     -10.786   7.568  68.735  1.00  0.00    -0.095 C  
BRANCH  22  23
HETATM   23  C   UNL     1     -10.647   6.827  67.392  1.00  0.00    -0.372 C  
BRANCH  23  24
HETATM   24  C   UNL     1     -10.235   5.353  67.512  1.00  0.00    -0.243 C  
HETATM   25  C   UNL     1      -8.796   5.240  68.030  1.00  0.00    -0.106 C  
ENDBRANCH  23  24
ENDBRANCH  22  23
ENDBRANCH   5  22
ENDBRANCH   4   5
ENDBRANCH   3   4
ENDBRANCH   2   3
TORSDOF 14
ENDMDL
MODEL      159
REMARK 921   NORMALIZED FREE ENERGY PREDICTED BY IDOCK:   -3.30 KCAL/MOL
REMARK 922        TOTAL FREE ENERGY PREDICTED BY IDOCK:   -7.38 KCAL/MOL
REMARK 923 INTER-LIGAND FREE ENERGY PREDICTED BY IDOCK:   -6.37 KCAL/MOL
REMARK 924 INTRA-LIGAND FREE ENERGY PREDICTED BY IDOCK:   -1.01 KCAL/MOL
REMARK 927      BINDING AFFINITY PREDICTED BY RF-SCORE:    0.00 PKD
ROOT
HETATM    1  C   UNL     1      -7.790  10.054  64.085  1.00  0.00    -0.144 C  
HETATM    2  C   UNL     1      -9.241  10.244  63.639  1.00  0.00    -0.315 C  
ENDROOT
BRANCH   2   3
HETATM    3  C   UNL     1     -10.154  10.601  64.829  1.00  0.00    -0.412 C  
BRANCH   3   4
HETATM    4  C   UNL     1     -10.667  12.055  64.738  1.00  0.00    -0.306 C  
BRANCH   4   5
HETATM    5  N   UNL     1     -11.003  12.629  66.053  1.00  0.00    -0.275 NA 
BRANCH   5   6
HETATM    6  C   UNL     1     -10.404  12.068  67.257  1.00  0.00    -0.212 C  
HETATM    7  S   UNL     1     -11.417  11.126  68.466  1.00  0.00    -0.315 SA 
HETATM    8  C   UNL     1      -8.903   8.025  69.538  1.00  0.00    -0.144 C  
HETATM    9  S   UNL     1      -8.756  11.957  67.498  1.00  0.00    -0.171 SA 
HETATM   10 ZN   UNL     1      -9.498  10.221  68.604  1.00  0.00    -0.135 Zn 
HETATM   11  S   UNL     1      -9.138   9.320  70.551  1.00  0.00    -0.261 SA 
HETATM   12  S   UNL     1      -8.890   8.369  67.733  1.00  0.00    -0.137 SA 
BRANCH   8  13
HETATM   13  N   UNL     1      -8.996   6.665  69.998  1.00  0.00    -0.144 NA 
BRANCH  13  14
HETATM   14  C   UNL     1      -8.094   6.137  71.020  1.00  0.00    -0.121 C  
BRANCH  14  15
HETATM   15  C   UNL     1      -8.519   4.726  71.500  1.00  0.00    -0.121 C  
BRANCH  15  16
HETATM   16  C   UNL     1      -9.067   4.680  72.940  1.00  0.00    -0.131 C  
HETATM   17  C   UNL     1     -10.000   3.478  73.132  1.00  0.00    -0.197 C  
ENDBRANCH  15  16
ENDBRANCH  14  15
ENDBRANCH  13  14
BRANCH  13  18
HETATM   18  C   UNL     1     -10.039   5.790  69.450  1.00  0.00    -0.213 C  
BRANCH  18  19
HETATM   19  C   UNL     1     -11.462   6.336  69.718  1.00  0.00    -0.449 C  
BRANCH  19  20
HETATM   20  C   UNL     1     -11.829   6.454  71.208  1.00  0.00    -0.333 C  
HETATM   21  C   UNL     1     -13.110   7.278  71.385  1.00  0.00    -0.412 C  
ENDBRANCH  19  20
ENDBRANCH  18  19
ENDBRANCH  13  18
ENDBRANCH   8  13
ENDBRANCH   5   6
BRANCH   5  22
HETATM   22  C   UNL     1     -11.887  13.800  66.120  1.00  0.00    -0.398 C  
BRANCH  22  23
HETATM   23  C   UNL     1     -11.561  14.933  65.128  1.00  0.00    -0.330 C  
BRANCH  23  24
HETATM   24  C   UNL     1     -10.241  15.665  65.402  1.00  0.00    -0.401 C  
HETATM   25  C   UNL     1     -10.389  16.608  66.602  1.00  0.00    -0.296 C  
ENDBRANCH  23  24
ENDBRANCH  22  23
ENDBRANCH   5  22
ENDBRANCH   4   5
ENDBRANCH   3   4
ENDBRANCH   2   3
TORSDOF 14
ENDMDL
MODEL      160
REMARK 921   NORMALIZED FREE ENERGY PREDICTED BY IDOCK:   -3.30 KCAL/MOL
REMARK 922        TOTAL FREE ENERGY PREDICTED BY IDOCK:   -7.38 KCAL/MOL
REMARK 923 INTER-LIGAND FREE ENERGY PREDICTED BY IDOCK:   -6.09 KCAL/MOL
REMARK 924 INTRA-LIGAND FREE ENERGY PREDICTED BY IDOCK:   -1.29 KCAL/MOL
REMARK 927      BINDING AFFINITY PREDICTED BY RF-SCORE:    0.00 PKD
ROOT
HETATM    1  C   UNL     1     -12.187  14.697  69.858  1.00  0.00    -0.365 C  
HETATM    2  C   UNL     1     -11.319  15.153  68.683  1.00  0.00    -0.322 C  
ENDROOT
BRANCH   2   3
HETATM    3  C   UNL     1     -10.247  14.103  68.334  1.00  0.00    -0.247 C  
BRANCH   3   4
HETATM    4  C   UNL     1     -10.855  12.691  68.194  1.00  0.00    -0.227 C  
BRANCH   4   5
HETATM    5  N   UNL     1     -10.338  11.955  67.026  1.00  0.00    -0.210 NA 
BRANCH   5   6
HETATM    6  C   UNL     1      -9.529  10.760  67.229  1.00  0.00    -0.159 C  
HETATM    7  S   UNL     1      -8.670  10.461  68.825  1.00  0.00    -0.153 SA 
HETATM    8  C   UNL     1      -9.203   6.402  69.397  1.00  0.00    -0.143 C  
HETATM    9  S   UNL     1      -9.552   9.449  66.198  1.00  0.00    -0.265 SA 
HETATM   10 ZN   UNL     1      -9.128   8.506  68.126  1.00  0.00    -0.130 Zn 
HETATM   11  S   UNL     1      -7.745   7.006  68.878  1.00  0.00    -0.111 SA 
HETATM   12  S   UNL     1     -10.718   7.248  68.793  1.00  0.00    -0.087 SA 
BRANCH   8  13
HETATM   13  N   UNL     1      -9.301   5.466  70.485  1.00  0.00    -0.153 NA 
BRANCH  13  14
HETATM   14  C   UNL     1      -9.909   4.148  70.310  1.00  0.00    -0.169 C  
BRANCH  14  15
HETATM   15  C   UNL     1      -8.852   3.015  70.297  1.00  0.00    -0.147 C  
BRANCH  15  16
HETATM   16  C   UNL     1      -9.405   1.621  70.656  1.00  0.00    -0.175 C  
HETATM   17  C   UNL     1     -10.207   1.670  71.962  1.00  0.00    -0.225 C  
ENDBRANCH  15  16
ENDBRANCH  14  15
ENDBRANCH  13  14
BRANCH  13  18
HETATM   18  C   UNL     1      -8.755   5.828  71.797  1.00  0.00    -0.136 C  
BRANCH  18  19
HETATM   19  C   UNL     1      -9.859   5.977  72.871  1.00  0.00    -0.177 C  
BRANCH  19  20
HETATM   20  C   UNL     1     -10.087   7.420  73.355  1.00  0.00    -0.389 C  
HETATM   21  C   UNL     1     -11.326   8.025  72.685  1.00  0.00    -0.469 C  
ENDBRANCH  19  20
ENDBRANCH  18  19
ENDBRANCH  13  18
ENDBRANCH   8  13
ENDBRANCH   5   6
BRANCH   5  22
HETATM   22  C   UNL     1     -10.703  12.405  65.676  1.00  0.00    -0.264 C  
BRANCH  22  23
HETATM   23  C   UNL     1     -12.201  12.691  65.455  1.00  0.00    -0.501 C  
BRANCH  23  24
HETATM   24  C   UNL     1     -12.550  14.174  65.276  1.00  0.00    -0.460 C  
HETATM   25  C   UNL     1     -11.316  14.966  64.827  1.00  0.00    -0.400 C  
ENDBRANCH  23  24
ENDBRANCH  22  23
ENDBRANCH   5  22
ENDBRANCH   4   5
ENDBRANCH   3   4
ENDBRANCH   2   3
TORSDOF 14
ENDMDL
MODEL      161
REMARK 921   NORMALIZED FREE ENERGY PREDICTED BY IDOCK:   -3.28 KCAL/MOL
REMARK 922        TOTAL FREE ENERGY PREDICTED BY IDOCK:   -7.34 KCAL/MOL
REMARK 923 INTER-LIGAND FREE ENERGY PREDICTED BY IDOCK:   -5.74 KCAL/MOL
REMARK 924 INTRA-LIGAND FREE ENERGY PREDICTED BY IDOCK:   -1.60 KCAL/MOL
REMARK 927      BINDING AFFINITY PREDICTED BY RF-SCORE:    0.00 PKD
ROOT
HETATM    1  C   UNL     1     -10.355  10.658  64.566  1.00  0.00    -0.352 C  
HETATM    2  C   UNL     1      -9.484   9.516  65.092  1.00  0.00    -0.305 C  
ENDROOT
BRANCH   2   3
HETATM    3  C   UNL     1      -9.847   9.154  66.545  1.00  0.00    -0.333 C  
BRANCH   3   4
HETATM    4  C   UNL     1      -8.796   8.216  67.179  1.00  0.00    -0.131 C  
BRANCH   4   5
HETATM    5  N   UNL     1      -7.469   8.843  67.308  1.00  0.00    -0.084 NA 
BRANCH   5   6
HETATM    6  C   UNL     1      -7.355  10.170  67.899  1.00  0.00    -0.087 C  
HETATM    7  S   UNL     1      -6.983  11.638  66.859  1.00  0.00    -0.088 SA 
HETATM    8  C   UNL     1      -9.435  14.545  68.479  1.00  0.00    -0.211 C  
HETATM    9  S   UNL     1      -7.838  10.528  69.456  1.00  0.00    -0.082 SA 
HETATM   10 ZN   UNL     1      -8.195  12.421  68.420  1.00  0.00    -0.122 Zn 
HETATM   11  S   UNL     1      -7.806  14.527  68.803  1.00  0.00    -0.139 SA 
HETATM   12  S   UNL     1     -10.269  12.917  68.304  1.00  0.00    -0.244 SA 
BRANCH   8  13
HETATM   13  N   UNL     1     -10.120  15.739  68.062  1.00  0.00    -0.226 NA 
BRANCH  13  14
HETATM   14  C   UNL     1     -10.969  15.761  66.872  1.00  0.00    -0.207 C  
BRANCH  14  15
HETATM   15  C   UNL     1     -10.155  15.552  65.571  1.00  0.00    -0.406 C  
BRANCH  15  16
HETATM   16  C   UNL     1     -10.581  14.326  64.740  1.00  0.00    -0.434 C  
HETATM   17  C   UNL     1     -12.103  14.139  64.783  1.00  0.00    -0.454 C  
ENDBRANCH  15  16
ENDBRANCH  14  15
ENDBRANCH  13  14
BRANCH  13  18
HETATM   18  C   UNL     1      -9.989  16.961  68.863  1.00  0.00    -0.279 C  
BRANCH  18  19
HETATM   19  C   UNL     1      -9.215  18.072  68.114  1.00  0.00    -0.283 C  
BRANCH  19  20
HETATM   20  C   UNL     1      -9.941  19.429  68.061  1.00  0.00    -0.488 C  
HETATM   21  C   UNL     1     -10.650  19.609  66.713  1.00  0.00    -0.602 C  
ENDBRANCH  19  20
ENDBRANCH  18  19
ENDBRANCH  13  18
ENDBRANCH   8  13
ENDBRANCH   5   6
BRANCH   5  22
HETATM   22  C   UNL     1      -6.276   8.089  66.899  1.00  0.00    -0.054 C  
BRANCH  22  23
HETATM   23  C   UNL     1      -5.830   8.296  65.439  1.00  0.00    -0.044 C  
BRANCH  23  24
HETATM   24  C   UNL     1      -6.451   7.317  64.434  1.00  0.00    -0.040 C  
HETATM   25  C   UNL     1      -6.689   5.953  65.092  1.00  0.00    -0.044 C  
ENDBRANCH  23  24
ENDBRANCH  22  23
ENDBRANCH   5  22
ENDBRANCH   4   5
ENDBRANCH   3   4
ENDBRANCH   2   3
TORSDOF 14
ENDMDL
MODEL      162
REMARK 921   NORMALIZED FREE ENERGY PREDICTED BY IDOCK:   -3.28 KCAL/MOL
REMARK 922        TOTAL FREE ENERGY PREDICTED BY IDOCK:   -7.34 KCAL/MOL
REMARK 923 INTER-LIGAND FREE ENERGY PREDICTED BY IDOCK:   -6.35 KCAL/MOL
REMARK 924 INTRA-LIGAND FREE ENERGY PREDICTED BY IDOCK:   -0.99 KCAL/MOL
REMARK 927      BINDING AFFINITY PREDICTED BY RF-SCORE:    0.00 PKD
ROOT
HETATM    1  C   UNL     1     -10.858   6.362  72.830  1.00  0.00    -0.286 C  
HETATM    2  C   UNL     1     -11.852   6.274  71.672  1.00  0.00    -0.315 C  
ENDROOT
BRANCH   2   3
HETATM    3  C   UNL     1     -12.695   7.559  71.552  1.00  0.00    -0.391 C  
BRANCH   3   4
HETATM    4  C   UNL     1     -11.933   8.792  72.083  1.00  0.00    -0.366 C  
BRANCH   4   5
HETATM    5  N   UNL     1     -11.935   9.921  71.135  1.00  0.00    -0.353 NA 
BRANCH   5   6
HETATM    6  C   UNL     1     -10.773  10.149  70.286  1.00  0.00    -0.293 C  
HETATM    7  S   UNL     1      -9.408   8.921  70.203  1.00  0.00    -0.194 SA 
HETATM    8  C   UNL     1      -8.438   8.910  66.185  1.00  0.00    -0.125 C  
HETATM    9  S   UNL     1     -10.706  11.338  69.118  1.00  0.00    -0.178 SA 
HETATM   10 ZN   UNL     1      -9.427   9.784  68.261  1.00  0.00    -0.132 Zn 
HETATM   11  S   UNL     1      -7.482   9.700  67.291  1.00  0.00    -0.087 SA 
HETATM   12  S   UNL     1     -10.250   8.927  66.487  1.00  0.00    -0.183 SA 
BRANCH   8  13
HETATM   13  N   UNL     1      -7.893   8.009  65.206  1.00  0.00    -0.106 NA 
BRANCH  13  14
HETATM   14  C   UNL     1      -7.801   6.571  65.452  1.00  0.00    -0.106 C  
BRANCH  14  15
HETATM   15  C   UNL     1      -8.203   5.739  64.208  1.00  0.00    -0.106 C  
BRANCH  15  16
HETATM   16  C   UNL     1      -8.944   4.426  64.529  1.00  0.00    -0.151 C  
HETATM   17  C   UNL     1      -9.862   4.600  65.745  1.00  0.00    -0.227 C  
ENDBRANCH  15  16
ENDBRANCH  14  15
ENDBRANCH  13  14
BRANCH  13  18
HETATM   18  C   UNL     1      -7.441   8.538  63.914  1.00  0.00    -0.118 C  
BRANCH  18  19
HETATM   19  C   UNL     1      -7.977   9.965  63.646  1.00  0.00    -0.147 C  
BRANCH  19  20
HETATM   20  C   UNL     1      -9.307  10.012  62.874  1.00  0.00    -0.290 C  
HETATM   21  C   UNL     1     -10.160  11.198  63.339  1.00  0.00    -0.439 C  
ENDBRANCH  19  20
ENDBRANCH  18  19
ENDBRANCH  13  18
ENDBRANCH   8  13
ENDBRANCH   5   6
BRANCH   5  22
HETATM   22  C   UNL     1     -13.137  10.758  71.019  1.00  0.00    -0.248 C  
BRANCH  22  23
HETATM   23  C   UNL     1     -13.276  11.868  72.077  1.00  0.00    -0.461 C  
BRANCH  23  24
HETATM   24  C   UNL     1     -13.093  13.294  71.538  1.00  0.00    -0.414 C  
HETATM   25  C   UNL     1     -14.178  14.222  72.098  1.00  0.00    -0.632 C  
ENDBRANCH  23  24
ENDBRANCH  22  23
ENDBRANCH   5  22
ENDBRANCH   4   5
ENDBRANCH   3   4
ENDBRANCH   2   3
TORSDOF 14
ENDMDL
MODEL      163
REMARK 921   NORMALIZED FREE ENERGY PREDICTED BY IDOCK:   -3.26 KCAL/MOL
REMARK 922        TOTAL FREE ENERGY PREDICTED BY IDOCK:   -7.32 KCAL/MOL
REMARK 923 INTER-LIGAND FREE ENERGY PREDICTED BY IDOCK:   -6.48 KCAL/MOL
REMARK 924 INTRA-LIGAND FREE ENERGY PREDICTED BY IDOCK:   -0.84 KCAL/MOL
REMARK 927      BINDING AFFINITY PREDICTED BY RF-SCORE:    0.00 PKD
ROOT
HETATM    1  C   UNL     1     -10.243  19.193  66.435  1.00  0.00    -0.515 C  
HETATM    2  C   UNL     1     -10.691  18.777  67.837  1.00  0.00    -0.347 C  
ENDROOT
BRANCH   2   3
HETATM    3  C   UNL     1     -10.077  17.424  68.247  1.00  0.00    -0.339 C  
BRANCH   3   4
HETATM    4  C   UNL     1     -10.736  16.247  67.495  1.00  0.00    -0.300 C  
BRANCH   4   5
HETATM    5  N   UNL     1      -9.759  15.388  66.802  1.00  0.00    -0.232 NA 
BRANCH   5   6
HETATM    6  C   UNL     1     -10.056  13.976  66.604  1.00  0.00    -0.276 C  
HETATM    7  S   UNL     1      -8.745  12.701  66.777  1.00  0.00    -0.076 SA 
HETATM    8  C   UNL     1     -10.712   9.631  68.724  1.00  0.00    -0.206 C  
HETATM    9  S   UNL     1     -11.607  13.367  66.514  1.00  0.00    -0.376 SA 
HETATM   10 ZN   UNL     1     -10.511  11.695  67.400  1.00  0.00    -0.186 Zn 
HETATM   11  S   UNL     1     -10.397   9.544  67.095  1.00  0.00    -0.247 SA 
HETATM   12  S   UNL     1     -11.111  11.289  69.408  1.00  0.00    -0.244 SA 
BRANCH   8  13
HETATM   13  N   UNL     1     -10.410   8.549  69.622  1.00  0.00    -0.214 NA 
BRANCH  13  14
HETATM   14  C   UNL     1     -10.975   8.488  70.969  1.00  0.00    -0.249 C  
BRANCH  14  15
HETATM   15  C   UNL     1     -12.116   7.445  71.076  1.00  0.00    -0.330 C  
BRANCH  15  16
HETATM   16  C   UNL     1     -11.857   6.318  72.097  1.00  0.00    -0.365 C  
HETATM   17  C   UNL     1     -10.755   6.718  73.085  1.00  0.00    -0.326 C  
ENDBRANCH  15  16
ENDBRANCH  14  15
ENDBRANCH  13  14
BRANCH  13  18
HETATM   18  C   UNL     1      -9.534   7.463  69.170  1.00  0.00    -0.149 C  
BRANCH  18  19
HETATM   19  C   UNL     1     -10.331   6.266  68.599  1.00  0.00    -0.243 C  
BRANCH  19  20
HETATM   20  C   UNL     1      -9.923   4.896  69.171  1.00  0.00    -0.252 C  
HETATM   21  C   UNL     1      -8.766   5.050  70.166  1.00  0.00    -0.130 C  
ENDBRANCH  19  20
ENDBRANCH  18  19
ENDBRANCH  13  18
ENDBRANCH   8  13
ENDBRANCH   5   6
BRANCH   5  22
HETATM   22  C   UNL     1      -8.530  15.988  66.265  1.00  0.00    -0.302 C  
BRANCH  22  23
HETATM   23  C   UNL     1      -7.323  15.996  67.223  1.00  0.00    -0.243 C  
BRANCH  23  24
HETATM   24  C   UNL     1      -6.605  17.347  67.338  1.00  0.00    -0.172 C  
HETATM   25  C   UNL     1      -5.744  17.391  68.607  1.00  0.00    -0.157 C  
ENDBRANCH  23  24
ENDBRANCH  22  23
ENDBRANCH   5  22
ENDBRANCH   4   5
ENDBRANCH   3   4
ENDBRANCH   2   3
TORSDOF 14
ENDMDL
MODEL      164
REMARK 921   NORMALIZED FREE ENERGY PREDICTED BY IDOCK:   -3.26 KCAL/MOL
REMARK 922        TOTAL FREE ENERGY PREDICTED BY IDOCK:   -7.32 KCAL/MOL
REMARK 923 INTER-LIGAND FREE ENERGY PREDICTED BY IDOCK:   -6.02 KCAL/MOL
REMARK 924 INTRA-LIGAND FREE ENERGY PREDICTED BY IDOCK:   -1.29 KCAL/MOL
REMARK 927      BINDING AFFINITY PREDICTED BY RF-SCORE:    0.00 PKD
ROOT
HETATM    1  C   UNL     1      -6.319  19.720  69.813  1.00  0.00    -0.387 C  
HETATM    2  C   UNL     1      -5.445  19.537  68.571  1.00  0.00    -0.216 C  
ENDROOT
BRANCH   2   3
HETATM    3  C   UNL     1      -5.435  18.070  68.098  1.00  0.00    -0.156 C  
BRANCH   3   4
HETATM    4  C   UNL     1      -6.063  17.918  66.696  1.00  0.00    -0.168 C  
BRANCH   4   5
HETATM    5  N   UNL     1      -7.518  18.160  66.688  1.00  0.00    -0.213 NA 
BRANCH   5   6
HETATM    6  C   UNL     1      -8.419  17.143  67.214  1.00  0.00    -0.196 C  
HETATM    7  S   UNL     1      -9.194  15.903  66.103  1.00  0.00    -0.346 SA 
HETATM    8  C   UNL     1      -9.006  12.433  68.342  1.00  0.00    -0.133 C  
HETATM    9  S   UNL     1      -8.587  16.817  68.841  1.00  0.00    -0.173 SA 
HETATM   10 ZN   UNL     1      -8.968  14.860  67.941  1.00  0.00    -0.157 Zn 
HETATM   11  S   UNL     1     -10.432  13.270  68.185  1.00  0.00    -0.250 SA 
HETATM   12  S   UNL     1      -7.462  13.426  68.422  1.00  0.00    -0.123 SA 
BRANCH   8  13
HETATM   13  N   UNL     1      -8.923  11.013  68.132  1.00  0.00    -0.145 NA 
BRANCH  13  14
HETATM   14  C   UNL     1      -8.193  10.444  67.000  1.00  0.00    -0.123 C  
BRANCH  14  15
HETATM   15  C   UNL     1      -8.791  10.886  65.640  1.00  0.00    -0.201 C  
BRANCH  15  16
HETATM   16  C   UNL     1      -9.286   9.726  64.753  1.00  0.00    -0.319 C  
HETATM   17  C   UNL     1      -8.755   8.381  65.265  1.00  0.00    -0.148 C  
ENDBRANCH  15  16
ENDBRANCH  14  15
ENDBRANCH  13  14
BRANCH  13  18
HETATM   18  C   UNL     1      -9.564  10.106  69.091  1.00  0.00    -0.212 C  
BRANCH  18  19
HETATM   19  C   UNL     1     -10.726   9.306  68.455  1.00  0.00    -0.185 C  
BRANCH  19  20
HETATM   20  C   UNL     1     -10.481   7.789  68.364  1.00  0.00    -0.207 C  
HETATM   21  C   UNL     1      -9.182   7.408  69.084  1.00  0.00    -0.147 C  
ENDBRANCH  19  20
ENDBRANCH  18  19
ENDBRANCH  13  18
ENDBRANCH   8  13
ENDBRANCH   5   6
BRANCH   5  22
HETATM   22  C   UNL     1      -8.027  19.452  66.208  1.00  0.00    -0.319 C  
BRANCH  22  23
HETATM   23  C   UNL     1      -8.848  20.261  67.231  1.00  0.00    -0.454 C  
BRANCH  23  24
HETATM   24  C   UNL     1     -10.361  20.009  67.181  1.00  0.00    -0.554 C  
HETATM   25  C   UNL     1     -10.769  19.467  65.807  1.00  0.00    -0.490 C  
ENDBRANCH  23  24
ENDBRANCH  22  23
ENDBRANCH   5  22
ENDBRANCH   4   5
ENDBRANCH   3   4
ENDBRANCH   2   3
TORSDOF 14
ENDMDL
MODEL      165
REMARK 921   NORMALIZED FREE ENERGY PREDICTED BY IDOCK:   -3.26 KCAL/MOL
REMARK 922        TOTAL FREE ENERGY PREDICTED BY IDOCK:   -7.31 KCAL/MOL
REMARK 923 INTER-LIGAND FREE ENERGY PREDICTED BY IDOCK:   -6.13 KCAL/MOL
REMARK 924 INTRA-LIGAND FREE ENERGY PREDICTED BY IDOCK:   -1.18 KCAL/MOL
REMARK 927      BINDING AFFINITY PREDICTED BY RF-SCORE:    0.00 PKD
ROOT
HETATM    1  C   UNL     1     -12.691   7.389  71.656  1.00  0.00    -0.399 C  
HETATM    2  C   UNL     1     -11.789   6.638  70.675  1.00  0.00    -0.443 C  
ENDROOT
BRANCH   2   3
HETATM    3  C   UNL     1     -10.881   5.628  71.403  1.00  0.00    -0.290 C  
BRANCH   3   4
HETATM    4  C   UNL     1      -9.668   5.224  70.537  1.00  0.00    -0.190 C  
BRANCH   4   5
HETATM    5  N   UNL     1      -8.415   5.871  70.965  1.00  0.00    -0.123 NA 
BRANCH   5   6
HETATM    6  C   UNL     1      -8.138   7.242  70.558  1.00  0.00    -0.109 C  
HETATM    7  S   UNL     1      -7.994   7.689  68.782  1.00  0.00    -0.127 SA 
HETATM    8  C   UNL     1      -9.934  11.335  68.602  1.00  0.00    -0.204 C  
HETATM    9  S   UNL     1      -8.231   8.546  71.595  1.00  0.00    -0.152 SA 
HETATM   10 ZN   UNL     1      -8.786   9.446  69.680  1.00  0.00    -0.108 Zn 
HETATM   11  S   UNL     1      -8.275  11.250  68.578  1.00  0.00    -0.148 SA 
HETATM   12  S   UNL     1     -10.817  10.101  69.637  1.00  0.00    -0.280 SA 
BRANCH   8  13
HETATM   13  N   UNL     1     -10.674  12.121  67.652  1.00  0.00    -0.214 NA 
BRANCH  13  14
HETATM   14  C   UNL     1     -11.006  11.609  66.323  1.00  0.00    -0.289 C  
BRANCH  14  15
HETATM   15  C   UNL     1     -12.029  12.512  65.589  1.00  0.00    -0.492 C  
BRANCH  15  16
HETATM   16  C   UNL     1     -12.125  12.266  64.071  1.00  0.00    -0.563 C  
HETATM   17  C   UNL     1     -10.737  12.013  63.469  1.00  0.00    -0.513 C  
ENDBRANCH  15  16
ENDBRANCH  14  15
ENDBRANCH  13  14
BRANCH  13  18
HETATM   18  C   UNL     1     -11.134  13.462  68.032  1.00  0.00    -0.255 C  
BRANCH  18  19
HETATM   19  C   UNL     1      -9.962  14.456  68.206  1.00  0.00    -0.232 C  
BRANCH  19  20
HETATM   20  C   UNL     1      -9.302  14.901  66.888  1.00  0.00    -0.258 C  
HETATM   21  C   UNL     1     -10.352  15.459  65.920  1.00  0.00    -0.359 C  
ENDBRANCH  19  20
ENDBRANCH  18  19
ENDBRANCH  13  18
ENDBRANCH   8  13
ENDBRANCH   5   6
BRANCH   5  22
HETATM   22  C   UNL     1      -7.497   5.141  71.850  1.00  0.00    -0.094 C  
BRANCH  22  23
HETATM   23  C   UNL     1      -8.097   4.681  73.192  1.00  0.00    -0.100 C  
BRANCH  23  24
HETATM   24  C   UNL     1      -8.092   5.747  74.296  1.00  0.00    -0.104 C  
HETATM   25  C   UNL     1      -6.715   6.415  74.391  1.00  0.00    -0.081 C  
ENDBRANCH  23  24
ENDBRANCH  22  23
ENDBRANCH   5  22
ENDBRANCH   4   5
ENDBRANCH   3   4
ENDBRANCH   2   3
TORSDOF 14
ENDMDL
MODEL      166
REMARK 921   NORMALIZED FREE ENERGY PREDICTED BY IDOCK:   -3.26 KCAL/MOL
REMARK 922        TOTAL FREE ENERGY PREDICTED BY IDOCK:   -7.31 KCAL/MOL
REMARK 923 INTER-LIGAND FREE ENERGY PREDICTED BY IDOCK:   -6.57 KCAL/MOL
REMARK 924 INTRA-LIGAND FREE ENERGY PREDICTED BY IDOCK:   -0.74 KCAL/MOL
REMARK 927      BINDING AFFINITY PREDICTED BY RF-SCORE:    0.00 PKD
ROOT
HETATM    1  C   UNL     1     -11.703  14.974  71.295  1.00  0.00    -0.397 C  
HETATM    2  C   UNL     1     -12.428  15.380  70.011  1.00  0.00    -0.316 C  
ENDROOT
BRANCH   2   3
HETATM    3  C   UNL     1     -11.567  15.100  68.764  1.00  0.00    -0.369 C  
BRANCH   3   4
HETATM    4  C   UNL     1     -11.369  13.586  68.535  1.00  0.00    -0.292 C  
BRANCH   4   5
HETATM    5  N   UNL     1     -10.724  13.278  67.246  1.00  0.00    -0.254 NA 
BRANCH   5   6
HETATM    6  C   UNL     1      -9.748  12.199  67.170  1.00  0.00    -0.199 C  
HETATM    7  S   UNL     1      -9.086  11.414  68.693  1.00  0.00    -0.089 SA 
HETATM    8  C   UNL     1      -8.945   7.412  67.667  1.00  0.00    -0.126 C  
HETATM    9  S   UNL     1      -9.382  11.388  65.758  1.00  0.00    -0.216 SA 
HETATM   10 ZN   UNL     1      -9.074   9.837  67.269  1.00  0.00    -0.126 Zn 
HETATM   11  S   UNL     1      -7.562   8.334  67.701  1.00  0.00    -0.099 SA 
HETATM   12  S   UNL     1     -10.486   8.243  67.111  1.00  0.00    -0.275 SA 
BRANCH   8  13
HETATM   13  N   UNL     1      -9.025   6.127  68.307  1.00  0.00    -0.115 NA 
BRANCH  13  14
HETATM   14  C   UNL     1      -9.378   5.993  69.719  1.00  0.00    -0.149 C  
BRANCH  14  15
HETATM   15  C   UNL     1     -10.912   5.978  69.938  1.00  0.00    -0.458 C  
BRANCH  15  16
HETATM   16  C   UNL     1     -11.356   6.326  71.373  1.00  0.00    -0.353 C  
HETATM   17  C   UNL     1     -12.586   7.242  71.358  1.00  0.00    -0.423 C  
ENDBRANCH  15  16
ENDBRANCH  14  15
ENDBRANCH  13  14
BRANCH  13  18
HETATM   18  C   UNL     1      -8.774   4.915  67.520  1.00  0.00    -0.103 C  
BRANCH  18  19
HETATM   19  C   UNL     1      -8.455   3.692  68.413  1.00  0.00    -0.106 C  
BRANCH  19  20
HETATM   20  C   UNL     1      -9.333   2.457  68.141  1.00  0.00    -0.263 C  
HETATM   21  C   UNL     1      -9.212   2.021  66.676  1.00  0.00    -0.006 C  
ENDBRANCH  19  20
ENDBRANCH  18  19
ENDBRANCH  13  18
ENDBRANCH   8  13
ENDBRANCH   5   6
BRANCH   5  22
HETATM   22  C   UNL     1     -11.126  14.025  66.046  1.00  0.00    -0.303 C  
BRANCH  22  23
HETATM   23  C   UNL     1     -12.361  13.475  65.307  1.00  0.00    -0.506 C  
BRANCH  23  24
HETATM   24  C   UNL     1     -12.231  13.443  63.778  1.00  0.00    -0.482 C  
HETATM   25  C   UNL     1     -12.489  12.029  63.247  1.00  0.00    -0.544 C  
ENDBRANCH  23  24
ENDBRANCH  22  23
ENDBRANCH   5  22
ENDBRANCH   4   5
ENDBRANCH   3   4
ENDBRANCH   2   3
TORSDOF 14
ENDMDL
MODEL      167
REMARK 921   NORMALIZED FREE ENERGY PREDICTED BY IDOCK:   -3.26 KCAL/MOL
REMARK 922        TOTAL FREE ENERGY PREDICTED BY IDOCK:   -7.30 KCAL/MOL
REMARK 923 INTER-LIGAND FREE ENERGY PREDICTED BY IDOCK:   -5.91 KCAL/MOL
REMARK 924 INTRA-LIGAND FREE ENERGY PREDICTED BY IDOCK:   -1.39 KCAL/MOL
REMARK 927      BINDING AFFINITY PREDICTED BY RF-SCORE:    0.00 PKD
ROOT
HETATM    1  C   UNL     1     -10.868  12.564  63.621  1.00  0.00    -0.486 C  
HETATM    2  C   UNL     1     -10.230  11.243  64.052  1.00  0.00    -0.403 C  
ENDROOT
BRANCH   2   3
HETATM    3  C   UNL     1     -10.623  10.870  65.494  1.00  0.00    -0.240 C  
BRANCH   3   4
HETATM    4  C   UNL     1     -10.053   9.495  65.904  1.00  0.00    -0.214 C  
BRANCH   4   5
HETATM    5  N   UNL     1      -8.691   9.579  66.462  1.00  0.00    -0.133 NA 
BRANCH   5   6
HETATM    6  C   UNL     1      -8.345  10.683  67.348  1.00  0.00    -0.119 C  
HETATM    7  S   UNL     1      -7.136  11.965  66.831  1.00  0.00    -0.008 SA 
HETATM    8  C   UNL     1      -8.830  15.448  68.276  1.00  0.00    -0.176 C  
HETATM    9  S   UNL     1      -9.201  11.055  68.731  1.00  0.00    -0.128 SA 
HETATM   10 ZN   UNL     1      -8.476  13.020  68.100  1.00  0.00    -0.124 Zn 
HETATM   11  S   UNL     1      -7.545  14.738  69.053  1.00  0.00    -0.142 SA 
HETATM   12  S   UNL     1     -10.054  14.323  67.494  1.00  0.00    -0.237 SA 
BRANCH   8  13
HETATM   13  N   UNL     1      -8.856  16.851  67.961  1.00  0.00    -0.211 NA 
BRANCH  13  14
HETATM   14  C   UNL     1      -7.628  17.636  67.851  1.00  0.00    -0.210 C  
BRANCH  14  15
HETATM   15  C   UNL     1      -7.558  18.761  68.914  1.00  0.00    -0.312 C  
BRANCH  15  16
HETATM   16  C   UNL     1      -6.715  19.982  68.497  1.00  0.00    -0.342 C  
HETATM   17  C   UNL     1      -6.605  20.076  66.971  1.00  0.00    -0.237 C  
ENDBRANCH  15  16
ENDBRANCH  14  15
ENDBRANCH  13  14
BRANCH  13  18
HETATM   18  C   UNL     1     -10.144  17.509  67.716  1.00  0.00    -0.330 C  
BRANCH  18  19
HETATM   19  C   UNL     1     -10.232  18.116  66.295  1.00  0.00    -0.401 C  
BRANCH  19  20
HETATM   20  C   UNL     1     -10.461  19.637  66.265  1.00  0.00    -0.621 C  
HETATM   21  C   UNL     1     -10.630  20.187  67.686  1.00  0.00    -0.332 C  
ENDBRANCH  19  20
ENDBRANCH  18  19
ENDBRANCH  13  18
ENDBRANCH   8  13
ENDBRANCH   5   6
BRANCH   5  22
HETATM   22  C   UNL     1      -7.727   8.511  66.166  1.00  0.00    -0.093 C  
BRANCH  22  23
HETATM   23  C   UNL     1      -8.032   7.673  64.909  1.00  0.00    -0.135 C  
BRANCH  23  24
HETATM   24  C   UNL     1      -7.426   8.223  63.611  1.00  0.00    -0.118 C  
HETATM   25  C   UNL     1      -8.532   8.709  62.667  1.00  0.00    -0.163 C  
ENDBRANCH  23  24
ENDBRANCH  22  23
ENDBRANCH   5  22
ENDBRANCH   4   5
ENDBRANCH   3   4
ENDBRANCH   2   3
TORSDOF 14
ENDMDL
MODEL      168
REMARK 921   NORMALIZED FREE ENERGY PREDICTED BY IDOCK:   -3.25 KCAL/MOL
REMARK 922        TOTAL FREE ENERGY PREDICTED BY IDOCK:   -7.29 KCAL/MOL
REMARK 923 INTER-LIGAND FREE ENERGY PREDICTED BY IDOCK:   -6.56 KCAL/MOL
REMARK 924 INTRA-LIGAND FREE ENERGY PREDICTED BY IDOCK:   -0.73 KCAL/MOL
REMARK 927      BINDING AFFINITY PREDICTED BY RF-SCORE:    0.00 PKD
ROOT
HETATM    1  C   UNL     1      -6.623  17.024  66.712  1.00  0.00    -0.262 C  
HETATM    2  C   UNL     1      -7.725  17.354  67.720  1.00  0.00    -0.200 C  
ENDROOT
BRANCH   2   3
HETATM    3  C   UNL     1      -9.116  16.968  67.182  1.00  0.00    -0.232 C  
BRANCH   3   4
HETATM    4  C   UNL     1      -9.015  16.025  65.963  1.00  0.00    -0.310 C  
BRANCH   4   5
HETATM    5  N   UNL     1      -9.877  14.835  66.083  1.00  0.00    -0.295 NA 
BRANCH   5   6
HETATM    6  C   UNL     1      -9.299  13.568  66.510  1.00  0.00    -0.215 C  
HETATM    7  S   UNL     1      -8.806  13.296  68.259  1.00  0.00    -0.137 SA 
HETATM    8  C   UNL     1     -10.005   9.400  68.945  1.00  0.00    -0.179 C  
HETATM    9  S   UNL     1      -9.312  12.189  65.571  1.00  0.00     0.115 SA 
HETATM   10 ZN   UNL     1      -9.396  11.364  67.595  1.00  0.00    -0.145 Zn 
HETATM   11  S   UNL     1      -8.405   9.767  68.690  1.00  0.00    -0.114 SA 
HETATM   12  S   UNL     1     -11.244  10.379  68.006  1.00  0.00    -0.198 SA 
BRANCH   8  13
HETATM   13  N   UNL     1     -10.437   8.577  70.043  1.00  0.00    -0.219 NA 
BRANCH  13  14
HETATM   14  C   UNL     1     -10.730   9.144  71.358  1.00  0.00    -0.343 C  
BRANCH  14  15
HETATM   15  C   UNL     1     -11.986   8.506  72.002  1.00  0.00    -0.427 C  
BRANCH  15  16
HETATM   16  C   UNL     1     -13.216   9.434  72.062  1.00  0.00    -0.529 C  
HETATM   17  C   UNL     1     -12.891  10.810  71.469  1.00  0.00    -0.567 C  
ENDBRANCH  15  16
ENDBRANCH  14  15
ENDBRANCH  13  14
BRANCH  13  18
HETATM   18  C   UNL     1     -10.617   7.136  69.835  1.00  0.00    -0.230 C  
BRANCH  18  19
HETATM   19  C   UNL     1      -9.392   6.318  70.310  1.00  0.00    -0.170 C  
BRANCH  19  20
HETATM   20  C   UNL     1      -8.757   5.433  69.224  1.00  0.00    -0.105 C  
HETATM   21  C   UNL     1      -8.649   6.196  67.899  1.00  0.00    -0.114 C  
ENDBRANCH  19  20
ENDBRANCH  18  19
ENDBRANCH  13  18
ENDBRANCH   8  13
ENDBRANCH   5   6
BRANCH   5  22
HETATM   22  C   UNL     1     -11.319  14.967  65.833  1.00  0.00    -0.306 C  
BRANCH  22  23
HETATM   23  C   UNL     1     -12.170  13.738  66.204  1.00  0.00    -0.499 C  
BRANCH  23  24
HETATM   24  C   UNL     1     -12.820  13.024  65.011  1.00  0.00    -0.365 C  
HETATM   25  C   UNL     1     -12.143  13.444  63.701  1.00  0.00    -0.513 C  
ENDBRANCH  23  24
ENDBRANCH  22  23
ENDBRANCH   5  22
ENDBRANCH   4   5
ENDBRANCH   3   4
ENDBRANCH   2   3
TORSDOF 14
ENDMDL
MODEL      169
REMARK 921   NORMALIZED FREE ENERGY PREDICTED BY IDOCK:   -3.24 KCAL/MOL
REMARK 922        TOTAL FREE ENERGY PREDICTED BY IDOCK:   -7.27 KCAL/MOL
REMARK 923 INTER-LIGAND FREE ENERGY PREDICTED BY IDOCK:   -6.27 KCAL/MOL
REMARK 924 INTRA-LIGAND FREE ENERGY PREDICTED BY IDOCK:   -1.00 KCAL/MOL
REMARK 927      BINDING AFFINITY PREDICTED BY RF-SCORE:    0.00 PKD
ROOT
HETATM    1  C   UNL     1     -11.102   1.895  73.225  1.00  0.00    -0.274 C  
HETATM    2  C   UNL     1     -10.644   3.267  73.722  1.00  0.00    -0.274 C  
ENDROOT
BRANCH   2   3
HETATM    3  C   UNL     1     -10.633   4.305  72.583  1.00  0.00    -0.215 C  
BRANCH   3   4
HETATM    4  C   UNL     1     -11.633   5.451  72.847  1.00  0.00    -0.228 C  
BRANCH   4   5
HETATM    5  N   UNL     1     -11.238   6.718  72.205  1.00  0.00    -0.249 NA 
BRANCH   5   6
HETATM    6  C   UNL     1     -10.341   6.693  71.057  1.00  0.00    -0.207 C  
HETATM    7  S   UNL     1     -10.998   6.561  69.346  1.00  0.00    -0.353 SA 
HETATM    8  C   UNL     1      -8.570   9.156  67.236  1.00  0.00    -0.118 C  
HETATM    9  S   UNL     1      -8.720   7.080  71.148  1.00  0.00    -0.137 SA 
HETATM   10 ZN   UNL     1      -9.227   7.714  69.117  1.00  0.00    -0.136 Zn 
HETATM   11  S   UNL     1      -8.351   7.512  67.137  1.00  0.00    -0.123 SA 
HETATM   12  S   UNL     1      -9.102   9.829  68.860  1.00  0.00    -0.155 SA 
BRANCH   8  13
HETATM   13  N   UNL     1      -8.636   9.992  66.068  1.00  0.00    -0.135 NA 
BRANCH  13  14
HETATM   14  C   UNL     1      -9.736   9.887  65.110  1.00  0.00    -0.306 C  
BRANCH  14  15
HETATM   15  C   UNL     1      -9.305  10.301  63.680  1.00  0.00    -0.338 C  
BRANCH  15  16
HETATM   16  C   UNL     1     -10.004  11.565  63.143  1.00  0.00    -0.404 C  
HETATM   17  C   UNL     1     -11.364  11.769  63.822  1.00  0.00    -0.524 C  
ENDBRANCH  15  16
ENDBRANCH  14  15
ENDBRANCH  13  14
BRANCH  13  18
HETATM   18  C   UNL     1      -7.591  10.996  65.841  1.00  0.00     0.007 C  
BRANCH  18  19
HETATM   19  C   UNL     1      -6.169  10.389  65.921  1.00  0.00    -0.118 C  
BRANCH  19  20
HETATM   20  C   UNL     1      -5.768   9.544  64.699  1.00  0.00    -0.071 C  
HETATM   21  C   UNL     1      -5.548  10.437  63.472  1.00  0.00    -0.150 C  
ENDBRANCH  19  20
ENDBRANCH  18  19
ENDBRANCH  13  18
ENDBRANCH   8  13
ENDBRANCH   5   6
BRANCH   5  22
HETATM   22  C   UNL     1     -11.810   7.979  72.695  1.00  0.00    -0.321 C  
BRANCH  22  23
HETATM   23  C   UNL     1     -12.975   8.547  71.861  1.00  0.00    -0.394 C  
BRANCH  23  24
HETATM   24  C   UNL     1     -13.195  10.058  72.014  1.00  0.00    -0.545 C  
HETATM   25  C   UNL     1     -12.438  10.824  70.922  1.00  0.00    -0.500 C  
ENDBRANCH  23  24
ENDBRANCH  22  23
ENDBRANCH   5  22
ENDBRANCH   4   5
ENDBRANCH   3   4
ENDBRANCH   2   3
TORSDOF 14
ENDMDL
MODEL      170
REMARK 921   NORMALIZED FREE ENERGY PREDICTED BY IDOCK:   -3.23 KCAL/MOL
REMARK 922        TOTAL FREE ENERGY PREDICTED BY IDOCK:   -7.26 KCAL/MOL
REMARK 923 INTER-LIGAND FREE ENERGY PREDICTED BY IDOCK:   -6.28 KCAL/MOL
REMARK 924 INTRA-LIGAND FREE ENERGY PREDICTED BY IDOCK:   -0.99 KCAL/MOL
REMARK 927      BINDING AFFINITY PREDICTED BY RF-SCORE:    0.00 PKD
ROOT
HETATM    1  C   UNL     1     -12.624  12.611  64.739  1.00  0.00    -0.530 C  
HETATM    2  C   UNL     1     -12.179  13.566  65.848  1.00  0.00    -0.507 C  
ENDROOT
BRANCH   2   3
HETATM    3  C   UNL     1     -10.665  13.456  66.114  1.00  0.00    -0.288 C  
BRANCH   3   4
HETATM    4  C   UNL     1     -10.349  13.468  67.625  1.00  0.00    -0.239 C  
BRANCH   4   5
HETATM    5  N   UNL     1     -10.765  12.231  68.310  1.00  0.00    -0.213 NA 
BRANCH   5   6
HETATM    6  C   UNL     1     -10.088  10.977  68.004  1.00  0.00    -0.179 C  
HETATM    7  S   UNL     1      -8.595  10.457  68.939  1.00  0.00    -0.157 SA 
HETATM    8  C   UNL     1      -9.194   6.397  69.425  1.00  0.00    -0.143 C  
HETATM    9  S   UNL     1     -10.746   9.789  67.034  1.00  0.00    -0.103 SA 
HETATM   10 ZN   UNL     1      -9.534   8.620  68.429  1.00  0.00    -0.133 Zn 
HETATM   11  S   UNL     1      -8.122   6.971  68.292  1.00  0.00    -0.124 SA 
HETATM   12  S   UNL     1     -10.714   7.387  69.711  1.00  0.00    -0.228 SA 
BRANCH   8  13
HETATM   13  N   UNL     1      -8.843   5.354  70.352  1.00  0.00    -0.127 NA 
BRANCH  13  14
HETATM   14  C   UNL     1      -8.364   4.050  69.896  1.00  0.00    -0.060 C  
BRANCH  14  15
HETATM   15  C   UNL     1      -9.498   3.198  69.273  1.00  0.00    -0.179 C  
BRANCH  15  16
HETATM   16  C   UNL     1      -9.066   2.348  68.061  1.00  0.00    -0.225 C  
HETATM   17  C   UNL     1      -8.349   3.211  67.016  1.00  0.00    -0.090 C  
ENDBRANCH  15  16
ENDBRANCH  14  15
ENDBRANCH  13  14
BRANCH  13  18
HETATM   18  C   UNL     1      -8.943   5.610  71.793  1.00  0.00    -0.136 C  
BRANCH  18  19
HETATM   19  C   UNL     1      -9.986   4.696  72.480  1.00  0.00    -0.220 C  
BRANCH  19  20
HETATM   20  C   UNL     1     -10.896   5.416  73.491  1.00  0.00    -0.342 C  
HETATM   21  C   UNL     1     -10.628   6.926  73.480  1.00  0.00    -0.378 C  
ENDBRANCH  19  20
ENDBRANCH  18  19
ENDBRANCH  13  18
ENDBRANCH   8  13
ENDBRANCH   5   6
BRANCH   5  22
HETATM   22  C   UNL     1     -11.813  12.297  69.337  1.00  0.00    -0.310 C  
BRANCH  22  23
HETATM   23  C   UNL     1     -11.711  11.244  70.457  1.00  0.00    -0.345 C  
BRANCH  23  24
HETATM   24  C   UNL     1     -12.966  11.114  71.330  1.00  0.00    -0.506 C  
HETATM   25  C   UNL     1     -13.272  12.443  72.030  1.00  0.00    -0.514 C  
ENDBRANCH  23  24
ENDBRANCH  22  23
ENDBRANCH   5  22
ENDBRANCH   4   5
ENDBRANCH   3   4
ENDBRANCH   2   3
TORSDOF 14
ENDMDL
MODEL      171
REMARK 921   NORMALIZED FREE ENERGY PREDICTED BY IDOCK:   -3.23 KCAL/MOL
REMARK 922        TOTAL FREE ENERGY PREDICTED BY IDOCK:   -7.26 KCAL/MOL
REMARK 923 INTER-LIGAND FREE ENERGY PREDICTED BY IDOCK:   -6.23 KCAL/MOL
REMARK 924 INTRA-LIGAND FREE ENERGY PREDICTED BY IDOCK:   -1.03 KCAL/MOL
REMARK 927      BINDING AFFINITY PREDICTED BY RF-SCORE:    0.00 PKD
ROOT
HETATM    1  C   UNL     1     -10.256  10.932  64.699  1.00  0.00    -0.411 C  
HETATM    2  C   UNL     1      -9.477   9.615  64.682  1.00  0.00    -0.221 C  
ENDROOT
BRANCH   2   3
HETATM    3  C   UNL     1      -9.680   8.822  65.988  1.00  0.00    -0.276 C  
BRANCH   3   4
HETATM    4  C   UNL     1      -8.414   8.029  66.377  1.00  0.00    -0.136 C  
BRANCH   4   5
HETATM    5  N   UNL     1      -8.038   8.203  67.791  1.00  0.00    -0.126 NA 
BRANCH   5   6
HETATM    6  C   UNL     1      -7.707   9.533  68.288  1.00  0.00    -0.086 C  
HETATM    7  S   UNL     1      -6.747  10.714  67.259  1.00  0.00    -0.082 SA 
HETATM    8  C   UNL     1      -8.631  14.315  68.011  1.00  0.00    -0.169 C  
HETATM    9  S   UNL     1      -8.399  10.204  69.650  1.00  0.00    -0.125 SA 
HETATM   10 ZN   UNL     1      -8.013  11.969  68.416  1.00  0.00    -0.103 Zn 
HETATM   11  S   UNL     1      -7.173  13.952  68.719  1.00  0.00    -0.099 SA 
HETATM   12  S   UNL     1      -9.808  12.925  67.766  1.00  0.00    -0.227 SA 
BRANCH   8  13
HETATM   13  N   UNL     1      -8.871  15.570  67.350  1.00  0.00    -0.184 NA 
BRANCH  13  14
HETATM   14  C   UNL     1      -8.596  16.847  68.006  1.00  0.00    -0.214 C  
BRANCH  14  15
HETATM   15  C   UNL     1      -9.817  17.368  68.804  1.00  0.00    -0.311 C  
BRANCH  15  16
HETATM   16  C   UNL     1     -10.096  18.875  68.635  1.00  0.00    -0.447 C  
HETATM   17  C   UNL     1     -10.671  19.172  67.244  1.00  0.00    -0.585 C  
ENDBRANCH  15  16
ENDBRANCH  14  15
ENDBRANCH  13  14
BRANCH  13  18
HETATM   18  C   UNL     1      -9.379  15.573  65.974  1.00  0.00    -0.344 C  
BRANCH  18  19
HETATM   19  C   UNL     1     -10.916  15.749  65.917  1.00  0.00    -0.191 C  
BRANCH  19  20
HETATM   20  C   UNL     1     -11.604  14.981  64.774  1.00  0.00    -0.395 C  
HETATM   21  C   UNL     1     -12.581  13.941  65.334  1.00  0.00    -0.538 C  
ENDBRANCH  19  20
ENDBRANCH  18  19
ENDBRANCH  13  18
ENDBRANCH   8  13
ENDBRANCH   5   6
BRANCH   5  22
HETATM   22  C   UNL     1      -8.067   7.042  68.690  1.00  0.00    -0.121 C  
BRANCH  22  23
HETATM   23  C   UNL     1      -9.327   6.160  68.592  1.00  0.00    -0.121 C  
BRANCH  23  24
HETATM   24  C   UNL     1     -10.008   5.865  69.935  1.00  0.00    -0.238 C  
HETATM   25  C   UNL     1     -11.456   6.369  69.924  1.00  0.00    -0.483 C  
ENDBRANCH  23  24
ENDBRANCH  22  23
ENDBRANCH   5  22
ENDBRANCH   4   5
ENDBRANCH   3   4
ENDBRANCH   2   3
TORSDOF 14
ENDMDL
MODEL      172
REMARK 921   NORMALIZED FREE ENERGY PREDICTED BY IDOCK:   -3.22 KCAL/MOL
REMARK 922        TOTAL FREE ENERGY PREDICTED BY IDOCK:   -7.24 KCAL/MOL
REMARK 923 INTER-LIGAND FREE ENERGY PREDICTED BY IDOCK:   -6.15 KCAL/MOL
REMARK 924 INTRA-LIGAND FREE ENERGY PREDICTED BY IDOCK:   -1.09 KCAL/MOL
REMARK 927      BINDING AFFINITY PREDICTED BY RF-SCORE:    0.00 PKD
ROOT
HETATM    1  C   UNL     1      -6.362  19.834  70.160  1.00  0.00    -0.323 C  
HETATM    2  C   UNL     1      -5.507  18.813  69.409  1.00  0.00    -0.214 C  
ENDROOT
BRANCH   2   3
HETATM    3  C   UNL     1      -6.229  17.457  69.283  1.00  0.00    -0.238 C  
BRANCH   3   4
HETATM    4  C   UNL     1      -6.652  17.169  67.826  1.00  0.00    -0.145 C  
BRANCH   4   5
HETATM    5  N   UNL     1      -8.052  17.538  67.550  1.00  0.00    -0.203 NA 
BRANCH   5   6
HETATM    6  C   UNL     1      -9.107  16.551  67.742  1.00  0.00    -0.204 C  
HETATM    7  S   UNL     1      -9.854  15.676  66.310  1.00  0.00    -0.322 SA 
HETATM    8  C   UNL     1     -10.287  11.817  67.728  1.00  0.00    -0.194 C  
HETATM    9  S   UNL     1      -9.510  15.914  69.231  1.00  0.00    -0.251 SA 
HETATM   10 ZN   UNL     1      -9.963  14.251  67.884  1.00  0.00    -0.203 Zn 
HETATM   11  S   UNL     1     -11.594  12.837  67.617  1.00  0.00    -0.370 SA 
HETATM   12  S   UNL     1      -8.676  12.575  68.184  1.00  0.00    -0.181 SA 
BRANCH   8  13
HETATM   13  N   UNL     1     -10.317  10.474  67.217  1.00  0.00    -0.215 NA 
BRANCH  13  14
HETATM   14  C   UNL     1     -11.035   9.405  67.910  1.00  0.00    -0.058 C  
BRANCH  14  15
HETATM   15  C   UNL     1     -10.331   8.988  69.226  1.00  0.00    -0.227 C  
BRANCH  15  16
HETATM   16  C   UNL     1     -10.809   9.753  70.476  1.00  0.00    -0.387 C  
HETATM   17  C   UNL     1     -12.221  10.313  70.268  1.00  0.00    -0.298 C  
ENDBRANCH  15  16
ENDBRANCH  14  15
ENDBRANCH  13  14
BRANCH  13  18
HETATM   18  C   UNL     1      -9.635  10.168  65.954  1.00  0.00    -0.218 C  
BRANCH  18  19
HETATM   19  C   UNL     1      -8.555   9.073  66.122  1.00  0.00    -0.149 C  
BRANCH  19  20
HETATM   20  C   UNL     1      -7.110   9.602  66.151  1.00  0.00    -0.094 C  
HETATM   21  C   UNL     1      -6.554   9.576  67.580  1.00  0.00    -0.063 C  
ENDBRANCH  19  20
ENDBRANCH  18  19
ENDBRANCH  13  18
ENDBRANCH   8  13
ENDBRANCH   5   6
BRANCH   5  22
HETATM   22  C   UNL     1      -8.365  18.916  67.149  1.00  0.00    -0.274 C  
BRANCH  22  23
HETATM   23  C   UNL     1      -9.297  19.688  68.101  1.00  0.00    -0.433 C  
BRANCH  23  24
HETATM   24  C   UNL     1     -10.770  19.719  67.671  1.00  0.00    -0.460 C  
HETATM   25  C   UNL     1     -10.891  19.499  66.159  1.00  0.00    -0.429 C  
ENDBRANCH  23  24
ENDBRANCH  22  23
ENDBRANCH   5  22
ENDBRANCH   4   5
ENDBRANCH   3   4
ENDBRANCH   2   3
TORSDOF 14
ENDMDL
MODEL      173
REMARK 921   NORMALIZED FREE ENERGY PREDICTED BY IDOCK:   -3.22 KCAL/MOL
REMARK 922        TOTAL FREE ENERGY PREDICTED BY IDOCK:   -7.23 KCAL/MOL
REMARK 923 INTER-LIGAND FREE ENERGY PREDICTED BY IDOCK:   -6.13 KCAL/MOL
REMARK 924 INTRA-LIGAND FREE ENERGY PREDICTED BY IDOCK:   -1.10 KCAL/MOL
REMARK 927      BINDING AFFINITY PREDICTED BY RF-SCORE:    0.00 PKD
ROOT
HETATM    1  C   UNL     1      -9.340   3.411  69.101  1.00  0.00    -0.237 C  
HETATM    2  C   UNL     1      -9.319   2.781  70.495  1.00  0.00    -0.216 C  
ENDROOT
BRANCH   2   3
HETATM    3  C   UNL     1      -8.488   3.624  71.482  1.00  0.00    -0.093 C  
BRANCH   3   4
HETATM    4  C   UNL     1      -9.288   4.833  72.014  1.00  0.00    -0.138 C  
BRANCH   4   5
HETATM    5  N   UNL     1      -9.007   6.078  71.276  1.00  0.00    -0.136 NA 
BRANCH   5   6
HETATM    6  C   UNL     1     -10.076   7.045  71.065  1.00  0.00    -0.195 C  
HETATM    7  S   UNL     1      -9.954   8.750  71.740  1.00  0.00    -0.327 SA 
HETATM    8  C   UNL     1     -11.509  11.053  68.680  1.00  0.00    -0.308 C  
HETATM    9  S   UNL     1     -11.319   6.819  69.976  1.00  0.00    -0.329 SA 
HETATM   10 ZN   UNL     1     -11.088   8.994  69.959  1.00  0.00    -0.218 Zn 
HETATM   11  S   UNL     1     -12.407  10.721  70.039  1.00  0.00    -0.241 SA 
HETATM   12  S   UNL     1     -10.382   9.731  68.083  1.00  0.00    -0.214 SA 
BRANCH   8  13
HETATM   13  N   UNL     1     -11.379  12.385  68.154  1.00  0.00    -0.267 NA 
BRANCH  13  14
HETATM   14  C   UNL     1     -10.939  13.501  68.990  1.00  0.00    -0.225 C  
BRANCH  14  15
HETATM   15  C   UNL     1     -11.961  14.666  68.991  1.00  0.00    -0.318 C  
BRANCH  15  16
HETATM   16  C   UNL     1     -11.836  15.623  70.193  1.00  0.00    -0.381 C  
HETATM   17  C   UNL     1     -11.942  14.857  71.516  1.00  0.00    -0.408 C  
ENDBRANCH  15  16
ENDBRANCH  14  15
ENDBRANCH  13  14
BRANCH  13  18
HETATM   18  C   UNL     1     -11.668  12.629  66.736  1.00  0.00    -0.392 C  
BRANCH  18  19
HETATM   19  C   UNL     1     -10.380  12.841  65.904  1.00  0.00    -0.298 C  
BRANCH  19  20
HETATM   20  C   UNL     1     -10.627  13.176  64.422  1.00  0.00    -0.441 C  
HETATM   21  C   UNL     1     -10.175  12.018  63.524  1.00  0.00    -0.477 C  
ENDBRANCH  19  20
ENDBRANCH  18  19
ENDBRANCH  13  18
ENDBRANCH   8  13
ENDBRANCH   5   6
BRANCH   5  22
HETATM   22  C   UNL     1      -7.636   6.349  70.824  1.00  0.00    -0.096 C  
BRANCH  22  23
HETATM   23  C   UNL     1      -7.496   6.772  69.349  1.00  0.00    -0.094 C  
BRANCH  23  24
HETATM   24  C   UNL     1      -6.527   7.937  69.105  1.00  0.00    -0.036 C  
HETATM   25  C   UNL     1      -6.397   8.799  70.366  1.00  0.00    -0.040 C  
ENDBRANCH  23  24
ENDBRANCH  22  23
ENDBRANCH   5  22
ENDBRANCH   4   5
ENDBRANCH   3   4
ENDBRANCH   2   3
TORSDOF 14
ENDMDL
MODEL      174
REMARK 921   NORMALIZED FREE ENERGY PREDICTED BY IDOCK:   -3.20 KCAL/MOL
REMARK 922        TOTAL FREE ENERGY PREDICTED BY IDOCK:   -7.19 KCAL/MOL
REMARK 923 INTER-LIGAND FREE ENERGY PREDICTED BY IDOCK:   -5.95 KCAL/MOL
REMARK 924 INTRA-LIGAND FREE ENERGY PREDICTED BY IDOCK:   -1.24 KCAL/MOL
REMARK 927      BINDING AFFINITY PREDICTED BY RF-SCORE:    0.00 PKD
ROOT
HETATM    1  C   UNL     1     -12.530  12.621  64.817  1.00  0.00    -0.555 C  
HETATM    2  C   UNL     1     -12.181  13.900  64.055  1.00  0.00    -0.413 C  
ENDROOT
BRANCH   2   3
HETATM    3  C   UNL     1     -11.562  14.960  64.987  1.00  0.00    -0.357 C  
BRANCH   3   4
HETATM    4  C   UNL     1     -10.022  14.855  65.026  1.00  0.00    -0.170 C  
BRANCH   4   5
HETATM    5  N   UNL     1      -9.446  15.326  66.298  1.00  0.00    -0.287 NA 
BRANCH   5   6
HETATM    6  C   UNL     1      -8.940  14.355  67.261  1.00  0.00    -0.212 C  
HETATM    7  S   UNL     1     -10.030  13.041  67.939  1.00  0.00    -0.236 SA 
HETATM    8  C   UNL     1      -7.538   9.745  68.020  1.00  0.00    -0.082 C  
HETATM    9  S   UNL     1      -7.318  14.151  67.594  1.00  0.00    -0.176 SA 
HETATM   10 ZN   UNL     1      -8.107  12.135  67.910  1.00  0.00    -0.107 Zn 
HETATM   11  S   UNL     1      -7.896  10.577  69.413  1.00  0.00    -0.120 SA 
HETATM   12  S   UNL     1      -7.376  10.731  66.478  1.00  0.00    -0.143 SA 
BRANCH   8  13
HETATM   13  N   UNL     1      -7.634   8.312  67.936  1.00  0.00    -0.100 NA 
BRANCH  13  14
HETATM   14  C   UNL     1      -6.830   7.437  68.788  1.00  0.00    -0.072 C  
BRANCH  14  15
HETATM   15  C   UNL     1      -7.589   7.012  70.069  1.00  0.00    -0.099 C  
BRANCH  15  16
HETATM   16  C   UNL     1      -7.844   5.496  70.188  1.00  0.00    -0.089 C  
HETATM   17  C   UNL     1      -7.420   4.769  68.906  1.00  0.00    -0.061 C  
ENDBRANCH  15  16
ENDBRANCH  14  15
ENDBRANCH  13  14
BRANCH  13  18
HETATM   18  C   UNL     1      -8.583   7.709  66.994  1.00  0.00    -0.122 C  
BRANCH  18  19
HETATM   19  C   UNL     1     -10.038   8.168  67.252  1.00  0.00    -0.309 C  
BRANCH  19  20
HETATM   20  C   UNL     1     -11.085   7.043  67.177  1.00  0.00    -0.298 C  
HETATM   21  C   UNL     1     -11.128   6.257  68.493  1.00  0.00    -0.397 C  
ENDBRANCH  19  20
ENDBRANCH  18  19
ENDBRANCH  13  18
ENDBRANCH   8  13
ENDBRANCH   5   6
BRANCH   5  22
HETATM   22  C   UNL     1      -9.332  16.770  66.544  1.00  0.00    -0.264 C  
BRANCH  22  23
HETATM   23  C   UNL     1     -10.280  17.335  67.619  1.00  0.00    -0.333 C  
BRANCH  23  24
HETATM   24  C   UNL     1     -10.583  18.833  67.482  1.00  0.00    -0.497 C  
HETATM   25  C   UNL     1     -10.762  19.211  66.007  1.00  0.00    -0.451 C  
ENDBRANCH  23  24
ENDBRANCH  22  23
ENDBRANCH   5  22
ENDBRANCH   4   5
ENDBRANCH   3   4
ENDBRANCH   2   3
TORSDOF 14
ENDMDL
MODEL      175
REMARK 921   NORMALIZED FREE ENERGY PREDICTED BY IDOCK:   -3.19 KCAL/MOL
REMARK 922        TOTAL FREE ENERGY PREDICTED BY IDOCK:   -7.18 KCAL/MOL
REMARK 923 INTER-LIGAND FREE ENERGY PREDICTED BY IDOCK:   -6.34 KCAL/MOL
REMARK 924 INTRA-LIGAND FREE ENERGY PREDICTED BY IDOCK:   -0.84 KCAL/MOL
REMARK 927      BINDING AFFINITY PREDICTED BY RF-SCORE:    0.00 PKD
ROOT
HETATM    1  C   UNL     1     -10.572  15.098  65.014  1.00  0.00    -0.439 C  
HETATM    2  C   UNL     1     -11.997  14.645  64.692  1.00  0.00    -0.472 C  
ENDROOT
BRANCH   2   3
HETATM    3  C   UNL     1     -12.469  13.537  65.654  1.00  0.00    -0.528 C  
BRANCH   3   4
HETATM    4  C   UNL     1     -11.282  12.726  66.216  1.00  0.00    -0.300 C  
BRANCH   4   5
HETATM    5  N   UNL     1     -11.243  12.708  67.689  1.00  0.00    -0.266 NA 
BRANCH   5   6
HETATM    6  C   UNL     1     -10.331  11.801  68.373  1.00  0.00    -0.214 C  
HETATM    7  S   UNL     1     -10.934  10.667  69.687  1.00  0.00    -0.280 SA 
HETATM    8  C   UNL     1      -8.842   7.187  68.914  1.00  0.00    -0.130 C  
HETATM    9  S   UNL     1      -8.779  11.488  67.847  1.00  0.00    -0.150 SA 
HETATM   10 ZN   UNL     1      -9.331   9.595  68.793  1.00  0.00    -0.132 Zn 
HETATM   11  S   UNL     1      -8.401   8.187  70.165  1.00  0.00    -0.127 SA 
HETATM   12  S   UNL     1      -9.487   7.990  67.393  1.00  0.00    -0.158 SA 
BRANCH   8  13
HETATM   13  N   UNL     1      -9.000   5.768  69.086  1.00  0.00    -0.118 NA 
BRANCH  13  14
HETATM   14  C   UNL     1      -8.405   4.810  68.155  1.00  0.00    -0.098 C  
BRANCH  14  15
HETATM   15  C   UNL     1      -7.013   4.322  68.631  1.00  0.00    -0.051 C  
BRANCH  15  16
HETATM   16  C   UNL     1      -6.997   2.887  69.195  1.00  0.00    -0.041 C  
HETATM   17  C   UNL     1      -7.252   1.861  68.084  1.00  0.00    -0.043 C  
ENDBRANCH  15  16
ENDBRANCH  14  15
ENDBRANCH  13  14
BRANCH  13  18
HETATM   18  C   UNL     1      -9.753   5.263  70.239  1.00  0.00    -0.195 C  
BRANCH  18  19
HETATM   19  C   UNL     1     -11.184   5.849  70.307  1.00  0.00    -0.317 C  
BRANCH  19  20
HETATM   20  C   UNL     1     -11.625   6.294  71.713  1.00  0.00    -0.358 C  
HETATM   21  C   UNL     1     -12.710   7.373  71.623  1.00  0.00    -0.399 C  
ENDBRANCH  19  20
ENDBRANCH  18  19
ENDBRANCH  13  18
ENDBRANCH   8  13
ENDBRANCH   5   6
BRANCH   5  22
HETATM   22  C   UNL     1     -12.080  13.653  68.440  1.00  0.00    -0.277 C  
BRANCH  22  23
HETATM   23  C   UNL     1     -11.344  14.490  69.504  1.00  0.00    -0.313 C  
BRANCH  23  24
HETATM   24  C   UNL     1     -12.144  15.680  70.049  1.00  0.00    -0.379 C  
HETATM   25  C   UNL     1     -11.702  16.014  71.479  1.00  0.00    -0.554 C  
ENDBRANCH  23  24
ENDBRANCH  22  23
ENDBRANCH   5  22
ENDBRANCH   4   5
ENDBRANCH   3   4
ENDBRANCH   2   3
TORSDOF 14
ENDMDL
MODEL      176
REMARK 921   NORMALIZED FREE ENERGY PREDICTED BY IDOCK:   -3.18 KCAL/MOL
REMARK 922        TOTAL FREE ENERGY PREDICTED BY IDOCK:   -7.17 KCAL/MOL
REMARK 923 INTER-LIGAND FREE ENERGY PREDICTED BY IDOCK:   -5.94 KCAL/MOL
REMARK 924 INTRA-LIGAND FREE ENERGY PREDICTED BY IDOCK:   -1.23 KCAL/MOL
REMARK 927      BINDING AFFINITY PREDICTED BY RF-SCORE:    0.00 PKD
ROOT
HETATM    1  C   UNL     1      -7.910   5.757  63.756  1.00  0.00    -0.110 C  
HETATM    2  C   UNL     1      -6.986   6.577  64.657  1.00  0.00    -0.054 C  
ENDROOT
BRANCH   2   3
HETATM    3  C   UNL     1      -7.471   6.568  66.120  1.00  0.00    -0.081 C  
BRANCH   3   4
HETATM    4  C   UNL     1      -8.997   6.354  66.214  1.00  0.00    -0.156 C  
BRANCH   4   5
HETATM    5  N   UNL     1      -9.648   7.267  67.171  1.00  0.00    -0.151 NA 
BRANCH   5   6
HETATM    6  C   UNL     1      -9.087   8.593  67.395  1.00  0.00    -0.133 C  
HETATM    7  S   UNL     1      -9.271   9.921  66.139  1.00  0.00    -0.179 SA 
HETATM    8  C   UNL     1     -10.012  13.265  68.454  1.00  0.00    -0.226 C  
HETATM    9  S   UNL     1      -8.519   9.113  68.875  1.00  0.00    -0.131 SA 
HETATM   10 ZN   UNL     1      -9.246  10.974  67.985  1.00  0.00    -0.135 Zn 
HETATM   11  S   UNL     1      -8.517  13.012  67.774  1.00  0.00    -0.203 SA 
HETATM   12  S   UNL     1     -10.930  11.779  69.022  1.00  0.00    -0.209 SA 
BRANCH   8  13
HETATM   13  N   UNL     1     -10.699  14.524  68.348  1.00  0.00    -0.237 NA 
BRANCH  13  14
HETATM   14  C   UNL     1     -10.245  15.709  69.074  1.00  0.00    -0.225 C  
BRANCH  14  15
HETATM   15  C   UNL     1      -9.542  16.729  68.144  1.00  0.00    -0.242 C  
BRANCH  15  16
HETATM   16  C   UNL     1     -10.209  18.119  68.100  1.00  0.00    -0.400 C  
HETATM   17  C   UNL     1      -9.584  18.990  67.003  1.00  0.00    -0.364 C  
ENDBRANCH  15  16
ENDBRANCH  14  15
ENDBRANCH  13  14
BRANCH  13  18
HETATM   18  C   UNL     1     -11.869  14.633  67.470  1.00  0.00    -0.347 C  
BRANCH  18  19
HETATM   19  C   UNL     1     -11.591  14.080  66.052  1.00  0.00    -0.362 C  
BRANCH  19  20
HETATM   20  C   UNL     1     -10.623  14.934  65.213  1.00  0.00    -0.421 C  
HETATM   21  C   UNL     1     -11.330  16.187  64.682  1.00  0.00    -0.287 C  
ENDBRANCH  19  20
ENDBRANCH  18  19
ENDBRANCH  13  18
ENDBRANCH   8  13
ENDBRANCH   5   6
BRANCH   5  22
HETATM   22  C   UNL     1     -10.889   6.845  67.833  1.00  0.00    -0.218 C  
BRANCH  22  23
HETATM   23  C   UNL     1     -10.710   6.152  69.197  1.00  0.00    -0.381 C  
BRANCH  23  24
HETATM   24  C   UNL     1     -11.771   6.516  70.245  1.00  0.00    -0.430 C  
HETATM   25  C   UNL     1     -11.571   7.955  70.734  1.00  0.00    -0.258 C  
ENDBRANCH  23  24
ENDBRANCH  22  23
ENDBRANCH   5  22
ENDBRANCH   4   5
ENDBRANCH   3   4
ENDBRANCH   2   3
TORSDOF 14
ENDMDL
MODEL      177
REMARK 921   NORMALIZED FREE ENERGY PREDICTED BY IDOCK:   -3.18 KCAL/MOL
REMARK 922        TOTAL FREE ENERGY PREDICTED BY IDOCK:   -7.16 KCAL/MOL
REMARK 923 INTER-LIGAND FREE ENERGY PREDICTED BY IDOCK:   -5.83 KCAL/MOL
REMARK 924 INTRA-LIGAND FREE ENERGY PREDICTED BY IDOCK:   -1.33 KCAL/MOL
REMARK 927      BINDING AFFINITY PREDICTED BY RF-SCORE:    0.00 PKD
ROOT
HETATM    1  C   UNL     1      -6.706   8.069  67.408  1.00  0.00    -0.069 C  
HETATM    2  C   UNL     1      -6.845   7.891  68.921  1.00  0.00    -0.058 C  
ENDROOT
BRANCH   2   3
HETATM    3  C   UNL     1      -7.838   8.906  69.520  1.00  0.00    -0.094 C  
BRANCH   3   4
HETATM    4  C   UNL     1      -8.915   8.211  70.380  1.00  0.00    -0.146 C  
BRANCH   4   5
HETATM    5  N   UNL     1     -10.202   8.056  69.676  1.00  0.00    -0.203 NA 
BRANCH   5   6
HETATM    6  C   UNL     1     -10.779   9.195  68.974  1.00  0.00    -0.153 C  
HETATM    7  S   UNL     1     -11.637  10.535  69.894  1.00  0.00    -0.320 SA 
HETATM    8  C   UNL     1     -10.375  13.942  67.922  1.00  0.00    -0.240 C  
HETATM    9  S   UNL     1     -10.464   9.545  67.374  1.00  0.00    -0.266 SA 
HETATM   10 ZN   UNL     1     -10.788  11.536  68.221  1.00  0.00    -0.171 Zn 
HETATM   11  S   UNL     1     -11.897  13.324  67.668  1.00  0.00    -0.333 SA 
HETATM   12  S   UNL     1      -9.021  12.734  68.207  1.00  0.00    -0.138 SA 
BRANCH   8  13
HETATM   13  N   UNL     1     -10.151  15.335  68.203  1.00  0.00    -0.227 NA 
BRANCH  13  14
HETATM   14  C   UNL     1     -11.183  16.170  68.816  1.00  0.00    -0.365 C  
BRANCH  14  15
HETATM   15  C   UNL     1     -11.344  15.880  70.330  1.00  0.00    -0.381 C  
BRANCH  15  16
HETATM   16  C   UNL     1     -12.745  15.385  70.739  1.00  0.00    -0.516 C  
HETATM   17  C   UNL     1     -12.674  13.974  71.335  1.00  0.00    -0.442 C  
ENDBRANCH  15  16
ENDBRANCH  14  15
ENDBRANCH  13  14
BRANCH  13  18
HETATM   18  C   UNL     1      -8.847  15.930  67.892  1.00  0.00    -0.179 C  
BRANCH  18  19
HETATM   19  C   UNL     1      -7.950  16.064  69.146  1.00  0.00    -0.238 C  
BRANCH  19  20
HETATM   20  C   UNL     1      -6.545  15.455  68.993  1.00  0.00    -0.123 C  
HETATM   21  C   UNL     1      -6.114  14.760  70.290  1.00  0.00    -0.167 C  
ENDBRANCH  19  20
ENDBRANCH  18  19
ENDBRANCH  13  18
ENDBRANCH   8  13
ENDBRANCH   5   6
BRANCH   5  22
HETATM   22  C   UNL     1     -10.845   6.736  69.640  1.00  0.00    -0.271 C  
BRANCH  22  23
HETATM   23  C   UNL     1      -9.948   5.574  69.175  1.00  0.00    -0.256 C  
BRANCH  23  24
HETATM   24  C   UNL     1      -9.535   5.634  67.698  1.00  0.00    -0.119 C  
HETATM   25  C   UNL     1     -10.774   5.709  66.798  1.00  0.00    -0.358 C  
ENDBRANCH  23  24
ENDBRANCH  22  23
ENDBRANCH   5  22
ENDBRANCH   4   5
ENDBRANCH   3   4
ENDBRANCH   2   3
TORSDOF 14
ENDMDL
MODEL      178
REMARK 921   NORMALIZED FREE ENERGY PREDICTED BY IDOCK:   -3.18 KCAL/MOL
REMARK 922        TOTAL FREE ENERGY PREDICTED BY IDOCK:   -7.16 KCAL/MOL
REMARK 923 INTER-LIGAND FREE ENERGY PREDICTED BY IDOCK:   -5.87 KCAL/MOL
REMARK 924 INTRA-LIGAND FREE ENERGY PREDICTED BY IDOCK:   -1.29 KCAL/MOL
REMARK 927      BINDING AFFINITY PREDICTED BY RF-SCORE:    0.00 PKD
ROOT
HETATM    1  C   UNL     1     -10.804   5.754  70.405  1.00  0.00    -0.360 C  
HETATM    2  C   UNL     1      -9.654   6.708  70.734  1.00  0.00    -0.183 C  
ENDROOT
BRANCH   2   3
HETATM    3  C   UNL     1      -8.294   6.115  70.316  1.00  0.00    -0.125 C  
BRANCH   3   4
HETATM    4  C   UNL     1      -7.669   6.895  69.139  1.00  0.00    -0.106 C  
BRANCH   4   5
HETATM    5  N   UNL     1      -8.249   6.529  67.834  1.00  0.00    -0.115 NA 
BRANCH   5   6
HETATM    6  C   UNL     1      -8.763   7.573  66.957  1.00  0.00    -0.127 C  
HETATM    7  S   UNL     1     -10.486   8.187  67.129  1.00  0.00    -0.289 SA 
HETATM    8  C   UNL     1     -10.063  12.258  66.554  1.00  0.00    -0.215 C  
HETATM    9  S   UNL     1      -7.795   8.497  65.961  1.00  0.00    -0.101 SA 
HETATM   10 ZN   UNL     1      -9.412   9.888  66.444  1.00  0.00    -0.144 Zn 
HETATM   11  S   UNL     1     -10.670  11.286  65.351  1.00  0.00    -0.185 SA 
HETATM   12  S   UNL     1      -8.749  11.542  67.621  1.00  0.00    -0.147 SA 
BRANCH   8  13
HETATM   13  N   UNL     1     -10.708  13.481  66.950  1.00  0.00    -0.273 NA 
BRANCH  13  14
HETATM   14  C   UNL     1     -11.580  14.219  66.038  1.00  0.00    -0.360 C  
BRANCH  14  15
HETATM   15  C   UNL     1     -10.776  15.110  65.057  1.00  0.00    -0.451 C  
BRANCH  15  16
HETATM   16  C   UNL     1     -10.455  16.520  65.590  1.00  0.00    -0.341 C  
HETATM   17  C   UNL     1      -9.009  16.597  66.095  1.00  0.00    -0.321 C  
ENDBRANCH  15  16
ENDBRANCH  14  15
ENDBRANCH  13  14
BRANCH  13  18
HETATM   18  C   UNL     1     -10.512  13.989  68.313  1.00  0.00    -0.244 C  
BRANCH  18  19
HETATM   19  C   UNL     1     -11.814  14.570  68.914  1.00  0.00    -0.359 C  
BRANCH  19  20
HETATM   20  C   UNL     1     -12.241  13.930  70.247  1.00  0.00    -0.428 C  
HETATM   21  C   UNL     1     -12.034  12.411  70.208  1.00  0.00    -0.371 C  
ENDBRANCH  19  20
ENDBRANCH  18  19
ENDBRANCH  13  18
ENDBRANCH   8  13
ENDBRANCH   5   6
BRANCH   5  22
HETATM   22  C   UNL     1      -8.238   5.121  67.413  1.00  0.00    -0.107 C  
BRANCH  22  23
HETATM   23  C   UNL     1      -9.565   4.590  66.839  1.00  0.00    -0.208 C  
BRANCH  23  24
HETATM   24  C   UNL     1      -9.410   3.607  65.671  1.00  0.00    -0.162 C  
HETATM   25  C   UNL     1      -9.240   4.367  64.350  1.00  0.00    -0.149 C  
ENDBRANCH  23  24
ENDBRANCH  22  23
ENDBRANCH   5  22
ENDBRANCH   4   5
ENDBRANCH   3   4
ENDBRANCH   2   3
TORSDOF 14
ENDMDL
MODEL      179
REMARK 921   NORMALIZED FREE ENERGY PREDICTED BY IDOCK:   -3.17 KCAL/MOL
REMARK 922        TOTAL FREE ENERGY PREDICTED BY IDOCK:   -7.15 KCAL/MOL
REMARK 923 INTER-LIGAND FREE ENERGY PREDICTED BY IDOCK:   -5.92 KCAL/MOL
REMARK 924 INTRA-LIGAND FREE ENERGY PREDICTED BY IDOCK:   -1.22 KCAL/MOL
REMARK 927      BINDING AFFINITY PREDICTED BY RF-SCORE:    0.00 PKD
ROOT
HETATM    1  C   UNL     1     -11.879  11.920  63.552  1.00  0.00    -0.560 C  
HETATM    2  C   UNL     1     -12.878  12.594  64.494  1.00  0.00    -0.356 C  
ENDROOT
BRANCH   2   3
HETATM    3  C   UNL     1     -12.208  13.017  65.816  1.00  0.00    -0.511 C  
BRANCH   3   4
HETATM    4  C   UNL     1     -10.853  12.307  66.023  1.00  0.00    -0.275 C  
BRANCH   4   5
HETATM    5  N   UNL     1     -10.554  12.039  67.441  1.00  0.00    -0.218 NA 
BRANCH   5   6
HETATM    6  C   UNL     1     -11.077  10.834  68.071  1.00  0.00    -0.299 C  
HETATM    7  S   UNL     1     -10.531   9.168  67.521  1.00  0.00    -0.249 SA 
HETATM    8  C   UNL     1     -10.166   7.108  71.086  1.00  0.00    -0.191 C  
HETATM    9  S   UNL     1     -11.945  10.843  69.496  1.00  0.00    -0.309 SA 
HETATM   10 ZN   UNL     1     -10.927   8.909  69.593  1.00  0.00    -0.219 Zn 
HETATM   11  S   UNL     1     -11.473   6.863  70.090  1.00  0.00    -0.277 SA 
HETATM   12  S   UNL     1      -9.490   8.815  71.169  1.00  0.00    -0.264 SA 
BRANCH   8  13
HETATM   13  N   UNL     1      -9.404   6.018  71.634  1.00  0.00    -0.149 NA 
BRANCH  13  14
HETATM   14  C   UNL     1      -8.765   5.022  70.776  1.00  0.00    -0.127 C  
BRANCH  14  15
HETATM   15  C   UNL     1      -7.995   3.955  71.596  1.00  0.00    -0.066 C  
BRANCH  15  16
HETATM   16  C   UNL     1      -8.321   2.498  71.213  1.00  0.00    -0.079 C  
HETATM   17  C   UNL     1      -7.825   1.525  72.290  1.00  0.00    -0.044 C  
ENDBRANCH  15  16
ENDBRANCH  14  15
ENDBRANCH  13  14
BRANCH  13  18
HETATM   18  C   UNL     1      -9.239   5.915  73.088  1.00  0.00    -0.133 C  
BRANCH  18  19
HETATM   19  C   UNL     1     -10.584   5.669  73.814  1.00  0.00    -0.303 C  
BRANCH  19  20
HETATM   20  C   UNL     1     -11.295   4.364  73.415  1.00  0.00    -0.353 C  
HETATM   21  C   UNL     1     -10.611   3.156  74.067  1.00  0.00    -0.265 C  
ENDBRANCH  19  20
ENDBRANCH  18  19
ENDBRANCH  13  18
ENDBRANCH   8  13
ENDBRANCH   5   6
BRANCH   5  22
HETATM   22  C   UNL     1      -9.678  12.962  68.176  1.00  0.00    -0.227 C  
BRANCH  22  23
HETATM   23  C   UNL     1      -8.241  13.082  67.636  1.00  0.00    -0.171 C  
BRANCH  23  24
HETATM   24  C   UNL     1      -7.442  11.772  67.640  1.00  0.00    -0.123 C  
HETATM   25  C   UNL     1      -6.014  12.012  67.139  1.00  0.00    -0.153 C  
ENDBRANCH  23  24
ENDBRANCH  22  23
ENDBRANCH   5  22
ENDBRANCH   4   5
ENDBRANCH   3   4
ENDBRANCH   2   3
TORSDOF 14
ENDMDL
MODEL      180
REMARK 921   NORMALIZED FREE ENERGY PREDICTED BY IDOCK:   -3.17 KCAL/MOL
REMARK 922        TOTAL FREE ENERGY PREDICTED BY IDOCK:   -7.14 KCAL/MOL
REMARK 923 INTER-LIGAND FREE ENERGY PREDICTED BY IDOCK:   -5.93 KCAL/MOL
REMARK 924 INTRA-LIGAND FREE ENERGY PREDICTED BY IDOCK:   -1.21 KCAL/MOL
REMARK 927      BINDING AFFINITY PREDICTED BY RF-SCORE:    0.00 PKD
ROOT
HETATM    1  C   UNL     1     -10.659   4.763  66.055  1.00  0.00    -0.300 C  
HETATM    2  C   UNL     1     -10.681   6.147  66.706  1.00  0.00    -0.371 C  
ENDROOT
BRANCH   2   3
HETATM    3  C   UNL     1     -10.822   6.047  68.238  1.00  0.00    -0.366 C  
BRANCH   3   4
HETATM    4  C   UNL     1      -9.628   5.303  68.874  1.00  0.00    -0.137 C  
BRANCH   4   5
HETATM    5  N   UNL     1      -8.325   5.888  68.509  1.00  0.00    -0.108 NA 
BRANCH   5   6
HETATM    6  C   UNL     1      -8.105   7.318  68.683  1.00  0.00    -0.125 C  
HETATM    7  S   UNL     1      -7.868   8.421  67.234  1.00  0.00    -0.098 SA 
HETATM    8  C   UNL     1     -10.007  11.794  68.299  1.00  0.00    -0.200 C  
HETATM    9  S   UNL     1      -8.345   8.115  70.129  1.00  0.00    -0.127 SA 
HETATM   10 ZN   UNL     1      -8.823   9.669  68.666  1.00  0.00    -0.115 Zn 
HETATM   11  S   UNL     1      -8.348  11.773  68.388  1.00  0.00    -0.134 SA 
HETATM   12  S   UNL     1     -10.882  10.230  68.703  1.00  0.00    -0.241 SA 
BRANCH   8  13
HETATM   13  N   UNL     1     -10.728  12.864  67.664  1.00  0.00    -0.221 NA 
BRANCH  13  14
HETATM   14  C   UNL     1     -11.841  13.540  68.328  1.00  0.00    -0.366 C  
BRANCH  14  15
HETATM   15  C   UNL     1     -11.564  15.049  68.542  1.00  0.00    -0.348 C  
BRANCH  15  16
HETATM   16  C   UNL     1     -11.918  15.572  69.948  1.00  0.00    -0.381 C  
HETATM   17  C   UNL     1     -12.682  14.511  70.749  1.00  0.00    -0.425 C  
ENDBRANCH  15  16
ENDBRANCH  14  15
ENDBRANCH  13  14
BRANCH  13  18
HETATM   18  C   UNL     1     -10.321  13.311  66.327  1.00  0.00    -0.290 C  
BRANCH  18  19
HETATM   19  C   UNL     1     -10.882  12.399  65.209  1.00  0.00    -0.324 C  
BRANCH  19  20
HETATM   20  C   UNL     1     -12.110  12.970  64.478  1.00  0.00    -0.468 C  
HETATM   21  C   UNL     1     -12.154  14.497  64.606  1.00  0.00    -0.486 C  
ENDBRANCH  19  20
ENDBRANCH  18  19
ENDBRANCH  13  18
ENDBRANCH   8  13
ENDBRANCH   5   6
BRANCH   5  22
HETATM   22  C   UNL     1      -7.250   5.006  68.036  1.00  0.00    -0.067 C  
BRANCH  22  23
HETATM   23  C   UNL     1      -7.622   3.516  67.911  1.00  0.00    -0.065 C  
BRANCH  23  24
HETATM   24  C   UNL     1      -7.440   2.925  66.507  1.00  0.00    -0.075 C  
HETATM   25  C   UNL     1      -8.336   1.695  66.322  1.00  0.00    -0.091 C  
ENDBRANCH  23  24
ENDBRANCH  22  23
ENDBRANCH   5  22
ENDBRANCH   4   5
ENDBRANCH   3   4
ENDBRANCH   2   3
TORSDOF 14
ENDMDL
MODEL      181
REMARK 921   NORMALIZED FREE ENERGY PREDICTED BY IDOCK:   -3.16 KCAL/MOL
REMARK 922        TOTAL FREE ENERGY PREDICTED BY IDOCK:   -7.12 KCAL/MOL
REMARK 923 INTER-LIGAND FREE ENERGY PREDICTED BY IDOCK:   -5.88 KCAL/MOL
REMARK 924 INTRA-LIGAND FREE ENERGY PREDICTED BY IDOCK:   -1.24 KCAL/MOL
REMARK 927      BINDING AFFINITY PREDICTED BY RF-SCORE:    0.00 PKD
ROOT
HETATM    1  C   UNL     1     -11.672   6.126  72.228  1.00  0.00    -0.352 C  
HETATM    2  C   UNL     1     -12.407   6.882  71.120  1.00  0.00    -0.419 C  
ENDROOT
BRANCH   2   3
HETATM    3  C   UNL     1     -13.079   8.160  71.659  1.00  0.00    -0.358 C  
BRANCH   3   4
HETATM    4  C   UNL     1     -12.037   9.219  72.078  1.00  0.00    -0.336 C  
BRANCH   4   5
HETATM    5  N   UNL     1     -11.673  10.134  70.980  1.00  0.00    -0.366 NA 
BRANCH   5   6
HETATM    6  C   UNL     1     -10.606   9.763  70.060  1.00  0.00    -0.276 C  
HETATM    7  S   UNL     1      -9.066   8.967  70.669  1.00  0.00    -0.227 SA 
HETATM    8  C   UNL     1      -8.305   6.120  67.770  1.00  0.00    -0.116 C  
HETATM    9  S   UNL     1     -10.791   9.735  68.402  1.00  0.00    -0.163 SA 
HETATM   10 ZN   UNL     1      -9.320   8.148  68.724  1.00  0.00    -0.138 Zn 
HETATM   11  S   UNL     1      -7.437   7.536  67.824  1.00  0.00    -0.103 SA 
HETATM   12  S   UNL     1     -10.079   6.213  68.239  1.00  0.00    -0.174 SA 
BRANCH   8  13
HETATM   13  N   UNL     1      -7.670   4.836  67.655  1.00  0.00    -0.085 NA 
BRANCH  13  14
HETATM   14  C   UNL     1      -6.597   4.426  68.560  1.00  0.00    -0.046 C  
BRANCH  14  15
HETATM   15  C   UNL     1      -7.056   4.411  70.039  1.00  0.00    -0.045 C  
BRANCH  15  16
HETATM   16  C   UNL     1      -7.907   3.186  70.432  1.00  0.00    -0.046 C  
HETATM   17  C   UNL     1      -9.364   3.592  70.686  1.00  0.00    -0.230 C  
ENDBRANCH  15  16
ENDBRANCH  14  15
ENDBRANCH  13  14
BRANCH  13  18
HETATM   18  C   UNL     1      -8.125   3.898  66.622  1.00  0.00    -0.097 C  
BRANCH  18  19
HETATM   19  C   UNL     1      -7.600   4.276  65.216  1.00  0.00    -0.085 C  
BRANCH  19  20
HETATM   20  C   UNL     1      -8.690   4.365  64.132  1.00  0.00    -0.139 C  
HETATM   21  C   UNL     1     -10.084   4.231  64.756  1.00  0.00    -0.159 C  
ENDBRANCH  19  20
ENDBRANCH  18  19
ENDBRANCH  13  18
ENDBRANCH   8  13
ENDBRANCH   5   6
BRANCH   5  22
HETATM   22  C   UNL     1     -12.438  11.374  70.796  1.00  0.00    -0.365 C  
BRANCH  22  23
HETATM   23  C   UNL     1     -13.264  11.830  72.014  1.00  0.00    -0.460 C  
BRANCH  23  24
HETATM   24  C   UNL     1     -13.428  13.350  72.145  1.00  0.00    -0.646 C  
HETATM   25  C   UNL     1     -12.442  14.077  71.223  1.00  0.00    -0.448 C  
ENDBRANCH  23  24
ENDBRANCH  22  23
ENDBRANCH   5  22
ENDBRANCH   4   5
ENDBRANCH   3   4
ENDBRANCH   2   3
TORSDOF 14
ENDMDL
MODEL      182
REMARK 921   NORMALIZED FREE ENERGY PREDICTED BY IDOCK:   -3.15 KCAL/MOL
REMARK 922        TOTAL FREE ENERGY PREDICTED BY IDOCK:   -7.10 KCAL/MOL
REMARK 923 INTER-LIGAND FREE ENERGY PREDICTED BY IDOCK:   -6.27 KCAL/MOL
REMARK 924 INTRA-LIGAND FREE ENERGY PREDICTED BY IDOCK:   -0.83 KCAL/MOL
REMARK 927      BINDING AFFINITY PREDICTED BY RF-SCORE:    0.00 PKD
ROOT
HETATM    1  C   UNL     1     -12.473  13.495  65.256  1.00  0.00    -0.525 C  
HETATM    2  C   UNL     1     -11.942  14.275  66.459  1.00  0.00    -0.448 C  
ENDROOT
BRANCH   2   3
HETATM    3  C   UNL     1     -10.421  14.502  66.357  1.00  0.00    -0.295 C  
BRANCH   3   4
HETATM    4  C   UNL     1      -9.694  14.085  67.654  1.00  0.00    -0.228 C  
BRANCH   4   5
HETATM    5  N   UNL     1     -10.568  13.367  68.599  1.00  0.00    -0.248 NA 
BRANCH   5   6
HETATM    6  C   UNL     1     -10.596  11.911  68.587  1.00  0.00    -0.234 C  
HETATM    7  S   UNL     1      -9.224  10.933  69.320  1.00  0.00     0.112 SA 
HETATM    8  C   UNL     1     -11.216   7.843  71.208  1.00  0.00    -0.255 C  
HETATM    9  S   UNL     1     -11.956  11.020  68.208  1.00  0.00     0.143 SA 
HETATM   10 ZN   UNL     1     -10.935   9.712  69.634  1.00  0.00    -0.200 Zn 
HETATM   11  S   UNL     1     -10.440   7.598  69.759  1.00  0.00    -0.233 SA 
HETATM   12  S   UNL     1     -12.021   9.475  71.456  1.00  0.00    -0.418 SA 
BRANCH   8  13
HETATM   13  N   UNL     1     -11.034   6.965  72.332  1.00  0.00    -0.236 NA 
BRANCH  13  14
HETATM   14  C   UNL     1     -10.343   7.402  73.544  1.00  0.00    -0.353 C  
BRANCH  14  15
HETATM   15  C   UNL     1      -8.990   8.087  73.228  1.00  0.00    -0.338 C  
BRANCH  15  16
HETATM   16  C   UNL     1      -7.964   8.038  74.378  1.00  0.00    -0.299 C  
HETATM   17  C   UNL     1      -7.019   6.842  74.217  1.00  0.00    -0.090 C  
ENDBRANCH  15  16
ENDBRANCH  14  15
ENDBRANCH  13  14
BRANCH  13  18
HETATM   18  C   UNL     1     -11.579   5.603  72.277  1.00  0.00    -0.181 C  
BRANCH  18  19
HETATM   19  C   UNL     1     -10.520   4.534  72.640  1.00  0.00    -0.258 C  
BRANCH  19  20
HETATM   20  C   UNL     1      -9.509   4.233  71.520  1.00  0.00    -0.220 C  
HETATM   21  C   UNL     1      -8.120   3.952  72.107  1.00  0.00    -0.084 C  
ENDBRANCH  19  20
ENDBRANCH  18  19
ENDBRANCH  13  18
ENDBRANCH   8  13
ENDBRANCH   5   6
BRANCH   5  22
HETATM   22  C   UNL     1     -11.347  14.134  69.580  1.00  0.00    -0.259 C  
BRANCH  22  23
HETATM   23  C   UNL     1     -10.701  15.449  70.057  1.00  0.00    -0.323 C  
BRANCH  23  24
HETATM   24  C   UNL     1     -11.559  16.269  71.030  1.00  0.00    -0.343 C  
HETATM   25  C   UNL     1     -12.570  15.365  71.745  1.00  0.00    -0.455 C  
ENDBRANCH  23  24
ENDBRANCH  22  23
ENDBRANCH   5  22
ENDBRANCH   4   5
ENDBRANCH   3   4
ENDBRANCH   2   3
TORSDOF 14
ENDMDL
MODEL      183
REMARK 921   NORMALIZED FREE ENERGY PREDICTED BY IDOCK:   -3.15 KCAL/MOL
REMARK 922        TOTAL FREE ENERGY PREDICTED BY IDOCK:   -7.10 KCAL/MOL
REMARK 923 INTER-LIGAND FREE ENERGY PREDICTED BY IDOCK:   -7.11 KCAL/MOL
REMARK 924 INTRA-LIGAND FREE ENERGY PREDICTED BY IDOCK:    0.01 KCAL/MOL
REMARK 927      BINDING AFFINITY PREDICTED BY RF-SCORE:    0.00 PKD
ROOT
HETATM    1  C   UNL     1     -12.092  14.743  71.818  1.00  0.00    -0.417 C  
HETATM    2  C   UNL     1     -12.857  15.231  70.587  1.00  0.00    -0.462 C  
ENDROOT
BRANCH   2   3
HETATM    3  C   UNL     1     -11.900  15.606  69.439  1.00  0.00    -0.391 C  
BRANCH   3   4
HETATM    4  C   UNL     1     -10.807  14.535  69.234  1.00  0.00    -0.252 C  
BRANCH   4   5
HETATM    5  N   UNL     1     -10.831  13.939  67.886  1.00  0.00    -0.241 NA 
BRANCH   5   6
HETATM    6  C   UNL     1     -10.495  12.532  67.716  1.00  0.00    -0.220 C  
HETATM    7  S   UNL     1      -8.838  11.892  68.185  1.00  0.00    -0.180 SA 
HETATM    8  C   UNL     1      -9.727   8.248  69.920  1.00  0.00    -0.180 C  
HETATM    9  S   UNL     1     -11.626  11.350  67.388  1.00  0.00    -0.082 SA 
HETATM   10 ZN   UNL     1     -10.133  10.245  68.542  1.00  0.00    -0.145 Zn 
HETATM   11  S   UNL     1      -9.112   8.331  68.379  1.00  0.00    -0.135 SA 
HETATM   12  S   UNL     1     -10.876   9.587  70.432  1.00  0.00    -0.305 SA 
BRANCH   8  13
HETATM   13  N   UNL     1      -9.186   7.361  70.914  1.00  0.00    -0.154 NA 
BRANCH  13  14
HETATM   14  C   UNL     1      -9.009   7.782  72.303  1.00  0.00    -0.145 C  
BRANCH  14  15
HETATM   15  C   UNL     1     -10.332   7.713  73.106  1.00  0.00    -0.411 C  
BRANCH  15  16
HETATM   16  C   UNL     1     -11.251   6.536  72.725  1.00  0.00    -0.259 C  
HETATM   17  C   UNL     1     -10.931   5.296  73.568  1.00  0.00    -0.353 C  
ENDBRANCH  15  16
ENDBRANCH  14  15
ENDBRANCH  13  14
BRANCH  13  18
HETATM   18  C   UNL     1      -8.825   5.990  70.536  1.00  0.00    -0.145 C  
BRANCH  18  19
HETATM   19  C   UNL     1      -9.970   5.269  69.785  1.00  0.00    -0.306 C  
BRANCH  19  20
HETATM   20  C   UNL     1      -9.507   4.132  68.858  1.00  0.00    -0.238 C  
HETATM   21  C   UNL     1      -9.746   4.501  67.389  1.00  0.00    -0.218 C  
ENDBRANCH  19  20
ENDBRANCH  18  19
ENDBRANCH  13  18
ENDBRANCH   8  13
ENDBRANCH   5   6
BRANCH   5  22
HETATM   22  C   UNL     1     -11.257  14.762  66.746  1.00  0.00    -0.344 C  
BRANCH  22  23
HETATM   23  C   UNL     1     -12.315  14.124  65.827  1.00  0.00    -0.481 C  
BRANCH  23  24
HETATM   24  C   UNL     1     -11.863  13.918  64.375  1.00  0.00    -0.456 C  
HETATM   25  C   UNL     1     -12.211  12.502  63.901  1.00  0.00    -0.590 C  
ENDBRANCH  23  24
ENDBRANCH  22  23
ENDBRANCH   5  22
ENDBRANCH   4   5
ENDBRANCH   3   4
ENDBRANCH   2   3
TORSDOF 14
ENDMDL
MODEL      184
REMARK 921   NORMALIZED FREE ENERGY PREDICTED BY IDOCK:   -3.14 KCAL/MOL
REMARK 922        TOTAL FREE ENERGY PREDICTED BY IDOCK:   -7.10 KCAL/MOL
REMARK 923 INTER-LIGAND FREE ENERGY PREDICTED BY IDOCK:   -6.03 KCAL/MOL
REMARK 924 INTRA-LIGAND FREE ENERGY PREDICTED BY IDOCK:   -1.06 KCAL/MOL
REMARK 927      BINDING AFFINITY PREDICTED BY RF-SCORE:    0.00 PKD
ROOT
HETATM    1  C   UNL     1     -11.406  12.044  63.343  1.00  0.00    -0.484 C  
HETATM    2  C   UNL     1     -12.632  12.182  64.246  1.00  0.00    -0.432 C  
ENDROOT
BRANCH   2   3
HETATM    3  C   UNL     1     -12.258  12.767  65.622  1.00  0.00    -0.503 C  
BRANCH   3   4
HETATM    4  C   UNL     1     -10.755  12.589  65.928  1.00  0.00    -0.264 C  
BRANCH   4   5
HETATM    5  N   UNL     1     -10.491  12.256  67.340  1.00  0.00    -0.209 NA 
BRANCH   5   6
HETATM    6  C   UNL     1     -11.002  11.008  67.892  1.00  0.00    -0.264 C  
HETATM    7  S   UNL     1     -10.385   9.386  67.290  1.00  0.00    -0.260 SA 
HETATM    8  C   UNL     1     -10.099   7.174  70.770  1.00  0.00    -0.190 C  
HETATM    9  S   UNL     1     -11.926  10.927  69.279  1.00  0.00    -0.249 SA 
HETATM   10 ZN   UNL     1     -10.854   9.021  69.331  1.00  0.00    -0.208 Zn 
HETATM   11  S   UNL     1     -11.357   6.939  69.711  1.00  0.00    -0.199 SA 
HETATM   12  S   UNL     1      -9.479   8.894  70.958  1.00  0.00    -0.274 SA 
BRANCH   8  13
HETATM   13  N   UNL     1      -9.327   6.082  71.299  1.00  0.00    -0.156 NA 
BRANCH  13  14
HETATM   14  C   UNL     1      -9.254   5.817  72.734  1.00  0.00    -0.136 C  
BRANCH  14  15
HETATM   15  C   UNL     1     -10.627   5.993  73.430  1.00  0.00    -0.277 C  
BRANCH  15  16
HETATM   16  C   UNL     1     -11.610   4.826  73.208  1.00  0.00    -0.286 C  
HETATM   17  C   UNL     1     -11.005   3.502  73.690  1.00  0.00    -0.329 C  
ENDBRANCH  15  16
ENDBRANCH  14  15
ENDBRANCH  13  14
BRANCH  13  18
HETATM   18  C   UNL     1      -8.614   5.192  70.375  1.00  0.00    -0.113 C  
BRANCH  18  19
HETATM   19  C   UNL     1      -7.635   5.963  69.457  1.00  0.00    -0.088 C  
BRANCH  19  20
HETATM   20  C   UNL     1      -6.276   6.285  70.103  1.00  0.00    -0.031 C  
HETATM   21  C   UNL     1      -5.995   7.792  70.047  1.00  0.00    -0.023 C  
ENDBRANCH  19  20
ENDBRANCH  18  19
ENDBRANCH  13  18
ENDBRANCH   8  13
ENDBRANCH   5   6
BRANCH   5  22
HETATM   22  C   UNL     1      -9.661  13.161  68.146  1.00  0.00    -0.228 C  
BRANCH  22  23
HETATM   23  C   UNL     1     -10.409  14.336  68.804  1.00  0.00    -0.239 C  
BRANCH  23  24
HETATM   24  C   UNL     1     -10.518  15.595  67.933  1.00  0.00    -0.267 C  
HETATM   25  C   UNL     1     -10.305  16.854  68.781  1.00  0.00    -0.324 C  
ENDBRANCH  23  24
ENDBRANCH  22  23
ENDBRANCH   5  22
ENDBRANCH   4   5
ENDBRANCH   3   4
ENDBRANCH   2   3
TORSDOF 14
ENDMDL
MODEL      185
REMARK 921   NORMALIZED FREE ENERGY PREDICTED BY IDOCK:   -3.13 KCAL/MOL
REMARK 922        TOTAL FREE ENERGY PREDICTED BY IDOCK:   -7.07 KCAL/MOL
REMARK 923 INTER-LIGAND FREE ENERGY PREDICTED BY IDOCK:   -6.61 KCAL/MOL
REMARK 924 INTRA-LIGAND FREE ENERGY PREDICTED BY IDOCK:   -0.46 KCAL/MOL
REMARK 927      BINDING AFFINITY PREDICTED BY RF-SCORE:    0.00 PKD
ROOT
HETATM    1  C   UNL     1     -12.639  11.738  71.166  1.00  0.00    -0.412 C  
HETATM    2  C   UNL     1     -12.544  10.407  71.914  1.00  0.00    -0.387 C  
ENDROOT
BRANCH   2   3
HETATM    3  C   UNL     1     -12.970   9.226  71.021  1.00  0.00    -0.176 C  
BRANCH   3   4
HETATM    4  C   UNL     1     -11.834   8.192  70.861  1.00  0.00    -0.218 C  
BRANCH   4   5
HETATM    5  N   UNL     1     -10.495   8.808  70.838  1.00  0.00    -0.208 NA 
BRANCH   5   6
HETATM    6  C   UNL     1     -10.014   9.437  69.615  1.00  0.00    -0.197 C  
HETATM    7  S   UNL     1     -11.146   9.738  68.200  1.00  0.00    -0.016 SA 
HETATM    8  C   UNL     1      -9.970  13.473  66.873  1.00  0.00    -0.256 C  
HETATM    9  S   UNL     1      -8.534  10.199  69.493  1.00  0.00    -0.145 SA 
HETATM   10 ZN   UNL     1      -9.753  11.340  68.080  1.00  0.00    -0.152 Zn 
HETATM   11  S   UNL     1      -9.525  12.098  66.054  1.00  0.00    -0.164 SA 
HETATM   12  S   UNL     1     -10.065  13.357  68.705  1.00  0.00    -0.097 SA 
BRANCH   8  13
HETATM   13  N   UNL     1     -10.538  14.613  66.206  1.00  0.00    -0.298 NA 
BRANCH  13  14
HETATM   14  C   UNL     1     -10.905  15.826  66.935  1.00  0.00    -0.265 C  
BRANCH  14  15
HETATM   15  C   UNL     1      -9.771  16.881  66.918  1.00  0.00    -0.264 C  
BRANCH  15  16
HETATM   16  C   UNL     1      -9.277  17.311  68.314  1.00  0.00    -0.265 C  
HETATM   17  C   UNL     1      -9.521  18.808  68.543  1.00  0.00    -0.400 C  
ENDBRANCH  15  16
ENDBRANCH  14  15
ENDBRANCH  13  14
BRANCH  13  18
HETATM   18  C   UNL     1     -10.732  14.572  64.752  1.00  0.00    -0.393 C  
BRANCH  18  19
HETATM   19  C   UNL     1     -12.126  14.027  64.362  1.00  0.00    -0.486 C  
BRANCH  19  20
HETATM   20  C   UNL     1     -12.108  12.980  63.233  1.00  0.00    -0.499 C  
HETATM   21  C   UNL     1     -12.786  11.682  63.689  1.00  0.00    -0.256 C  
ENDBRANCH  19  20
ENDBRANCH  18  19
ENDBRANCH  13  18
ENDBRANCH   8  13
ENDBRANCH   5   6
BRANCH   5  22
HETATM   22  C   UNL     1      -9.696   8.834  72.071  1.00  0.00    -0.300 C  
BRANCH  22  23
HETATM   23  C   UNL     1      -9.253   7.457  72.602  1.00  0.00    -0.185 C  
BRANCH  23  24
HETATM   24  C   UNL     1      -9.077   7.384  74.125  1.00  0.00    -0.267 C  
HETATM   25  C   UNL     1      -7.856   8.202  74.562  1.00  0.00    -0.301 C  
ENDBRANCH  23  24
ENDBRANCH  22  23
ENDBRANCH   5  22
ENDBRANCH   4   5
ENDBRANCH   3   4
ENDBRANCH   2   3
TORSDOF 14
ENDMDL
MODEL      186
REMARK 921   NORMALIZED FREE ENERGY PREDICTED BY IDOCK:   -3.12 KCAL/MOL
REMARK 922        TOTAL FREE ENERGY PREDICTED BY IDOCK:   -7.06 KCAL/MOL
REMARK 923 INTER-LIGAND FREE ENERGY PREDICTED BY IDOCK:   -6.13 KCAL/MOL
REMARK 924 INTRA-LIGAND FREE ENERGY PREDICTED BY IDOCK:   -0.93 KCAL/MOL
REMARK 927      BINDING AFFINITY PREDICTED BY RF-SCORE:    0.00 PKD
ROOT
HETATM    1  C   UNL     1      -5.809   8.336  64.531  1.00  0.00    -0.056 C  
HETATM    2  C   UNL     1      -5.762   8.642  66.029  1.00  0.00    -0.046 C  
ENDROOT
BRANCH   2   3
HETATM    3  C   UNL     1      -6.737   9.774  66.405  1.00  0.00    -0.080 C  
BRANCH   3   4
HETATM    4  C   UNL     1      -7.800   9.299  67.419  1.00  0.00    -0.099 C  
BRANCH   4   5
HETATM    5  N   UNL     1      -9.100   8.999  66.792  1.00  0.00    -0.140 NA 
BRANCH   5   6
HETATM    6  C   UNL     1     -10.025  10.086  66.500  1.00  0.00    -0.225 C  
HETATM    7  S   UNL     1     -10.869  10.998  67.853  1.00  0.00    -0.259 SA 
HETATM    8  C   UNL     1     -10.755  14.909  66.522  1.00  0.00    -0.309 C  
HETATM    9  S   UNL     1     -10.169  10.791  64.995  1.00  0.00    -0.291 SA 
HETATM   10 ZN   UNL     1     -10.640  12.460  66.328  1.00  0.00    -0.231 Zn 
HETATM   11  S   UNL     1     -12.154  14.018  66.430  1.00  0.00    -0.450 SA 
HETATM   12  S   UNL     1      -9.176  14.012  66.251  1.00  0.00    -0.018 SA 
BRANCH   8  13
HETATM   13  N   UNL     1     -10.729  16.239  67.070  1.00  0.00    -0.279 NA 
BRANCH  13  14
HETATM   14  C   UNL     1     -10.311  17.390  66.272  1.00  0.00    -0.330 C  
BRANCH  14  15
HETATM   15  C   UNL     1     -10.769  18.731  66.898  1.00  0.00    -0.406 C  
BRANCH  15  16
HETATM   16  C   UNL     1      -9.629  19.733  67.168  1.00  0.00    -0.483 C  
HETATM   17  C   UNL     1      -8.261  19.077  66.944  1.00  0.00    -0.286 C  
ENDBRANCH  15  16
ENDBRANCH  14  15
ENDBRANCH  13  14
BRANCH  13  18
HETATM   18  C   UNL     1     -11.157  16.454  68.457  1.00  0.00    -0.357 C  
BRANCH  18  19
HETATM   19  C   UNL     1      -9.973  16.815  69.386  1.00  0.00    -0.140 C  
BRANCH  19  20
HETATM   20  C   UNL     1      -8.864  15.749  69.449  1.00  0.00    -0.237 C  
HETATM   21  C   UNL     1      -7.534  16.324  68.948  1.00  0.00    -0.209 C  
ENDBRANCH  19  20
ENDBRANCH  18  19
ENDBRANCH  13  18
ENDBRANCH   8  13
ENDBRANCH   5   6
BRANCH   5  22
HETATM   22  C   UNL     1      -9.411   7.614  66.414  1.00  0.00    -0.172 C  
BRANCH  22  23
HETATM   23  C   UNL     1      -9.581   6.629  67.586  1.00  0.00    -0.135 C  
BRANCH  23  24
HETATM   24  C   UNL     1     -11.034   6.400  68.025  1.00  0.00    -0.400 C  
HETATM   25  C   UNL     1     -11.109   6.189  69.542  1.00  0.00    -0.490 C  
ENDBRANCH  23  24
ENDBRANCH  22  23
ENDBRANCH   5  22
ENDBRANCH   4   5
ENDBRANCH   3   4
ENDBRANCH   2   3
TORSDOF 14
ENDMDL
MODEL      187
REMARK 921   NORMALIZED FREE ENERGY PREDICTED BY IDOCK:   -3.11 KCAL/MOL
REMARK 922        TOTAL FREE ENERGY PREDICTED BY IDOCK:   -7.04 KCAL/MOL
REMARK 923 INTER-LIGAND FREE ENERGY PREDICTED BY IDOCK:   -6.08 KCAL/MOL
REMARK 924 INTRA-LIGAND FREE ENERGY PREDICTED BY IDOCK:   -0.96 KCAL/MOL
REMARK 927      BINDING AFFINITY PREDICTED BY RF-SCORE:    0.00 PKD
ROOT
HETATM    1  C   UNL     1     -10.882   6.381  72.469  1.00  0.00    -0.268 C  
HETATM    2  C   UNL     1     -11.955   6.603  71.402  1.00  0.00    -0.405 C  
ENDROOT
BRANCH   2   3
HETATM    3  C   UNL     1     -12.842   7.818  71.739  1.00  0.00    -0.352 C  
BRANCH   3   4
HETATM    4  C   UNL     1     -12.000   9.036  72.175  1.00  0.00    -0.325 C  
BRANCH   4   5
HETATM    5  N   UNL     1     -12.076  10.158  71.222  1.00  0.00    -0.377 NA 
BRANCH   5   6
HETATM    6  C   UNL     1     -11.103  10.250  70.142  1.00  0.00    -0.319 C  
HETATM    7  S   UNL     1      -9.460   9.438  70.277  1.00  0.00    -0.264 SA 
HETATM    8  C   UNL     1      -8.878   7.925  66.475  1.00  0.00    -0.152 C  
HETATM    9  S   UNL     1     -11.475  10.809  68.614  1.00  0.00    -0.271 SA 
HETATM   10 ZN   UNL     1      -9.890   9.361  68.197  1.00  0.00    -0.142 Zn 
HETATM   11  S   UNL     1      -8.091   9.300  66.975  1.00  0.00    -0.112 SA 
HETATM   12  S   UNL     1     -10.588   7.671  67.096  1.00  0.00    -0.294 SA 
BRANCH   8  13
HETATM   13  N   UNL     1      -8.187   6.836  65.837  1.00  0.00    -0.126 NA 
BRANCH  13  14
HETATM   14  C   UNL     1      -8.789   5.509  65.720  1.00  0.00    -0.153 C  
BRANCH  14  15
HETATM   15  C   UNL     1      -8.152   4.491  66.699  1.00  0.00    -0.103 C  
BRANCH  15  16
HETATM   16  C   UNL     1      -8.941   3.176  66.855  1.00  0.00    -0.177 C  
HETATM   17  C   UNL     1      -9.315   2.934  68.322  1.00  0.00    -0.253 C  
ENDBRANCH  15  16
ENDBRANCH  14  15
ENDBRANCH  13  14
BRANCH  13  18
HETATM   18  C   UNL     1      -6.856   7.066  65.265  1.00  0.00    -0.051 C  
BRANCH  18  19
HETATM   19  C   UNL     1      -6.809   6.757  63.749  1.00  0.00    -0.053 C  
BRANCH  19  20
HETATM   20  C   UNL     1      -5.832   5.635  63.357  1.00  0.00    -0.018 C  
HETATM   21  C   UNL     1      -6.589   4.326  63.099  1.00  0.00    -0.030 C  
ENDBRANCH  19  20
ENDBRANCH  18  19
ENDBRANCH  13  18
ENDBRANCH   8  13
ENDBRANCH   5   6
BRANCH   5  22
HETATM   22  C   UNL     1     -13.172  11.128  71.342  1.00  0.00    -0.203 C  
BRANCH  22  23
HETATM   23  C   UNL     1     -12.742  12.593  71.547  1.00  0.00    -0.326 C  
BRANCH  23  24
HETATM   24  C   UNL     1     -13.721  13.440  72.371  1.00  0.00    -0.698 C  
HETATM   25  C   UNL     1     -13.000  14.642  72.991  1.00  0.00    -0.610 C  
ENDBRANCH  23  24
ENDBRANCH  22  23
ENDBRANCH   5  22
ENDBRANCH   4   5
ENDBRANCH   3   4
ENDBRANCH   2   3
TORSDOF 14
ENDMDL
MODEL      188
REMARK 921   NORMALIZED FREE ENERGY PREDICTED BY IDOCK:   -3.10 KCAL/MOL
REMARK 922        TOTAL FREE ENERGY PREDICTED BY IDOCK:   -7.03 KCAL/MOL
REMARK 923 INTER-LIGAND FREE ENERGY PREDICTED BY IDOCK:   -5.86 KCAL/MOL
REMARK 924 INTRA-LIGAND FREE ENERGY PREDICTED BY IDOCK:   -1.17 KCAL/MOL
REMARK 927      BINDING AFFINITY PREDICTED BY RF-SCORE:    0.00 PKD
ROOT
HETATM    1  C   UNL     1     -10.410   3.941  74.547  1.00  0.00    -0.266 C  
HETATM    2  C   UNL     1      -9.248   4.325  73.629  1.00  0.00    -0.099 C  
ENDROOT
BRANCH   2   3
HETATM    3  C   UNL     1      -9.116   3.347  72.446  1.00  0.00    -0.139 C  
BRANCH   3   4
HETATM    4  C   UNL     1      -9.975   3.789  71.241  1.00  0.00    -0.094 C  
BRANCH   4   5
HETATM    5  N   UNL     1      -9.316   4.813  70.410  1.00  0.00    -0.139 NA 
BRANCH   5   6
HETATM    6  C   UNL     1      -9.863   6.163  70.365  1.00  0.00    -0.178 C  
HETATM    7  S   UNL     1      -8.769   7.631  70.517  1.00  0.00    -0.139 SA 
HETATM    8  C   UNL     1     -10.370  10.250  67.749  1.00  0.00    -0.204 C  
HETATM    9  S   UNL     1     -11.421   6.508  69.879  1.00  0.00    -0.354 SA 
HETATM   10 ZN   UNL     1     -10.339   8.303  69.253  1.00  0.00    -0.181 Zn 
HETATM   11  S   UNL     1     -10.647  10.453  69.374  1.00  0.00    -0.254 SA 
HETATM   12  S   UNL     1     -10.269   8.523  67.130  1.00  0.00    -0.303 SA 
BRANCH   8  13
HETATM   13  N   UNL     1      -9.937  11.330  66.904  1.00  0.00    -0.203 NA 
BRANCH  13  14
HETATM   14  C   UNL     1      -9.401  11.091  65.565  1.00  0.00    -0.215 C  
BRANCH  14  15
HETATM   15  C   UNL     1     -10.522  10.854  64.522  1.00  0.00    -0.393 C  
BRANCH  15  16
HETATM   16  C   UNL     1     -10.684  11.987  63.490  1.00  0.00    -0.513 C  
HETATM   17  C   UNL     1     -12.129  12.501  63.465  1.00  0.00    -0.653 C  
ENDBRANCH  15  16
ENDBRANCH  14  15
ENDBRANCH  13  14
BRANCH  13  18
HETATM   18  C   UNL     1     -10.060  12.712  67.384  1.00  0.00    -0.218 C  
BRANCH  18  19
HETATM   19  C   UNL     1     -11.419  13.346  67.003  1.00  0.00    -0.372 C  
BRANCH  19  20
HETATM   20  C   UNL     1     -11.313  14.733  66.345  1.00  0.00    -0.339 C  
HETATM   21  C   UNL     1     -10.047  14.828  65.484  1.00  0.00    -0.409 C  
ENDBRANCH  19  20
ENDBRANCH  18  19
ENDBRANCH  13  18
ENDBRANCH   8  13
ENDBRANCH   5   6
BRANCH   5  22
HETATM   22  C   UNL     1      -8.081   4.469  69.693  1.00  0.00    -0.060 C  
BRANCH  22  23
HETATM   23  C   UNL     1      -8.140   3.180  68.852  1.00  0.00    -0.072 C  
BRANCH  23  24
HETATM   24  C   UNL     1      -6.822   2.396  68.787  1.00  0.00    -0.040 C  
HETATM   25  C   UNL     1      -5.889   2.820  69.927  1.00  0.00    -0.022 C  
ENDBRANCH  23  24
ENDBRANCH  22  23
ENDBRANCH   5  22
ENDBRANCH   4   5
ENDBRANCH   3   4
ENDBRANCH   2   3
TORSDOF 14
ENDMDL
MODEL      189
REMARK 921   NORMALIZED FREE ENERGY PREDICTED BY IDOCK:   -3.10 KCAL/MOL
REMARK 922        TOTAL FREE ENERGY PREDICTED BY IDOCK:   -7.03 KCAL/MOL
REMARK 923 INTER-LIGAND FREE ENERGY PREDICTED BY IDOCK:   -6.01 KCAL/MOL
REMARK 924 INTRA-LIGAND FREE ENERGY PREDICTED BY IDOCK:   -1.02 KCAL/MOL
REMARK 927      BINDING AFFINITY PREDICTED BY RF-SCORE:    0.00 PKD
ROOT
HETATM    1  C   UNL     1     -11.946   8.006  71.454  1.00  0.00    -0.328 C  
HETATM    2  C   UNL     1     -10.534   8.465  71.084  1.00  0.00    -0.263 C  
ENDROOT
BRANCH   2   3
HETATM    3  C   UNL     1      -9.837   7.452  70.155  1.00  0.00    -0.180 C  
BRANCH   3   4
HETATM    4  C   UNL     1     -10.470   7.439  68.748  1.00  0.00    -0.199 C  
BRANCH   4   5
HETATM    5  N   UNL     1      -9.641   8.121  67.737  1.00  0.00    -0.148 NA 
BRANCH   5   6
HETATM    6  C   UNL     1     -10.155   9.310  67.070  1.00  0.00    -0.247 C  
HETATM    7  S   UNL     1     -11.272  10.477  67.945  1.00  0.00    -0.215 SA 
HETATM    8  C   UNL     1      -9.911  14.166  66.671  1.00  0.00    -0.277 C  
HETATM    9  S   UNL     1      -9.564   9.876  65.615  1.00  0.00    -0.274 SA 
HETATM   10 ZN   UNL     1     -10.194  11.723  66.603  1.00  0.00    -0.195 Zn 
HETATM   11  S   UNL     1     -11.304  13.509  66.047  1.00  0.00    -0.319 SA 
HETATM   12  S   UNL     1      -8.552  13.001  67.082  1.00  0.00    -0.169 SA 
BRANCH   8  13
HETATM   13  N   UNL     1      -9.850  15.521  67.149  1.00  0.00    -0.233 NA 
BRANCH  13  14
HETATM   14  C   UNL     1     -10.811  16.036  68.123  1.00  0.00    -0.322 C  
BRANCH  14  15
HETATM   15  C   UNL     1     -10.818  15.205  69.430  1.00  0.00    -0.265 C  
BRANCH  15  16
HETATM   16  C   UNL     1     -12.008  15.497  70.366  1.00  0.00    -0.398 C  
HETATM   17  C   UNL     1     -11.542  15.611  71.823  1.00  0.00    -0.531 C  
ENDBRANCH  15  16
ENDBRANCH  14  15
ENDBRANCH  13  14
BRANCH  13  18
HETATM   18  C   UNL     1      -8.782  16.405  66.669  1.00  0.00    -0.256 C  
BRANCH  18  19
HETATM   19  C   UNL     1      -7.814  16.822  67.802  1.00  0.00    -0.187 C  
BRANCH  19  20
HETATM   20  C   UNL     1      -7.428  18.312  67.795  1.00  0.00    -0.224 C  
HETATM   21  C   UNL     1      -6.843  18.725  69.151  1.00  0.00    -0.299 C  
ENDBRANCH  19  20
ENDBRANCH  18  19
ENDBRANCH  13  18
ENDBRANCH   8  13
ENDBRANCH   5   6
BRANCH   5  22
HETATM   22  C   UNL     1      -8.284   7.627  67.470  1.00  0.00    -0.121 C  
BRANCH  22  23
HETATM   23  C   UNL     1      -8.191   6.155  67.024  1.00  0.00    -0.106 C  
BRANCH  23  24
HETATM   24  C   UNL     1      -8.446   5.921  65.529  1.00  0.00    -0.154 C  
HETATM   25  C   UNL     1      -7.525   6.809  64.683  1.00  0.00    -0.097 C  
ENDBRANCH  23  24
ENDBRANCH  22  23
ENDBRANCH   5  22
ENDBRANCH   4   5
ENDBRANCH   3   4
ENDBRANCH   2   3
TORSDOF 14
ENDMDL
MODEL      190
REMARK 921   NORMALIZED FREE ENERGY PREDICTED BY IDOCK:   -3.10 KCAL/MOL
REMARK 922        TOTAL FREE ENERGY PREDICTED BY IDOCK:   -7.01 KCAL/MOL
REMARK 923 INTER-LIGAND FREE ENERGY PREDICTED BY IDOCK:   -5.96 KCAL/MOL
REMARK 924 INTRA-LIGAND FREE ENERGY PREDICTED BY IDOCK:   -1.05 KCAL/MOL
REMARK 927      BINDING AFFINITY PREDICTED BY RF-SCORE:    0.00 PKD
ROOT
HETATM    1  C   UNL     1      -6.161  11.301  68.444  1.00  0.00    -0.045 C  
HETATM    2  C   UNL     1      -6.551   9.960  67.820  1.00  0.00    -0.068 C  
ENDROOT
BRANCH   2   3
HETATM    3  C   UNL     1      -6.065   8.776  68.678  1.00  0.00    -0.045 C  
BRANCH   3   4
HETATM    4  C   UNL     1      -6.794   7.466  68.309  1.00  0.00    -0.063 C  
BRANCH   4   5
HETATM    5  N   UNL     1      -7.719   7.007  69.361  1.00  0.00    -0.106 NA 
BRANCH   5   6
HETATM    6  C   UNL     1      -8.986   7.700  69.557  1.00  0.00    -0.139 C  
HETATM    7  S   UNL     1      -9.155   9.020  70.823  1.00  0.00    -0.260 SA 
HETATM    8  C   UNL     1     -11.496  11.831  68.899  1.00  0.00    -0.297 C  
HETATM    9  S   UNL     1     -10.266   7.592  68.492  1.00  0.00    -0.200 SA 
HETATM   10 ZN   UNL     1     -10.506   9.614  69.294  1.00  0.00    -0.170 Zn 
HETATM   11  S   UNL     1     -12.145  10.825  70.052  1.00  0.00    -0.347 SA 
HETATM   12  S   UNL     1     -10.187  11.126  67.820  1.00  0.00    -0.186 SA 
BRANCH   8  13
HETATM   13  N   UNL     1     -11.712  13.253  68.913  1.00  0.00    -0.306 NA 
BRANCH  13  14
HETATM   14  C   UNL     1     -11.296  14.103  67.799  1.00  0.00    -0.306 C  
BRANCH  14  15
HETATM   15  C   UNL     1     -12.274  14.012  66.600  1.00  0.00    -0.463 C  
BRANCH  15  16
HETATM   16  C   UNL     1     -11.592  14.017  65.218  1.00  0.00    -0.339 C  
HETATM   17  C   UNL     1     -10.830  15.328  64.989  1.00  0.00    -0.457 C  
ENDBRANCH  15  16
ENDBRANCH  14  15
ENDBRANCH  13  14
BRANCH  13  18
HETATM   18  C   UNL     1     -12.390  13.866  70.061  1.00  0.00    -0.316 C  
BRANCH  18  19
HETATM   19  C   UNL     1     -11.545  14.989  70.708  1.00  0.00    -0.364 C  
BRANCH  19  20
HETATM   20  C   UNL     1     -12.345  15.955  71.600  1.00  0.00    -0.519 C  
HETATM   21  C   UNL     1     -12.139  15.618  73.082  1.00  0.00    -0.598 C  
ENDBRANCH  19  20
ENDBRANCH  18  19
ENDBRANCH  13  18
ENDBRANCH   8  13
ENDBRANCH   5   6
BRANCH   5  22
HETATM   22  C   UNL     1      -7.374   5.817  70.150  1.00  0.00    -0.073 C  
BRANCH  22  23
HETATM   23  C   UNL     1      -6.756   6.095  71.533  1.00  0.00    -0.056 C  
BRANCH  23  24
HETATM   24  C   UNL     1      -7.713   5.893  72.716  1.00  0.00    -0.100 C  
HETATM   25  C   UNL     1      -8.902   5.019  72.299  1.00  0.00    -0.135 C  
ENDBRANCH  23  24
ENDBRANCH  22  23
ENDBRANCH   5  22
ENDBRANCH   4   5
ENDBRANCH   3   4
ENDBRANCH   2   3
TORSDOF 14
ENDMDL
MODEL      191
REMARK 921   NORMALIZED FREE ENERGY PREDICTED BY IDOCK:   -3.09 KCAL/MOL
REMARK 922        TOTAL FREE ENERGY PREDICTED BY IDOCK:   -7.01 KCAL/MOL
REMARK 923 INTER-LIGAND FREE ENERGY PREDICTED BY IDOCK:   -6.08 KCAL/MOL
REMARK 924 INTRA-LIGAND FREE ENERGY PREDICTED BY IDOCK:   -0.93 KCAL/MOL
REMARK 927      BINDING AFFINITY PREDICTED BY RF-SCORE:    0.00 PKD
ROOT
HETATM    1  C   UNL     1     -11.793  11.951  63.387  1.00  0.00    -0.512 C  
HETATM    2  C   UNL     1     -12.812  12.467  64.404  1.00  0.00    -0.344 C  
ENDROOT
BRANCH   2   3
HETATM    3  C   UNL     1     -12.119  13.068  65.642  1.00  0.00    -0.507 C  
BRANCH   3   4
HETATM    4  C   UNL     1     -10.783  12.357  65.950  1.00  0.00    -0.266 C  
BRANCH   4   5
HETATM    5  N   UNL     1     -10.554  12.163  67.393  1.00  0.00    -0.222 NA 
BRANCH   5   6
HETATM    6  C   UNL     1     -11.207  11.058  68.083  1.00  0.00    -0.302 C  
HETATM    7  S   UNL     1     -10.783   9.315  67.688  1.00  0.00    -0.129 SA 
HETATM    8  C   UNL     1     -10.757   7.519  71.410  1.00  0.00    -0.223 C  
HETATM    9  S   UNL     1     -12.134  11.251  69.457  1.00  0.00    -0.288 SA 
HETATM   10 ZN   UNL     1     -11.292   9.254  69.750  1.00  0.00    -0.232 Zn 
HETATM   11  S   UNL     1     -12.034   7.305  70.369  1.00  0.00    -0.005 SA 
HETATM   12  S   UNL     1      -9.941   9.165  71.400  1.00  0.00    -0.262 SA 
BRANCH   8  13
HETATM   13  N   UNL     1     -10.118   6.416  72.075  1.00  0.00    -0.178 NA 
BRANCH  13  14
HETATM   14  C   UNL     1     -10.499   6.009  73.427  1.00  0.00    -0.249 C  
BRANCH  14  15
HETATM   15  C   UNL     1      -9.618   4.849  73.957  1.00  0.00    -0.140 C  
BRANCH  15  16
HETATM   16  C   UNL     1     -10.408   3.671  74.559  1.00  0.00    -0.253 C  
HETATM   17  C   UNL     1     -10.830   2.680  73.467  1.00  0.00    -0.293 C  
ENDBRANCH  15  16
ENDBRANCH  14  15
ENDBRANCH  13  14
BRANCH  13  18
HETATM   18  C   UNL     1      -9.075   5.659  71.374  1.00  0.00    -0.140 C  
BRANCH  18  19
HETATM   19  C   UNL     1      -9.666   4.620  70.391  1.00  0.00    -0.292 C  
BRANCH  19  20
HETATM   20  C   UNL     1      -8.661   3.559  69.905  1.00  0.00    -0.132 C  
HETATM   21  C   UNL     1      -9.393   2.293  69.444  1.00  0.00    -0.169 C  
ENDBRANCH  19  20
ENDBRANCH  18  19
ENDBRANCH  13  18
ENDBRANCH   8  13
ENDBRANCH   5   6
BRANCH   5  22
HETATM   22  C   UNL     1      -9.618  13.051  68.096  1.00  0.00    -0.227 C  
BRANCH  22  23
HETATM   23  C   UNL     1      -8.256  13.258  67.406  1.00  0.00    -0.185 C  
BRANCH  23  24
HETATM   24  C   UNL     1      -7.861  14.726  67.194  1.00  0.00    -0.180 C  
HETATM   25  C   UNL     1      -8.916  15.448  66.348  1.00  0.00    -0.351 C  
ENDBRANCH  23  24
ENDBRANCH  22  23
ENDBRANCH   5  22
ENDBRANCH   4   5
ENDBRANCH   3   4
ENDBRANCH   2   3
TORSDOF 14
ENDMDL
MODEL      192
REMARK 921   NORMALIZED FREE ENERGY PREDICTED BY IDOCK:   -3.09 KCAL/MOL
REMARK 922        TOTAL FREE ENERGY PREDICTED BY IDOCK:   -7.00 KCAL/MOL
REMARK 923 INTER-LIGAND FREE ENERGY PREDICTED BY IDOCK:   -5.99 KCAL/MOL
REMARK 924 INTRA-LIGAND FREE ENERGY PREDICTED BY IDOCK:   -1.00 KCAL/MOL
REMARK 927      BINDING AFFINITY PREDICTED BY RF-SCORE:    0.00 PKD
ROOT
HETATM    1  C   UNL     1     -13.347  14.904  73.005  1.00  0.00    -0.556 C  
HETATM    2  C   UNL     1     -12.290  15.966  72.696  1.00  0.00    -0.581 C  
ENDROOT
BRANCH   2   3
HETATM    3  C   UNL     1     -11.847  15.907  71.221  1.00  0.00    -0.502 C  
BRANCH   3   4
HETATM    4  C   UNL     1     -12.380  14.642  70.515  1.00  0.00    -0.337 C  
BRANCH   4   5
HETATM    5  N   UNL     1     -11.412  14.062  69.566  1.00  0.00    -0.269 NA 
BRANCH   5   6
HETATM    6  C   UNL     1     -11.528  12.660  69.188  1.00  0.00    -0.304 C  
HETATM    7  S   UNL     1     -10.793  12.039  67.623  1.00  0.00    -0.244 SA 
HETATM    8  C   UNL     1      -9.236   8.376  68.738  1.00  0.00    -0.143 C  
HETATM    9  S   UNL     1     -12.040  11.465  70.234  1.00  0.00    -0.370 SA 
HETATM   10 ZN   UNL     1     -10.658  10.374  68.937  1.00  0.00    -0.162 Zn 
HETATM   11  S   UNL     1     -10.655   8.474  67.879  1.00  0.00    -0.099 SA 
HETATM   12  S   UNL     1      -8.917   9.699  69.973  1.00  0.00    -0.229 SA 
BRANCH   8  13
HETATM   13  N   UNL     1      -8.168   7.493  68.356  1.00  0.00    -0.124 NA 
BRANCH  13  14
HETATM   14  C   UNL     1      -7.785   6.349  69.183  1.00  0.00    -0.101 C  
BRANCH  14  15
HETATM   15  C   UNL     1      -7.897   5.009  68.412  1.00  0.00    -0.082 C  
BRANCH  15  16
HETATM   16  C   UNL     1      -9.321   4.421  68.358  1.00  0.00    -0.203 C  
HETATM   17  C   UNL     1      -9.299   2.985  67.819  1.00  0.00    -0.251 C  
ENDBRANCH  15  16
ENDBRANCH  14  15
ENDBRANCH  13  14
BRANCH  13  18
HETATM   18  C   UNL     1      -7.460   7.724  67.092  1.00  0.00    -0.096 C  
BRANCH  18  19
HETATM   19  C   UNL     1      -6.299   8.737  67.248  1.00  0.00    -0.057 C  
BRANCH  19  20
HETATM   20  C   UNL     1      -6.639  10.170  66.801  1.00  0.00    -0.073 C  
HETATM   21  C   UNL     1      -7.763  10.158  65.759  1.00  0.00    -0.136 C  
ENDBRANCH  19  20
ENDBRANCH  18  19
ENDBRANCH  13  18
ENDBRANCH   8  13
ENDBRANCH   5   6
BRANCH   5  22
HETATM   22  C   UNL     1     -10.387  14.928  68.968  1.00  0.00    -0.245 C  
BRANCH  22  23
HETATM   23  C   UNL     1     -10.840  15.740  67.739  1.00  0.00    -0.316 C  
BRANCH  23  24
HETATM   24  C   UNL     1      -9.946  15.584  66.502  1.00  0.00    -0.283 C  
HETATM   25  C   UNL     1      -9.479  16.956  66.002  1.00  0.00    -0.227 C  
ENDBRANCH  23  24
ENDBRANCH  22  23
ENDBRANCH   5  22
ENDBRANCH   4   5
ENDBRANCH   3   4
ENDBRANCH   2   3
TORSDOF 14
ENDMDL
MODEL      193
REMARK 921   NORMALIZED FREE ENERGY PREDICTED BY IDOCK:   -3.09 KCAL/MOL
REMARK 922        TOTAL FREE ENERGY PREDICTED BY IDOCK:   -7.00 KCAL/MOL
REMARK 923 INTER-LIGAND FREE ENERGY PREDICTED BY IDOCK:   -6.34 KCAL/MOL
REMARK 924 INTRA-LIGAND FREE ENERGY PREDICTED BY IDOCK:   -0.66 KCAL/MOL
REMARK 927      BINDING AFFINITY PREDICTED BY RF-SCORE:    0.00 PKD
ROOT
HETATM    1  C   UNL     1     -12.346  11.540  70.943  1.00  0.00    -0.460 C  
HETATM    2  C   UNL     1     -12.110  10.195  71.633  1.00  0.00    -0.373 C  
ENDROOT
BRANCH   2   3
HETATM    3  C   UNL     1     -12.547   9.018  70.739  1.00  0.00     0.045 C  
BRANCH   3   4
HETATM    4  C   UNL     1     -11.396   8.013  70.515  1.00  0.00    -0.225 C  
BRANCH   4   5
HETATM    5  N   UNL     1     -10.065   8.646  70.551  1.00  0.00    -0.190 NA 
BRANCH   5   6
HETATM    6  C   UNL     1      -9.568   9.343  69.372  1.00  0.00    -0.173 C  
HETATM    7  S   UNL     1     -10.642   9.601  67.904  1.00  0.00    -0.246 SA 
HETATM    8  C   UNL     1      -9.676  13.447  66.737  1.00  0.00    -0.262 C  
HETATM    9  S   UNL     1      -8.144  10.212  69.350  1.00  0.00    -0.168 SA 
HETATM   10 ZN   UNL     1      -9.367  11.302  67.900  1.00  0.00    -0.140 Zn 
HETATM   11  S   UNL     1      -9.088  12.131  65.909  1.00  0.00     0.096 SA 
HETATM   12  S   UNL     1      -9.859  13.273  68.556  1.00  0.00    -0.112 SA 
BRANCH   8  13
HETATM   13  N   UNL     1     -10.290  14.561  66.067  1.00  0.00    -0.296 NA 
BRANCH  13  14
HETATM   14  C   UNL     1     -10.623  14.514  64.644  1.00  0.00    -0.272 C  
BRANCH  14  15
HETATM   15  C   UNL     1     -12.143  14.325  64.407  1.00  0.00    -0.490 C  
BRANCH  15  16
HETATM   16  C   UNL     1     -12.678  12.927  64.777  1.00  0.00    -0.442 C  
HETATM   17  C   UNL     1     -12.586  11.972  63.581  1.00  0.00    -0.605 C  
ENDBRANCH  15  16
ENDBRANCH  14  15
ENDBRANCH  13  14
BRANCH  13  18
HETATM   18  C   UNL     1     -10.618  15.769  66.833  1.00  0.00    -0.317 C  
BRANCH  18  19
HETATM   19  C   UNL     1     -10.098  17.056  66.149  1.00  0.00    -0.332 C  
BRANCH  19  20
HETATM   20  C   UNL     1      -8.851  17.671  66.811  1.00  0.00    -0.275 C  
HETATM   21  C   UNL     1      -7.572  17.057  66.229  1.00  0.00    -0.340 C  
ENDBRANCH  19  20
ENDBRANCH  18  19
ENDBRANCH  13  18
ENDBRANCH   8  13
ENDBRANCH   5   6
BRANCH   5  22
HETATM   22  C   UNL     1      -9.292   8.618  71.800  1.00  0.00    -0.273 C  
BRANCH  22  23
HETATM   23  C   UNL     1      -8.480   7.332  72.048  1.00  0.00    -0.116 C  
BRANCH  23  24
HETATM   24  C   UNL     1      -9.100   6.371  73.071  1.00  0.00    -0.133 C  
HETATM   25  C   UNL     1      -9.202   7.042  74.445  1.00  0.00    -0.238 C  
ENDBRANCH  23  24
ENDBRANCH  22  23
ENDBRANCH   5  22
ENDBRANCH   4   5
ENDBRANCH   3   4
ENDBRANCH   2   3
TORSDOF 14
ENDMDL
MODEL      194
REMARK 921   NORMALIZED FREE ENERGY PREDICTED BY IDOCK:   -3.09 KCAL/MOL
REMARK 922        TOTAL FREE ENERGY PREDICTED BY IDOCK:   -6.99 KCAL/MOL
REMARK 923 INTER-LIGAND FREE ENERGY PREDICTED BY IDOCK:   -6.04 KCAL/MOL
REMARK 924 INTRA-LIGAND FREE ENERGY PREDICTED BY IDOCK:   -0.96 KCAL/MOL
REMARK 927      BINDING AFFINITY PREDICTED BY RF-SCORE:    0.00 PKD
ROOT
HETATM    1  C   UNL     1     -12.517  14.063  70.560  1.00  0.00    -0.429 C  
HETATM    2  C   UNL     1     -12.535  12.573  70.905  1.00  0.00    -0.361 C  
ENDROOT
BRANCH   2   3
HETATM    3  C   UNL     1     -12.107  11.711  69.701  1.00  0.00    -0.345 C  
BRANCH   3   4
HETATM    4  C   UNL     1     -11.197  12.495  68.732  1.00  0.00    -0.273 C  
BRANCH   4   5
HETATM    5  N   UNL     1     -10.933  11.769  67.476  1.00  0.00    -0.240 NA 
BRANCH   5   6
HETATM    6  C   UNL     1     -10.112  10.566  67.501  1.00  0.00    -0.189 C  
HETATM    7  S   UNL     1      -8.746  10.379  68.716  1.00  0.00    -0.153 SA 
HETATM    8  C   UNL     1      -9.066   6.414  69.840  1.00  0.00    -0.142 C  
HETATM    9  S   UNL     1     -10.504   9.168  66.679  1.00  0.00    -0.097 SA 
HETATM   10 ZN   UNL     1      -9.432   8.389  68.420  1.00  0.00    -0.135 Zn 
HETATM   11  S   UNL     1      -7.881   6.909  68.785  1.00  0.00    -0.120 SA 
HETATM   12  S   UNL     1     -10.692   7.262  69.724  1.00  0.00    -0.233 SA 
BRANCH   8  13
HETATM   13  N   UNL     1      -8.780   5.585  70.980  1.00  0.00    -0.128 NA 
BRANCH  13  14
HETATM   14  C   UNL     1      -8.341   4.199  70.831  1.00  0.00    -0.078 C  
BRANCH  14  15
HETATM   15  C   UNL     1      -9.468   3.286  70.286  1.00  0.00    -0.234 C  
BRANCH  15  16
HETATM   16  C   UNL     1      -9.334   2.926  68.793  1.00  0.00    -0.234 C  
HETATM   17  C   UNL     1      -8.459   1.680  68.607  1.00  0.00    -0.083 C  
ENDBRANCH  15  16
ENDBRANCH  14  15
ENDBRANCH  13  14
BRANCH  13  18
HETATM   18  C   UNL     1      -8.904   6.150  72.329  1.00  0.00    -0.137 C  
BRANCH  18  19
HETATM   19  C   UNL     1      -8.910   5.056  73.423  1.00  0.00    -0.113 C  
BRANCH  19  20
HETATM   20  C   UNL     1     -10.298   4.754  74.015  1.00  0.00    -0.299 C  
HETATM   21  C   UNL     1     -11.402   5.102  73.008  1.00  0.00    -0.381 C  
ENDBRANCH  19  20
ENDBRANCH  18  19
ENDBRANCH  13  18
ENDBRANCH   8  13
ENDBRANCH   5   6
BRANCH   5  22
HETATM   22  C   UNL     1     -11.558  12.237  66.232  1.00  0.00    -0.385 C  
BRANCH  22  23
HETATM   23  C   UNL     1     -10.598  12.864  65.203  1.00  0.00    -0.321 C  
BRANCH  23  24
HETATM   24  C   UNL     1     -10.795  12.376  63.762  1.00  0.00    -0.500 C  
HETATM   25  C   UNL     1      -9.972  11.108  63.507  1.00  0.00    -0.425 C  
ENDBRANCH  23  24
ENDBRANCH  22  23
ENDBRANCH   5  22
ENDBRANCH   4   5
ENDBRANCH   3   4
ENDBRANCH   2   3
TORSDOF 14
ENDMDL
MODEL      195
REMARK 921   NORMALIZED FREE ENERGY PREDICTED BY IDOCK:   -3.08 KCAL/MOL
REMARK 922        TOTAL FREE ENERGY PREDICTED BY IDOCK:   -6.98 KCAL/MOL
REMARK 923 INTER-LIGAND FREE ENERGY PREDICTED BY IDOCK:   -5.96 KCAL/MOL
REMARK 924 INTRA-LIGAND FREE ENERGY PREDICTED BY IDOCK:   -1.02 KCAL/MOL
REMARK 927      BINDING AFFINITY PREDICTED BY RF-SCORE:    0.00 PKD
ROOT
HETATM    1  C   UNL     1      -9.641  20.766  67.289  1.00  0.00    -0.494 C  
HETATM    2  C   UNL     1     -10.411  19.729  66.469  1.00  0.00    -0.621 C  
ENDROOT
BRANCH   2   3
HETATM    3  C   UNL     1     -10.762  18.489  67.315  1.00  0.00    -0.417 C  
BRANCH   3   4
HETATM    4  C   UNL     1     -10.204  17.194  66.687  1.00  0.00    -0.319 C  
BRANCH   4   5
HETATM    5  N   UNL     1      -9.156  16.561  67.509  1.00  0.00    -0.197 NA 
BRANCH   5   6
HETATM    6  C   UNL     1      -8.752  15.190  67.227  1.00  0.00    -0.202 C  
HETATM    7  S   UNL     1      -7.607  14.293  68.349  1.00  0.00    -0.134 SA 
HETATM    8  C   UNL     1      -9.220  10.489  68.444  1.00  0.00    -0.154 C  
HETATM    9  S   UNL     1      -9.494  14.229  66.082  1.00  0.00    -0.164 SA 
HETATM   10 ZN   UNL     1      -8.850  12.757  67.566  1.00  0.00    -0.142 Zn 
HETATM   11  S   UNL     1      -7.865  10.818  67.540  1.00  0.00    -0.111 SA 
HETATM   12  S   UNL     1     -10.491  11.812  68.552  1.00  0.00    -0.217 SA 
BRANCH   8  13
HETATM   13  N   UNL     1      -9.291   9.365  69.338  1.00  0.00    -0.161 NA 
BRANCH  13  14
HETATM   14  C   UNL     1     -10.163   8.223  69.068  1.00  0.00    -0.217 C  
BRANCH  14  15
HETATM   15  C   UNL     1      -9.435   7.108  68.276  1.00  0.00    -0.133 C  
BRANCH  15  16
HETATM   16  C   UNL     1      -9.828   7.021  66.788  1.00  0.00    -0.250 C  
HETATM   17  C   UNL     1      -8.601   7.203  65.886  1.00  0.00    -0.157 C  
ENDBRANCH  15  16
ENDBRANCH  14  15
ENDBRANCH  13  14
BRANCH  13  18
HETATM   18  C   UNL     1      -8.448   9.347  70.539  1.00  0.00    -0.212 C  
BRANCH  18  19
HETATM   19  C   UNL     1      -8.819   8.191  71.498  1.00  0.00    -0.195 C  
BRANCH  19  20
HETATM   20  C   UNL     1      -7.612   7.433  72.079  1.00  0.00    -0.084 C  
HETATM   21  C   UNL     1      -7.243   7.983  73.462  1.00  0.00    -0.164 C  
ENDBRANCH  19  20
ENDBRANCH  18  19
ENDBRANCH  13  18
ENDBRANCH   8  13
ENDBRANCH   5   6
BRANCH   5  22
HETATM   22  C   UNL     1      -8.492  17.349  68.556  1.00  0.00    -0.274 C  
BRANCH  22  23
HETATM   23  C   UNL     1      -7.230  18.112  68.111  1.00  0.00    -0.247 C  
BRANCH  23  24
HETATM   24  C   UNL     1      -6.746  19.182  69.099  1.00  0.00    -0.346 C  
HETATM   25  C   UNL     1      -6.202  20.401  68.344  1.00  0.00    -0.343 C  
ENDBRANCH  23  24
ENDBRANCH  22  23
ENDBRANCH   5  22
ENDBRANCH   4   5
ENDBRANCH   3   4
ENDBRANCH   2   3
TORSDOF 14
ENDMDL
MODEL      196
REMARK 921   NORMALIZED FREE ENERGY PREDICTED BY IDOCK:   -3.07 KCAL/MOL
REMARK 922        TOTAL FREE ENERGY PREDICTED BY IDOCK:   -6.96 KCAL/MOL
REMARK 923 INTER-LIGAND FREE ENERGY PREDICTED BY IDOCK:   -5.63 KCAL/MOL
REMARK 924 INTRA-LIGAND FREE ENERGY PREDICTED BY IDOCK:   -1.34 KCAL/MOL
REMARK 927      BINDING AFFINITY PREDICTED BY RF-SCORE:    0.00 PKD
ROOT
HETATM    1  C   UNL     1      -6.542  18.367  65.551  1.00  0.00    -0.287 C  
HETATM    2  C   UNL     1      -6.130  19.633  66.303  1.00  0.00    -0.176 C  
ENDROOT
BRANCH   2   3
HETATM    3  C   UNL     1      -6.622  19.607  67.763  1.00  0.00    -0.260 C  
BRANCH   3   4
HETATM    4  C   UNL     1      -7.144  18.210  68.165  1.00  0.00    -0.235 C  
BRANCH   4   5
HETATM    5  N   UNL     1      -8.602  18.182  68.383  1.00  0.00    -0.294 NA 
BRANCH   5   6
HETATM    6  C   UNL     1      -9.344  16.955  68.126  1.00  0.00    -0.240 C  
HETATM    7  S   UNL     1      -9.422  16.234  66.438  1.00  0.00    -0.318 SA 
HETATM    8  C   UNL     1      -9.080  12.179  67.163  1.00  0.00    -0.189 C  
HETATM    9  S   UNL     1      -9.911  15.953  69.334  1.00  0.00    -0.277 SA 
HETATM   10 ZN   UNL     1      -9.515  14.537  67.714  1.00  0.00    -0.186 Zn 
HETATM   11  S   UNL     1     -10.551  12.859  66.797  1.00  0.00    -0.259 SA 
HETATM   12  S   UNL     1      -7.922  13.190  68.170  1.00  0.00    -0.163 SA 
BRANCH   8  13
HETATM   13  N   UNL     1      -8.595  10.998  66.501  1.00  0.00    -0.159 NA 
BRANCH  13  14
HETATM   14  C   UNL     1      -9.099  10.592  65.190  1.00  0.00    -0.197 C  
BRANCH  14  15
HETATM   15  C   UNL     1      -7.979  10.011  64.290  1.00  0.00    -0.152 C  
BRANCH  15  16
HETATM   16  C   UNL     1      -8.238   8.574  63.794  1.00  0.00    -0.126 C  
HETATM   17  C   UNL     1      -8.695   8.574  62.330  1.00  0.00    -0.074 C  
ENDBRANCH  15  16
ENDBRANCH  14  15
ENDBRANCH  13  14
BRANCH  13  18
HETATM   18  C   UNL     1      -7.549  10.192  67.141  1.00  0.00    -0.092 C  
BRANCH  18  19
HETATM   19  C   UNL     1      -8.131   8.985  67.914  1.00  0.00    -0.106 C  
BRANCH  19  20
HETATM   20  C   UNL     1      -7.438   7.643  67.617  1.00  0.00    -0.104 C  
HETATM   21  C   UNL     1      -7.048   6.936  68.920  1.00  0.00    -0.089 C  
ENDBRANCH  19  20
ENDBRANCH  18  19
ENDBRANCH  13  18
ENDBRANCH   8  13
ENDBRANCH   5   6
BRANCH   5  22
HETATM   22  C   UNL     1      -9.270  19.375  68.920  1.00  0.00    -0.339 C  
BRANCH  22  23
HETATM   23  C   UNL     1     -10.422  19.932  68.062  1.00  0.00    -0.490 C  
BRANCH  23  24
HETATM   24  C   UNL     1     -10.000  20.450  66.681  1.00  0.00    -0.492 C  
HETATM   25  C   UNL     1     -10.684  19.642  65.573  1.00  0.00    -0.323 C  
ENDBRANCH  23  24
ENDBRANCH  22  23
ENDBRANCH   5  22
ENDBRANCH   4   5
ENDBRANCH   3   4
ENDBRANCH   2   3
TORSDOF 14
ENDMDL
MODEL      197
REMARK 921   NORMALIZED FREE ENERGY PREDICTED BY IDOCK:   -3.06 KCAL/MOL
REMARK 922        TOTAL FREE ENERGY PREDICTED BY IDOCK:   -6.95 KCAL/MOL
REMARK 923 INTER-LIGAND FREE ENERGY PREDICTED BY IDOCK:   -5.94 KCAL/MOL
REMARK 924 INTRA-LIGAND FREE ENERGY PREDICTED BY IDOCK:   -1.01 KCAL/MOL
REMARK 927      BINDING AFFINITY PREDICTED BY RF-SCORE:    0.00 PKD
ROOT
HETATM    1  C   UNL     1      -9.201  16.699  68.498  1.00  0.00    -0.234 C  
HETATM    2  C   UNL     1     -10.726  16.700  68.384  1.00  0.00    -0.353 C  
ENDROOT
BRANCH   2   3
HETATM    3  C   UNL     1     -11.334  15.396  68.937  1.00  0.00    -0.322 C  
BRANCH   3   4
HETATM    4  C   UNL     1     -12.129  14.633  67.855  1.00  0.00    -0.179 C  
BRANCH   4   5
HETATM    5  N   UNL     1     -11.266  13.851  66.951  1.00  0.00    -0.304 NA 
BRANCH   5   6
HETATM    6  C   UNL     1     -10.375  12.839  67.505  1.00  0.00    -0.219 C  
HETATM    7  S   UNL     1     -11.036  11.434  68.486  1.00  0.00    -0.261 SA 
HETATM    8  C   UNL     1      -8.743   8.253  67.179  1.00  0.00    -0.123 C  
HETATM    9  S   UNL     1      -8.774  12.684  67.064  1.00  0.00    -0.175 SA 
HETATM   10 ZN   UNL     1      -9.322  10.618  67.531  1.00  0.00    -0.138 Zn 
HETATM   11  S   UNL     1      -8.449   8.969  68.649  1.00  0.00    -0.129 SA 
HETATM   12  S   UNL     1      -9.295   9.351  65.813  1.00  0.00    -0.255 SA 
BRANCH   8  13
HETATM   13  N   UNL     1      -8.855   6.827  67.030  1.00  0.00    -0.113 NA 
BRANCH  13  14
HETATM   14  C   UNL     1      -8.849   6.190  65.714  1.00  0.00    -0.124 C  
BRANCH  14  15
HETATM   15  C   UNL     1      -7.516   5.453  65.428  1.00  0.00    -0.077 C  
BRANCH  15  16
HETATM   16  C   UNL     1      -6.902   5.755  64.047  1.00  0.00    -0.049 C  
HETATM   17  C   UNL     1      -7.713   5.085  62.931  1.00  0.00    -0.067 C  
ENDBRANCH  15  16
ENDBRANCH  14  15
ENDBRANCH  13  14
BRANCH  13  18
HETATM   18  C   UNL     1      -8.950   5.984  68.227  1.00  0.00    -0.113 C  
BRANCH  18  19
HETATM   19  C   UNL     1     -10.409   5.575  68.541  1.00  0.00    -0.247 C  
BRANCH  19  20
HETATM   20  C   UNL     1     -10.781   5.639  70.033  1.00  0.00    -0.390 C  
HETATM   21  C   UNL     1      -9.570   5.295  70.908  1.00  0.00    -0.233 C  
ENDBRANCH  19  20
ENDBRANCH  18  19
ENDBRANCH  13  18
ENDBRANCH   8  13
ENDBRANCH   5   6
BRANCH   5  22
HETATM   22  C   UNL     1     -11.368  14.061  65.501  1.00  0.00    -0.313 C  
BRANCH  22  23
HETATM   23  C   UNL     1     -12.625  13.471  64.833  1.00  0.00    -0.392 C  
BRANCH  23  24
HETATM   24  C   UNL     1     -12.357  12.275  63.909  1.00  0.00    -0.606 C  
HETATM   25  C   UNL     1     -10.857  12.143  63.623  1.00  0.00    -0.523 C  
ENDBRANCH  23  24
ENDBRANCH  22  23
ENDBRANCH   5  22
ENDBRANCH   4   5
ENDBRANCH   3   4
ENDBRANCH   2   3
TORSDOF 14
ENDMDL
MODEL      198
REMARK 921   NORMALIZED FREE ENERGY PREDICTED BY IDOCK:   -3.05 KCAL/MOL
REMARK 922        TOTAL FREE ENERGY PREDICTED BY IDOCK:   -6.93 KCAL/MOL
REMARK 923 INTER-LIGAND FREE ENERGY PREDICTED BY IDOCK:   -5.91 KCAL/MOL
REMARK 924 INTRA-LIGAND FREE ENERGY PREDICTED BY IDOCK:   -1.02 KCAL/MOL
REMARK 927      BINDING AFFINITY PREDICTED BY RF-SCORE:    0.00 PKD
ROOT
HETATM    1  C   UNL     1     -11.729   1.779  73.675  1.00  0.00    -0.295 C  
HETATM    2  C   UNL     1     -10.690   2.686  73.015  1.00  0.00    -0.231 C  
ENDROOT
BRANCH   2   3
HETATM    3  C   UNL     1     -10.959   4.172  73.326  1.00  0.00    -0.324 C  
BRANCH   3   4
HETATM    4  C   UNL     1      -9.708   5.042  73.078  1.00  0.00    -0.146 C  
BRANCH   4   5
HETATM    5  N   UNL     1      -9.745   5.747  71.784  1.00  0.00    -0.156 NA 
BRANCH   5   6
HETATM    6  C   UNL     1     -10.553   6.951  71.644  1.00  0.00    -0.209 C  
HETATM    7  S   UNL     1      -9.856   8.607  72.029  1.00  0.00    -0.313 SA 
HETATM    8  C   UNL     1     -11.421  10.974  69.023  1.00  0.00    -0.299 C  
HETATM    9  S   UNL     1     -12.024   6.985  70.858  1.00  0.00    -0.349 SA 
HETATM   10 ZN   UNL     1     -11.259   8.999  70.481  1.00  0.00    -0.222 Zn 
HETATM   11  S   UNL     1     -12.046  11.025  70.562  1.00  0.00    -0.399 SA 
HETATM   12  S   UNL     1     -10.828   9.343  68.419  1.00  0.00    -0.044 SA 
BRANCH   8  13
HETATM   13  N   UNL     1     -11.078  12.166  68.295  1.00  0.00    -0.225 NA 
BRANCH  13  14
HETATM   14  C   UNL     1      -9.942  12.204  67.375  1.00  0.00    -0.199 C  
BRANCH  14  15
HETATM   15  C   UNL     1      -8.596  12.389  68.119  1.00  0.00    -0.185 C  
BRANCH  15  16
HETATM   16  C   UNL     1      -7.399  11.674  67.462  1.00  0.00    -0.119 C  
HETATM   17  C   UNL     1      -6.136  11.822  68.319  1.00  0.00    -0.049 C  
ENDBRANCH  15  16
ENDBRANCH  14  15
ENDBRANCH  13  14
BRANCH  13  18
HETATM   18  C   UNL     1     -11.903  13.368  68.455  1.00  0.00    -0.366 C  
BRANCH  18  19
HETATM   19  C   UNL     1     -11.204  14.449  69.314  1.00  0.00    -0.308 C  
BRANCH  19  20
HETATM   20  C   UNL     1     -11.303  15.876  68.748  1.00  0.00    -0.378 C  
HETATM   21  C   UNL     1     -10.338  16.059  67.571  1.00  0.00    -0.287 C  
ENDBRANCH  19  20
ENDBRANCH  18  19
ENDBRANCH  13  18
ENDBRANCH   8  13
ENDBRANCH   5   6
BRANCH   5  22
HETATM   22  C   UNL     1      -8.913   5.257  70.677  1.00  0.00    -0.134 C  
BRANCH  22  23
HETATM   23  C   UNL     1      -9.422   3.982  69.979  1.00  0.00    -0.260 C  
BRANCH  23  24
HETATM   24  C   UNL     1      -9.482   4.069  68.448  1.00  0.00    -0.211 C  
HETATM   25  C   UNL     1     -10.265   5.313  68.012  1.00  0.00    -0.204 C  
ENDBRANCH  23  24
ENDBRANCH  22  23
ENDBRANCH   5  22
ENDBRANCH   4   5
ENDBRANCH   3   4
ENDBRANCH   2   3
TORSDOF 14
ENDMDL
MODEL      199
REMARK 921   NORMALIZED FREE ENERGY PREDICTED BY IDOCK:   -3.04 KCAL/MOL
REMARK 922        TOTAL FREE ENERGY PREDICTED BY IDOCK:   -6.92 KCAL/MOL
REMARK 923 INTER-LIGAND FREE ENERGY PREDICTED BY IDOCK:   -5.79 KCAL/MOL
REMARK 924 INTRA-LIGAND FREE ENERGY PREDICTED BY IDOCK:   -1.12 KCAL/MOL
REMARK 927      BINDING AFFINITY PREDICTED BY RF-SCORE:    0.00 PKD
ROOT
HETATM    1  C   UNL     1      -8.903   6.419  71.216  1.00  0.00    -0.138 C  
HETATM    2  C   UNL     1      -9.286   6.012  69.792  1.00  0.00    -0.153 C  
ENDROOT
BRANCH   2   3
HETATM    3  C   UNL     1      -8.038   5.776  68.919  1.00  0.00    -0.102 C  
BRANCH   3   4
HETATM    4  C   UNL     1      -8.170   6.456  67.539  1.00  0.00    -0.117 C  
BRANCH   4   5
HETATM    5  N   UNL     1      -7.811   7.885  67.565  1.00  0.00    -0.120 NA 
BRANCH   5   6
HETATM    6  C   UNL     1      -8.469   8.809  66.650  1.00  0.00    -0.108 C  
HETATM    7  S   UNL     1     -10.213   9.322  66.917  1.00  0.00    -0.250 SA 
HETATM    8  C   UNL     1     -10.135  13.342  65.960  1.00  0.00    -0.304 C  
HETATM    9  S   UNL     1      -7.654   9.699  65.498  1.00  0.00    -0.113 SA 
HETATM   10 ZN   UNL     1      -9.324  11.020  65.999  1.00  0.00    -0.166 Zn 
HETATM   11  S   UNL     1     -10.765  12.226  64.903  1.00  0.00    -0.311 SA 
HETATM   12  S   UNL     1      -8.691  12.814  66.967  1.00  0.00    -0.169 SA 
BRANCH   8  13
HETATM   13  N   UNL     1     -10.834  14.551  66.305  1.00  0.00    -0.311 NA 
BRANCH  13  14
HETATM   14  C   UNL     1     -12.012  14.536  67.170  1.00  0.00    -0.345 C  
BRANCH  14  15
HETATM   15  C   UNL     1     -11.649  14.233  68.646  1.00  0.00    -0.352 C  
BRANCH  15  16
HETATM   16  C   UNL     1     -11.906  12.777  69.081  1.00  0.00    -0.352 C  
HETATM   17  C   UNL     1     -12.383  12.717  70.537  1.00  0.00    -0.355 C  
ENDBRANCH  15  16
ENDBRANCH  14  15
ENDBRANCH  13  14
BRANCH  13  18
HETATM   18  C   UNL     1     -10.340  15.836  65.800  1.00  0.00    -0.369 C  
BRANCH  18  19
HETATM   19  C   UNL     1     -10.406  16.951  66.871  1.00  0.00    -0.304 C  
BRANCH  19  20
HETATM   20  C   UNL     1     -10.389  18.382  66.304  1.00  0.00    -0.440 C  
HETATM   21  C   UNL     1     -10.749  19.399  67.393  1.00  0.00    -0.594 C  
ENDBRANCH  19  20
ENDBRANCH  18  19
ENDBRANCH  13  18
ENDBRANCH   8  13
ENDBRANCH   5   6
BRANCH   5  22
HETATM   22  C   UNL     1      -6.842   8.363  68.560  1.00  0.00    -0.064 C  
BRANCH  22  23
HETATM   23  C   UNL     1      -7.351   9.473  69.501  1.00  0.00    -0.077 C  
BRANCH  23  24
HETATM   24  C   UNL     1      -6.333   9.940  70.550  1.00  0.00    -0.109 C  
HETATM   25  C   UNL     1      -6.281   8.953  71.723  1.00  0.00    -0.072 C  
ENDBRANCH  23  24
ENDBRANCH  22  23
ENDBRANCH   5  22
ENDBRANCH   4   5
ENDBRANCH   3   4
ENDBRANCH   2   3
TORSDOF 14
ENDMDL
MODEL      200
REMARK 921   NORMALIZED FREE ENERGY PREDICTED BY IDOCK:   -3.04 KCAL/MOL
REMARK 922        TOTAL FREE ENERGY PREDICTED BY IDOCK:   -6.91 KCAL/MOL
REMARK 923 INTER-LIGAND FREE ENERGY PREDICTED BY IDOCK:   -5.81 KCAL/MOL
REMARK 924 INTRA-LIGAND FREE ENERGY PREDICTED BY IDOCK:   -1.10 KCAL/MOL
REMARK 927      BINDING AFFINITY PREDICTED BY RF-SCORE:    0.00 PKD
ROOT
HETATM    1  C   UNL     1     -12.814   7.361  71.490  1.00  0.00    -0.416 C  
HETATM    2  C   UNL     1     -11.634   8.266  71.846  1.00  0.00    -0.377 C  
ENDROOT
BRANCH   2   3
HETATM    3  C   UNL     1     -10.418   7.446  72.321  1.00  0.00    -0.260 C  
BRANCH   3   4
HETATM    4  C   UNL     1      -9.132   7.841  71.562  1.00  0.00    -0.133 C  
BRANCH   4   5
HETATM    5  N   UNL     1      -8.884   7.003  70.375  1.00  0.00    -0.154 NA 
BRANCH   5   6
HETATM    6  C   UNL     1      -8.951   7.599  69.048  1.00  0.00    -0.137 C  
HETATM    7  S   UNL     1     -10.483   8.425  68.459  1.00  0.00    -0.117 SA 
HETATM    8  C   UNL     1      -9.022  11.730  66.452  1.00  0.00    -0.201 C  
HETATM    9  S   UNL     1      -7.612   7.860  68.087  1.00  0.00    -0.119 SA 
HETATM   10 ZN   UNL     1      -8.928   9.502  67.490  1.00  0.00    -0.119 Zn 
HETATM   11  S   UNL     1      -9.576  10.403  65.620  1.00  0.00    -0.247 SA 
HETATM   12  S   UNL     1      -8.159  11.415  68.043  1.00  0.00    -0.142 SA 
BRANCH   8  13
HETATM   13  N   UNL     1      -9.436  13.068  66.125  1.00  0.00    -0.202 NA 
BRANCH  13  14
HETATM   14  C   UNL     1     -10.003  13.398  64.818  1.00  0.00    -0.130 C  
BRANCH  14  15
HETATM   15  C   UNL     1     -11.545  13.542  64.871  1.00  0.00    -0.355 C  
BRANCH  15  16
HETATM   16  C   UNL     1     -12.253  13.331  63.518  1.00  0.00    -0.513 C  
HETATM   17  C   UNL     1     -12.902  11.944  63.451  1.00  0.00    -0.393 C  
ENDBRANCH  15  16
ENDBRANCH  14  15
ENDBRANCH  13  14
BRANCH  13  18
HETATM   18  C   UNL     1      -9.314  14.126  67.133  1.00  0.00    -0.237 C  
BRANCH  18  19
HETATM   19  C   UNL     1      -8.756  15.441  66.538  1.00  0.00    -0.335 C  
BRANCH  19  20
HETATM   20  C   UNL     1      -9.555  16.701  66.916  1.00  0.00    -0.259 C  
HETATM   21  C   UNL     1     -10.858  16.321  67.630  1.00  0.00    -0.293 C  
ENDBRANCH  19  20
ENDBRANCH  18  19
ENDBRANCH  13  18
ENDBRANCH   8  13
ENDBRANCH   5   6
BRANCH   5  22
HETATM   22  C   UNL     1      -8.507   5.595  70.558  1.00  0.00    -0.121 C  
BRANCH  22  23
HETATM   23  C   UNL     1      -9.643   4.574  70.355  1.00  0.00    -0.270 C  
BRANCH  23  24
HETATM   24  C   UNL     1      -9.560   3.774  69.048  1.00  0.00    -0.190 C  
HETATM   25  C   UNL     1      -8.209   4.008  68.361  1.00  0.00    -0.088 C  
ENDBRANCH  23  24
ENDBRANCH  22  23
ENDBRANCH   5  22
ENDBRANCH   4   5
ENDBRANCH   3   4
ENDBRANCH   2   3
TORSDOF 14
ENDMDL
MODEL      201
REMARK 921   NORMALIZED FREE ENERGY PREDICTED BY IDOCK:   -3.03 KCAL/MOL
REMARK 922        TOTAL FREE ENERGY PREDICTED BY IDOCK:   -6.90 KCAL/MOL
REMARK 923 INTER-LIGAND FREE ENERGY PREDICTED BY IDOCK:   -6.14 KCAL/MOL
REMARK 924 INTRA-LIGAND FREE ENERGY PREDICTED BY IDOCK:   -0.76 KCAL/MOL
REMARK 927      BINDING AFFINITY PREDICTED BY RF-SCORE:    0.00 PKD
ROOT
HETATM    1  C   UNL     1     -10.000  18.733  66.363  1.00  0.00    -0.426 C  
HETATM    2  C   UNL     1     -10.702  17.884  67.423  1.00  0.00    -0.306 C  
ENDROOT
BRANCH   2   3
HETATM    3  C   UNL     1      -9.839  16.678  67.843  1.00  0.00    -0.248 C  
BRANCH   3   4
HETATM    4  C   UNL     1      -9.394  15.843  66.623  1.00  0.00    -0.249 C  
BRANCH   4   5
HETATM    5  N   UNL     1      -8.576  14.674  66.993  1.00  0.00    -0.224 NA 
BRANCH   5   6
HETATM    6  C   UNL     1      -9.108  13.332  66.795  1.00  0.00    -0.210 C  
HETATM    7  S   UNL     1      -8.081  11.848  67.139  1.00  0.00    -0.172 SA 
HETATM    8  C   UNL     1     -10.775   9.273  68.927  1.00  0.00    -0.156 C  
HETATM    9  S   UNL     1     -10.727  13.013  66.549  1.00  0.00    -0.281 SA 
HETATM   10 ZN   UNL     1     -10.058  11.208  67.587  1.00  0.00    -0.164 Zn 
HETATM   11  S   UNL     1     -10.315   9.061  67.344  1.00  0.00    -0.274 SA 
HETATM   12  S   UNL     1     -10.928  11.003  69.526  1.00  0.00    -0.220 SA 
BRANCH   8  13
HETATM   13  N   UNL     1     -10.774   8.193  69.876  1.00  0.00    -0.246 NA 
BRANCH  13  14
HETATM   14  C   UNL     1     -10.917   6.800  69.455  1.00  0.00    -0.276 C  
BRANCH  14  15
HETATM   15  C   UNL     1      -9.952   5.858  70.217  1.00  0.00    -0.247 C  
BRANCH  15  16
HETATM   16  C   UNL     1      -8.587   5.650  69.531  1.00  0.00    -0.110 C  
HETATM   17  C   UNL     1      -7.475   6.379  70.295  1.00  0.00    -0.094 C  
ENDBRANCH  15  16
ENDBRANCH  14  15
ENDBRANCH  13  14
BRANCH  13  18
HETATM   18  C   UNL     1     -10.596   8.489  71.302  1.00  0.00    -0.234 C  
BRANCH  18  19
HETATM   19  C   UNL     1     -11.892   8.257  72.115  1.00  0.00    -0.431 C  
BRANCH  19  20
HETATM   20  C   UNL     1     -12.892   9.426  72.067  1.00  0.00    -0.496 C  
HETATM   21  C   UNL     1     -14.321   8.925  72.311  1.00  0.00    -0.418 C  
ENDBRANCH  19  20
ENDBRANCH  18  19
ENDBRANCH  13  18
ENDBRANCH   8  13
ENDBRANCH   5   6
BRANCH   5  22
HETATM   22  C   UNL     1      -7.211  14.884  67.495  1.00  0.00    -0.201 C  
BRANCH  22  23
HETATM   23  C   UNL     1      -7.046  14.796  69.024  1.00  0.00    -0.127 C  
BRANCH  23  24
HETATM   24  C   UNL     1      -5.992  13.786  69.498  1.00  0.00    -0.107 C  
HETATM   25  C   UNL     1      -5.699  13.978  70.991  1.00  0.00    -0.217 C  
ENDBRANCH  23  24
ENDBRANCH  22  23
ENDBRANCH   5  22
ENDBRANCH   4   5
ENDBRANCH   3   4
ENDBRANCH   2   3
TORSDOF 14
ENDMDL
MODEL      202
REMARK 921   NORMALIZED FREE ENERGY PREDICTED BY IDOCK:   -3.03 KCAL/MOL
REMARK 922        TOTAL FREE ENERGY PREDICTED BY IDOCK:   -6.88 KCAL/MOL
REMARK 923 INTER-LIGAND FREE ENERGY PREDICTED BY IDOCK:   -5.81 KCAL/MOL
REMARK 924 INTRA-LIGAND FREE ENERGY PREDICTED BY IDOCK:   -1.07 KCAL/MOL
REMARK 927      BINDING AFFINITY PREDICTED BY RF-SCORE:    0.00 PKD
ROOT
HETATM    1  C   UNL     1      -5.412   8.097  70.629  1.00  0.00    -0.025 C  
HETATM    2  C   UNL     1      -6.470   7.465  69.723  1.00  0.00    -0.035 C  
ENDROOT
BRANCH   2   3
HETATM    3  C   UNL     1      -6.839   6.045  70.191  1.00  0.00    -0.057 C  
BRANCH   3   4
HETATM    4  C   UNL     1      -7.753   6.074  71.435  1.00  0.00    -0.104 C  
BRANCH   4   5
HETATM    5  N   UNL     1      -9.169   5.820  71.115  1.00  0.00    -0.152 NA 
BRANCH   5   6
HETATM    6  C   UNL     1     -10.068   6.944  70.890  1.00  0.00    -0.194 C  
HETATM    7  S   UNL     1      -9.548   8.663  71.281  1.00  0.00    -0.250 SA 
HETATM    8  C   UNL     1     -11.099  10.824  68.117  1.00  0.00    -0.280 C  
HETATM    9  S   UNL     1     -11.478   6.832  70.004  1.00  0.00    -0.306 SA 
HETATM   10 ZN   UNL     1     -10.868   8.899  69.631  1.00  0.00    -0.209 Zn 
HETATM   11  S   UNL     1     -11.833  10.848  69.607  1.00  0.00    -0.359 SA 
HETATM   12  S   UNL     1     -10.324   9.242  67.595  1.00  0.00    -0.265 SA 
BRANCH   8  13
HETATM   13  N   UNL     1     -10.812  12.027  67.384  1.00  0.00    -0.232 NA 
BRANCH  13  14
HETATM   14  C   UNL     1     -11.824  13.063  67.181  1.00  0.00    -0.373 C  
BRANCH  14  15
HETATM   15  C   UNL     1     -11.920  13.501  65.698  1.00  0.00    -0.429 C  
BRANCH  15  16
HETATM   16  C   UNL     1     -12.704  12.529  64.794  1.00  0.00    -0.415 C  
HETATM   17  C   UNL     1     -12.055  12.427  63.408  1.00  0.00    -0.620 C  
ENDBRANCH  15  16
ENDBRANCH  14  15
ENDBRANCH  13  14
BRANCH  13  18
HETATM   18  C   UNL     1      -9.463  12.239  66.848  1.00  0.00    -0.217 C  
BRANCH  18  19
HETATM   19  C   UNL     1      -8.429  12.531  67.961  1.00  0.00    -0.173 C  
BRANCH  19  20
HETATM   20  C   UNL     1      -7.060  11.858  67.754  1.00  0.00    -0.103 C  
HETATM   21  C   UNL     1      -7.070  10.994  66.487  1.00  0.00    -0.136 C  
ENDBRANCH  19  20
ENDBRANCH  18  19
ENDBRANCH  13  18
ENDBRANCH   8  13
ENDBRANCH   5   6
BRANCH   5  22
HETATM   22  C   UNL     1      -9.633   4.434  70.964  1.00  0.00    -0.179 C  
BRANCH  22  23
HETATM   23  C   UNL     1      -9.444   3.534  72.200  1.00  0.00    -0.191 C  
BRANCH  23  24
HETATM   24  C   UNL     1     -10.733   3.227  72.973  1.00  0.00    -0.222 C  
HETATM   25  C   UNL     1     -11.290   4.504  73.615  1.00  0.00    -0.288 C  
ENDBRANCH  23  24
ENDBRANCH  22  23
ENDBRANCH   5  22
ENDBRANCH   4   5
ENDBRANCH   3   4
ENDBRANCH   2   3
TORSDOF 14
ENDMDL
MODEL      203
REMARK 921   NORMALIZED FREE ENERGY PREDICTED BY IDOCK:   -3.02 KCAL/MOL
REMARK 922        TOTAL FREE ENERGY PREDICTED BY IDOCK:   -6.88 KCAL/MOL
REMARK 923 INTER-LIGAND FREE ENERGY PREDICTED BY IDOCK:   -5.83 KCAL/MOL
REMARK 924 INTRA-LIGAND FREE ENERGY PREDICTED BY IDOCK:   -1.05 KCAL/MOL
REMARK 927      BINDING AFFINITY PREDICTED BY RF-SCORE:    0.00 PKD
ROOT
HETATM    1  C   UNL     1      -5.243   9.168  70.515  1.00  0.00    -0.023 C  
HETATM    2  C   UNL     1      -6.652   8.632  70.256  1.00  0.00    -0.039 C  
ENDROOT
BRANCH   2   3
HETATM    3  C   UNL     1      -6.938   7.369  71.093  1.00  0.00    -0.058 C  
BRANCH   3   4
HETATM    4  C   UNL     1      -8.238   7.510  71.913  1.00  0.00    -0.106 C  
BRANCH   4   5
HETATM    5  N   UNL     1      -9.423   6.989  71.207  1.00  0.00    -0.164 NA 
BRANCH   5   6
HETATM    6  C   UNL     1     -10.225   7.888  70.387  1.00  0.00    -0.197 C  
HETATM    7  S   UNL     1     -10.996   9.390  71.109  1.00  0.00    -0.384 SA 
HETATM    8  C   UNL     1     -10.452  12.211  68.137  1.00  0.00    -0.211 C  
HETATM    9  S   UNL     1     -10.265   7.822  68.720  1.00  0.00    -0.201 SA 
HETATM   10 ZN   UNL     1     -10.587   9.951  69.101  1.00  0.00    -0.170 Zn 
HETATM   11  S   UNL     1     -11.933  11.498  68.374  1.00  0.00    -0.070 SA 
HETATM   12  S   UNL     1      -8.968  11.163  68.415  1.00  0.00    -0.168 SA 
BRANCH   8  13
HETATM   13  N   UNL     1     -10.298  13.635  68.012  1.00  0.00    -0.244 NA 
BRANCH  13  14
HETATM   14  C   UNL     1     -11.403  14.492  67.583  1.00  0.00    -0.337 C  
BRANCH  14  15
HETATM   15  C   UNL     1     -11.456  14.648  66.043  1.00  0.00    -0.332 C  
BRANCH  15  16
HETATM   16  C   UNL     1     -12.647  13.939  65.369  1.00  0.00    -0.538 C  
HETATM   17  C   UNL     1     -12.231  12.567  64.826  1.00  0.00    -0.532 C  
ENDBRANCH  15  16
ENDBRANCH  14  15
ENDBRANCH  13  14
BRANCH  13  18
HETATM   18  C   UNL     1      -9.010  14.253  68.347  1.00  0.00    -0.189 C  
BRANCH  18  19
HETATM   19  C   UNL     1      -9.177  15.527  69.209  1.00  0.00    -0.268 C  
BRANCH  19  20
HETATM   20  C   UNL     1      -8.708  16.824  68.527  1.00  0.00    -0.245 C  
HETATM   21  C   UNL     1      -9.831  17.869  68.522  1.00  0.00    -0.367 C  
ENDBRANCH  19  20
ENDBRANCH  18  19
ENDBRANCH  13  18
ENDBRANCH   8  13
ENDBRANCH   5   6
BRANCH   5  22
HETATM   22  C   UNL     1      -9.736   5.556  71.292  1.00  0.00    -0.166 C  
BRANCH  22  23
HETATM   23  C   UNL     1     -11.006   5.201  72.089  1.00  0.00    -0.174 C  
BRANCH  23  24
HETATM   24  C   UNL     1     -10.748   4.687  73.511  1.00  0.00    -0.334 C  
HETATM   25  C   UNL     1     -10.882   3.160  73.562  1.00  0.00    -0.316 C  
ENDBRANCH  23  24
ENDBRANCH  22  23
ENDBRANCH   5  22
ENDBRANCH   4   5
ENDBRANCH   3   4
ENDBRANCH   2   3
TORSDOF 14
ENDMDL
MODEL      204
REMARK 921   NORMALIZED FREE ENERGY PREDICTED BY IDOCK:   -3.02 KCAL/MOL
REMARK 922        TOTAL FREE ENERGY PREDICTED BY IDOCK:   -6.88 KCAL/MOL
REMARK 923 INTER-LIGAND FREE ENERGY PREDICTED BY IDOCK:   -5.63 KCAL/MOL
REMARK 924 INTRA-LIGAND FREE ENERGY PREDICTED BY IDOCK:   -1.25 KCAL/MOL
REMARK 927      BINDING AFFINITY PREDICTED BY RF-SCORE:    0.00 PKD
ROOT
HETATM    1  C   UNL     1     -11.661   7.840  72.634  1.00  0.00    -0.398 C  
HETATM    2  C   UNL     1     -12.855   8.090  71.713  1.00  0.00    -0.353 C  
ENDROOT
BRANCH   2   3
HETATM    3  C   UNL     1     -13.045   9.593  71.430  1.00  0.00    -0.471 C  
BRANCH   3   4
HETATM    4  C   UNL     1     -11.693  10.311  71.228  1.00  0.00    -0.291 C  
BRANCH   4   5
HETATM    5  N   UNL     1     -11.475  10.747  69.837  1.00  0.00    -0.294 NA 
BRANCH   5   6
HETATM    6  C   UNL     1     -10.516  10.036  69.002  1.00  0.00    -0.214 C  
HETATM    7  S   UNL     1      -9.367   8.800  69.727  1.00  0.00    -0.167 SA 
HETATM    8  C   UNL     1      -9.339   5.805  66.878  1.00  0.00    -0.127 C  
HETATM    9  S   UNL     1     -10.570  10.038  67.334  1.00  0.00    -0.264 SA 
HETATM   10 ZN   UNL     1      -9.718   8.069  67.762  1.00  0.00    -0.138 Zn 
HETATM   11  S   UNL     1      -8.068   6.867  67.010  1.00  0.00    -0.118 SA 
HETATM   12  S   UNL     1     -11.019   6.471  67.204  1.00  0.00    -0.356 SA 
BRANCH   8  13
HETATM   13  N   UNL     1      -9.143   4.382  66.804  1.00  0.00    -0.122 NA 
BRANCH  13  14
HETATM   14  C   UNL     1      -9.590   3.604  65.650  1.00  0.00    -0.142 C  
BRANCH  14  15
HETATM   15  C   UNL     1      -9.118   4.225  64.311  1.00  0.00    -0.150 C  
BRANCH  15  16
HETATM   16  C   UNL     1      -7.600   4.129  64.062  1.00  0.00    -0.071 C  
HETATM   17  C   UNL     1      -7.059   5.437  63.472  1.00  0.00    -0.047 C  
ENDBRANCH  15  16
ENDBRANCH  14  15
ENDBRANCH  13  14
BRANCH  13  18
HETATM   18  C   UNL     1      -8.454   3.693  67.902  1.00  0.00    -0.094 C  
BRANCH  18  19
HETATM   19  C   UNL     1      -9.319   3.623  69.184  1.00  0.00    -0.244 C  
BRANCH  19  20
HETATM   20  C   UNL     1      -8.945   4.656  70.262  1.00  0.00    -0.144 C  
HETATM   21  C   UNL     1      -8.497   3.955  71.549  1.00  0.00    -0.102 C  
ENDBRANCH  19  20
ENDBRANCH  18  19
ENDBRANCH  13  18
ENDBRANCH   8  13
ENDBRANCH   5   6
BRANCH   5  22
HETATM   22  C   UNL     1     -12.279  11.853  69.298  1.00  0.00    -0.109 C  
BRANCH  22  23
HETATM   23  C   UNL     1     -11.551  13.205  69.179  1.00  0.00    -0.368 C  
BRANCH  23  24
HETATM   24  C   UNL     1     -12.198  14.353  69.965  1.00  0.00    -0.408 C  
HETATM   25  C   UNL     1     -12.888  13.818  71.226  1.00  0.00    -0.434 C  
ENDBRANCH  23  24
ENDBRANCH  22  23
ENDBRANCH   5  22
ENDBRANCH   4   5
ENDBRANCH   3   4
ENDBRANCH   2   3
TORSDOF 14
ENDMDL
MODEL      205
REMARK 921   NORMALIZED FREE ENERGY PREDICTED BY IDOCK:   -3.01 KCAL/MOL
REMARK 922        TOTAL FREE ENERGY PREDICTED BY IDOCK:   -6.85 KCAL/MOL
REMARK 923 INTER-LIGAND FREE ENERGY PREDICTED BY IDOCK:   -5.91 KCAL/MOL
REMARK 924 INTRA-LIGAND FREE ENERGY PREDICTED BY IDOCK:   -0.94 KCAL/MOL
REMARK 927      BINDING AFFINITY PREDICTED BY RF-SCORE:    0.00 PKD
ROOT
HETATM    1  C   UNL     1      -9.823  17.326  68.788  1.00  0.00    -0.306 C  
HETATM    2  C   UNL     1     -10.765  16.678  67.771  1.00  0.00    -0.327 C  
ENDROOT
BRANCH   2   3
HETATM    3  C   UNL     1     -11.542  15.501  68.392  1.00  0.00    -0.368 C  
BRANCH   3   4
HETATM    4  C   UNL     1     -12.020  14.502  67.317  1.00  0.00    -0.344 C  
BRANCH   4   5
HETATM    5  N   UNL     1     -11.022  13.460  67.015  1.00  0.00    -0.283 NA 
BRANCH   5   6
HETATM    6  C   UNL     1     -10.493  12.638  68.095  1.00  0.00    -0.231 C  
HETATM    7  S   UNL     1     -11.616  11.724  69.225  1.00  0.00    -0.341 SA 
HETATM    8  C   UNL     1      -9.667   8.112  69.719  1.00  0.00    -0.173 C  
HETATM    9  S   UNL     1      -8.885  12.209  68.220  1.00  0.00    -0.157 SA 
HETATM   10 ZN   UNL     1      -9.889  10.489  69.126  1.00  0.00    -0.154 Zn 
HETATM   11  S   UNL     1      -9.630   9.271  70.909  1.00  0.00    -0.241 SA 
HETATM   12  S   UNL     1      -9.655   8.703  67.980  1.00  0.00    -0.153 SA 
BRANCH   8  13
HETATM   13  N   UNL     1      -9.988   6.738  69.998  1.00  0.00    -0.175 NA 
BRANCH  13  14
HETATM   14  C   UNL     1     -10.819   5.945  69.093  1.00  0.00    -0.336 C  
BRANCH  14  15
HETATM   15  C   UNL     1      -9.995   4.880  68.328  1.00  0.00    -0.177 C  
BRANCH  15  16
HETATM   16  C   UNL     1      -9.965   5.072  66.799  1.00  0.00    -0.242 C  
HETATM   17  C   UNL     1      -8.530   5.284  66.302  1.00  0.00    -0.115 C  
ENDBRANCH  15  16
ENDBRANCH  14  15
ENDBRANCH  13  14
BRANCH  13  18
HETATM   18  C   UNL     1      -9.447   6.104  71.205  1.00  0.00    -0.163 C  
BRANCH  18  19
HETATM   19  C   UNL     1      -7.917   5.891  71.120  1.00  0.00    -0.113 C  
BRANCH  19  20
HETATM   20  C   UNL     1      -7.244   5.560  72.464  1.00  0.00    -0.093 C  
HETATM   21  C   UNL     1      -7.334   6.754  73.423  1.00  0.00    -0.079 C  
ENDBRANCH  19  20
ENDBRANCH  18  19
ENDBRANCH  13  18
ENDBRANCH   8  13
ENDBRANCH   5   6
BRANCH   5  22
HETATM   22  C   UNL     1     -10.629  13.227  65.619  1.00  0.00    -0.283 C  
BRANCH  22  23
HETATM   23  C   UNL     1     -11.738  12.679  64.701  1.00  0.00    -0.411 C  
BRANCH  23  24
HETATM   24  C   UNL     1     -11.393  11.362  63.994  1.00  0.00    -0.291 C  
HETATM   25  C   UNL     1      -9.873  11.197  63.881  1.00  0.00    -0.354 C  
ENDBRANCH  23  24
ENDBRANCH  22  23
ENDBRANCH   5  22
ENDBRANCH   4   5
ENDBRANCH   3   4
ENDBRANCH   2   3
TORSDOF 14
ENDMDL
MODEL      206
REMARK 921   NORMALIZED FREE ENERGY PREDICTED BY IDOCK:   -3.01 KCAL/MOL
REMARK 922        TOTAL FREE ENERGY PREDICTED BY IDOCK:   -6.85 KCAL/MOL
REMARK 923 INTER-LIGAND FREE ENERGY PREDICTED BY IDOCK:   -6.27 KCAL/MOL
REMARK 924 INTRA-LIGAND FREE ENERGY PREDICTED BY IDOCK:   -0.57 KCAL/MOL
REMARK 927      BINDING AFFINITY PREDICTED BY RF-SCORE:    0.00 PKD
ROOT
HETATM    1  C   UNL     1     -10.905   4.550  73.010  1.00  0.00    -0.315 C  
HETATM    2  C   UNL     1     -10.906   5.715  72.019  1.00  0.00    -0.300 C  
ENDROOT
BRANCH   2   3
HETATM    3  C   UNL     1     -10.979   7.072  72.745  1.00  0.00    -0.329 C  
BRANCH   3   4
HETATM    4  C   UNL     1     -11.707   8.136  71.894  1.00  0.00    -0.310 C  
BRANCH   4   5
HETATM    5  N   UNL     1     -10.782   9.004  71.144  1.00  0.00    -0.261 NA 
BRANCH   5   6
HETATM    6  C   UNL     1     -11.307   9.901  70.122  1.00  0.00    -0.275 C  
HETATM    7  S   UNL     1     -11.990  11.547  70.569  1.00  0.00    -0.275 SA 
HETATM    8  C   UNL     1     -10.580  13.972  67.533  1.00  0.00    -0.260 C  
HETATM    9  S   UNL     1     -11.068   9.671  68.487  1.00  0.00     0.042 SA 
HETATM   10 ZN   UNL     1     -11.171  11.851  68.632  1.00  0.00    -0.176 Zn 
HETATM   11  S   UNL     1     -12.160  13.459  67.551  1.00  0.00    -0.204 SA 
HETATM   12  S   UNL     1      -9.315  12.796  68.160  1.00  0.00    -0.202 SA 
BRANCH   8  13
HETATM   13  N   UNL     1     -10.224  15.349  67.325  1.00  0.00    -0.250 NA 
BRANCH  13  14
HETATM   14  C   UNL     1      -9.350  16.065  68.254  1.00  0.00    -0.199 C  
BRANCH  14  15
HETATM   15  C   UNL     1      -8.488  17.134  67.536  1.00  0.00    -0.206 C  
BRANCH  15  16
HETATM   16  C   UNL     1      -8.499  18.521  68.209  1.00  0.00    -0.341 C  
HETATM   17  C   UNL     1      -9.920  19.098  68.247  1.00  0.00    -0.482 C  
ENDBRANCH  15  16
ENDBRANCH  14  15
ENDBRANCH  13  14
BRANCH  13  18
HETATM   18  C   UNL     1     -10.725  16.051  66.138  1.00  0.00    -0.244 C  
BRANCH  18  19
HETATM   19  C   UNL     1     -10.596  15.196  64.855  1.00  0.00    -0.392 C  
BRANCH  19  20
HETATM   20  C   UNL     1     -11.932  14.901  64.149  1.00  0.00    -0.256 C  
HETATM   21  C   UNL     1     -11.947  13.470  63.597  1.00  0.00    -0.439 C  
ENDBRANCH  19  20
ENDBRANCH  18  19
ENDBRANCH  13  18
ENDBRANCH   8  13
ENDBRANCH   5   6
BRANCH   5  22
HETATM   22  C   UNL     1      -9.353   8.997  71.488  1.00  0.00    -0.224 C  
BRANCH  22  23
HETATM   23  C   UNL     1      -8.407   9.535  70.398  1.00  0.00    -0.226 C  
BRANCH  23  24
HETATM   24  C   UNL     1      -7.297   8.563  69.975  1.00  0.00    -0.055 C  
HETATM   25  C   UNL     1      -7.500   8.118  68.522  1.00  0.00    -0.099 C  
ENDBRANCH  23  24
ENDBRANCH  22  23
ENDBRANCH   5  22
ENDBRANCH   4   5
ENDBRANCH   3   4
ENDBRANCH   2   3
TORSDOF 14
ENDMDL
MODEL      207
REMARK 921   NORMALIZED FREE ENERGY PREDICTED BY IDOCK:   -3.00 KCAL/MOL
REMARK 922        TOTAL FREE ENERGY PREDICTED BY IDOCK:   -6.84 KCAL/MOL
REMARK 923 INTER-LIGAND FREE ENERGY PREDICTED BY IDOCK:   -5.92 KCAL/MOL
REMARK 924 INTRA-LIGAND FREE ENERGY PREDICTED BY IDOCK:   -0.92 KCAL/MOL
REMARK 927      BINDING AFFINITY PREDICTED BY RF-SCORE:    0.00 PKD
ROOT
HETATM    1  C   UNL     1      -6.191   5.870  74.281  1.00  0.00    -0.069 C  
HETATM    2  C   UNL     1      -6.721   6.731  73.133  1.00  0.00    -0.071 C  
ENDROOT
BRANCH   2   3
HETATM    3  C   UNL     1      -7.469   5.880  72.089  1.00  0.00    -0.096 C  
BRANCH   3   4
HETATM    4  C   UNL     1      -8.977   5.780  72.408  1.00  0.00    -0.141 C  
BRANCH   4   5
HETATM    5  N   UNL     1      -9.824   5.822  71.203  1.00  0.00    -0.175 NA 
BRANCH   5   6
HETATM    6  C   UNL     1     -10.618   7.011  70.923  1.00  0.00    -0.217 C  
HETATM    7  S   UNL     1     -10.037   8.677  71.436  1.00  0.00    -0.282 SA 
HETATM    8  C   UNL     1     -11.079  11.037  68.206  1.00  0.00    -0.257 C  
HETATM    9  S   UNL     1     -11.923   7.022  69.884  1.00  0.00     0.228 SA 
HETATM   10 ZN   UNL     1     -11.144   9.054  69.661  1.00  0.00    -0.225 Zn 
HETATM   11  S   UNL     1     -11.974  11.064  69.606  1.00  0.00    -0.356 SA 
HETATM   12  S   UNL     1     -10.353   9.423  67.713  1.00  0.00    -0.251 SA 
BRANCH   8  13
HETATM   13  N   UNL     1     -10.635  12.241  67.557  1.00  0.00    -0.215 NA 
BRANCH  13  14
HETATM   14  C   UNL     1     -10.657  12.381  66.102  1.00  0.00    -0.254 C  
BRANCH  14  15
HETATM   15  C   UNL     1     -12.099  12.508  65.550  1.00  0.00    -0.481 C  
BRANCH  15  16
HETATM   16  C   UNL     1     -12.526  13.948  65.203  1.00  0.00    -0.479 C  
HETATM   17  C   UNL     1     -11.307  14.812  64.858  1.00  0.00    -0.411 C  
ENDBRANCH  15  16
ENDBRANCH  14  15
ENDBRANCH  13  14
BRANCH  13  18
HETATM   18  C   UNL     1     -10.173  13.369  68.372  1.00  0.00    -0.251 C  
BRANCH  18  19
HETATM   19  C   UNL     1     -11.267  14.449  68.551  1.00  0.00    -0.286 C  
BRANCH  19  20
HETATM   20  C   UNL     1     -11.192  15.217  69.883  1.00  0.00    -0.305 C  
HETATM   21  C   UNL     1     -12.569  15.265  70.557  1.00  0.00    -0.450 C  
ENDBRANCH  19  20
ENDBRANCH  18  19
ENDBRANCH  13  18
ENDBRANCH   8  13
ENDBRANCH   5   6
BRANCH   5  22
HETATM   22  C   UNL     1      -9.801   4.687  70.270  1.00  0.00    -0.243 C  
BRANCH  22  23
HETATM   23  C   UNL     1      -9.068   4.939  68.938  1.00  0.00    -0.149 C  
BRANCH  23  24
HETATM   24  C   UNL     1      -9.650   4.186  67.734  1.00  0.00    -0.208 C  
HETATM   25  C   UNL     1     -10.495   5.128  66.870  1.00  0.00    -0.280 C  
ENDBRANCH  23  24
ENDBRANCH  22  23
ENDBRANCH   5  22
ENDBRANCH   4   5
ENDBRANCH   3   4
ENDBRANCH   2   3
TORSDOF 14
ENDMDL
MODEL      208
REMARK 921   NORMALIZED FREE ENERGY PREDICTED BY IDOCK:   -2.97 KCAL/MOL
REMARK 922        TOTAL FREE ENERGY PREDICTED BY IDOCK:   -6.79 KCAL/MOL
REMARK 923 INTER-LIGAND FREE ENERGY PREDICTED BY IDOCK:   -6.06 KCAL/MOL
REMARK 924 INTRA-LIGAND FREE ENERGY PREDICTED BY IDOCK:   -0.73 KCAL/MOL
REMARK 927      BINDING AFFINITY PREDICTED BY RF-SCORE:    0.00 PKD
ROOT
HETATM    1  C   UNL     1      -8.377  20.167  66.703  1.00  0.00    -0.338 C  
HETATM    2  C   UNL     1      -9.717  20.421  67.395  1.00  0.00    -0.597 C  
ENDROOT
BRANCH   2   3
HETATM    3  C   UNL     1     -10.112  19.244  68.309  1.00  0.00    -0.516 C  
BRANCH   3   4
HETATM    4  C   UNL     1     -10.625  18.037  67.495  1.00  0.00    -0.388 C  
BRANCH   4   5
HETATM    5  N   UNL     1      -9.840  16.811  67.728  1.00  0.00    -0.252 NA 
BRANCH   5   6
HETATM    6  C   UNL     1     -10.527  15.533  67.865  1.00  0.00    -0.266 C  
HETATM    7  S   UNL     1     -10.982  14.541  66.387  1.00  0.00    -0.330 SA 
HETATM    8  C   UNL     1     -10.153  10.676  67.597  1.00  0.00    -0.177 C  
HETATM    9  S   UNL     1     -10.685  14.726  69.317  1.00  0.00    -0.247 SA 
HETATM   10 ZN   UNL     1     -10.612  13.076  67.883  1.00  0.00    -0.203 Zn 
HETATM   11  S   UNL     1     -11.717  11.235  67.539  1.00  0.00     0.066 SA 
HETATM   12  S   UNL     1      -8.857  11.879  68.095  1.00  0.00    -0.180 SA 
BRANCH   8  13
HETATM   13  N   UNL     1      -9.766   9.419  67.015  1.00  0.00    -0.168 NA 
BRANCH  13  14
HETATM   14  C   UNL     1     -10.382   8.160  67.430  1.00  0.00    -0.281 C  
BRANCH  14  15
HETATM   15  C   UNL     1      -9.956   7.745  68.861  1.00  0.00    -0.185 C  
BRANCH  15  16
HETATM   16  C   UNL     1     -10.917   6.758  69.552  1.00  0.00    -0.325 C  
HETATM   17  C   UNL     1     -10.196   5.451  69.905  1.00  0.00    -0.351 C  
ENDBRANCH  15  16
ENDBRANCH  14  15
ENDBRANCH  13  14
BRANCH  13  18
HETATM   18  C   UNL     1      -8.748   9.399  65.960  1.00  0.00    -0.150 C  
BRANCH  18  19
HETATM   19  C   UNL     1      -7.992   8.049  65.901  1.00  0.00    -0.107 C  
BRANCH  19  20
HETATM   20  C   UNL     1      -7.869   7.448  64.489  1.00  0.00    -0.129 C  
HETATM   21  C   UNL     1      -8.139   8.516  63.422  1.00  0.00    -0.160 C  
ENDBRANCH  19  20
ENDBRANCH  18  19
ENDBRANCH  13  18
ENDBRANCH   8  13
ENDBRANCH   5   6
BRANCH   5  22
HETATM   22  C   UNL     1      -8.374  16.892  67.751  1.00  0.00    -0.194 C  
BRANCH  22  23
HETATM   23  C   UNL     1      -7.634  15.675  67.164  1.00  0.00    -0.258 C  
BRANCH  23  24
HETATM   24  C   UNL     1      -6.326  15.313  67.882  1.00  0.00    -0.173 C  
HETATM   25  C   UNL     1      -6.273  15.974  69.264  1.00  0.00    -0.151 C  
ENDBRANCH  23  24
ENDBRANCH  22  23
ENDBRANCH   5  22
ENDBRANCH   4   5
ENDBRANCH   3   4
ENDBRANCH   2   3
TORSDOF 14
ENDMDL
MODEL      209
REMARK 921   NORMALIZED FREE ENERGY PREDICTED BY IDOCK:   -2.97 KCAL/MOL
REMARK 922        TOTAL FREE ENERGY PREDICTED BY IDOCK:   -6.79 KCAL/MOL
REMARK 923 INTER-LIGAND FREE ENERGY PREDICTED BY IDOCK:   -5.97 KCAL/MOL
REMARK 924 INTRA-LIGAND FREE ENERGY PREDICTED BY IDOCK:   -0.81 KCAL/MOL
REMARK 927      BINDING AFFINITY PREDICTED BY RF-SCORE:    0.00 PKD
ROOT
HETATM    1  C   UNL     1      -9.998  18.825  66.419  1.00  0.00    -0.426 C  
HETATM    2  C   UNL     1     -10.612  17.990  67.544  1.00  0.00    -0.402 C  
ENDROOT
BRANCH   2   3
HETATM    3  C   UNL     1      -9.695  16.817  67.942  1.00  0.00    -0.245 C  
BRANCH   3   4
HETATM    4  C   UNL     1      -9.191  16.042  66.705  1.00  0.00    -0.249 C  
BRANCH   4   5
HETATM    5  N   UNL     1      -8.447  14.819  67.056  1.00  0.00    -0.224 NA 
BRANCH   5   6
HETATM    6  C   UNL     1      -9.055  13.516  66.826  1.00  0.00    -0.212 C  
HETATM    7  S   UNL     1      -8.099  11.968  67.084  1.00  0.00    -0.169 SA 
HETATM    8  C   UNL     1     -10.874   9.471  68.858  1.00  0.00    -0.150 C  
HETATM    9  S   UNL     1     -10.695  13.291  66.618  1.00  0.00    -0.282 SA 
HETATM   10 ZN   UNL     1     -10.094  11.415  67.569  1.00  0.00    -0.170 Zn 
HETATM   11  S   UNL     1     -10.471   9.296  67.255  1.00  0.00    -0.241 SA 
HETATM   12  S   UNL     1     -10.918  11.182  69.524  1.00  0.00    -0.184 SA 
BRANCH   8  13
HETATM   13  N   UNL     1     -10.903   8.357  69.767  1.00  0.00    -0.219 NA 
BRANCH  13  14
HETATM   14  C   UNL     1     -10.908   8.548  71.216  1.00  0.00    -0.251 C  
BRANCH  14  15
HETATM   15  C   UNL     1     -12.176   7.952  71.878  1.00  0.00    -0.351 C  
BRANCH  15  16
HETATM   16  C   UNL     1     -13.445   8.814  71.720  1.00  0.00    -0.436 C  
HETATM   17  C   UNL     1     -13.139  10.292  71.991  1.00  0.00    -0.529 C  
ENDBRANCH  15  16
ENDBRANCH  14  15
ENDBRANCH  13  14
BRANCH  13  18
HETATM   18  C   UNL     1     -10.956   6.992  69.230  1.00  0.00    -0.178 C  
BRANCH  18  19
HETATM   19  C   UNL     1      -9.790   6.115  69.745  1.00  0.00    -0.199 C  
BRANCH  19  20
HETATM   20  C   UNL     1      -8.407   6.506  69.194  1.00  0.00    -0.119 C  
HETATM   21  C   UNL     1      -7.325   5.561  69.730  1.00  0.00    -0.066 C  
ENDBRANCH  19  20
ENDBRANCH  18  19
ENDBRANCH  13  18
ENDBRANCH   8  13
ENDBRANCH   5   6
BRANCH   5  22
HETATM   22  C   UNL     1      -7.076  14.938  67.572  1.00  0.00    -0.189 C  
BRANCH  22  23
HETATM   23  C   UNL     1      -6.949  14.996  69.107  1.00  0.00    -0.139 C  
BRANCH  23  24
HETATM   24  C   UNL     1      -6.175  13.826  69.730  1.00  0.00    -0.126 C  
HETATM   25  C   UNL     1      -5.857  14.117  71.201  1.00  0.00    -0.214 C  
ENDBRANCH  23  24
ENDBRANCH  22  23
ENDBRANCH   5  22
ENDBRANCH   4   5
ENDBRANCH   3   4
ENDBRANCH   2   3
TORSDOF 14
ENDMDL
MODEL      210
REMARK 921   NORMALIZED FREE ENERGY PREDICTED BY IDOCK:   -2.95 KCAL/MOL
REMARK 922        TOTAL FREE ENERGY PREDICTED BY IDOCK:   -6.75 KCAL/MOL
REMARK 923 INTER-LIGAND FREE ENERGY PREDICTED BY IDOCK:   -5.51 KCAL/MOL
REMARK 924 INTRA-LIGAND FREE ENERGY PREDICTED BY IDOCK:   -1.24 KCAL/MOL
REMARK 927      BINDING AFFINITY PREDICTED BY RF-SCORE:    0.00 PKD
ROOT
HETATM    1  C   UNL     1      -5.780   6.994  66.053  1.00  0.00    -0.031 C  
HETATM    2  C   UNL     1      -6.254   6.833  67.499  1.00  0.00    -0.040 C  
ENDROOT
BRANCH   2   3
HETATM    3  C   UNL     1      -6.783   5.411  67.764  1.00  0.00    -0.055 C  
BRANCH   3   4
HETATM    4  C   UNL     1      -8.326   5.363  67.740  1.00  0.00    -0.099 C  
BRANCH   4   5
HETATM    5  N   UNL     1      -8.943   6.127  68.839  1.00  0.00    -0.125 NA 
BRANCH   5   6
HETATM    6  C   UNL     1      -9.784   7.277  68.532  1.00  0.00    -0.149 C  
HETATM    7  S   UNL     1      -9.903   8.696  69.692  1.00  0.00    -0.191 SA 
HETATM    8  C   UNL     1      -9.914  11.953  67.147  1.00  0.00    -0.194 C  
HETATM    9  S   UNL     1     -10.447   7.555  67.027  1.00  0.00    -0.321 SA 
HETATM   10 ZN   UNL     1     -10.154   9.588  67.779  1.00  0.00    -0.149 Zn 
HETATM   11  S   UNL     1     -11.318  11.423  67.860  1.00  0.00    -0.304 SA 
HETATM   12  S   UNL     1      -8.687  10.672  66.669  1.00  0.00    -0.143 SA 
BRANCH   8  13
HETATM   13  N   UNL     1      -9.524  13.337  67.158  1.00  0.00    -0.231 NA 
BRANCH  13  14
HETATM   14  C   UNL     1      -9.830  14.230  66.042  1.00  0.00    -0.314 C  
BRANCH  14  15
HETATM   15  C   UNL     1     -10.484  13.478  64.855  1.00  0.00    -0.417 C  
BRANCH  15  16
HETATM   16  C   UNL     1     -11.904  13.959  64.498  1.00  0.00    -0.449 C  
HETATM   17  C   UNL     1     -12.775  14.075  65.754  1.00  0.00    -0.487 C  
ENDBRANCH  15  16
ENDBRANCH  14  15
ENDBRANCH  13  14
BRANCH  13  18
HETATM   18  C   UNL     1      -8.824  13.878  68.329  1.00  0.00    -0.185 C  
BRANCH  18  19
HETATM   19  C   UNL     1      -9.468  15.187  68.843  1.00  0.00    -0.213 C  
BRANCH  19  20
HETATM   20  C   UNL     1     -10.777  14.989  69.629  1.00  0.00    -0.270 C  
HETATM   21  C   UNL     1     -11.902  15.840  69.030  1.00  0.00    -0.367 C  
ENDBRANCH  19  20
ENDBRANCH  18  19
ENDBRANCH  13  18
ENDBRANCH   8  13
ENDBRANCH   5   6
BRANCH   5  22
HETATM   22  C   UNL     1      -8.752   5.674  70.223  1.00  0.00    -0.131 C  
BRANCH  22  23
HETATM   23  C   UNL     1      -9.994   5.063  70.899  1.00  0.00    -0.286 C  
BRANCH  23  24
HETATM   24  C   UNL     1     -10.156   5.418  72.383  1.00  0.00    -0.225 C  
HETATM   25  C   UNL     1      -9.100   6.444  72.807  1.00  0.00    -0.135 C  
ENDBRANCH  23  24
ENDBRANCH  22  23
ENDBRANCH   5  22
ENDBRANCH   4   5
ENDBRANCH   3   4
ENDBRANCH   2   3
TORSDOF 14
ENDMDL
MODEL      211
REMARK 921   NORMALIZED FREE ENERGY PREDICTED BY IDOCK:   -2.95 KCAL/MOL
REMARK 922        TOTAL FREE ENERGY PREDICTED BY IDOCK:   -6.74 KCAL/MOL
REMARK 923 INTER-LIGAND FREE ENERGY PREDICTED BY IDOCK:   -5.63 KCAL/MOL
REMARK 924 INTRA-LIGAND FREE ENERGY PREDICTED BY IDOCK:   -1.11 KCAL/MOL
REMARK 927      BINDING AFFINITY PREDICTED BY RF-SCORE:    0.00 PKD
ROOT
HETATM    1  C   UNL     1      -8.699   7.153  73.819  1.00  0.00    -0.199 C  
HETATM    2  C   UNL     1     -10.041   7.613  73.247  1.00  0.00    -0.393 C  
ENDROOT
BRANCH   2   3
HETATM    3  C   UNL     1      -9.849   8.541  72.032  1.00  0.00    -0.383 C  
BRANCH   3   4
HETATM    4  C   UNL     1      -8.455   8.361  71.392  1.00  0.00    -0.155 C  
BRANCH   4   5
HETATM    5  N   UNL     1      -8.479   7.507  70.191  1.00  0.00    -0.135 NA 
BRANCH   5   6
HETATM    6  C   UNL     1      -8.755   8.104  68.891  1.00  0.00    -0.137 C  
HETATM    7  S   UNL     1     -10.453   8.639  68.438  1.00  0.00    -0.134 SA 
HETATM    8  C   UNL     1      -9.782  12.194  66.438  1.00  0.00    -0.231 C  
HETATM    9  S   UNL     1      -7.562   8.626  67.847  1.00  0.00    -0.099 SA 
HETATM   10 ZN   UNL     1      -9.200  10.004  67.396  1.00  0.00    -0.130 Zn 
HETATM   11  S   UNL     1     -10.142  10.801  65.605  1.00  0.00    -0.271 SA 
HETATM   12  S   UNL     1      -8.759  12.017  67.953  1.00  0.00    -0.178 SA 
BRANCH   8  13
HETATM   13  N   UNL     1     -10.460  13.436  66.182  1.00  0.00    -0.290 NA 
BRANCH  13  14
HETATM   14  C   UNL     1      -9.790  14.553  65.517  1.00  0.00    -0.285 C  
BRANCH  14  15
HETATM   15  C   UNL     1      -8.911  15.372  66.496  1.00  0.00    -0.344 C  
BRANCH  15  16
HETATM   16  C   UNL     1      -8.978  16.898  66.289  1.00  0.00    -0.305 C  
HETATM   17  C   UNL     1     -10.430  17.367  66.141  1.00  0.00    -0.284 C  
ENDBRANCH  15  16
ENDBRANCH  14  15
ENDBRANCH  13  14
BRANCH  13  18
HETATM   18  C   UNL     1     -11.866  13.582  66.572  1.00  0.00    -0.399 C  
BRANCH  18  19
HETATM   19  C   UNL     1     -12.084  13.337  68.084  1.00  0.00    -0.248 C  
BRANCH  19  20
HETATM   20  C   UNL     1     -11.822  14.565  68.974  1.00  0.00    -0.354 C  
HETATM   21  C   UNL     1     -12.526  14.413  70.327  1.00  0.00    -0.413 C  
ENDBRANCH  19  20
ENDBRANCH  18  19
ENDBRANCH  13  18
ENDBRANCH   8  13
ENDBRANCH   5   6
BRANCH   5  22
HETATM   22  C   UNL     1      -8.159   6.079  70.320  1.00  0.00    -0.111 C  
BRANCH  22  23
HETATM   23  C   UNL     1      -6.661   5.726  70.242  1.00  0.00    -0.048 C  
BRANCH  23  24
HETATM   24  C   UNL     1      -6.287   4.770  69.101  1.00  0.00    -0.032 C  
HETATM   25  C   UNL     1      -7.418   4.698  68.069  1.00  0.00    -0.073 C  
ENDBRANCH  23  24
ENDBRANCH  22  23
ENDBRANCH   5  22
ENDBRANCH   4   5
ENDBRANCH   3   4
ENDBRANCH   2   3
TORSDOF 14
ENDMDL
MODEL      212
REMARK 921   NORMALIZED FREE ENERGY PREDICTED BY IDOCK:   -2.93 KCAL/MOL
REMARK 922        TOTAL FREE ENERGY PREDICTED BY IDOCK:   -6.72 KCAL/MOL
REMARK 923 INTER-LIGAND FREE ENERGY PREDICTED BY IDOCK:   -5.80 KCAL/MOL
REMARK 924 INTRA-LIGAND FREE ENERGY PREDICTED BY IDOCK:   -0.92 KCAL/MOL
REMARK 927      BINDING AFFINITY PREDICTED BY RF-SCORE:    0.00 PKD
ROOT
HETATM    1  C   UNL     1      -8.000  10.048  63.484  1.00  0.00    -0.157 C  
HETATM    2  C   UNL     1      -9.420  10.426  63.057  1.00  0.00    -0.362 C  
ENDROOT
BRANCH   2   3
HETATM    3  C   UNL     1     -10.296  10.789  64.272  1.00  0.00    -0.401 C  
BRANCH   3   4
HETATM    4  C   UNL     1     -10.480  12.316  64.407  1.00  0.00    -0.325 C  
BRANCH   4   5
HETATM    5  N   UNL     1     -11.001  12.718  65.726  1.00  0.00    -0.272 NA 
BRANCH   5   6
HETATM    6  C   UNL     1     -10.475  12.086  66.930  1.00  0.00    -0.223 C  
HETATM    7  S   UNL     1     -11.530  10.990  67.959  1.00  0.00    -0.252 SA 
HETATM    8  C   UNL     1      -8.935   7.945  68.998  1.00  0.00    -0.145 C  
HETATM    9  S   UNL     1      -8.851  12.042  67.310  1.00  0.00    -0.190 SA 
HETATM   10 ZN   UNL     1      -9.579  10.180  68.198  1.00  0.00    -0.133 Zn 
HETATM   11  S   UNL     1      -9.336   9.133  70.088  1.00  0.00    -0.227 SA 
HETATM   12  S   UNL     1      -8.787   8.446  67.237  1.00  0.00    -0.131 SA 
BRANCH   8  13
HETATM   13  N   UNL     1      -8.985   6.548  69.335  1.00  0.00    -0.132 NA 
BRANCH  13  14
HETATM   14  C   UNL     1      -7.882   5.885  70.029  1.00  0.00    -0.100 C  
BRANCH  14  15
HETATM   15  C   UNL     1      -8.321   5.299  71.395  1.00  0.00    -0.121 C  
BRANCH  15  16
HETATM   16  C   UNL     1      -8.050   6.219  72.602  1.00  0.00    -0.106 C  
HETATM   17  C   UNL     1      -6.968   5.623  73.510  1.00  0.00    -0.085 C  
ENDBRANCH  15  16
ENDBRANCH  14  15
ENDBRANCH  13  14
BRANCH  13  18
HETATM   18  C   UNL     1     -10.182   5.769  68.998  1.00  0.00    -0.217 C  
BRANCH  18  19
HETATM   19  C   UNL     1      -9.925   4.764  67.850  1.00  0.00    -0.161 C  
BRANCH  19  20
HETATM   20  C   UNL     1     -10.487   5.198  66.485  1.00  0.00    -0.346 C  
HETATM   21  C   UNL     1      -9.543   4.776  65.353  1.00  0.00    -0.152 C  
ENDBRANCH  19  20
ENDBRANCH  18  19
ENDBRANCH  13  18
ENDBRANCH   8  13
ENDBRANCH   5   6
BRANCH   5  22
HETATM   22  C   UNL     1     -11.996  13.796  65.806  1.00  0.00    -0.399 C  
BRANCH  22  23
HETATM   23  C   UNL     1     -12.167  14.636  64.526  1.00  0.00    -0.473 C  
BRANCH  23  24
HETATM   24  C   UNL     1     -11.512  16.022  64.577  1.00  0.00    -0.274 C  
HETATM   25  C   UNL     1     -10.350  16.030  65.578  1.00  0.00    -0.415 C  
ENDBRANCH  23  24
ENDBRANCH  22  23
ENDBRANCH   5  22
ENDBRANCH   4   5
ENDBRANCH   3   4
ENDBRANCH   2   3
TORSDOF 14
ENDMDL
MODEL      213
REMARK 921   NORMALIZED FREE ENERGY PREDICTED BY IDOCK:   -2.92 KCAL/MOL
REMARK 922        TOTAL FREE ENERGY PREDICTED BY IDOCK:   -6.70 KCAL/MOL
REMARK 923 INTER-LIGAND FREE ENERGY PREDICTED BY IDOCK:   -5.53 KCAL/MOL
REMARK 924 INTRA-LIGAND FREE ENERGY PREDICTED BY IDOCK:   -1.17 KCAL/MOL
REMARK 927      BINDING AFFINITY PREDICTED BY RF-SCORE:    0.00 PKD
ROOT
HETATM    1  C   UNL     1     -10.286  11.657  64.296  1.00  0.00    -0.357 C  
HETATM    2  C   UNL     1      -9.894  10.198  64.537  1.00  0.00    -0.334 C  
ENDROOT
BRANCH   2   3
HETATM    3  C   UNL     1     -10.312   9.726  65.943  1.00  0.00    -0.148 C  
BRANCH   3   4
HETATM    4  C   UNL     1      -9.391   8.602  66.465  1.00  0.00    -0.200 C  
BRANCH   4   5
HETATM    5  N   UNL     1      -8.026   9.069  66.766  1.00  0.00    -0.107 NA 
BRANCH   5   6
HETATM    6  C   UNL     1      -7.838  10.258  67.587  1.00  0.00    -0.098 C  
HETATM    7  S   UNL     1      -7.273  11.840  66.842  1.00  0.00    -0.056 SA 
HETATM    8  C   UNL     1      -9.568  14.649  68.826  1.00  0.00    -0.210 C  
HETATM    9  S   UNL     1      -8.389  10.389  69.156  1.00  0.00    -0.152 SA 
HETATM   10 ZN   UNL     1      -8.514  12.457  68.455  1.00  0.00    -0.131 Zn 
HETATM   11  S   UNL     1      -7.971  14.419  69.222  1.00  0.00     0.150 SA 
HETATM   12  S   UNL     1     -10.525  13.162  68.326  1.00  0.00    -0.254 SA 
BRANCH   8  13
HETATM   13  N   UNL     1     -10.119  15.957  68.593  1.00  0.00    -0.211 NA 
BRANCH  13  14
HETATM   14  C   UNL     1     -10.720  16.740  69.671  1.00  0.00    -0.229 C  
BRANCH  14  15
HETATM   15  C   UNL     1     -11.853  15.966  70.392  1.00  0.00    -0.358 C  
BRANCH  15  16
HETATM   16  C   UNL     1     -11.487  15.468  71.805  1.00  0.00    -0.504 C  
HETATM   17  C   UNL     1     -12.294  16.215  72.874  1.00  0.00    -0.607 C  
ENDBRANCH  15  16
ENDBRANCH  14  15
ENDBRANCH  13  14
BRANCH  13  18
HETATM   18  C   UNL     1     -10.054  16.535  67.246  1.00  0.00    -0.273 C  
BRANCH  18  19
HETATM   19  C   UNL     1      -9.193  17.820  67.201  1.00  0.00    -0.253 C  
BRANCH  19  20
HETATM   20  C   UNL     1      -9.913  19.049  66.618  1.00  0.00    -0.428 C  
HETATM   21  C   UNL     1     -10.473  19.930  67.741  1.00  0.00    -0.511 C  
ENDBRANCH  19  20
ENDBRANCH  18  19
ENDBRANCH  13  18
ENDBRANCH   8  13
ENDBRANCH   5   6
BRANCH   5  22
HETATM   22  C   UNL     1      -6.878   8.288  66.287  1.00  0.00    -0.065 C  
BRANCH  22  23
HETATM   23  C   UNL     1      -7.177   7.312  65.132  1.00  0.00    -0.070 C  
BRANCH  23  24
HETATM   24  C   UNL     1      -6.962   7.895  63.729  1.00  0.00    -0.071 C  
HETATM   25  C   UNL     1      -5.473   7.881  63.365  1.00  0.00    -0.050 C  
ENDBRANCH  23  24
ENDBRANCH  22  23
ENDBRANCH   5  22
ENDBRANCH   4   5
ENDBRANCH   3   4
ENDBRANCH   2   3
TORSDOF 14
ENDMDL
MODEL      214
REMARK 921   NORMALIZED FREE ENERGY PREDICTED BY IDOCK:   -2.92 KCAL/MOL
REMARK 922        TOTAL FREE ENERGY PREDICTED BY IDOCK:   -6.69 KCAL/MOL
REMARK 923 INTER-LIGAND FREE ENERGY PREDICTED BY IDOCK:   -5.86 KCAL/MOL
REMARK 924 INTRA-LIGAND FREE ENERGY PREDICTED BY IDOCK:   -0.84 KCAL/MOL
REMARK 927      BINDING AFFINITY PREDICTED BY RF-SCORE:    0.00 PKD
ROOT
HETATM    1  C   UNL     1     -14.402  14.757  71.950  1.00  0.00    -0.657 C  
HETATM    2  C   UNL     1     -13.170  13.916  71.611  1.00  0.00    -0.446 C  
ENDROOT
BRANCH   2   3
HETATM    3  C   UNL     1     -12.535  14.358  70.278  1.00  0.00    -0.413 C  
BRANCH   3   4
HETATM    4  C   UNL     1     -11.321  13.480  69.905  1.00  0.00    -0.031 C  
BRANCH   4   5
HETATM    5  N   UNL     1     -11.595  12.566  68.782  1.00  0.00    -0.299 NA 
BRANCH   5   6
HETATM    6  C   UNL     1     -11.779  11.143  69.041  1.00  0.00    -0.339 C  
HETATM    7  S   UNL     1     -11.079   9.879  67.907  1.00  0.00    -0.036 SA 
HETATM    8  C   UNL     1      -9.697   6.985  70.516  1.00  0.00    -0.176 C  
HETATM    9  S   UNL     1     -12.346  10.538  70.489  1.00  0.00    -0.351 SA 
HETATM   10 ZN   UNL     1     -11.021   8.935  69.811  1.00  0.00    -0.217 Zn 
HETATM   11  S   UNL     1     -11.112   6.767  69.672  1.00  0.00    -0.283 SA 
HETATM   12  S   UNL     1      -9.312   8.694  71.068  1.00  0.00    -0.223 SA 
BRANCH   8  13
HETATM   13  N   UNL     1      -8.674   5.976  70.570  1.00  0.00    -0.136 NA 
BRANCH  13  14
HETATM   14  C   UNL     1      -7.689   5.824  69.500  1.00  0.00    -0.092 C  
BRANCH  14  15
HETATM   15  C   UNL     1      -8.303   5.189  68.227  1.00  0.00    -0.096 C  
BRANCH  15  16
HETATM   16  C   UNL     1      -8.080   6.001  66.936  1.00  0.00    -0.105 C  
HETATM   17  C   UNL     1      -8.039   7.504  67.236  1.00  0.00    -0.115 C  
ENDBRANCH  15  16
ENDBRANCH  14  15
ENDBRANCH  13  14
BRANCH  13  18
HETATM   18  C   UNL     1      -8.596   5.093  71.739  1.00  0.00    -0.130 C  
BRANCH  18  19
HETATM   19  C   UNL     1      -7.145   4.923  72.249  1.00  0.00    -0.079 C  
BRANCH  19  20
HETATM   20  C   UNL     1      -6.898   5.474  73.665  1.00  0.00    -0.080 C  
HETATM   21  C   UNL     1      -8.183   6.081  74.239  1.00  0.00    -0.108 C  
ENDBRANCH  19  20
ENDBRANCH  18  19
ENDBRANCH  13  18
ENDBRANCH   8  13
ENDBRANCH   5   6
BRANCH   5  22
HETATM   22  C   UNL     1     -11.743  13.117  67.428  1.00  0.00    -0.370 C  
BRANCH  22  23
HETATM   23  C   UNL     1     -10.426  13.409  66.684  1.00  0.00    -0.280 C  
BRANCH  23  24
HETATM   24  C   UNL     1     -10.585  14.236  65.402  1.00  0.00    -0.367 C  
HETATM   25  C   UNL     1     -11.844  13.807  64.639  1.00  0.00    -0.427 C  
ENDBRANCH  23  24
ENDBRANCH  22  23
ENDBRANCH   5  22
ENDBRANCH   4   5
ENDBRANCH   3   4
ENDBRANCH   2   3
TORSDOF 14
ENDMDL
MODEL      215
REMARK 921   NORMALIZED FREE ENERGY PREDICTED BY IDOCK:   -2.88 KCAL/MOL
REMARK 922        TOTAL FREE ENERGY PREDICTED BY IDOCK:   -6.63 KCAL/MOL
REMARK 923 INTER-LIGAND FREE ENERGY PREDICTED BY IDOCK:   -6.08 KCAL/MOL
REMARK 924 INTRA-LIGAND FREE ENERGY PREDICTED BY IDOCK:   -0.54 KCAL/MOL
REMARK 927      BINDING AFFINITY PREDICTED BY RF-SCORE:    0.00 PKD
ROOT
HETATM    1  C   UNL     1      -8.650   6.941  73.443  1.00  0.00    -0.145 C  
HETATM    2  C   UNL     1     -10.092   7.428  73.289  1.00  0.00    -0.367 C  
ENDROOT
BRANCH   2   3
HETATM    3  C   UNL     1     -10.211   8.497  72.186  1.00  0.00    -0.403 C  
BRANCH   3   4
HETATM    4  C   UNL     1      -9.345   8.148  70.956  1.00  0.00    -0.152 C  
BRANCH   4   5
HETATM    5  N   UNL     1     -10.144   7.859  69.752  1.00  0.00    -0.195 NA 
BRANCH   5   6
HETATM    6  C   UNL     1     -10.677   8.961  68.961  1.00  0.00    -0.126 C  
HETATM    7  S   UNL     1     -11.786  10.216  69.716  1.00  0.00    -0.020 SA 
HETATM    8  C   UNL     1     -10.471  13.740  68.003  1.00  0.00    -0.244 C  
HETATM    9  S   UNL     1     -10.114   9.358  67.442  1.00  0.00    -0.231 SA 
HETATM   10 ZN   UNL     1     -10.739  11.304  68.221  1.00  0.00    -0.159 Zn 
HETATM   11  S   UNL     1     -11.870  13.009  67.483  1.00  0.00    -0.323 SA 
HETATM   12  S   UNL     1      -9.097  12.636  68.521  1.00  0.00     0.024 SA 
BRANCH   8  13
HETATM   13  N   UNL     1     -10.410  15.141  68.320  1.00  0.00    -0.229 NA 
BRANCH  13  14
HETATM   14  C   UNL     1      -9.177  15.911  68.164  1.00  0.00    -0.190 C  
BRANCH  14  15
HETATM   15  C   UNL     1      -9.437  17.439  68.184  1.00  0.00    -0.288 C  
BRANCH  15  16
HETATM   16  C   UNL     1      -9.231  18.140  66.827  1.00  0.00    -0.281 C  
HETATM   17  C   UNL     1     -10.388  17.829  65.869  1.00  0.00    -0.257 C  
ENDBRANCH  15  16
ENDBRANCH  14  15
ENDBRANCH  13  14
BRANCH  13  18
HETATM   18  C   UNL     1     -11.621  15.826  68.786  1.00  0.00    -0.395 C  
BRANCH  18  19
HETATM   19  C   UNL     1     -12.184  15.201  70.085  1.00  0.00    -0.395 C  
BRANCH  19  20
HETATM   20  C   UNL     1     -12.000  16.070  71.343  1.00  0.00    -0.507 C  
HETATM   21  C   UNL     1     -13.205  15.926  72.279  1.00  0.00    -0.439 C  
ENDBRANCH  19  20
ENDBRANCH  18  19
ENDBRANCH  13  18
ENDBRANCH   8  13
ENDBRANCH   5   6
BRANCH   5  22
HETATM   22  C   UNL     1     -10.334   6.463  69.335  1.00  0.00    -0.209 C  
BRANCH  22  23
HETATM   23  C   UNL     1      -9.126   5.811  68.635  1.00  0.00    -0.116 C  
BRANCH  23  24
HETATM   24  C   UNL     1      -9.441   5.175  67.274  1.00  0.00    -0.141 C  
HETATM   25  C   UNL     1     -10.800   5.662  66.757  1.00  0.00    -0.296 C  
ENDBRANCH  23  24
ENDBRANCH  22  23
ENDBRANCH   5  22
ENDBRANCH   4   5
ENDBRANCH   3   4
ENDBRANCH   2   3
TORSDOF 14
ENDMDL
MODEL      216
REMARK 921   NORMALIZED FREE ENERGY PREDICTED BY IDOCK:   -2.88 KCAL/MOL
REMARK 922        TOTAL FREE ENERGY PREDICTED BY IDOCK:   -6.62 KCAL/MOL
REMARK 923 INTER-LIGAND FREE ENERGY PREDICTED BY IDOCK:   -5.80 KCAL/MOL
REMARK 924 INTRA-LIGAND FREE ENERGY PREDICTED BY IDOCK:   -0.83 KCAL/MOL
REMARK 927      BINDING AFFINITY PREDICTED BY RF-SCORE:    0.00 PKD
ROOT
HETATM    1  C   UNL     1      -6.699  17.662  65.458  1.00  0.00     0.146 C  
HETATM    2  C   UNL     1      -6.137  19.021  65.880  1.00  0.00    -0.220 C  
ENDROOT
BRANCH   2   3
HETATM    3  C   UNL     1      -5.658  19.002  67.345  1.00  0.00    -0.161 C  
BRANCH   3   4
HETATM    4  C   UNL     1      -6.056  17.692  68.059  1.00  0.00    -0.158 C  
BRANCH   4   5
HETATM    5  N   UNL     1      -7.421  17.730  68.613  1.00  0.00    -0.267 NA 
BRANCH   5   6
HETATM    6  C   UNL     1      -8.107  16.482  68.920  1.00  0.00    -0.240 C  
HETATM    7  S   UNL     1      -9.553  15.931  67.929  1.00  0.00    -0.215 SA 
HETATM    8  C   UNL     1      -8.918  11.861  67.581  1.00  0.00    -0.169 C  
HETATM    9  S   UNL     1      -7.493  15.324  69.952  1.00  0.00     0.088 SA 
HETATM   10 ZN   UNL     1      -8.633  14.112  68.532  1.00  0.00    -0.134 Zn 
HETATM   11  S   UNL     1     -10.044  12.460  68.645  1.00  0.00    -0.071 SA 
HETATM   12  S   UNL     1      -7.389  12.850  67.342  1.00  0.00    -0.088 SA 
BRANCH   8  13
HETATM   13  N   UNL     1      -9.220  10.793  66.667  1.00  0.00    -0.163 NA 
BRANCH  13  14
HETATM   14  C   UNL     1      -8.363   9.613  66.555  1.00  0.00    -0.120 C  
BRANCH  14  15
HETATM   15  C   UNL     1      -8.953   8.554  65.589  1.00  0.00    -0.209 C  
BRANCH  15  16
HETATM   16  C   UNL     1      -7.901   7.662  64.900  1.00  0.00    -0.128 C  
HETATM   17  C   UNL     1      -7.713   8.072  63.434  1.00  0.00    -0.140 C  
ENDBRANCH  15  16
ENDBRANCH  14  15
ENDBRANCH  13  14
BRANCH  13  18
HETATM   18  C   UNL     1     -10.432  10.871  65.844  1.00  0.00    -0.221 C  
BRANCH  18  19
HETATM   19  C   UNL     1     -10.417  12.093  64.894  1.00  0.00    -0.325 C  
BRANCH  19  20
HETATM   20  C   UNL     1     -10.927  11.801  63.471  1.00  0.00    -0.499 C  
HETATM   21  C   UNL     1     -12.414  12.154  63.347  1.00  0.00    -0.625 C  
ENDBRANCH  19  20
ENDBRANCH  18  19
ENDBRANCH  13  18
ENDBRANCH   8  13
ENDBRANCH   5   6
BRANCH   5  22
HETATM   22  C   UNL     1      -8.039  19.030  68.908  1.00  0.00    -0.275 C  
BRANCH  22  23
HETATM   23  C   UNL     1      -9.458  19.232  68.343  1.00  0.00    -0.435 C  
BRANCH  23  24
HETATM   24  C   UNL     1      -9.560  20.283  67.229  1.00  0.00    -0.581 C  
HETATM   25  C   UNL     1     -10.262  19.694  66.000  1.00  0.00    -0.587 C  
ENDBRANCH  23  24
ENDBRANCH  22  23
ENDBRANCH   5  22
ENDBRANCH   4   5
ENDBRANCH   3   4
ENDBRANCH   2   3
TORSDOF 14
ENDMDL
MODEL      217
REMARK 921   NORMALIZED FREE ENERGY PREDICTED BY IDOCK:   -2.88 KCAL/MOL
REMARK 922        TOTAL FREE ENERGY PREDICTED BY IDOCK:   -6.62 KCAL/MOL
REMARK 923 INTER-LIGAND FREE ENERGY PREDICTED BY IDOCK:   -5.41 KCAL/MOL
REMARK 924 INTRA-LIGAND FREE ENERGY PREDICTED BY IDOCK:   -1.21 KCAL/MOL
REMARK 927      BINDING AFFINITY PREDICTED BY RF-SCORE:    0.00 PKD
ROOT
HETATM    1  C   UNL     1     -11.541  16.015  71.165  1.00  0.00    -0.492 C  
HETATM    2  C   UNL     1     -11.955  14.666  70.576  1.00  0.00    -0.376 C  
ENDROOT
BRANCH   2   3
HETATM    3  C   UNL     1     -11.338  14.445  69.182  1.00  0.00    -0.308 C  
BRANCH   3   4
HETATM    4  C   UNL     1     -12.142  13.416  68.358  1.00  0.00    -0.235 C  
BRANCH   4   5
HETATM    5  N   UNL     1     -11.328  12.737  67.334  1.00  0.00    -0.294 NA 
BRANCH   5   6
HETATM    6  C   UNL     1     -10.107  12.045  67.728  1.00  0.00    -0.193 C  
HETATM    7  S   UNL     1     -10.151  10.673  68.950  1.00  0.00    -0.210 SA 
HETATM    8  C   UNL     1      -7.458   7.964  67.370  1.00  0.00    -0.093 C  
HETATM    9  S   UNL     1      -8.657  12.207  66.920  1.00  0.00    -0.167 SA 
HETATM   10 ZN   UNL     1      -8.536  10.155  67.668  1.00  0.00    -0.112 Zn 
HETATM   11  S   UNL     1      -7.044   8.924  68.662  1.00  0.00    -0.072 SA 
HETATM   12  S   UNL     1      -8.560   8.706  66.101  1.00  0.00    -0.151 SA 
BRANCH   8  13
HETATM   13  N   UNL     1      -7.228   6.545  67.365  1.00  0.00    -0.083 NA 
BRANCH  13  14
HETATM   14  C   UNL     1      -7.633   5.697  68.485  1.00  0.00    -0.085 C  
BRANCH  14  15
HETATM   15  C   UNL     1      -9.095   5.967  68.921  1.00  0.00    -0.121 C  
BRANCH  15  16
HETATM   16  C   UNL     1     -10.159   5.250  68.068  1.00  0.00    -0.208 C  
HETATM   17  C   UNL     1     -11.023   6.263  67.306  1.00  0.00    -0.455 C  
ENDBRANCH  15  16
ENDBRANCH  14  15
ENDBRANCH  13  14
BRANCH  13  18
HETATM   18  C   UNL     1      -6.594   5.923  66.196  1.00  0.00    -0.047 C  
BRANCH  18  19
HETATM   19  C   UNL     1      -7.409   4.723  65.657  1.00  0.00    -0.077 C  
BRANCH  19  20
HETATM   20  C   UNL     1      -8.539   5.105  64.684  1.00  0.00    -0.142 C  
HETATM   21  C   UNL     1      -9.574   3.978  64.589  1.00  0.00    -0.175 C  
ENDBRANCH  19  20
ENDBRANCH  18  19
ENDBRANCH  13  18
ENDBRANCH   8  13
ENDBRANCH   5   6
BRANCH   5  22
HETATM   22  C   UNL     1     -11.798  12.714  65.942  1.00  0.00    -0.444 C  
BRANCH  22  23
HETATM   23  C   UNL     1     -11.019  13.614  64.965  1.00  0.00    -0.350 C  
BRANCH  23  24
HETATM   24  C   UNL     1     -10.944  15.091  65.374  1.00  0.00    -0.380 C  
HETATM   25  C   UNL     1     -11.594  15.977  64.305  1.00  0.00    -0.139 C  
ENDBRANCH  23  24
ENDBRANCH  22  23
ENDBRANCH   5  22
ENDBRANCH   4   5
ENDBRANCH   3   4
ENDBRANCH   2   3
TORSDOF 14
ENDMDL
MODEL      218
REMARK 921   NORMALIZED FREE ENERGY PREDICTED BY IDOCK:   -2.87 KCAL/MOL
REMARK 922        TOTAL FREE ENERGY PREDICTED BY IDOCK:   -6.60 KCAL/MOL
REMARK 923 INTER-LIGAND FREE ENERGY PREDICTED BY IDOCK:   -5.68 KCAL/MOL
REMARK 924 INTRA-LIGAND FREE ENERGY PREDICTED BY IDOCK:   -0.92 KCAL/MOL
REMARK 927      BINDING AFFINITY PREDICTED BY RF-SCORE:    0.00 PKD
ROOT
HETATM    1  C   UNL     1      -6.421   7.666  63.492  1.00  0.00    -0.058 C  
HETATM    2  C   UNL     1      -5.325   8.511  64.144  1.00  0.00    -0.055 C  
ENDROOT
BRANCH   2   3
HETATM    3  C   UNL     1      -5.881   9.359  65.304  1.00  0.00    -0.062 C  
BRANCH   3   4
HETATM    4  C   UNL     1      -7.146   8.722  65.921  1.00  0.00    -0.084 C  
BRANCH   4   5
HETATM    5  N   UNL     1      -8.206   9.707  66.203  1.00  0.00    -0.115 NA 
BRANCH   5   6
HETATM    6  C   UNL     1      -7.989  10.724  67.224  1.00  0.00    -0.117 C  
HETATM    7  S   UNL     1      -7.313  12.375  66.783  1.00  0.00     0.356 SA 
HETATM    8  C   UNL     1      -9.535  14.929  69.155  1.00  0.00    -0.158 C  
HETATM    9  S   UNL     1      -8.595  10.615  68.774  1.00  0.00    -0.154 SA 
HETATM   10 ZN   UNL     1      -8.583  12.777  68.440  1.00  0.00    -0.143 Zn 
HETATM   11  S   UNL     1      -7.969  14.542  69.553  1.00  0.00     0.241 SA 
HETATM   12  S   UNL     1     -10.547  13.610  68.374  1.00  0.00    -0.254 SA 
BRANCH   8  13
HETATM   13  N   UNL     1     -10.007  16.288  69.136  1.00  0.00    -0.248 NA 
BRANCH  13  14
HETATM   14  C   UNL     1      -9.465  17.276  68.205  1.00  0.00    -0.283 C  
BRANCH  14  15
HETATM   15  C   UNL     1      -9.484  18.708  68.798  1.00  0.00    -0.358 C  
BRANCH  15  16
HETATM   16  C   UNL     1      -9.720  19.825  67.763  1.00  0.00    -0.495 C  
HETATM   17  C   UNL     1     -10.441  19.280  66.525  1.00  0.00    -0.552 C  
ENDBRANCH  15  16
ENDBRANCH  14  15
ENDBRANCH  13  14
BRANCH  13  18
HETATM   18  C   UNL     1     -11.078  16.689  70.055  1.00  0.00    -0.094 C  
BRANCH  18  19
HETATM   19  C   UNL     1     -11.371  15.608  71.122  1.00  0.00    -0.446 C  
BRANCH  19  20
HETATM   20  C   UNL     1     -11.883  16.159  72.465  1.00  0.00    -0.630 C  
HETATM   21  C   UNL     1     -13.140  15.404  72.915  1.00  0.00    -0.598 C  
ENDBRANCH  19  20
ENDBRANCH  18  19
ENDBRANCH  13  18
ENDBRANCH   8  13
ENDBRANCH   5   6
BRANCH   5  22
HETATM   22  C   UNL     1      -9.438   9.684  65.403  1.00  0.00    -0.278 C  
BRANCH  22  23
HETATM   23  C   UNL     1      -9.311  10.247  63.975  1.00  0.00    -0.337 C  
BRANCH  23  24
HETATM   24  C   UNL     1     -10.076  11.555  63.732  1.00  0.00    -0.407 C  
HETATM   25  C   UNL     1     -10.896  11.935  64.971  1.00  0.00    -0.351 C  
ENDBRANCH  23  24
ENDBRANCH  22  23
ENDBRANCH   5  22
ENDBRANCH   4   5
ENDBRANCH   3   4
ENDBRANCH   2   3
TORSDOF 14
ENDMDL
MODEL      219
REMARK 921   NORMALIZED FREE ENERGY PREDICTED BY IDOCK:   -2.86 KCAL/MOL
REMARK 922        TOTAL FREE ENERGY PREDICTED BY IDOCK:   -6.59 KCAL/MOL
REMARK 923 INTER-LIGAND FREE ENERGY PREDICTED BY IDOCK:   -5.39 KCAL/MOL
REMARK 924 INTRA-LIGAND FREE ENERGY PREDICTED BY IDOCK:   -1.20 KCAL/MOL
REMARK 927      BINDING AFFINITY PREDICTED BY RF-SCORE:    0.00 PKD
ROOT
HETATM    1  C   UNL     1      -6.815  20.281  68.140  1.00  0.00    -0.324 C  
HETATM    2  C   UNL     1      -6.771  19.239  67.021  1.00  0.00    -0.204 C  
ENDROOT
BRANCH   2   3
HETATM    3  C   UNL     1      -7.024  17.819  67.563  1.00  0.00    -0.189 C  
BRANCH   3   4
HETATM    4  C   UNL     1      -7.172  16.790  66.421  1.00  0.00    -0.191 C  
BRANCH   4   5
HETATM    5  N   UNL     1      -8.254  15.818  66.659  1.00  0.00    -0.270 NA 
BRANCH   5   6
HETATM    6  C   UNL     1      -8.014  14.672  67.525  1.00  0.00    -0.190 C  
HETATM    7  S   UNL     1      -9.355  13.475  67.903  1.00  0.00    -0.222 SA 
HETATM    8  C   UNL     1      -7.391   9.840  67.782  1.00  0.00    -0.089 C  
HETATM    9  S   UNL     1      -6.490  14.174  67.990  1.00  0.00    -0.163 SA 
HETATM   10 ZN   UNL     1      -7.593  12.286  67.945  1.00  0.00    -0.085 Zn 
HETATM   11  S   UNL     1      -7.792  10.544  69.233  1.00  0.00    -0.132 SA 
HETATM   12  S   UNL     1      -6.903  10.966  66.415  1.00  0.00    -0.121 SA 
BRANCH   8  13
HETATM   13  N   UNL     1      -7.681   8.461  67.494  1.00  0.00    -0.098 NA 
BRANCH  13  14
HETATM   14  C   UNL     1      -8.885   7.807  68.004  1.00  0.00    -0.124 C  
BRANCH  14  15
HETATM   15  C   UNL     1     -10.096   7.992  67.056  1.00  0.00    -0.350 C  
BRANCH  15  16
HETATM   16  C   UNL     1     -11.051   6.784  66.995  1.00  0.00    -0.369 C  
HETATM   17  C   UNL     1     -11.031   6.004  68.316  1.00  0.00    -0.347 C  
ENDBRANCH  15  16
ENDBRANCH  14  15
ENDBRANCH  13  14
BRANCH  13  18
HETATM   18  C   UNL     1      -6.763   7.695  66.643  1.00  0.00    -0.062 C  
BRANCH  18  19
HETATM   19  C   UNL     1      -7.242   6.240  66.426  1.00  0.00    -0.069 C  
BRANCH  19  20
HETATM   20  C   UNL     1      -6.457   5.185  67.227  1.00  0.00    -0.049 C  
HETATM   21  C   UNL     1      -7.411   4.316  68.055  1.00  0.00    -0.068 C  
ENDBRANCH  19  20
ENDBRANCH  18  19
ENDBRANCH  13  18
ENDBRANCH   8  13
ENDBRANCH   5   6
BRANCH   5  22
HETATM   22  C   UNL     1      -9.578  16.060  66.069  1.00  0.00    -0.350 C  
BRANCH  22  23
HETATM   23  C   UNL     1     -10.440  17.116  66.786  1.00  0.00    -0.263 C  
BRANCH  23  24
HETATM   24  C   UNL     1     -10.419  18.508  66.140  1.00  0.00    -0.447 C  
HETATM   25  C   UNL     1     -10.625  19.595  67.201  1.00  0.00    -0.611 C  
ENDBRANCH  23  24
ENDBRANCH  22  23
ENDBRANCH   5  22
ENDBRANCH   4   5
ENDBRANCH   3   4
ENDBRANCH   2   3
TORSDOF 14
ENDMDL
MODEL      220
REMARK 921   NORMALIZED FREE ENERGY PREDICTED BY IDOCK:   -2.86 KCAL/MOL
REMARK 922        TOTAL FREE ENERGY PREDICTED BY IDOCK:   -6.58 KCAL/MOL
REMARK 923 INTER-LIGAND FREE ENERGY PREDICTED BY IDOCK:   -5.65 KCAL/MOL
REMARK 924 INTRA-LIGAND FREE ENERGY PREDICTED BY IDOCK:   -0.93 KCAL/MOL
REMARK 927      BINDING AFFINITY PREDICTED BY RF-SCORE:    0.00 PKD
ROOT
HETATM    1  C   UNL     1      -5.629   6.703  63.322  1.00  0.00    -0.034 C  
HETATM    2  C   UNL     1      -5.193   8.142  63.601  1.00  0.00    -0.049 C  
ENDROOT
BRANCH   2   3
HETATM    3  C   UNL     1      -6.309   9.147  63.256  1.00  0.00    -0.090 C  
BRANCH   3   4
HETATM    4  C   UNL     1      -7.703   8.485  63.289  1.00  0.00    -0.138 C  
BRANCH   4   5
HETATM    5  N   UNL     1      -8.757   9.388  63.789  1.00  0.00    -0.216 NA 
BRANCH   5   6
HETATM    6  C   UNL     1      -8.862   9.647  65.219  1.00  0.00    -0.171 C  
HETATM    7  S   UNL     1      -7.949  11.039  65.996  1.00  0.00    -0.038 SA 
HETATM    8  C   UNL     1     -10.699  12.537  68.694  1.00  0.00    -0.234 C  
HETATM    9  S   UNL     1     -10.011   8.939  66.200  1.00  0.00    -0.106 SA 
HETATM   10 ZN   UNL     1      -9.713  10.876  67.171  1.00  0.00    -0.160 Zn 
HETATM   11  S   UNL     1      -9.431  11.593  69.205  1.00  0.00     0.420 SA 
HETATM   12  S   UNL     1     -11.441  12.124  67.065  1.00  0.00    -0.340 SA 
BRANCH   8  13
HETATM   13  N   UNL     1     -11.027  13.787  69.324  1.00  0.00    -0.208 NA 
BRANCH  13  14
HETATM   14  C   UNL     1     -10.266  15.006  69.054  1.00  0.00    -0.242 C  
BRANCH  14  15
HETATM   15  C   UNL     1     -10.966  15.911  68.010  1.00  0.00    -0.336 C  
BRANCH  15  16
HETATM   16  C   UNL     1     -10.542  15.652  66.552  1.00  0.00    -0.307 C  
HETATM   17  C   UNL     1      -9.097  15.140  66.485  1.00  0.00    -0.328 C  
ENDBRANCH  15  16
ENDBRANCH  14  15
ENDBRANCH  13  14
BRANCH  13  18
HETATM   18  C   UNL     1     -12.170  13.852  70.242  1.00  0.00    -0.358 C  
BRANCH  18  19
HETATM   19  C   UNL     1     -11.908  14.798  71.438  1.00  0.00    -0.394 C  
BRANCH  19  20
HETATM   20  C   UNL     1     -12.980  14.743  72.541  1.00  0.00    -0.481 C  
HETATM   21  C   UNL     1     -12.337  14.881  73.927  1.00  0.00    -0.572 C  
ENDBRANCH  19  20
ENDBRANCH  18  19
ENDBRANCH  13  18
ENDBRANCH   8  13
ENDBRANCH   5   6
BRANCH   5  22
HETATM   22  C   UNL     1      -9.640  10.061  62.827  1.00  0.00    -0.074 C  
BRANCH  22  23
HETATM   23  C   UNL     1      -9.472  11.589  62.731  1.00  0.00    -0.226 C  
BRANCH  23  24
HETATM   24  C   UNL     1     -10.444  12.396  63.602  1.00  0.00    -0.460 C  
HETATM   25  C   UNL     1     -11.874  11.866  63.443  1.00  0.00    -0.512 C  
ENDBRANCH  23  24
ENDBRANCH  22  23
ENDBRANCH   5  22
ENDBRANCH   4   5
ENDBRANCH   3   4
ENDBRANCH   2   3
TORSDOF 14
ENDMDL
MODEL      221
REMARK 921   NORMALIZED FREE ENERGY PREDICTED BY IDOCK:   -2.86 KCAL/MOL
REMARK 922        TOTAL FREE ENERGY PREDICTED BY IDOCK:   -6.58 KCAL/MOL
REMARK 923 INTER-LIGAND FREE ENERGY PREDICTED BY IDOCK:   -5.08 KCAL/MOL
REMARK 924 INTRA-LIGAND FREE ENERGY PREDICTED BY IDOCK:   -1.50 KCAL/MOL
REMARK 927      BINDING AFFINITY PREDICTED BY RF-SCORE:    0.00 PKD
ROOT
HETATM    1  C   UNL     1      -5.292  20.304  70.923  1.00  0.00    -0.313 C  
HETATM    2  C   UNL     1      -5.876  20.363  69.511  1.00  0.00    -0.386 C  
ENDROOT
BRANCH   2   3
HETATM    3  C   UNL     1      -6.669  19.085  69.175  1.00  0.00    -0.337 C  
BRANCH   3   4
HETATM    4  C   UNL     1      -6.284  18.523  67.789  1.00  0.00    -0.189 C  
BRANCH   4   5
HETATM    5  N   UNL     1      -6.990  17.271  67.459  1.00  0.00    -0.154 NA 
BRANCH   5   6
HETATM    6  C   UNL     1      -6.632  16.040  68.152  1.00  0.00    -0.122 C  
HETATM    7  S   UNL     1      -7.778  15.271  69.365  1.00  0.00    -0.214 SA 
HETATM    8  C   UNL     1      -7.391  11.237  68.548  1.00  0.00    -0.106 C  
HETATM    9  S   UNL     1      -5.343  15.077  67.709  1.00  0.00     0.022 SA 
HETATM   10 ZN   UNL     1      -6.751  13.613  68.520  1.00  0.00    -0.070 Zn 
HETATM   11  S   UNL     1      -6.653  11.913  69.875  1.00  0.00     0.141 SA 
HETATM   12  S   UNL     1      -7.490  12.272  67.033  1.00  0.00     0.003 SA 
BRANCH   8  13
HETATM   13  N   UNL     1      -8.175  10.035  68.637  1.00  0.00    -0.106 NA 
BRANCH  13  14
HETATM   14  C   UNL     1      -7.858   8.852  67.839  1.00  0.00    -0.102 C  
BRANCH  14  15
HETATM   15  C   UNL     1      -9.101   7.957  67.605  1.00  0.00    -0.139 C  
BRANCH  15  16
HETATM   16  C   UNL     1      -9.783   8.154  66.237  1.00  0.00    -0.223 C  
HETATM   17  C   UNL     1      -8.856   8.896  65.266  1.00  0.00    -0.227 C  
ENDBRANCH  15  16
ENDBRANCH  14  15
ENDBRANCH  13  14
BRANCH  13  18
HETATM   18  C   UNL     1      -9.305   9.981  69.570  1.00  0.00    -0.229 C  
BRANCH  18  19
HETATM   19  C   UNL     1     -10.322  11.121  69.326  1.00  0.00    -0.148 C  
BRANCH  19  20
HETATM   20  C   UNL     1     -11.409  10.795  68.287  1.00  0.00    -0.376 C  
HETATM   21  C   UNL     1     -11.312  11.744  67.086  1.00  0.00    -0.387 C  
ENDBRANCH  19  20
ENDBRANCH  18  19
ENDBRANCH  13  18
ENDBRANCH   8  13
ENDBRANCH   5   6
BRANCH   5  22
HETATM   22  C   UNL     1      -8.088  17.302  66.484  1.00  0.00    -0.278 C  
BRANCH  22  23
HETATM   23  C   UNL     1      -9.436  17.821  67.019  1.00  0.00    -0.271 C  
BRANCH  23  24
HETATM   24  C   UNL     1      -9.624  19.341  66.915  1.00  0.00    -0.398 C  
HETATM   25  C   UNL     1     -10.419  19.866  68.116  1.00  0.00    -0.472 C  
ENDBRANCH  23  24
ENDBRANCH  22  23
ENDBRANCH   5  22
ENDBRANCH   4   5
ENDBRANCH   3   4
ENDBRANCH   2   3
TORSDOF 14
ENDMDL
MODEL      222
REMARK 921   NORMALIZED FREE ENERGY PREDICTED BY IDOCK:   -2.86 KCAL/MOL
REMARK 922        TOTAL FREE ENERGY PREDICTED BY IDOCK:   -6.58 KCAL/MOL
REMARK 923 INTER-LIGAND FREE ENERGY PREDICTED BY IDOCK:   -5.59 KCAL/MOL
REMARK 924 INTRA-LIGAND FREE ENERGY PREDICTED BY IDOCK:   -0.99 KCAL/MOL
REMARK 927      BINDING AFFINITY PREDICTED BY RF-SCORE:    0.00 PKD
ROOT
HETATM    1  C   UNL     1     -12.388  13.154  65.262  1.00  0.00    -0.532 C  
HETATM    2  C   UNL     1     -12.190  13.877  66.596  1.00  0.00    -0.465 C  
ENDROOT
BRANCH   2   3
HETATM    3  C   UNL     1     -10.696  14.077  66.913  1.00  0.00    -0.285 C  
BRANCH   3   4
HETATM    4  C   UNL     1     -10.387  13.807  68.401  1.00  0.00    -0.247 C  
BRANCH   4   5
HETATM    5  N   UNL     1     -10.905  12.509  68.869  1.00  0.00    -0.224 NA 
BRANCH   5   6
HETATM    6  C   UNL     1     -10.260  11.277  68.433  1.00  0.00    -0.195 C  
HETATM    7  S   UNL     1      -8.741  10.661  69.262  1.00  0.00    -0.013 SA 
HETATM    8  C   UNL     1      -9.387   6.581  69.426  1.00  0.00    -0.143 C  
HETATM    9  S   UNL     1     -10.973  10.185  67.392  1.00  0.00    -0.141 SA 
HETATM   10 ZN   UNL     1      -9.728   8.886  68.636  1.00  0.00    -0.146 Zn 
HETATM   11  S   UNL     1      -8.349   7.236  68.306  1.00  0.00    -0.125 SA 
HETATM   12  S   UNL     1     -10.880   7.563  69.853  1.00  0.00    -0.212 SA 
BRANCH   8  13
HETATM   13  N   UNL     1      -9.019   5.459  70.247  1.00  0.00    -0.133 NA 
BRANCH  13  14
HETATM   14  C   UNL     1      -8.783   5.603  71.683  1.00  0.00    -0.136 C  
BRANCH  14  15
HETATM   15  C   UNL     1      -7.518   6.445  71.985  1.00  0.00    -0.093 C  
BRANCH  15  16
HETATM   16  C   UNL     1      -7.740   7.595  72.988  1.00  0.00    -0.132 C  
HETATM   17  C   UNL     1      -9.233   7.910  73.137  1.00  0.00    -0.331 C  
ENDBRANCH  15  16
ENDBRANCH  14  15
ENDBRANCH  13  14
BRANCH  13  18
HETATM   18  C   UNL     1      -8.903   4.130  69.638  1.00  0.00    -0.084 C  
BRANCH  18  19
HETATM   19  C   UNL     1      -7.479   3.541  69.783  1.00  0.00    -0.045 C  
BRANCH  19  20
HETATM   20  C   UNL     1      -7.062   2.594  68.644  1.00  0.00    -0.048 C  
HETATM   21  C   UNL     1      -8.252   2.298  67.724  1.00  0.00    -0.074 C  
ENDBRANCH  19  20
ENDBRANCH  18  19
ENDBRANCH  13  18
ENDBRANCH   8  13
ENDBRANCH   5   6
BRANCH   5  22
HETATM   22  C   UNL     1     -12.024  12.485  69.821  1.00  0.00    -0.289 C  
BRANCH  22  23
HETATM   23  C   UNL     1     -12.247  13.786  70.615  1.00  0.00    -0.434 C  
BRANCH  23  24
HETATM   24  C   UNL     1     -12.914  13.596  71.984  1.00  0.00    -0.427 C  
HETATM   25  C   UNL     1     -14.243  14.358  72.043  1.00  0.00    -0.639 C  
ENDBRANCH  23  24
ENDBRANCH  22  23
ENDBRANCH   5  22
ENDBRANCH   4   5
ENDBRANCH   3   4
ENDBRANCH   2   3
TORSDOF 14
ENDMDL
MODEL      223
REMARK 921   NORMALIZED FREE ENERGY PREDICTED BY IDOCK:   -2.85 KCAL/MOL
REMARK 922        TOTAL FREE ENERGY PREDICTED BY IDOCK:   -6.56 KCAL/MOL
REMARK 923 INTER-LIGAND FREE ENERGY PREDICTED BY IDOCK:   -5.66 KCAL/MOL
REMARK 924 INTRA-LIGAND FREE ENERGY PREDICTED BY IDOCK:   -0.90 KCAL/MOL
REMARK 927      BINDING AFFINITY PREDICTED BY RF-SCORE:    0.00 PKD
ROOT
HETATM    1  C   UNL     1     -12.353  14.393  70.406  1.00  0.00    -0.406 C  
HETATM    2  C   UNL     1     -12.219  12.893  70.671  1.00  0.00    -0.386 C  
ENDROOT
BRANCH   2   3
HETATM    3  C   UNL     1     -12.123  12.094  69.356  1.00  0.00    -0.247 C  
BRANCH   3   4
HETATM    4  C   UNL     1     -11.037  12.667  68.419  1.00  0.00    -0.265 C  
BRANCH   4   5
HETATM    5  N   UNL     1     -10.950  11.950  67.134  1.00  0.00    -0.254 NA 
BRANCH   5   6
HETATM    6  C   UNL     1     -10.005  10.851  66.987  1.00  0.00    -0.192 C  
HETATM    7  S   UNL     1      -9.163  10.126  68.450  1.00  0.00    -0.136 SA 
HETATM    8  C   UNL     1      -9.201   6.079  67.610  1.00  0.00    -0.107 C  
HETATM    9  S   UNL     1      -9.833   9.969  65.581  1.00  0.00    -0.294 SA 
HETATM   10 ZN   UNL     1      -9.352   8.484  67.114  1.00  0.00    -0.129 Zn 
HETATM   11  S   UNL     1      -7.815   6.976  67.422  1.00  0.00    -0.113 SA 
HETATM   12  S   UNL     1     -10.791   6.911  67.215  1.00  0.00    -0.343 SA 
BRANCH   8  13
HETATM   13  N   UNL     1      -9.214   4.827  68.317  1.00  0.00    -0.118 NA 
BRANCH  13  14
HETATM   14  C   UNL     1      -9.400   3.555  67.621  1.00  0.00    -0.204 C  
BRANCH  14  15
HETATM   15  C   UNL     1      -8.894   3.611  66.157  1.00  0.00    -0.127 C  
BRANCH  15  16
HETATM   16  C   UNL     1      -7.567   2.867  65.911  1.00  0.00    -0.073 C  
HETATM   17  C   UNL     1      -6.591   3.089  67.072  1.00  0.00    -0.037 C  
ENDBRANCH  15  16
ENDBRANCH  14  15
ENDBRANCH  13  14
BRANCH  13  18
HETATM   18  C   UNL     1      -9.009   4.819  69.770  1.00  0.00    -0.096 C  
BRANCH  18  19
HETATM   19  C   UNL     1      -9.533   3.520  70.428  1.00  0.00    -0.254 C  
BRANCH  19  20
HETATM   20  C   UNL     1      -8.598   2.925  71.496  1.00  0.00    -0.099 C  
HETATM   21  C   UNL     1      -7.150   2.899  70.992  1.00  0.00    -0.033 C  
ENDBRANCH  19  20
ENDBRANCH  18  19
ENDBRANCH  13  18
ENDBRANCH   8  13
ENDBRANCH   5   6
BRANCH   5  22
HETATM   22  C   UNL     1     -11.866  12.316  66.045  1.00  0.00    -0.341 C  
BRANCH  22  23
HETATM   23  C   UNL     1     -12.263  13.803  65.985  1.00  0.00    -0.495 C  
BRANCH  23  24
HETATM   24  C   UNL     1     -12.061  14.466  64.616  1.00  0.00    -0.485 C  
HETATM   25  C   UNL     1     -11.041  15.605  64.717  1.00  0.00    -0.426 C  
ENDBRANCH  23  24
ENDBRANCH  22  23
ENDBRANCH   5  22
ENDBRANCH   4   5
ENDBRANCH   3   4
ENDBRANCH   2   3
TORSDOF 14
ENDMDL
MODEL      224
REMARK 921   NORMALIZED FREE ENERGY PREDICTED BY IDOCK:   -2.84 KCAL/MOL
REMARK 922        TOTAL FREE ENERGY PREDICTED BY IDOCK:   -6.55 KCAL/MOL
REMARK 923 INTER-LIGAND FREE ENERGY PREDICTED BY IDOCK:   -4.92 KCAL/MOL
REMARK 924 INTRA-LIGAND FREE ENERGY PREDICTED BY IDOCK:   -1.63 KCAL/MOL
REMARK 927      BINDING AFFINITY PREDICTED BY RF-SCORE:    0.00 PKD
ROOT
HETATM    1  C   UNL     1     -11.179   6.287  68.700  1.00  0.00    -0.328 C  
HETATM    2  C   UNL     1     -11.014   6.400  67.184  1.00  0.00    -0.476 C  
ENDROOT
BRANCH   2   3
HETATM    3  C   UNL     1     -10.067   7.554  66.804  1.00  0.00    -0.313 C  
BRANCH   3   4
HETATM    4  C   UNL     1      -8.895   7.065  65.925  1.00  0.00    -0.103 C  
BRANCH   4   5
HETATM    5  N   UNL     1      -7.586   7.187  66.591  1.00  0.00    -0.091 NA 
BRANCH   5   6
HETATM    6  C   UNL     1      -7.097   8.504  66.979  1.00  0.00    -0.075 C  
HETATM    7  S   UNL     1      -7.071   9.894  65.779  1.00  0.00    -0.116 SA 
HETATM    8  C   UNL     1      -8.277  13.108  68.081  1.00  0.00    -0.160 C  
HETATM    9  S   UNL     1      -6.818   8.951  68.563  1.00  0.00    -0.064 SA 
HETATM   10 ZN   UNL     1      -7.402  10.850  67.648  1.00  0.00    -0.081 Zn 
HETATM   11  S   UNL     1      -6.679  12.902  67.675  1.00  0.00    -0.156 SA 
HETATM   12  S   UNL     1      -9.259  11.588  68.398  1.00  0.00    -0.175 SA 
BRANCH   8  13
HETATM   13  N   UNL     1      -8.954  14.366  67.915  1.00  0.00    -0.179 NA 
BRANCH  13  14
HETATM   14  C   UNL     1      -9.038  15.342  68.999  1.00  0.00    -0.233 C  
BRANCH  14  15
HETATM   15  C   UNL     1      -7.669  16.006  69.293  1.00  0.00    -0.223 C  
BRANCH  15  16
HETATM   16  C   UNL     1      -7.378  17.268  68.457  1.00  0.00    -0.235 C  
HETATM   17  C   UNL     1      -6.552  16.921  67.212  1.00  0.00    -0.205 C  
ENDBRANCH  15  16
ENDBRANCH  14  15
ENDBRANCH  13  14
BRANCH  13  18
HETATM   18  C   UNL     1      -9.554  14.693  66.616  1.00  0.00    -0.278 C  
BRANCH  18  19
HETATM   19  C   UNL     1     -10.575  15.851  66.718  1.00  0.00    -0.309 C  
BRANCH  19  20
HETATM   20  C   UNL     1     -10.137  17.151  66.019  1.00  0.00    -0.303 C  
HETATM   21  C   UNL     1     -10.463  18.370  66.890  1.00  0.00    -0.419 C  
ENDBRANCH  19  20
ENDBRANCH  18  19
ENDBRANCH  13  18
ENDBRANCH   8  13
ENDBRANCH   5   6
BRANCH   5  22
HETATM   22  C   UNL     1      -6.827   5.971  66.910  1.00  0.00    -0.063 C  
BRANCH  22  23
HETATM   23  C   UNL     1      -7.541   4.968  67.837  1.00  0.00    -0.083 C  
BRANCH  23  24
HETATM   24  C   UNL     1      -7.820   3.598  67.205  1.00  0.00    -0.080 C  
HETATM   25  C   UNL     1      -8.790   2.793  68.077  1.00  0.00    -0.169 C  
ENDBRANCH  23  24
ENDBRANCH  22  23
ENDBRANCH   5  22
ENDBRANCH   4   5
ENDBRANCH   3   4
ENDBRANCH   2   3
TORSDOF 14
ENDMDL
MODEL      225
REMARK 921   NORMALIZED FREE ENERGY PREDICTED BY IDOCK:   -2.83 KCAL/MOL
REMARK 922        TOTAL FREE ENERGY PREDICTED BY IDOCK:   -6.53 KCAL/MOL
REMARK 923 INTER-LIGAND FREE ENERGY PREDICTED BY IDOCK:   -5.34 KCAL/MOL
REMARK 924 INTRA-LIGAND FREE ENERGY PREDICTED BY IDOCK:   -1.19 KCAL/MOL
REMARK 927      BINDING AFFINITY PREDICTED BY RF-SCORE:    0.00 PKD
ROOT
HETATM    1  C   UNL     1      -7.897   7.383  64.881  1.00  0.00    -0.125 C  
HETATM    2  C   UNL     1      -7.148   7.044  66.171  1.00  0.00    -0.073 C  
ENDROOT
BRANCH   2   3
HETATM    3  C   UNL     1      -7.170   8.223  67.163  1.00  0.00    -0.084 C  
BRANCH   3   4
HETATM    4  C   UNL     1      -7.727   7.799  68.540  1.00  0.00    -0.118 C  
BRANCH   4   5
HETATM    5  N   UNL     1      -9.199   7.727  68.567  1.00  0.00    -0.138 NA 
BRANCH   5   6
HETATM    6  C   UNL     1      -9.983   8.937  68.359  1.00  0.00    -0.178 C  
HETATM    7  S   UNL     1     -10.149  10.195  69.687  1.00  0.00    -0.221 SA 
HETATM    8  C   UNL     1      -9.883  13.756  67.606  1.00  0.00    -0.234 C  
HETATM    9  S   UNL     1     -10.525   9.435  66.861  1.00  0.00    -0.173 SA 
HETATM   10 ZN   UNL     1     -10.233  11.339  67.897  1.00  0.00    -0.164 Zn 
HETATM   11  S   UNL     1     -11.350  13.189  68.141  1.00  0.00    -0.315 SA 
HETATM   12  S   UNL     1      -8.659  12.505  67.049  1.00  0.00    -0.162 SA 
BRANCH   8  13
HETATM   13  N   UNL     1      -9.457  15.112  67.829  1.00  0.00    -0.194 NA 
BRANCH  13  14
HETATM   14  C   UNL     1      -9.903  16.208  66.971  1.00  0.00    -0.245 C  
BRANCH  14  15
HETATM   15  C   UNL     1     -10.772  17.235  67.741  1.00  0.00    -0.333 C  
BRANCH  15  16
HETATM   16  C   UNL     1     -10.075  18.580  68.020  1.00  0.00    -0.403 C  
HETATM   17  C   UNL     1      -9.271  19.044  66.799  1.00  0.00    -0.345 C  
ENDBRANCH  15  16
ENDBRANCH  14  15
ENDBRANCH  13  14
BRANCH  13  18
HETATM   18  C   UNL     1      -8.575  15.411  68.963  1.00  0.00    -0.227 C  
BRANCH  18  19
HETATM   19  C   UNL     1      -7.267  16.109  68.519  1.00  0.00    -0.144 C  
BRANCH  19  20
HETATM   20  C   UNL     1      -6.014  15.216  68.582  1.00  0.00    -0.087 C  
HETATM   21  C   UNL     1      -6.207  14.087  69.602  1.00  0.00    -0.127 C  
ENDBRANCH  19  20
ENDBRANCH  18  19
ENDBRANCH  13  18
ENDBRANCH   8  13
ENDBRANCH   5   6
BRANCH   5  22
HETATM   22  C   UNL     1      -9.849   6.421  68.739  1.00  0.00    -0.139 C  
BRANCH  22  23
HETATM   23  C   UNL     1     -11.246   6.456  69.388  1.00  0.00    -0.459 C  
BRANCH  23  24
HETATM   24  C   UNL     1     -11.240   6.590  70.916  1.00  0.00    -0.366 C  
HETATM   25  C   UNL     1     -10.399   5.475  71.549  1.00  0.00    -0.282 C  
ENDBRANCH  23  24
ENDBRANCH  22  23
ENDBRANCH   5  22
ENDBRANCH   4   5
ENDBRANCH   3   4
ENDBRANCH   2   3
TORSDOF 14
ENDMDL
MODEL      226
REMARK 921   NORMALIZED FREE ENERGY PREDICTED BY IDOCK:   -2.83 KCAL/MOL
REMARK 922        TOTAL FREE ENERGY PREDICTED BY IDOCK:   -6.52 KCAL/MOL
REMARK 923 INTER-LIGAND FREE ENERGY PREDICTED BY IDOCK:   -5.42 KCAL/MOL
REMARK 924 INTRA-LIGAND FREE ENERGY PREDICTED BY IDOCK:   -1.10 KCAL/MOL
REMARK 927      BINDING AFFINITY PREDICTED BY RF-SCORE:    0.00 PKD
ROOT
HETATM    1  C   UNL     1      -8.542  10.032  64.881  1.00  0.00    -0.184 C  
HETATM    2  C   UNL     1      -9.216  11.135  65.698  1.00  0.00    -0.238 C  
ENDROOT
BRANCH   2   3
HETATM    3  C   UNL     1      -8.302  11.634  66.834  1.00  0.00    -0.169 C  
BRANCH   3   4
HETATM    4  C   UNL     1      -9.058  11.727  68.176  1.00  0.00    -0.185 C  
BRANCH   4   5
HETATM    5  N   UNL     1      -9.741  10.472  68.540  1.00  0.00    -0.159 NA 
BRANCH   5   6
HETATM    6  C   UNL     1      -8.962   9.351  69.050  1.00  0.00    -0.141 C  
HETATM    7  S   UNL     1      -9.007   8.902  70.830  1.00  0.00    -0.239 SA 
HETATM    8  C   UNL     1      -9.058   4.770  70.724  1.00  0.00    -0.130 C  
HETATM    9  S   UNL     1      -8.228   8.219  68.068  1.00  0.00    -0.129 SA 
HETATM   10 ZN   UNL     1      -8.700   7.041  69.849  1.00  0.00    -0.126 Zn 
HETATM   11  S   UNL     1      -7.667   5.596  71.104  1.00  0.00    -0.107 SA 
HETATM   12  S   UNL     1     -10.166   5.535  69.475  1.00  0.00    -0.284 SA 
BRANCH   8  13
HETATM   13  N   UNL     1      -9.539   3.673  71.519  1.00  0.00    -0.154 NA 
BRANCH  13  14
HETATM   14  C   UNL     1      -9.767   2.349  70.943  1.00  0.00    -0.058 C  
BRANCH  14  15
HETATM   15  C   UNL     1      -8.743   2.014  69.828  1.00  0.00    -0.114 C  
BRANCH  15  16
HETATM   16  C   UNL     1      -9.369   1.752  68.444  1.00  0.00    -0.245 C  
HETATM   17  C   UNL     1      -8.700   2.618  67.369  1.00  0.00    -0.137 C  
ENDBRANCH  15  16
ENDBRANCH  14  15
ENDBRANCH  13  14
BRANCH  13  18
HETATM   18  C   UNL     1      -9.783   3.875  72.952  1.00  0.00    -0.130 C  
BRANCH  18  19
HETATM   19  C   UNL     1     -11.085   4.667  73.218  1.00  0.00    -0.403 C  
BRANCH  19  20
HETATM   20  C   UNL     1     -10.912   6.197  73.219  1.00  0.00    -0.230 C  
HETATM   21  C   UNL     1     -11.899   6.853  72.246  1.00  0.00    -0.274 C  
ENDBRANCH  19  20
ENDBRANCH  18  19
ENDBRANCH  13  18
ENDBRANCH   8  13
ENDBRANCH   5   6
BRANCH   5  22
HETATM   22  C   UNL     1     -11.205  10.398  68.443  1.00  0.00    -0.258 C  
BRANCH  22  23
HETATM   23  C   UNL     1     -11.969  11.608  69.013  1.00  0.00    -0.368 C  
BRANCH  23  24
HETATM   24  C   UNL     1     -12.152  11.590  70.537  1.00  0.00    -0.472 C  
HETATM   25  C   UNL     1     -12.966  10.364  70.965  1.00  0.00    -0.490 C  
ENDBRANCH  23  24
ENDBRANCH  22  23
ENDBRANCH   5  22
ENDBRANCH   4   5
ENDBRANCH   3   4
ENDBRANCH   2   3
TORSDOF 14
ENDMDL
MODEL      227
REMARK 921   NORMALIZED FREE ENERGY PREDICTED BY IDOCK:   -2.83 KCAL/MOL
REMARK 922        TOTAL FREE ENERGY PREDICTED BY IDOCK:   -6.52 KCAL/MOL
REMARK 923 INTER-LIGAND FREE ENERGY PREDICTED BY IDOCK:   -5.55 KCAL/MOL
REMARK 924 INTRA-LIGAND FREE ENERGY PREDICTED BY IDOCK:   -0.97 KCAL/MOL
REMARK 927      BINDING AFFINITY PREDICTED BY RF-SCORE:    0.00 PKD
ROOT
HETATM    1  C   UNL     1     -10.512   8.016  67.024  1.00  0.00    -0.410 C  
HETATM    2  C   UNL     1      -9.954   7.346  68.281  1.00  0.00    -0.182 C  
ENDROOT
BRANCH   2   3
HETATM    3  C   UNL     1      -8.679   6.538  67.971  1.00  0.00    -0.116 C  
BRANCH   3   4
HETATM    4  C   UNL     1      -7.404   7.297  68.397  1.00  0.00    -0.103 C  
BRANCH   4   5
HETATM    5  N   UNL     1      -7.039   8.377  67.462  1.00  0.00    -0.082 NA 
BRANCH   5   6
HETATM    6  C   UNL     1      -7.175   9.766  67.880  1.00  0.00    -0.084 C  
HETATM    7  S   UNL     1      -7.204  11.126  66.644  1.00  0.00    -0.127 SA 
HETATM    8  C   UNL     1     -10.108  13.656  68.146  1.00  0.00    -0.245 C  
HETATM    9  S   UNL     1      -7.613  10.223  69.424  1.00  0.00    -0.151 SA 
HETATM   10 ZN   UNL     1      -8.444  11.845  68.214  1.00  0.00    -0.115 Zn 
HETATM   11  S   UNL     1      -8.495  14.018  68.309  1.00  0.00    -0.174 SA 
HETATM   12  S   UNL     1     -10.579  11.883  68.245  1.00  0.00    -0.222 SA 
BRANCH   8  13
HETATM   13  N   UNL     1     -11.063  14.616  67.662  1.00  0.00    -0.293 NA 
BRANCH  13  14
HETATM   14  C   UNL     1     -11.166  14.947  66.242  1.00  0.00    -0.331 C  
BRANCH  14  15
HETATM   15  C   UNL     1     -10.138  16.026  65.819  1.00  0.00    -0.393 C  
BRANCH  15  16
HETATM   16  C   UNL     1     -10.275  17.367  66.567  1.00  0.00    -0.329 C  
HETATM   17  C   UNL     1      -8.974  17.720  67.299  1.00  0.00    -0.246 C  
ENDBRANCH  15  16
ENDBRANCH  14  15
ENDBRANCH  13  14
BRANCH  13  18
HETATM   18  C   UNL     1     -11.978  15.261  68.610  1.00  0.00    -0.235 C  
BRANCH  18  19
HETATM   19  C   UNL     1     -11.350  15.420  70.015  1.00  0.00    -0.322 C  
BRANCH  19  20
HETATM   20  C   UNL     1     -12.369  15.631  71.149  1.00  0.00    -0.482 C  
HETATM   21  C   UNL     1     -11.709  15.414  72.516  1.00  0.00    -0.564 C  
ENDBRANCH  19  20
ENDBRANCH  18  19
ENDBRANCH  13  18
ENDBRANCH   8  13
ENDBRANCH   5   6
BRANCH   5  22
HETATM   22  C   UNL     1      -6.483   8.030  66.147  1.00  0.00    -0.046 C  
BRANCH  22  23
HETATM   23  C   UNL     1      -7.489   8.030  64.981  1.00  0.00    -0.087 C  
BRANCH  23  24
HETATM   24  C   UNL     1      -7.799   6.643  64.402  1.00  0.00    -0.114 C  
HETATM   25  C   UNL     1      -7.702   6.666  62.872  1.00  0.00    -0.098 C  
ENDBRANCH  23  24
ENDBRANCH  22  23
ENDBRANCH   5  22
ENDBRANCH   4   5
ENDBRANCH   3   4
ENDBRANCH   2   3
TORSDOF 14
ENDMDL
MODEL      228
REMARK 921   NORMALIZED FREE ENERGY PREDICTED BY IDOCK:   -2.82 KCAL/MOL
REMARK 922        TOTAL FREE ENERGY PREDICTED BY IDOCK:   -6.52 KCAL/MOL
REMARK 923 INTER-LIGAND FREE ENERGY PREDICTED BY IDOCK:   -5.98 KCAL/MOL
REMARK 924 INTRA-LIGAND FREE ENERGY PREDICTED BY IDOCK:   -0.53 KCAL/MOL
REMARK 927      BINDING AFFINITY PREDICTED BY RF-SCORE:    0.00 PKD
ROOT
HETATM    1  C   UNL     1      -7.759   6.190  63.438  1.00  0.00    -0.098 C  
HETATM    2  C   UNL     1      -6.994   7.496  63.662  1.00  0.00    -0.060 C  
ENDROOT
BRANCH   2   3
HETATM    3  C   UNL     1      -7.426   8.185  64.971  1.00  0.00    -0.087 C  
BRANCH   3   4
HETATM    4  C   UNL     1      -8.752   7.607  65.510  1.00  0.00    -0.051 C  
BRANCH   4   5
HETATM    5  N   UNL     1      -9.456   8.531  66.418  1.00  0.00    -0.214 NA 
BRANCH   5   6
HETATM    6  C   UNL     1      -9.062   9.933  66.463  1.00  0.00    -0.152 C  
HETATM    7  S   UNL     1      -9.940  11.193  65.455  1.00  0.00    -0.263 SA 
HETATM    8  C   UNL     1     -10.182  14.413  68.036  1.00  0.00    -0.228 C  
HETATM    9  S   UNL     1      -8.030  10.562  67.614  1.00  0.00    -0.106 SA 
HETATM   10 ZN   UNL     1      -9.331  12.267  67.186  1.00  0.00    -0.167 Zn 
HETATM   11  S   UNL     1      -9.071  14.392  66.801  1.00  0.00    -0.236 SA 
HETATM   12  S   UNL     1     -10.552  12.809  68.851  1.00  0.00    -0.053 SA 
BRANCH   8  13
HETATM   13  N   UNL     1     -11.036  15.544  68.279  1.00  0.00    -0.307 NA 
BRANCH  13  14
HETATM   14  C   UNL     1     -12.245  15.432  69.094  1.00  0.00    -0.160 C  
BRANCH  14  15
HETATM   15  C   UNL     1     -11.964  15.708  70.593  1.00  0.00    -0.438 C  
BRANCH  15  16
HETATM   16  C   UNL     1     -12.664  14.736  71.563  1.00  0.00    -0.401 C  
HETATM   17  C   UNL     1     -14.179  14.970  71.574  1.00  0.00    -0.633 C  
ENDBRANCH  15  16
ENDBRANCH  14  15
ENDBRANCH  13  14
BRANCH  13  18
HETATM   18  C   UNL     1     -10.676  16.851  67.719  1.00  0.00    -0.315 C  
BRANCH  18  19
HETATM   19  C   UNL     1      -9.921  17.738  68.738  1.00  0.00    -0.367 C  
BRANCH  19  20
HETATM   20  C   UNL     1      -8.888  18.691  68.112  1.00  0.00    -0.335 C  
HETATM   21  C   UNL     1      -7.678  17.909  67.588  1.00  0.00    -0.216 C  
ENDBRANCH  19  20
ENDBRANCH  18  19
ENDBRANCH  13  18
ENDBRANCH   8  13
ENDBRANCH   5   6
BRANCH   5  22
HETATM   22  C   UNL     1     -10.586   8.033  67.213  1.00  0.00    -0.290 C  
BRANCH  22  23
HETATM   23  C   UNL     1     -10.468   8.240  68.735  1.00  0.00    -0.200 C  
BRANCH  23  24
HETATM   24  C   UNL     1      -9.943   7.023  69.508  1.00  0.00    -0.166 C  
HETATM   25  C   UNL     1     -10.983   5.896  69.504  1.00  0.00    -0.438 C  
ENDBRANCH  23  24
ENDBRANCH  22  23
ENDBRANCH   5  22
ENDBRANCH   4   5
ENDBRANCH   3   4
ENDBRANCH   2   3
TORSDOF 14
ENDMDL
MODEL      229
REMARK 921   NORMALIZED FREE ENERGY PREDICTED BY IDOCK:   -2.82 KCAL/MOL
REMARK 922        TOTAL FREE ENERGY PREDICTED BY IDOCK:   -6.51 KCAL/MOL
REMARK 923 INTER-LIGAND FREE ENERGY PREDICTED BY IDOCK:   -5.85 KCAL/MOL
REMARK 924 INTRA-LIGAND FREE ENERGY PREDICTED BY IDOCK:   -0.66 KCAL/MOL
REMARK 927      BINDING AFFINITY PREDICTED BY RF-SCORE:    0.00 PKD
ROOT
HETATM    1  C   UNL     1      -9.130   3.320  67.542  1.00  0.00    -0.205 C  
HETATM    2  C   UNL     1      -9.431   2.817  68.954  1.00  0.00    -0.171 C  
ENDROOT
BRANCH   2   3
HETATM    3  C   UNL     1      -9.314   3.948  69.994  1.00  0.00    -0.247 C  
BRANCH   3   4
HETATM    4  C   UNL     1      -9.051   5.314  69.323  1.00  0.00    -0.108 C  
BRANCH   4   5
HETATM    5  N   UNL     1      -8.896   6.412  70.295  1.00  0.00    -0.149 NA 
BRANCH   5   6
HETATM    6  C   UNL     1      -8.602   7.757  69.819  1.00  0.00    -0.134 C  
HETATM    7  S   UNL     1      -8.829   8.204  68.051  1.00  0.00    -0.131 SA 
HETATM    8  C   UNL     1     -10.437  12.006  68.274  1.00  0.00    -0.204 C  
HETATM    9  S   UNL     1      -8.343   9.055  70.834  1.00  0.00    -0.190 SA 
HETATM   10 ZN   UNL     1      -9.240  10.015  69.086  1.00  0.00    -0.129 Zn 
HETATM   11  S   UNL     1      -8.841  11.777  67.874  1.00  0.00    -0.172 SA 
HETATM   12  S   UNL     1     -11.164  10.845  69.499  1.00  0.00    -0.298 SA 
BRANCH   8  13
HETATM   13  N   UNL     1     -11.304  12.861  67.509  1.00  0.00    -0.290 NA 
BRANCH  13  14
HETATM   14  C   UNL     1     -11.585  12.604  66.098  1.00  0.00    -0.393 C  
BRANCH  14  15
HETATM   15  C   UNL     1     -11.273  11.140  65.698  1.00  0.00     0.008 C  
BRANCH  15  16
HETATM   16  C   UNL     1     -10.490  10.991  64.378  1.00  0.00    -0.422 C  
HETATM   17  C   UNL     1      -9.495   9.827  64.461  1.00  0.00    -0.269 C  
ENDBRANCH  15  16
ENDBRANCH  14  15
ENDBRANCH  13  14
BRANCH  13  18
HETATM   18  C   UNL     1     -11.946  14.006  68.164  1.00  0.00    -0.347 C  
BRANCH  18  19
HETATM   19  C   UNL     1     -10.960  14.798  69.057  1.00  0.00    -0.257 C  
BRANCH  19  20
HETATM   20  C   UNL     1     -11.393  14.923  70.529  1.00  0.00    -0.280 C  
HETATM   21  C   UNL     1     -12.831  14.424  70.714  1.00  0.00    -0.417 C  
ENDBRANCH  19  20
ENDBRANCH  18  19
ENDBRANCH  13  18
ENDBRANCH   8  13
ENDBRANCH   5   6
BRANCH   5  22
HETATM   22  C   UNL     1      -9.105   6.140  71.723  1.00  0.00    -0.144 C  
BRANCH  22  23
HETATM   23  C   UNL     1     -10.362   6.780  72.343  1.00  0.00    -0.218 C  
BRANCH  23  24
HETATM   24  C   UNL     1     -11.618   5.899  72.299  1.00  0.00    -0.338 C  
HETATM   25  C   UNL     1     -11.457   4.689  73.227  1.00  0.00    -0.346 C  
ENDBRANCH  23  24
ENDBRANCH  22  23
ENDBRANCH   5  22
ENDBRANCH   4   5
ENDBRANCH   3   4
ENDBRANCH   2   3
TORSDOF 14
ENDMDL
MODEL      230
REMARK 921   NORMALIZED FREE ENERGY PREDICTED BY IDOCK:   -2.82 KCAL/MOL
REMARK 922        TOTAL FREE ENERGY PREDICTED BY IDOCK:   -6.50 KCAL/MOL
REMARK 923 INTER-LIGAND FREE ENERGY PREDICTED BY IDOCK:   -5.92 KCAL/MOL
REMARK 924 INTRA-LIGAND FREE ENERGY PREDICTED BY IDOCK:   -0.58 KCAL/MOL
REMARK 927      BINDING AFFINITY PREDICTED BY RF-SCORE:    0.00 PKD
ROOT
HETATM    1  C   UNL     1      -9.798  11.632  63.122  1.00  0.00    -0.407 C  
HETATM    2  C   UNL     1      -9.415  10.160  63.280  1.00  0.00    -0.302 C  
ENDROOT
BRANCH   2   3
HETATM    3  C   UNL     1      -9.302   9.763  64.765  1.00  0.00    -0.327 C  
BRANCH   3   4
HETATM    4  C   UNL     1      -7.869   9.318  65.129  1.00  0.00    -0.110 C  
BRANCH   4   5
HETATM    5  N   UNL     1      -7.676   9.125  66.578  1.00  0.00    -0.096 NA 
BRANCH   5   6
HETATM    6  C   UNL     1      -7.579  10.287  67.451  1.00  0.00    -0.094 C  
HETATM    7  S   UNL     1      -7.211  11.953  66.769  1.00  0.00     0.071 SA 
HETATM    8  C   UNL     1      -9.700  14.408  68.975  1.00  0.00    -0.077 C  
HETATM    9  S   UNL     1      -8.075  10.285  69.044  1.00  0.00    -0.143 SA 
HETATM   10 ZN   UNL     1      -8.441  12.359  68.454  1.00  0.00    -0.131 Zn 
HETATM   11  S   UNL     1      -8.072  14.328  69.301  1.00  0.00     0.265 SA 
HETATM   12  S   UNL     1     -10.518  12.855  68.433  1.00  0.00    -0.247 SA 
BRANCH   8  13
HETATM   13  N   UNL     1     -10.392  15.660  68.829  1.00  0.00    -0.211 NA 
BRANCH  13  14
HETATM   14  C   UNL     1      -9.691  16.884  68.443  1.00  0.00    -0.263 C  
BRANCH  14  15
HETATM   15  C   UNL     1     -10.628  17.891  67.729  1.00  0.00    -0.399 C  
BRANCH  15  16
HETATM   16  C   UNL     1     -10.464  19.353  68.189  1.00  0.00    -0.476 C  
HETATM   17  C   UNL     1     -10.013  20.245  67.026  1.00  0.00    -0.601 C  
ENDBRANCH  15  16
ENDBRANCH  14  15
ENDBRANCH  13  14
BRANCH  13  18
HETATM   18  C   UNL     1     -11.842  15.710  69.046  1.00  0.00    -0.364 C  
BRANCH  18  19
HETATM   19  C   UNL     1     -12.264  14.989  70.349  1.00  0.00    -0.393 C  
BRANCH  19  20
HETATM   20  C   UNL     1     -12.381  15.909  71.577  1.00  0.00    -0.503 C  
HETATM   21  C   UNL     1     -13.708  15.669  72.308  1.00  0.00    -0.584 C  
ENDBRANCH  19  20
ENDBRANCH  18  19
ENDBRANCH  13  18
ENDBRANCH   8  13
ENDBRANCH   5   6
BRANCH   5  22
HETATM   22  C   UNL     1      -7.653   7.761  67.122  1.00  0.00    -0.100 C  
BRANCH  22  23
HETATM   23  C   UNL     1      -9.032   7.112  67.344  1.00  0.00    -0.122 C  
BRANCH  23  24
HETATM   24  C   UNL     1      -9.365   5.968  66.377  1.00  0.00    -0.171 C  
HETATM   25  C   UNL     1      -8.239   5.787  65.352  1.00  0.00    -0.138 C  
ENDBRANCH  23  24
ENDBRANCH  22  23
ENDBRANCH   5  22
ENDBRANCH   4   5
ENDBRANCH   3   4
ENDBRANCH   2   3
TORSDOF 14
ENDMDL
MODEL      231
REMARK 921   NORMALIZED FREE ENERGY PREDICTED BY IDOCK:   -2.82 KCAL/MOL
REMARK 922        TOTAL FREE ENERGY PREDICTED BY IDOCK:   -6.50 KCAL/MOL
REMARK 923 INTER-LIGAND FREE ENERGY PREDICTED BY IDOCK:   -5.82 KCAL/MOL
REMARK 924 INTRA-LIGAND FREE ENERGY PREDICTED BY IDOCK:   -0.68 KCAL/MOL
REMARK 927      BINDING AFFINITY PREDICTED BY RF-SCORE:    0.00 PKD
ROOT
HETATM    1  C   UNL     1      -5.127  11.654  68.278  1.00  0.00    -0.043 C  
HETATM    2  C   UNL     1      -6.277  10.908  67.600  1.00  0.00    -0.051 C  
ENDROOT
BRANCH   2   3
HETATM    3  C   UNL     1      -5.875   9.468  67.228  1.00  0.00    -0.045 C  
BRANCH   3   4
HETATM    4  C   UNL     1      -7.062   8.678  66.636  1.00  0.00    -0.080 C  
BRANCH   4   5
HETATM    5  N   UNL     1      -7.874   8.002  67.665  1.00  0.00    -0.120 NA 
BRANCH   5   6
HETATM    6  C   UNL     1      -9.077   8.650  68.171  1.00  0.00    -0.141 C  
HETATM    7  S   UNL     1      -9.010   9.746  69.644  1.00  0.00    -0.226 SA 
HETATM    8  C   UNL     1     -11.564  12.825  68.602  1.00  0.00    -0.314 C  
HETATM    9  S   UNL     1     -10.513   8.713  67.325  1.00  0.00    -0.250 SA 
HETATM   10 ZN   UNL     1     -10.575  10.576  68.469  1.00  0.00    -0.159 Zn 
HETATM   11  S   UNL     1     -12.043  11.643  69.668  1.00  0.00    -0.246 SA 
HETATM   12  S   UNL     1     -10.461  12.308  67.226  1.00  0.00    -0.220 SA 
BRANCH   8  13
HETATM   13  N   UNL     1     -11.742  14.224  68.879  1.00  0.00    -0.308 NA 
BRANCH  13  14
HETATM   14  C   UNL     1     -11.187  15.257  68.005  1.00  0.00    -0.326 C  
BRANCH  14  15
HETATM   15  C   UNL     1     -10.059  16.062  68.698  1.00  0.00    -0.220 C  
BRANCH  15  16
HETATM   16  C   UNL     1     -10.325  17.578  68.797  1.00  0.00    -0.358 C  
HETATM   17  C   UNL     1     -10.540  18.188  67.407  1.00  0.00    -0.406 C  
ENDBRANCH  15  16
ENDBRANCH  14  15
ENDBRANCH  13  14
BRANCH  13  18
HETATM   18  C   UNL     1     -12.522  14.632  70.053  1.00  0.00    -0.284 C  
BRANCH  18  19
HETATM   19  C   UNL     1     -11.621  15.014  71.252  1.00  0.00    -0.384 C  
BRANCH  19  20
HETATM   20  C   UNL     1     -12.246  16.036  72.218  1.00  0.00    -0.604 C  
HETATM   21  C   UNL     1     -12.229  15.502  73.655  1.00  0.00    -0.676 C  
ENDBRANCH  19  20
ENDBRANCH  18  19
ENDBRANCH  13  18
ENDBRANCH   8  13
ENDBRANCH   5   6
BRANCH   5  22
HETATM   22  C   UNL     1      -7.489   6.657  68.112  1.00  0.00    -0.095 C  
BRANCH  22  23
HETATM   23  C   UNL     1      -6.953   6.566  69.553  1.00  0.00    -0.067 C  
BRANCH  23  24
HETATM   24  C   UNL     1      -7.957   6.019  70.577  1.00  0.00    -0.111 C  
HETATM   25  C   UNL     1      -8.533   4.681  70.101  1.00  0.00    -0.090 C  
ENDBRANCH  23  24
ENDBRANCH  22  23
ENDBRANCH   5  22
ENDBRANCH   4   5
ENDBRANCH   3   4
ENDBRANCH   2   3
TORSDOF 14
ENDMDL
MODEL      232
REMARK 921   NORMALIZED FREE ENERGY PREDICTED BY IDOCK:   -2.81 KCAL/MOL
REMARK 922        TOTAL FREE ENERGY PREDICTED BY IDOCK:   -6.50 KCAL/MOL
REMARK 923 INTER-LIGAND FREE ENERGY PREDICTED BY IDOCK:   -5.99 KCAL/MOL
REMARK 924 INTRA-LIGAND FREE ENERGY PREDICTED BY IDOCK:   -0.51 KCAL/MOL
REMARK 927      BINDING AFFINITY PREDICTED BY RF-SCORE:    0.00 PKD
ROOT
HETATM    1  C   UNL     1     -10.741   2.368  73.360  1.00  0.00    -0.267 C  
HETATM    2  C   UNL     1     -10.219   3.754  72.978  1.00  0.00    -0.229 C  
ENDROOT
BRANCH   2   3
HETATM    3  C   UNL     1     -11.224   4.860  73.357  1.00  0.00    -0.415 C  
BRANCH   3   4
HETATM    4  C   UNL     1     -10.508   6.163  73.772  1.00  0.00    -0.283 C  
BRANCH   4   5
HETATM    5  N   UNL     1     -10.504   7.182  72.706  1.00  0.00    -0.222 NA 
BRANCH   5   6
HETATM    6  C   UNL     1      -9.374   7.258  71.790  1.00  0.00    -0.149 C  
HETATM    7  S   UNL     1      -9.339   6.262  70.246  1.00  0.00    -0.161 SA 
HETATM    8  C   UNL     1      -7.733   8.898  67.498  1.00  0.00    -0.100 C  
HETATM    9  S   UNL     1      -8.194   8.435  71.881  1.00  0.00    -0.151 SA 
HETATM   10 ZN   UNL     1      -8.260   8.020  69.734  1.00  0.00    -0.100 Zn 
HETATM   11  S   UNL     1      -6.812   7.678  68.148  1.00  0.00    -0.065 SA 
HETATM   12  S   UNL     1      -8.980   9.678  68.598  1.00  0.00    -0.131 SA 
BRANCH   8  13
HETATM   13  N   UNL     1      -7.782   9.150  66.083  1.00  0.00    -0.095 NA 
BRANCH  13  14
HETATM   14  C   UNL     1      -8.294  10.409  65.544  1.00  0.00    -0.168 C  
BRANCH  14  15
HETATM   15  C   UNL     1      -9.630  10.218  64.782  1.00  0.00    -0.369 C  
BRANCH  15  16
HETATM   16  C   UNL     1     -10.698  11.286  65.087  1.00  0.00    -0.312 C  
HETATM   17  C   UNL     1     -11.407  11.733  63.802  1.00  0.00    -0.524 C  
ENDBRANCH  15  16
ENDBRANCH  14  15
ENDBRANCH  13  14
BRANCH  13  18
HETATM   18  C   UNL     1      -7.282   8.131  65.153  1.00  0.00    -0.072 C  
BRANCH  18  19
HETATM   19  C   UNL     1      -8.239   6.920  65.040  1.00  0.00    -0.096 C  
BRANCH  19  20
HETATM   20  C   UNL     1      -7.865   5.912  63.940  1.00  0.00    -0.119 C  
HETATM   21  C   UNL     1      -8.435   4.525  64.261  1.00  0.00    -0.120 C  
ENDBRANCH  19  20
ENDBRANCH  18  19
ENDBRANCH  13  18
ENDBRANCH   8  13
ENDBRANCH   5   6
BRANCH   5  22
HETATM   22  C   UNL     1     -11.672   8.059  72.547  1.00  0.00    -0.387 C  
BRANCH  22  23
HETATM   23  C   UNL     1     -11.448   9.309  71.675  1.00  0.00    -0.468 C  
BRANCH  23  24
HETATM   24  C   UNL     1     -12.687  10.197  71.499  1.00  0.00    -0.541 C  
HETATM   25  C   UNL     1     -12.395  11.334  70.512  1.00  0.00    -0.446 C  
ENDBRANCH  23  24
ENDBRANCH  22  23
ENDBRANCH   5  22
ENDBRANCH   4   5
ENDBRANCH   3   4
ENDBRANCH   2   3
TORSDOF 14
ENDMDL
MODEL      233
REMARK 921   NORMALIZED FREE ENERGY PREDICTED BY IDOCK:   -2.81 KCAL/MOL
REMARK 922        TOTAL FREE ENERGY PREDICTED BY IDOCK:   -6.48 KCAL/MOL
REMARK 923 INTER-LIGAND FREE ENERGY PREDICTED BY IDOCK:   -5.29 KCAL/MOL
REMARK 924 INTRA-LIGAND FREE ENERGY PREDICTED BY IDOCK:   -1.19 KCAL/MOL
REMARK 927      BINDING AFFINITY PREDICTED BY RF-SCORE:    0.00 PKD
ROOT
HETATM    1  C   UNL     1      -6.267  19.954  69.616  1.00  0.00    -0.377 C  
HETATM    2  C   UNL     1      -7.225  19.427  68.547  1.00  0.00    -0.356 C  
ENDROOT
BRANCH   2   3
HETATM    3  C   UNL     1      -7.353  17.892  68.612  1.00  0.00    -0.271 C  
BRANCH   3   4
HETATM    4  C   UNL     1      -7.207  17.248  67.217  1.00  0.00    -0.165 C  
BRANCH   4   5
HETATM    5  N   UNL     1      -8.065  16.063  67.037  1.00  0.00    -0.198 NA 
BRANCH   5   6
HETATM    6  C   UNL     1      -7.778  14.847  67.787  1.00  0.00    -0.161 C  
HETATM    7  S   UNL     1      -9.090  14.003  68.757  1.00  0.00     0.046 SA 
HETATM    8  C   UNL     1      -8.328  10.006  68.033  1.00  0.00    -0.117 C  
HETATM    9  S   UNL     1      -6.376  13.961  67.601  1.00  0.00    -0.051 SA 
HETATM   10 ZN   UNL     1      -7.829  12.413  68.127  1.00  0.00    -0.095 Zn 
HETATM   11  S   UNL     1      -7.898  10.708  69.476  1.00  0.00    -0.020 SA 
HETATM   12  S   UNL     1      -8.193  11.048  66.526  1.00  0.00    -0.163 SA 
BRANCH   8  13
HETATM   13  N   UNL     1      -9.046   8.761  67.971  1.00  0.00    -0.140 NA 
BRANCH  13  14
HETATM   14  C   UNL     1      -9.436   8.163  66.695  1.00  0.00    -0.213 C  
BRANCH  14  15
HETATM   15  C   UNL     1      -8.890   6.721  66.535  1.00  0.00    -0.150 C  
BRANCH  15  16
HETATM   16  C   UNL     1      -8.050   6.493  65.263  1.00  0.00    -0.133 C  
HETATM   17  C   UNL     1      -7.449   7.811  64.761  1.00  0.00    -0.092 C  
ENDBRANCH  15  16
ENDBRANCH  14  15
ENDBRANCH  13  14
BRANCH  13  18
HETATM   18  C   UNL     1      -9.373   8.056  69.215  1.00  0.00    -0.151 C  
BRANCH  18  19
HETATM   19  C   UNL     1     -10.863   8.212  69.602  1.00  0.00    -0.162 C  
BRANCH  19  20
HETATM   20  C   UNL     1     -11.107   9.027  70.885  1.00  0.00    -0.343 C  
HETATM   21  C   UNL     1     -10.043   8.704  71.940  1.00  0.00    -0.398 C  
ENDBRANCH  19  20
ENDBRANCH  18  19
ENDBRANCH  13  18
ENDBRANCH   8  13
ENDBRANCH   5   6
BRANCH   5  22
HETATM   22  C   UNL     1      -9.235  16.152  66.153  1.00  0.00    -0.347 C  
BRANCH  22  23
HETATM   23  C   UNL     1     -10.370  17.070  66.647  1.00  0.00    -0.299 C  
BRANCH  23  24
HETATM   24  C   UNL     1     -10.525  18.378  65.858  1.00  0.00    -0.346 C  
HETATM   25  C   UNL     1     -10.510  19.581  66.808  1.00  0.00    -0.590 C  
ENDBRANCH  23  24
ENDBRANCH  22  23
ENDBRANCH   5  22
ENDBRANCH   4   5
ENDBRANCH   3   4
ENDBRANCH   2   3
TORSDOF 14
ENDMDL
MODEL      234
REMARK 921   NORMALIZED FREE ENERGY PREDICTED BY IDOCK:   -2.79 KCAL/MOL
REMARK 922        TOTAL FREE ENERGY PREDICTED BY IDOCK:   -6.45 KCAL/MOL
REMARK 923 INTER-LIGAND FREE ENERGY PREDICTED BY IDOCK:   -5.33 KCAL/MOL
REMARK 924 INTRA-LIGAND FREE ENERGY PREDICTED BY IDOCK:   -1.12 KCAL/MOL
REMARK 927      BINDING AFFINITY PREDICTED BY RF-SCORE:    0.00 PKD
ROOT
HETATM    1  C   UNL     1      -7.362  16.084  69.191  1.00  0.00    -0.209 C  
HETATM    2  C   UNL     1      -7.042  14.611  68.931  1.00  0.00    -0.117 C  
ENDROOT
BRANCH   2   3
HETATM    3  C   UNL     1      -7.969  14.012  67.856  1.00  0.00    -0.158 C  
BRANCH   3   4
HETATM    4  C   UNL     1      -9.448  14.035  68.301  1.00  0.00    -0.216 C  
BRANCH   4   5
HETATM    5  N   UNL     1     -10.050  12.691  68.365  1.00  0.00    -0.231 NA 
BRANCH   5   6
HETATM    6  C   UNL     1      -9.293  11.541  67.887  1.00  0.00    -0.171 C  
HETATM    7  S   UNL     1      -8.376  10.461  69.056  1.00  0.00    -0.157 SA 
HETATM    8  C   UNL     1      -9.083   6.678  67.546  1.00  0.00    -0.116 C  
HETATM    9  S   UNL     1      -9.430  10.929  66.340  1.00  0.00    -0.194 SA 
HETATM   10 ZN   UNL     1      -8.963   9.135  67.502  1.00  0.00    -0.117 Zn 
HETATM   11  S   UNL     1      -7.623   7.433  67.305  1.00  0.00    -0.110 SA 
HETATM   12  S   UNL     1     -10.581   7.743  67.550  1.00  0.00    -0.217 SA 
BRANCH   8  13
HETATM   13  N   UNL     1      -9.177   5.324  68.020  1.00  0.00    -0.111 NA 
BRANCH  13  14
HETATM   14  C   UNL     1      -8.708   4.942  69.351  1.00  0.00    -0.087 C  
BRANCH  14  15
HETATM   15  C   UNL     1      -9.866   4.868  70.378  1.00  0.00    -0.302 C  
BRANCH  15  16
HETATM   16  C   UNL     1     -10.127   6.181  71.142  1.00  0.00    -0.231 C  
HETATM   17  C   UNL     1     -11.618   6.537  71.124  1.00  0.00    -0.390 C  
ENDBRANCH  15  16
ENDBRANCH  14  15
ENDBRANCH  13  14
BRANCH  13  18
HETATM   18  C   UNL     1      -9.782   4.301  67.159  1.00  0.00    -0.196 C  
BRANCH  18  19
HETATM   19  C   UNL     1      -9.303   4.411  65.692  1.00  0.00    -0.161 C  
BRANCH  19  20
HETATM   20  C   UNL     1      -8.152   3.458  65.324  1.00  0.00    -0.093 C  
HETATM   21  C   UNL     1      -6.795   4.140  65.538  1.00  0.00    -0.057 C  
ENDBRANCH  19  20
ENDBRANCH  18  19
ENDBRANCH  13  18
ENDBRANCH   8  13
ENDBRANCH   5   6
BRANCH   5  22
HETATM   22  C   UNL     1     -11.378  12.528  68.971  1.00  0.00    -0.290 C  
BRANCH  22  23
HETATM   23  C   UNL     1     -11.850  11.072  69.151  1.00  0.00    -0.407 C  
BRANCH  23  24
HETATM   24  C   UNL     1     -11.755  10.541  70.587  1.00  0.00    -0.453 C  
HETATM   25  C   UNL     1     -12.869  11.137  71.455  1.00  0.00    -0.542 C  
ENDBRANCH  23  24
ENDBRANCH  22  23
ENDBRANCH   5  22
ENDBRANCH   4   5
ENDBRANCH   3   4
ENDBRANCH   2   3
TORSDOF 14
ENDMDL
MODEL      235
REMARK 921   NORMALIZED FREE ENERGY PREDICTED BY IDOCK:   -2.78 KCAL/MOL
REMARK 922        TOTAL FREE ENERGY PREDICTED BY IDOCK:   -6.44 KCAL/MOL
REMARK 923 INTER-LIGAND FREE ENERGY PREDICTED BY IDOCK:   -5.59 KCAL/MOL
REMARK 924 INTRA-LIGAND FREE ENERGY PREDICTED BY IDOCK:   -0.85 KCAL/MOL
REMARK 927      BINDING AFFINITY PREDICTED BY RF-SCORE:    0.00 PKD
ROOT
HETATM    1  C   UNL     1     -10.522  11.669  63.327  1.00  0.00    -0.438 C  
HETATM    2  C   UNL     1      -9.575  10.472  63.417  1.00  0.00    -0.376 C  
ENDROOT
BRANCH   2   3
HETATM    3  C   UNL     1      -9.635   9.807  64.806  1.00  0.00    -0.284 C  
BRANCH   3   4
HETATM    4  C   UNL     1      -8.538   8.733  64.973  1.00  0.00    -0.169 C  
BRANCH   4   5
HETATM    5  N   UNL     1      -8.114   8.557  66.374  1.00  0.00    -0.101 NA 
BRANCH   5   6
HETATM    6  C   UNL     1      -7.897   9.729  67.212  1.00  0.00    -0.098 C  
HETATM    7  S   UNL     1      -6.890  11.145  66.614  1.00  0.00    -0.123 SA 
HETATM    8  C   UNL     1      -9.005  14.415  68.001  1.00  0.00    -0.183 C  
HETATM    9  S   UNL     1      -8.756  10.032  68.610  1.00  0.00    -0.133 SA 
HETATM   10 ZN   UNL     1      -8.326  12.053  67.892  1.00  0.00    -0.114 Zn 
HETATM   11  S   UNL     1      -7.613  13.916  68.759  1.00  0.00    -0.071 SA 
HETATM   12  S   UNL     1     -10.085  13.106  67.297  1.00  0.00    -0.235 SA 
BRANCH   8  13
HETATM   13  N   UNL     1      -9.232  15.789  67.643  1.00  0.00    -0.199 NA 
BRANCH  13  14
HETATM   14  C   UNL     1      -9.380  16.832  68.656  1.00  0.00    -0.252 C  
BRANCH  14  15
HETATM   15  C   UNL     1     -10.777  16.800  69.326  1.00  0.00    -0.324 C  
BRANCH  15  16
HETATM   16  C   UNL     1     -10.925  15.750  70.445  1.00  0.00    -0.369 C  
HETATM   17  C   UNL     1     -11.804  16.284  71.582  1.00  0.00    -0.482 C  
ENDBRANCH  15  16
ENDBRANCH  14  15
ENDBRANCH  13  14
BRANCH  13  18
HETATM   18  C   UNL     1      -9.290  16.162  66.225  1.00  0.00    -0.317 C  
BRANCH  18  19
HETATM   19  C   UNL     1     -10.741  16.386  65.737  1.00  0.00    -0.245 C  
BRANCH  19  20
HETATM   20  C   UNL     1     -11.080  15.694  64.405  1.00  0.00    -0.178 C  
HETATM   21  C   UNL     1     -12.338  14.829  64.550  1.00  0.00    -0.384 C  
ENDBRANCH  19  20
ENDBRANCH  18  19
ENDBRANCH  13  18
ENDBRANCH   8  13
ENDBRANCH   5   6
BRANCH   5  22
HETATM   22  C   UNL     1      -7.981   7.199  66.917  1.00  0.00    -0.115 C  
BRANCH  22  23
HETATM   23  C   UNL     1      -9.135   6.235  66.581  1.00  0.00    -0.152 C  
BRANCH  23  24
HETATM   24  C   UNL     1      -9.006   4.839  67.206  1.00  0.00    -0.116 C  
HETATM   25  C   UNL     1      -8.865   3.774  66.113  1.00  0.00    -0.127 C  
ENDBRANCH  23  24
ENDBRANCH  22  23
ENDBRANCH   5  22
ENDBRANCH   4   5
ENDBRANCH   3   4
ENDBRANCH   2   3
TORSDOF 14
ENDMDL
MODEL      236
REMARK 921   NORMALIZED FREE ENERGY PREDICTED BY IDOCK:   -2.78 KCAL/MOL
REMARK 922        TOTAL FREE ENERGY PREDICTED BY IDOCK:   -6.44 KCAL/MOL
REMARK 923 INTER-LIGAND FREE ENERGY PREDICTED BY IDOCK:   -4.98 KCAL/MOL
REMARK 924 INTRA-LIGAND FREE ENERGY PREDICTED BY IDOCK:   -1.46 KCAL/MOL
REMARK 927      BINDING AFFINITY PREDICTED BY RF-SCORE:    0.00 PKD
ROOT
HETATM    1  C   UNL     1      -7.896   7.172  63.720  1.00  0.00    -0.110 C  
HETATM    2  C   UNL     1      -6.405   7.067  64.047  1.00  0.00    -0.043 C  
ENDROOT
BRANCH   2   3
HETATM    3  C   UNL     1      -6.055   7.833  65.338  1.00  0.00    -0.038 C  
BRANCH   3   4
HETATM    4  C   UNL     1      -5.506   6.890  66.430  1.00  0.00    -0.022 C  
BRANCH   4   5
HETATM    5  N   UNL     1      -6.555   6.072  67.064  1.00  0.00    -0.054 NA 
BRANCH   5   6
HETATM    6  C   UNL     1      -7.709   6.725  67.667  1.00  0.00    -0.111 C  
HETATM    7  S   UNL     1      -7.515   8.253  68.667  1.00  0.00    -0.099 SA 
HETATM    8  C   UNL     1     -10.769  10.521  67.503  1.00  0.00    -0.276 C  
HETATM    9  S   UNL     1      -9.287   6.350  67.272  1.00  0.00    -0.122 SA 
HETATM   10 ZN   UNL     1      -9.434   8.473  67.779  1.00  0.00    -0.135 Zn 
HETATM   11  S   UNL     1     -10.763   9.725  68.961  1.00  0.00    -0.201 SA 
HETATM   12  S   UNL     1      -9.933   9.688  66.095  1.00  0.00    -0.257 SA 
BRANCH   8  13
HETATM   13  N   UNL     1     -11.138  11.906  67.388  1.00  0.00    -0.261 NA 
BRANCH  13  14
HETATM   14  C   UNL     1     -10.919  12.659  66.154  1.00  0.00    -0.282 C  
BRANCH  14  15
HETATM   15  C   UNL     1     -12.248  12.993  65.431  1.00  0.00    -0.520 C  
BRANCH  15  16
HETATM   16  C   UNL     1     -12.201  14.267  64.564  1.00  0.00    -0.476 C  
HETATM   17  C   UNL     1     -11.093  15.213  65.042  1.00  0.00    -0.428 C  
ENDBRANCH  15  16
ENDBRANCH  14  15
ENDBRANCH  13  14
BRANCH  13  18
HETATM   18  C   UNL     1     -11.775  12.578  68.526  1.00  0.00    -0.324 C  
BRANCH  18  19
HETATM   19  C   UNL     1     -11.138  13.956  68.825  1.00  0.00    -0.291 C  
BRANCH  19  20
HETATM   20  C   UNL     1     -11.979  14.862  69.742  1.00  0.00    -0.366 C  
HETATM   21  C   UNL     1     -11.163  16.077  70.197  1.00  0.00    -0.376 C  
ENDBRANCH  19  20
ENDBRANCH  18  19
ENDBRANCH  13  18
ENDBRANCH   8  13
ENDBRANCH   5   6
BRANCH   5  22
HETATM   22  C   UNL     1      -6.447   4.607  67.019  1.00  0.00    -0.042 C  
BRANCH  22  23
HETATM   23  C   UNL     1      -5.721   4.034  65.787  1.00  0.00    -0.022 C  
BRANCH  23  24
HETATM   24  C   UNL     1      -6.580   3.117  64.906  1.00  0.00    -0.039 C  
HETATM   25  C   UNL     1      -8.044   3.569  64.929  1.00  0.00    -0.090 C  
ENDBRANCH  23  24
ENDBRANCH  22  23
ENDBRANCH   5  22
ENDBRANCH   4   5
ENDBRANCH   3   4
ENDBRANCH   2   3
TORSDOF 14
ENDMDL
MODEL      237
REMARK 921   NORMALIZED FREE ENERGY PREDICTED BY IDOCK:   -2.78 KCAL/MOL
REMARK 922        TOTAL FREE ENERGY PREDICTED BY IDOCK:   -6.43 KCAL/MOL
REMARK 923 INTER-LIGAND FREE ENERGY PREDICTED BY IDOCK:   -5.14 KCAL/MOL
REMARK 924 INTRA-LIGAND FREE ENERGY PREDICTED BY IDOCK:   -1.30 KCAL/MOL
REMARK 927      BINDING AFFINITY PREDICTED BY RF-SCORE:    0.00 PKD
ROOT
HETATM    1  C   UNL     1      -7.511   9.787  64.615  1.00  0.00    -0.134 C  
HETATM    2  C   UNL     1      -8.354  10.893  65.252  1.00  0.00    -0.025 C  
ENDROOT
BRANCH   2   3
HETATM    3  C   UNL     1      -7.773  11.333  66.610  1.00  0.00    -0.148 C  
BRANCH   3   4
HETATM    4  C   UNL     1      -8.884  11.754  67.596  1.00  0.00    -0.162 C  
BRANCH   4   5
HETATM    5  N   UNL     1      -9.830  10.664  67.897  1.00  0.00    -0.159 NA 
BRANCH   5   6
HETATM    6  C   UNL     1      -9.319   9.355  68.280  1.00  0.00    -0.133 C  
HETATM    7  S   UNL     1      -8.627   9.065  69.957  1.00  0.00    -0.167 SA 
HETATM    8  C   UNL     1     -10.079   5.312  70.903  1.00  0.00    -0.226 C  
HETATM    9  S   UNL     1      -9.583   7.968  67.390  1.00  0.00    -0.164 SA 
HETATM   10 ZN   UNL     1      -9.474   7.187  69.431  1.00  0.00    -0.147 Zn 
HETATM   11  S   UNL     1      -8.499   5.521  70.432  1.00  0.00    -0.124 SA 
HETATM   12  S   UNL     1     -11.336   6.389  70.106  1.00  0.00    -0.415 SA 
BRANCH   8  13
HETATM   13  N   UNL     1     -10.436   4.552  72.071  1.00  0.00    -0.146 NA 
BRANCH  13  14
HETATM   14  C   UNL     1     -10.036   3.154  72.229  1.00  0.00    -0.146 C  
BRANCH  14  15
HETATM   15  C   UNL     1      -9.342   2.898  73.591  1.00  0.00    -0.102 C  
BRANCH  15  16
HETATM   16  C   UNL     1      -7.823   2.653  73.497  1.00  0.00    -0.055 C  
HETATM   17  C   UNL     1      -7.048   3.970  73.621  1.00  0.00    -0.060 C  
ENDBRANCH  15  16
ENDBRANCH  14  15
ENDBRANCH  13  14
BRANCH  13  18
HETATM   18  C   UNL     1     -11.198   5.199  73.145  1.00  0.00    -0.330 C  
BRANCH  18  19
HETATM   19  C   UNL     1     -10.691   6.631  73.442  1.00  0.00    -0.315 C  
BRANCH  19  20
HETATM   20  C   UNL     1      -9.489   6.695  74.400  1.00  0.00    -0.279 C  
HETATM   21  C   UNL     1      -8.317   7.439  73.747  1.00  0.00    -0.196 C  
ENDBRANCH  19  20
ENDBRANCH  18  19
ENDBRANCH  13  18
ENDBRANCH   8  13
ENDBRANCH   5   6
BRANCH   5  22
HETATM   22  C   UNL     1     -11.273  10.938  67.867  1.00  0.00    -0.321 C  
BRANCH  22  23
HETATM   23  C   UNL     1     -11.670  12.351  67.399  1.00  0.00    -0.417 C  
BRANCH  23  24
HETATM   24  C   UNL     1     -11.872  13.368  68.531  1.00  0.00    -0.401 C  
HETATM   25  C   UNL     1     -11.915  12.657  69.889  1.00  0.00    -0.365 C  
ENDBRANCH  23  24
ENDBRANCH  22  23
ENDBRANCH   5  22
ENDBRANCH   4   5
ENDBRANCH   3   4
ENDBRANCH   2   3
TORSDOF 14
ENDMDL
MODEL      238
REMARK 921   NORMALIZED FREE ENERGY PREDICTED BY IDOCK:   -2.76 KCAL/MOL
REMARK 922        TOTAL FREE ENERGY PREDICTED BY IDOCK:   -6.40 KCAL/MOL
REMARK 923 INTER-LIGAND FREE ENERGY PREDICTED BY IDOCK:   -5.68 KCAL/MOL
REMARK 924 INTRA-LIGAND FREE ENERGY PREDICTED BY IDOCK:   -0.72 KCAL/MOL
REMARK 927      BINDING AFFINITY PREDICTED BY RF-SCORE:    0.00 PKD
ROOT
HETATM    1  C   UNL     1     -11.267   7.812  72.894  1.00  0.00    -0.434 C  
HETATM    2  C   UNL     1      -9.827   7.465  73.276  1.00  0.00    -0.322 C  
ENDROOT
BRANCH   2   3
HETATM    3  C   UNL     1      -9.132   6.644  72.172  1.00  0.00    -0.138 C  
BRANCH   3   4
HETATM    4  C   UNL     1      -9.768   6.897  70.788  1.00  0.00    -0.171 C  
BRANCH   4   5
HETATM    5  N   UNL     1      -9.089   7.962  70.028  1.00  0.00    -0.152 NA 
BRANCH   5   6
HETATM    6  C   UNL     1      -9.875   8.870  69.203  1.00  0.00    -0.180 C  
HETATM    7  S   UNL     1     -11.062  10.048  69.963  1.00  0.00    -0.314 SA 
HETATM    8  C   UNL     1     -10.515  13.471  67.711  1.00  0.00    -0.240 C  
HETATM    9  S   UNL     1      -9.567   9.143  67.586  1.00  0.00    -0.155 SA 
HETATM   10 ZN   UNL     1     -10.381  11.069  68.228  1.00  0.00    -0.153 Zn 
HETATM   11  S   UNL     1     -11.839  12.496  67.473  1.00  0.00    -0.241 SA 
HETATM   12  S   UNL     1      -8.937  12.640  68.151  1.00  0.00    -0.186 SA 
BRANCH   8  13
HETATM   13  N   UNL     1     -10.630  14.896  67.862  1.00  0.00    -0.250 NA 
BRANCH  13  14
HETATM   14  C   UNL     1     -11.869  15.522  68.324  1.00  0.00    -0.173 C  
BRANCH  14  15
HETATM   15  C   UNL     1     -12.399  14.873  69.627  1.00  0.00    -0.244 C  
BRANCH  15  16
HETATM   16  C   UNL     1     -12.167  15.712  70.899  1.00  0.00    -0.466 C  
HETATM   17  C   UNL     1     -13.290  15.483  71.918  1.00  0.00    -0.569 C  
ENDBRANCH  15  16
ENDBRANCH  14  15
ENDBRANCH  13  14
BRANCH  13  18
HETATM   18  C   UNL     1      -9.470  15.746  67.573  1.00  0.00    -0.218 C  
BRANCH  18  19
HETATM   19  C   UNL     1      -9.467  17.042  68.420  1.00  0.00    -0.269 C  
BRANCH  19  20
HETATM   20  C   UNL     1      -9.038  18.304  67.652  1.00  0.00    -0.267 C  
HETATM   21  C   UNL     1      -7.818  18.953  68.318  1.00  0.00    -0.340 C  
ENDBRANCH  19  20
ENDBRANCH  18  19
ENDBRANCH  13  18
ENDBRANCH   8  13
ENDBRANCH   5   6
BRANCH   5  22
HETATM   22  C   UNL     1      -7.636   8.128  70.169  1.00  0.00    -0.077 C  
BRANCH  22  23
HETATM   23  C   UNL     1      -6.775   7.199  69.293  1.00  0.00    -0.049 C  
BRANCH  23  24
HETATM   24  C   UNL     1      -6.070   6.070  70.056  1.00  0.00    -0.026 C  
HETATM   25  C   UNL     1      -6.878   4.771  69.959  1.00  0.00    -0.044 C  
ENDBRANCH  23  24
ENDBRANCH  22  23
ENDBRANCH   5  22
ENDBRANCH   4   5
ENDBRANCH   3   4
ENDBRANCH   2   3
TORSDOF 14
ENDMDL
MODEL      239
REMARK 921   NORMALIZED FREE ENERGY PREDICTED BY IDOCK:   -2.75 KCAL/MOL
REMARK 922        TOTAL FREE ENERGY PREDICTED BY IDOCK:   -6.39 KCAL/MOL
REMARK 923 INTER-LIGAND FREE ENERGY PREDICTED BY IDOCK:   -5.64 KCAL/MOL
REMARK 924 INTRA-LIGAND FREE ENERGY PREDICTED BY IDOCK:   -0.75 KCAL/MOL
REMARK 927      BINDING AFFINITY PREDICTED BY RF-SCORE:    0.00 PKD
ROOT
HETATM    1  C   UNL     1      -5.809  10.769  68.437  1.00  0.00    -0.043 C  
HETATM    2  C   UNL     1      -6.629   9.698  67.716  1.00  0.00    -0.065 C  
ENDROOT
BRANCH   2   3
HETATM    3  C   UNL     1      -6.946  10.111  66.266  1.00  0.00    -0.109 C  
BRANCH   3   4
HETATM    4  C   UNL     1      -7.828   9.063  65.553  1.00  0.00    -0.096 C  
BRANCH   4   5
HETATM    5  N   UNL     1      -9.070   8.761  66.288  1.00  0.00    -0.179 NA 
BRANCH   5   6
HETATM    6  C   UNL     1     -10.050   9.816  66.508  1.00  0.00    -0.239 C  
HETATM    7  S   UNL     1     -10.732  10.138  68.184  1.00  0.00    -0.255 SA 
HETATM    8  C   UNL     1     -10.884  14.267  68.324  1.00  0.00    -0.246 C  
HETATM    9  S   UNL     1     -10.405  10.991  65.378  1.00  0.00    -0.253 SA 
HETATM   10 ZN   UNL     1     -10.737  12.053  67.261  1.00  0.00    -0.201 Zn 
HETATM   11  S   UNL     1     -12.261  13.371  68.081  1.00  0.00     0.086 SA 
HETATM   12  S   UNL     1      -9.332  13.630  67.575  1.00  0.00    -0.234 SA 
BRANCH   8  13
HETATM   13  N   UNL     1     -10.817  15.320  69.301  1.00  0.00    -0.243 NA 
BRANCH  13  14
HETATM   14  C   UNL     1     -10.502  16.697  68.926  1.00  0.00    -0.322 C  
BRANCH  14  15
HETATM   15  C   UNL     1      -8.975  16.945  68.845  1.00  0.00    -0.215 C  
BRANCH  15  16
HETATM   16  C   UNL     1      -8.579  18.410  68.572  1.00  0.00    -0.341 C  
HETATM   17  C   UNL     1      -7.076  18.620  68.788  1.00  0.00    -0.326 C  
ENDBRANCH  15  16
ENDBRANCH  14  15
ENDBRANCH  13  14
BRANCH  13  18
HETATM   18  C   UNL     1     -11.097  15.014  70.709  1.00  0.00    -0.190 C  
BRANCH  18  19
HETATM   19  C   UNL     1     -12.070  16.034  71.347  1.00  0.00    -0.479 C  
BRANCH  19  20
HETATM   20  C   UNL     1     -13.532  15.557  71.425  1.00  0.00    -0.583 C  
HETATM   21  C   UNL     1     -13.651  14.322  72.325  1.00  0.00    -0.573 C  
ENDBRANCH  19  20
ENDBRANCH  18  19
ENDBRANCH  13  18
ENDBRANCH   8  13
ENDBRANCH   5   6
BRANCH   5  22
HETATM   22  C   UNL     1      -9.325   7.383  66.729  1.00  0.00    -0.160 C  
BRANCH  22  23
HETATM   23  C   UNL     1      -8.405   6.310  66.116  1.00  0.00    -0.130 C  
BRANCH  23  24
HETATM   24  C   UNL     1      -9.056   4.931  65.941  1.00  0.00    -0.147 C  
HETATM   25  C   UNL     1      -8.023   3.908  65.454  1.00  0.00    -0.093 C  
ENDBRANCH  23  24
ENDBRANCH  22  23
ENDBRANCH   5  22
ENDBRANCH   4   5
ENDBRANCH   3   4
ENDBRANCH   2   3
TORSDOF 14
ENDMDL
MODEL      240
REMARK 921   NORMALIZED FREE ENERGY PREDICTED BY IDOCK:   -2.75 KCAL/MOL
REMARK 922        TOTAL FREE ENERGY PREDICTED BY IDOCK:   -6.38 KCAL/MOL
REMARK 923 INTER-LIGAND FREE ENERGY PREDICTED BY IDOCK:   -5.53 KCAL/MOL
REMARK 924 INTRA-LIGAND FREE ENERGY PREDICTED BY IDOCK:   -0.85 KCAL/MOL
REMARK 927      BINDING AFFINITY PREDICTED BY RF-SCORE:    0.00 PKD
ROOT
HETATM    1  C   UNL     1      -8.565  17.291  67.847  1.00  0.00    -0.223 C  
HETATM    2  C   UNL     1      -8.631  16.628  66.470  1.00  0.00    -0.320 C  
ENDROOT
BRANCH   2   3
HETATM    3  C   UNL     1      -9.378  15.281  66.528  1.00  0.00    -0.309 C  
BRANCH   3   4
HETATM    4  C   UNL     1      -9.231  14.605  67.908  1.00  0.00    -0.197 C  
BRANCH   4   5
HETATM    5  N   UNL     1     -10.450  13.894  68.334  1.00  0.00    -0.242 NA 
BRANCH   5   6
HETATM    6  C   UNL     1     -10.628  12.494  67.973  1.00  0.00    -0.223 C  
HETATM    7  S   UNL     1      -9.271  11.543  67.177  1.00  0.00    -0.173 SA 
HETATM    8  C   UNL     1      -9.534   7.859  69.033  1.00  0.00    -0.151 C  
HETATM    9  S   UNL     1     -11.908  11.563  68.502  1.00  0.00    -0.238 SA 
HETATM   10 ZN   UNL     1     -10.311  10.080  68.316  1.00  0.00    -0.153 Zn 
HETATM   11  S   UNL     1     -10.106   8.079  67.489  1.00  0.00    -0.241 SA 
HETATM   12  S   UNL     1      -9.721   9.266  70.199  1.00  0.00    -0.234 SA 
BRANCH   8  13
HETATM   13  N   UNL     1      -8.675   6.759  69.383  1.00  0.00    -0.135 NA 
BRANCH  13  14
HETATM   14  C   UNL     1      -8.450   6.374  70.775  1.00  0.00    -0.135 C  
BRANCH  14  15
HETATM   15  C   UNL     1      -9.276   5.125  71.175  1.00  0.00    -0.183 C  
BRANCH  15  16
HETATM   16  C   UNL     1     -10.690   5.436  71.703  1.00  0.00    -0.266 C  
HETATM   17  C   UNL     1     -10.660   5.723  73.209  1.00  0.00    -0.279 C  
ENDBRANCH  15  16
ENDBRANCH  14  15
ENDBRANCH  13  14
BRANCH  13  18
HETATM   18  C   UNL     1      -8.028   5.985  68.317  1.00  0.00    -0.106 C  
BRANCH  18  19
HETATM   19  C   UNL     1      -6.653   5.424  68.753  1.00  0.00    -0.051 C  
BRANCH  19  20
HETATM   20  C   UNL     1      -6.083   4.340  67.822  1.00  0.00    -0.032 C  
HETATM   21  C   UNL     1      -7.093   3.202  67.634  1.00  0.00    -0.050 C  
ENDBRANCH  19  20
ENDBRANCH  18  19
ENDBRANCH  13  18
ENDBRANCH   8  13
ENDBRANCH   5   6
BRANCH   5  22
HETATM   22  C   UNL     1     -11.433  14.594  69.171  1.00  0.00    -0.294 C  
BRANCH  22  23
HETATM   23  C   UNL     1     -10.845  15.447  70.311  1.00  0.00    -0.332 C  
BRANCH  23  24
HETATM   24  C   UNL     1     -11.453  15.176  71.694  1.00  0.00    -0.445 C  
HETATM   25  C   UNL     1     -12.884  15.721  71.767  1.00  0.00    -0.517 C  
ENDBRANCH  23  24
ENDBRANCH  22  23
ENDBRANCH   5  22
ENDBRANCH   4   5
ENDBRANCH   3   4
ENDBRANCH   2   3
TORSDOF 14
ENDMDL
MODEL      241
REMARK 921   NORMALIZED FREE ENERGY PREDICTED BY IDOCK:   -2.74 KCAL/MOL
REMARK 922        TOTAL FREE ENERGY PREDICTED BY IDOCK:   -6.37 KCAL/MOL
REMARK 923 INTER-LIGAND FREE ENERGY PREDICTED BY IDOCK:   -5.02 KCAL/MOL
REMARK 924 INTRA-LIGAND FREE ENERGY PREDICTED BY IDOCK:   -1.35 KCAL/MOL
REMARK 927      BINDING AFFINITY PREDICTED BY RF-SCORE:    0.00 PKD
ROOT
HETATM    1  C   UNL     1     -10.516   5.666  70.811  1.00  0.00    -0.335 C  
HETATM    2  C   UNL     1      -9.316   6.389  71.425  1.00  0.00    -0.157 C  
ENDROOT
BRANCH   2   3
HETATM    3  C   UNL     1      -7.991   5.689  71.065  1.00  0.00    -0.111 C  
BRANCH   3   4
HETATM    4  C   UNL     1      -7.149   6.531  70.082  1.00  0.00    -0.074 C  
BRANCH   4   5
HETATM    5  N   UNL     1      -7.435   6.222  68.669  1.00  0.00    -0.086 NA 
BRANCH   5   6
HETATM    6  C   UNL     1      -7.830   7.294  67.765  1.00  0.00    -0.114 C  
HETATM    7  S   UNL     1      -9.533   7.983  67.804  1.00  0.00    -0.148 SA 
HETATM    8  C   UNL     1      -8.886  12.036  67.309  1.00  0.00    -0.183 C  
HETATM    9  S   UNL     1      -6.745   8.181  66.861  1.00  0.00    -0.066 SA 
HETATM   10 ZN   UNL     1      -8.333   9.640  67.227  1.00  0.00    -0.106 Zn 
HETATM   11  S   UNL     1      -9.436  11.100  66.051  1.00  0.00    -0.216 SA 
HETATM   12  S   UNL     1      -7.697  11.254  68.471  1.00  0.00    -0.137 SA 
BRANCH   8  13
HETATM   13  N   UNL     1      -9.508  13.283  67.665  1.00  0.00    -0.203 NA 
BRANCH  13  14
HETATM   14  C   UNL     1     -10.692  13.333  68.521  1.00  0.00    -0.262 C  
BRANCH  14  15
HETATM   15  C   UNL     1     -11.999  13.103  67.721  1.00  0.00    -0.352 C  
BRANCH  15  16
HETATM   16  C   UNL     1     -12.175  14.032  66.503  1.00  0.00    -0.485 C  
HETATM   17  C   UNL     1     -12.628  13.238  65.271  1.00  0.00    -0.528 C  
ENDBRANCH  15  16
ENDBRANCH  14  15
ENDBRANCH  13  14
BRANCH  13  18
HETATM   18  C   UNL     1      -8.926  14.540  67.182  1.00  0.00    -0.230 C  
BRANCH  18  19
HETATM   19  C   UNL     1      -9.089  15.691  68.203  1.00  0.00    -0.181 C  
BRANCH  19  20
HETATM   20  C   UNL     1     -10.091  16.781  67.780  1.00  0.00    -0.281 C  
HETATM   21  C   UNL     1      -9.840  17.212  66.331  1.00  0.00    -0.312 C  
ENDBRANCH  19  20
ENDBRANCH  18  19
ENDBRANCH  13  18
ENDBRANCH   8  13
ENDBRANCH   5   6
BRANCH   5  22
HETATM   22  C   UNL     1      -7.253   4.848  68.184  1.00  0.00    -0.062 C  
BRANCH  22  23
HETATM   23  C   UNL     1      -8.338   4.336  67.218  1.00  0.00    -0.100 C  
BRANCH  23  24
HETATM   24  C   UNL     1      -9.630   3.864  67.898  1.00  0.00    -0.193 C  
HETATM   25  C   UNL     1      -9.598   2.346  68.114  1.00  0.00    -0.100 C  
ENDBRANCH  23  24
ENDBRANCH  22  23
ENDBRANCH   5  22
ENDBRANCH   4   5
ENDBRANCH   3   4
ENDBRANCH   2   3
TORSDOF 14
ENDMDL
MODEL      242
REMARK 921   NORMALIZED FREE ENERGY PREDICTED BY IDOCK:   -2.74 KCAL/MOL
REMARK 922        TOTAL FREE ENERGY PREDICTED BY IDOCK:   -6.36 KCAL/MOL
REMARK 923 INTER-LIGAND FREE ENERGY PREDICTED BY IDOCK:   -6.09 KCAL/MOL
REMARK 924 INTRA-LIGAND FREE ENERGY PREDICTED BY IDOCK:   -0.27 KCAL/MOL
REMARK 927      BINDING AFFINITY PREDICTED BY RF-SCORE:    0.00 PKD
ROOT
HETATM    1  C   UNL     1     -11.156   4.794  73.449  1.00  0.00    -0.422 C  
HETATM    2  C   UNL     1     -11.360   5.639  72.190  1.00  0.00    -0.277 C  
ENDROOT
BRANCH   2   3
HETATM    3  C   UNL     1     -10.246   5.389  71.156  1.00  0.00    -0.287 C  
BRANCH   3   4
HETATM    4  C   UNL     1     -10.386   6.317  69.930  1.00  0.00    -0.196 C  
BRANCH   4   5
HETATM    5  N   UNL     1      -9.090   6.814  69.434  1.00  0.00    -0.144 NA 
BRANCH   5   6
HETATM    6  C   UNL     1      -9.047   7.620  68.220  1.00  0.00    -0.136 C  
HETATM    7  S   UNL     1     -10.574   7.962  67.258  1.00  0.00    -0.241 SA 
HETATM    8  C   UNL     1     -10.090  11.918  66.163  1.00  0.00    -0.228 C  
HETATM    9  S   UNL     1      -7.725   8.532  67.770  1.00  0.00    -0.103 SA 
HETATM   10 ZN   UNL     1      -9.385   9.697  66.950  1.00  0.00    -0.129 Zn 
HETATM   11  S   UNL     1      -9.835  10.694  65.070  1.00  0.00    -0.319 SA 
HETATM   12  S   UNL     1      -9.613  11.592  67.907  1.00  0.00    -0.182 SA 
BRANCH   8  13
HETATM   13  N   UNL     1     -10.904  13.064  65.855  1.00  0.00    -0.270 NA 
BRANCH  13  14
HETATM   14  C   UNL     1     -12.047  13.439  66.685  1.00  0.00    -0.373 C  
BRANCH  14  15
HETATM   15  C   UNL     1     -11.641  14.383  67.845  1.00  0.00    -0.374 C  
BRANCH  15  16
HETATM   16  C   UNL     1     -12.153  13.949  69.232  1.00  0.00    -0.383 C  
HETATM   17  C   UNL     1     -11.492  14.775  70.343  1.00  0.00    -0.303 C  
ENDBRANCH  15  16
ENDBRANCH  14  15
ENDBRANCH  13  14
BRANCH  13  18
HETATM   18  C   UNL     1     -10.565  13.895  64.695  1.00  0.00    -0.412 C  
BRANCH  18  19
HETATM   19  C   UNL     1     -10.566  15.405  65.035  1.00  0.00    -0.445 C  
BRANCH  19  20
HETATM   20  C   UNL     1      -9.352  15.873  65.857  1.00  0.00    -0.353 C  
HETATM   21  C   UNL     1      -9.627  17.239  66.496  1.00  0.00    -0.286 C  
ENDBRANCH  19  20
ENDBRANCH  18  19
ENDBRANCH  13  18
ENDBRANCH   8  13
ENDBRANCH   5   6
BRANCH   5  22
HETATM   22  C   UNL     1      -7.873   6.543  70.210  1.00  0.00    -0.107 C  
BRANCH  22  23
HETATM   23  C   UNL     1      -7.059   5.316  69.757  1.00  0.00    -0.059 C  
BRANCH  23  24
HETATM   24  C   UNL     1      -6.636   4.373  70.892  1.00  0.00    -0.031 C  
HETATM   25  C   UNL     1      -7.104   2.942  70.603  1.00  0.00    -0.033 C  
ENDBRANCH  23  24
ENDBRANCH  22  23
ENDBRANCH   5  22
ENDBRANCH   4   5
ENDBRANCH   3   4
ENDBRANCH   2   3
TORSDOF 14
ENDMDL
MODEL      243
REMARK 921   NORMALIZED FREE ENERGY PREDICTED BY IDOCK:   -2.73 KCAL/MOL
REMARK 922        TOTAL FREE ENERGY PREDICTED BY IDOCK:   -6.35 KCAL/MOL
REMARK 923 INTER-LIGAND FREE ENERGY PREDICTED BY IDOCK:   -5.08 KCAL/MOL
REMARK 924 INTRA-LIGAND FREE ENERGY PREDICTED BY IDOCK:   -1.27 KCAL/MOL
REMARK 927      BINDING AFFINITY PREDICTED BY RF-SCORE:    0.00 PKD
ROOT
HETATM    1  C   UNL     1     -11.272  14.150  66.237  1.00  0.00    -0.329 C  
HETATM    2  C   UNL     1     -10.618  15.170  65.303  1.00  0.00    -0.432 C  
ENDROOT
BRANCH   2   3
HETATM    3  C   UNL     1     -10.244  16.463  66.053  1.00  0.00    -0.373 C  
BRANCH   3   4
HETATM    4  C   UNL     1      -8.729  16.748  65.979  1.00  0.00    -0.183 C  
BRANCH   4   5
HETATM    5  N   UNL     1      -8.143  17.085  67.289  1.00  0.00    -0.177 NA 
BRANCH   5   6
HETATM    6  C   UNL     1      -7.453  16.054  68.054  1.00  0.00    -0.126 C  
HETATM    7  S   UNL     1      -8.358  15.016  69.270  1.00  0.00    -0.129 SA 
HETATM    8  C   UNL     1      -6.714  11.271  68.672  1.00  0.00    -0.071 C  
HETATM    9  S   UNL     1      -5.913  15.520  67.698  1.00  0.00    -0.082 SA 
HETATM   10 ZN   UNL     1      -6.835  13.725  68.541  1.00  0.00    -0.071 Zn 
HETATM   11  S   UNL     1      -6.278  12.194  69.983  1.00  0.00    -0.036 SA 
HETATM   12  S   UNL     1      -7.061  12.163  67.104  1.00  0.00    -0.078 SA 
BRANCH   8  13
HETATM   13  N   UNL     1      -7.093   9.890  68.799  1.00  0.00    -0.066 NA 
BRANCH  13  14
HETATM   14  C   UNL     1      -6.099   8.817  68.790  1.00  0.00    -0.045 C  
BRANCH  14  15
HETATM   15  C   UNL     1      -5.997   8.105  70.162  1.00  0.00    -0.025 C  
BRANCH  15  16
HETATM   16  C   UNL     1      -6.529   6.658  70.172  1.00  0.00    -0.040 C  
HETATM   17  C   UNL     1      -7.676   6.503  71.178  1.00  0.00    -0.098 C  
ENDBRANCH  15  16
ENDBRANCH  14  15
ENDBRANCH  13  14
BRANCH  13  18
HETATM   18  C   UNL     1      -8.509   9.545  68.970  1.00  0.00    -0.128 C  
BRANCH  18  19
HETATM   19  C   UNL     1      -9.045   8.677  67.806  1.00  0.00    -0.143 C  
BRANCH  19  20
HETATM   20  C   UNL     1     -10.472   9.032  67.352  1.00  0.00    -0.338 C  
HETATM   21  C   UNL     1     -10.671  10.552  67.331  1.00  0.00    -0.334 C  
ENDBRANCH  19  20
ENDBRANCH  18  19
ENDBRANCH  13  18
ENDBRANCH   8  13
ENDBRANCH   5   6
BRANCH   5  22
HETATM   22  C   UNL     1      -8.208  18.471  67.769  1.00  0.00    -0.251 C  
BRANCH  22  23
HETATM   23  C   UNL     1      -9.466  18.833  68.581  1.00  0.00    -0.412 C  
BRANCH  23  24
HETATM   24  C   UNL     1     -10.454  19.756  67.855  1.00  0.00    -0.531 C  
HETATM   25  C   UNL     1      -9.925  20.118  66.463  1.00  0.00    -0.586 C  
ENDBRANCH  23  24
ENDBRANCH  22  23
ENDBRANCH   5  22
ENDBRANCH   4   5
ENDBRANCH   3   4
ENDBRANCH   2   3
TORSDOF 14
ENDMDL
MODEL      244
REMARK 921   NORMALIZED FREE ENERGY PREDICTED BY IDOCK:   -2.73 KCAL/MOL
REMARK 922        TOTAL FREE ENERGY PREDICTED BY IDOCK:   -6.35 KCAL/MOL
REMARK 923 INTER-LIGAND FREE ENERGY PREDICTED BY IDOCK:   -5.25 KCAL/MOL
REMARK 924 INTRA-LIGAND FREE ENERGY PREDICTED BY IDOCK:   -1.10 KCAL/MOL
REMARK 927      BINDING AFFINITY PREDICTED BY RF-SCORE:    0.00 PKD
ROOT
HETATM    1  C   UNL     1     -10.251   5.704  66.636  1.00  0.00    -0.276 C  
HETATM    2  C   UNL     1     -10.848   6.866  67.432  1.00  0.00    -0.396 C  
ENDROOT
BRANCH   2   3
HETATM    3  C   UNL     1     -10.643   8.211  66.708  1.00  0.00    -0.223 C  
BRANCH   3   4
HETATM    4  C   UNL     1      -9.220   8.332  66.123  1.00  0.00    -0.192 C  
BRANCH   4   5
HETATM    5  N   UNL     1      -8.355   9.242  66.897  1.00  0.00    -0.122 NA 
BRANCH   5   6
HETATM    6  C   UNL     1      -7.894   8.842  68.220  1.00  0.00    -0.101 C  
HETATM    7  S   UNL     1      -8.740   9.444  69.736  1.00  0.00    -0.199 SA 
HETATM    8  C   UNL     1      -8.754   6.095  72.159  1.00  0.00    -0.131 C  
HETATM    9  S   UNL     1      -6.801   7.609  68.479  1.00  0.00    -0.068 SA 
HETATM   10 ZN   UNL     1      -8.031   7.517  70.286  1.00  0.00    -0.086 Zn 
HETATM   11  S   UNL     1      -7.681   7.335  72.425  1.00  0.00    -0.090 SA 
HETATM   12  S   UNL     1      -9.177   5.719  70.411  1.00  0.00    -0.155 SA 
BRANCH   8  13
HETATM   13  N   UNL     1      -9.546   5.527  73.216  1.00  0.00    -0.146 NA 
BRANCH  13  14
HETATM   14  C   UNL     1      -9.049   4.429  74.044  1.00  0.00    -0.110 C  
BRANCH  14  15
HETATM   15  C   UNL     1      -8.668   3.188  73.199  1.00  0.00    -0.082 C  
BRANCH  15  16
HETATM   16  C   UNL     1      -9.856   2.510  72.487  1.00  0.00    -0.208 C  
HETATM   17  C   UNL     1     -11.013   2.269  73.464  1.00  0.00    -0.292 C  
ENDBRANCH  15  16
ENDBRANCH  14  15
ENDBRANCH  13  14
BRANCH  13  18
HETATM   18  C   UNL     1     -10.878   6.077  73.492  1.00  0.00    -0.198 C  
BRANCH  18  19
HETATM   19  C   UNL     1     -11.017   7.543  73.014  1.00  0.00    -0.443 C  
BRANCH  19  20
HETATM   20  C   UNL     1     -12.034   7.749  71.877  1.00  0.00    -0.340 C  
HETATM   21  C   UNL     1     -12.861   9.018  72.116  1.00  0.00    -0.478 C  
ENDBRANCH  19  20
ENDBRANCH  18  19
ENDBRANCH  13  18
ENDBRANCH   8  13
ENDBRANCH   5   6
BRANCH   5  22
HETATM   22  C   UNL     1      -7.921  10.507  66.291  1.00  0.00    -0.144 C  
BRANCH  22  23
HETATM   23  C   UNL     1      -8.751  11.746  66.677  1.00  0.00    -0.186 C  
BRANCH  23  24
HETATM   24  C   UNL     1     -10.142  11.812  66.032  1.00  0.00    -0.263 C  
HETATM   25  C   UNL     1     -10.050  11.521  64.529  1.00  0.00    -0.324 C  
ENDBRANCH  23  24
ENDBRANCH  22  23
ENDBRANCH   5  22
ENDBRANCH   4   5
ENDBRANCH   3   4
ENDBRANCH   2   3
TORSDOF 14
ENDMDL
MODEL      245
REMARK 921   NORMALIZED FREE ENERGY PREDICTED BY IDOCK:   -2.73 KCAL/MOL
REMARK 922        TOTAL FREE ENERGY PREDICTED BY IDOCK:   -6.35 KCAL/MOL
REMARK 923 INTER-LIGAND FREE ENERGY PREDICTED BY IDOCK:   -5.21 KCAL/MOL
REMARK 924 INTRA-LIGAND FREE ENERGY PREDICTED BY IDOCK:   -1.14 KCAL/MOL
REMARK 927      BINDING AFFINITY PREDICTED BY RF-SCORE:    0.00 PKD
ROOT
HETATM    1  C   UNL     1     -11.685   7.725  72.524  1.00  0.00    -0.393 C  
HETATM    2  C   UNL     1     -12.624   8.078  71.369  1.00  0.00    -0.307 C  
ENDROOT
BRANCH   2   3
HETATM    3  C   UNL     1     -13.039   9.561  71.412  1.00  0.00    -0.449 C  
BRANCH   3   4
HETATM    4  C   UNL     1     -11.818  10.499  71.307  1.00  0.00    -0.229 C  
BRANCH   4   5
HETATM    5  N   UNL     1     -11.494  10.868  69.918  1.00  0.00    -0.296 NA 
BRANCH   5   6
HETATM    6  C   UNL     1     -10.476  10.118  69.193  1.00  0.00    -0.222 C  
HETATM    7  S   UNL     1      -9.197   9.152  70.090  1.00  0.00    -0.225 SA 
HETATM    8  C   UNL     1      -8.893   5.714  67.817  1.00  0.00    -0.105 C  
HETATM    9  S   UNL     1     -10.550   9.816  67.554  1.00  0.00    -0.263 SA 
HETATM   10 ZN   UNL     1      -9.494   8.050  68.297  1.00  0.00    -0.136 Zn 
HETATM   11  S   UNL     1      -7.737   6.904  67.721  1.00  0.00    -0.114 SA 
HETATM   12  S   UNL     1     -10.629   6.257  68.071  1.00  0.00    -0.292 SA 
BRANCH   8  13
HETATM   13  N   UNL     1      -8.552   4.327  67.991  1.00  0.00    -0.094 NA 
BRANCH  13  14
HETATM   14  C   UNL     1      -7.454   3.910  68.861  1.00  0.00    -0.054 C  
BRANCH  14  15
HETATM   15  C   UNL     1      -7.964   3.251  70.168  1.00  0.00    -0.053 C  
BRANCH  15  16
HETATM   16  C   UNL     1      -9.257   3.871  70.733  1.00  0.00    -0.198 C  
HETATM   17  C   UNL     1      -8.936   4.983  71.739  1.00  0.00    -0.149 C  
ENDBRANCH  15  16
ENDBRANCH  14  15
ENDBRANCH  13  14
BRANCH  13  18
HETATM   18  C   UNL     1      -9.341   3.301  67.301  1.00  0.00    -0.192 C  
BRANCH  18  19
HETATM   19  C   UNL     1      -8.549   2.624  66.157  1.00  0.00    -0.111 C  
BRANCH  19  20
HETATM   20  C   UNL     1      -7.962   3.601  65.122  1.00  0.00    -0.090 C  
HETATM   21  C   UNL     1      -6.469   3.326  64.905  1.00  0.00    -0.031 C  
ENDBRANCH  19  20
ENDBRANCH  18  19
ENDBRANCH  13  18
ENDBRANCH   8  13
ENDBRANCH   5   6
BRANCH   5  22
HETATM   22  C   UNL     1     -12.251  11.946  69.267  1.00  0.00    -0.109 C  
BRANCH  22  23
HETATM   23  C   UNL     1     -11.621  13.349  69.362  1.00  0.00    -0.365 C  
BRANCH  23  24
HETATM   24  C   UNL     1     -11.064  13.892  68.039  1.00  0.00    -0.279 C  
HETATM   25  C   UNL     1     -11.882  13.364  66.855  1.00  0.00    -0.453 C  
ENDBRANCH  23  24
ENDBRANCH  22  23
ENDBRANCH   5  22
ENDBRANCH   4   5
ENDBRANCH   3   4
ENDBRANCH   2   3
TORSDOF 14
ENDMDL
MODEL      246
REMARK 921   NORMALIZED FREE ENERGY PREDICTED BY IDOCK:   -2.69 KCAL/MOL
REMARK 922        TOTAL FREE ENERGY PREDICTED BY IDOCK:   -6.28 KCAL/MOL
REMARK 923 INTER-LIGAND FREE ENERGY PREDICTED BY IDOCK:   -5.05 KCAL/MOL
REMARK 924 INTRA-LIGAND FREE ENERGY PREDICTED BY IDOCK:   -1.23 KCAL/MOL
REMARK 927      BINDING AFFINITY PREDICTED BY RF-SCORE:    0.00 PKD
ROOT
HETATM    1  C   UNL     1     -11.831   7.992  72.482  1.00  0.00    -0.419 C  
HETATM    2  C   UNL     1     -12.793   8.300  71.334  1.00  0.00    -0.263 C  
ENDROOT
BRANCH   2   3
HETATM    3  C   UNL     1     -13.163   9.795  71.294  1.00  0.00    -0.452 C  
BRANCH   3   4
HETATM    4  C   UNL     1     -11.909  10.692  71.219  1.00  0.00    -0.161 C  
BRANCH   4   5
HETATM    5  N   UNL     1     -11.479  10.967  69.836  1.00  0.00    -0.296 NA 
BRANCH   5   6
HETATM    6  C   UNL     1     -10.478  10.112  69.212  1.00  0.00    -0.225 C  
HETATM    7  S   UNL     1      -9.167   9.305  70.214  1.00  0.00    -0.254 SA 
HETATM    8  C   UNL     1      -8.905   5.548  68.511  1.00  0.00    -0.104 C  
HETATM    9  S   UNL     1     -10.596   9.551  67.645  1.00  0.00    -0.242 SA 
HETATM   10 ZN   UNL     1      -9.508   7.930  68.629  1.00  0.00    -0.143 Zn 
HETATM   11  S   UNL     1      -7.761   6.710  68.193  1.00  0.00    -0.106 SA 
HETATM   12  S   UNL     1     -10.637   6.120  68.726  1.00  0.00    -0.305 SA 
BRANCH   8  13
HETATM   13  N   UNL     1      -8.550   4.208  68.895  1.00  0.00    -0.082 NA 
BRANCH  13  14
HETATM   14  C   UNL     1      -9.246   3.043  68.349  1.00  0.00    -0.185 C  
BRANCH  14  15
HETATM   15  C   UNL     1      -8.429   2.348  67.231  1.00  0.00    -0.106 C  
BRANCH  15  16
HETATM   16  C   UNL     1      -8.117   3.244  66.016  1.00  0.00    -0.093 C  
HETATM   17  C   UNL     1      -7.905   2.400  64.754  1.00  0.00    -0.074 C  
ENDBRANCH  15  16
ENDBRANCH  14  15
ENDBRANCH  13  14
BRANCH  13  18
HETATM   18  C   UNL     1      -7.444   3.998  69.836  1.00  0.00    -0.049 C  
BRANCH  18  19
HETATM   19  C   UNL     1      -7.927   3.417  71.187  1.00  0.00    -0.058 C  
BRANCH  19  20
HETATM   20  C   UNL     1      -8.628   4.435  72.104  1.00  0.00    -0.119 C  
HETATM   21  C   UNL     1      -7.855   5.758  72.134  1.00  0.00    -0.103 C  
ENDBRANCH  19  20
ENDBRANCH  18  19
ENDBRANCH  13  18
ENDBRANCH   8  13
ENDBRANCH   5   6
BRANCH   5  22
HETATM   22  C   UNL     1     -12.118  12.059  69.090  1.00  0.00    -0.183 C  
BRANCH  22  23
HETATM   23  C   UNL     1     -11.207  13.255  68.756  1.00  0.00    -0.317 C  
BRANCH  23  24
HETATM   24  C   UNL     1     -10.924  13.446  67.260  1.00  0.00    -0.286 C  
HETATM   25  C   UNL     1     -12.124  12.988  66.424  1.00  0.00    -0.428 C  
ENDBRANCH  23  24
ENDBRANCH  22  23
ENDBRANCH   5  22
ENDBRANCH   4   5
ENDBRANCH   3   4
ENDBRANCH   2   3
TORSDOF 14
ENDMDL
MODEL      247
REMARK 921   NORMALIZED FREE ENERGY PREDICTED BY IDOCK:   -2.68 KCAL/MOL
REMARK 922        TOTAL FREE ENERGY PREDICTED BY IDOCK:   -6.26 KCAL/MOL
REMARK 923 INTER-LIGAND FREE ENERGY PREDICTED BY IDOCK:   -5.01 KCAL/MOL
REMARK 924 INTRA-LIGAND FREE ENERGY PREDICTED BY IDOCK:   -1.25 KCAL/MOL
REMARK 927      BINDING AFFINITY PREDICTED BY RF-SCORE:    0.00 PKD
ROOT
HETATM    1  C   UNL     1      -6.123  10.577  66.155  1.00  0.00    -0.110 C  
HETATM    2  C   UNL     1      -5.563   9.535  67.125  1.00  0.00    -0.040 C  
ENDROOT
BRANCH   2   3
HETATM    3  C   UNL     1      -5.619   8.117  66.523  1.00  0.00    -0.032 C  
BRANCH   3   4
HETATM    4  C   UNL     1      -7.068   7.592  66.434  1.00  0.00    -0.071 C  
BRANCH   4   5
HETATM    5  N   UNL     1      -7.689   7.388  67.755  1.00  0.00    -0.110 NA 
BRANCH   5   6
HETATM    6  C   UNL     1      -8.886   8.138  68.111  1.00  0.00    -0.132 C  
HETATM    7  S   UNL     1      -8.775   9.675  69.111  1.00  0.00    -0.162 SA 
HETATM    8  C   UNL     1     -11.556  12.141  67.302  1.00  0.00    -0.334 C  
HETATM    9  S   UNL     1     -10.379   7.869  67.417  1.00  0.00    -0.293 SA 
HETATM   10 ZN   UNL     1     -10.460  10.010  67.859  1.00  0.00    -0.158 Zn 
HETATM   11  S   UNL     1     -11.896  11.385  68.742  1.00  0.00    -0.282 SA 
HETATM   12  S   UNL     1     -10.526  11.213  66.096  1.00  0.00    -0.240 SA 
BRANCH   8  13
HETATM   13  N   UNL     1     -11.788  13.546  67.100  1.00  0.00    -0.376 NA 
BRANCH  13  14
HETATM   14  C   UNL     1     -12.528  14.043  65.941  1.00  0.00    -0.481 C  
BRANCH  14  15
HETATM   15  C   UNL     1     -11.585  14.552  64.822  1.00  0.00    -0.414 C  
BRANCH  15  16
HETATM   16  C   UNL     1     -11.632  16.076  64.591  1.00  0.00    -0.169 C  
HETATM   17  C   UNL     1     -10.494  16.778  65.342  1.00  0.00    -0.212 C  
ENDBRANCH  15  16
ENDBRANCH  14  15
ENDBRANCH  13  14
BRANCH  13  18
HETATM   18  C   UNL     1     -11.295  14.506  68.093  1.00  0.00    -0.298 C  
BRANCH  18  19
HETATM   19  C   UNL     1      -9.750  14.515  68.183  1.00  0.00    -0.219 C  
BRANCH  19  20
HETATM   20  C   UNL     1      -9.177  15.513  69.206  1.00  0.00    -0.268 C  
HETATM   21  C   UNL     1      -7.660  15.336  69.341  1.00  0.00    -0.219 C  
ENDBRANCH  19  20
ENDBRANCH  18  19
ENDBRANCH  13  18
ENDBRANCH   8  13
ENDBRANCH   5   6
BRANCH   5  22
HETATM   22  C   UNL     1      -7.124   6.382  68.665  1.00  0.00    -0.083 C  
BRANCH  22  23
HETATM   23  C   UNL     1      -8.102   5.812  69.710  1.00  0.00    -0.104 C  
BRANCH  23  24
HETATM   24  C   UNL     1      -8.856   4.552  69.263  1.00  0.00    -0.128 C  
HETATM   25  C   UNL     1      -7.914   3.601  68.515  1.00  0.00    -0.072 C  
ENDBRANCH  23  24
ENDBRANCH  22  23
ENDBRANCH   5  22
ENDBRANCH   4   5
ENDBRANCH   3   4
ENDBRANCH   2   3
TORSDOF 14
ENDMDL
MODEL      248
REMARK 921   NORMALIZED FREE ENERGY PREDICTED BY IDOCK:   -2.67 KCAL/MOL
REMARK 922        TOTAL FREE ENERGY PREDICTED BY IDOCK:   -6.23 KCAL/MOL
REMARK 923 INTER-LIGAND FREE ENERGY PREDICTED BY IDOCK:   -5.36 KCAL/MOL
REMARK 924 INTRA-LIGAND FREE ENERGY PREDICTED BY IDOCK:   -0.87 KCAL/MOL
REMARK 927      BINDING AFFINITY PREDICTED BY RF-SCORE:    0.00 PKD
ROOT
HETATM    1  C   UNL     1     -12.175  14.446  70.204  1.00  0.00    -0.401 C  
HETATM    2  C   UNL     1     -12.113  12.933  70.417  1.00  0.00    -0.385 C  
ENDROOT
BRANCH   2   3
HETATM    3  C   UNL     1     -12.025  12.177  69.077  1.00  0.00    -0.302 C  
BRANCH   3   4
HETATM    4  C   UNL     1     -11.198  12.960  68.034  1.00  0.00    -0.268 C  
BRANCH   4   5
HETATM    5  N   UNL     1     -10.860  12.155  66.846  1.00  0.00    -0.239 NA 
BRANCH   5   6
HETATM    6  C   UNL     1      -9.745  11.219  66.905  1.00  0.00    -0.192 C  
HETATM    7  S   UNL     1      -8.507  11.308  68.260  1.00  0.00    -0.157 SA 
HETATM    8  C   UNL     1      -7.829   7.325  69.134  1.00  0.00    -0.117 C  
HETATM    9  S   UNL     1      -9.653   9.838  65.973  1.00  0.00    -0.255 SA 
HETATM   10 ZN   UNL     1      -8.585   9.238  67.784  1.00  0.00    -0.110 Zn 
HETATM   11  S   UNL     1      -6.729   8.204  68.251  1.00  0.00    -0.065 SA 
HETATM   12  S   UNL     1      -9.606   7.711  68.873  1.00  0.00    -0.152 SA 
BRANCH   8  13
HETATM   13  N   UNL     1      -7.438   6.515  70.256  1.00  0.00    -0.092 NA 
BRANCH  13  14
HETATM   14  C   UNL     1      -7.316   5.062  70.148  1.00  0.00    -0.059 C  
BRANCH  14  15
HETATM   15  C   UNL     1      -7.379   4.579  68.677  1.00  0.00    -0.060 C  
BRANCH  15  16
HETATM   16  C   UNL     1      -8.676   3.835  68.303  1.00  0.00    -0.130 C  
HETATM   17  C   UNL     1      -9.106   2.887  69.429  1.00  0.00    -0.197 C  
ENDBRANCH  15  16
ENDBRANCH  14  15
ENDBRANCH  13  14
BRANCH  13  18
HETATM   18  C   UNL     1      -7.127   7.160  71.536  1.00  0.00    -0.069 C  
BRANCH  18  19
HETATM   19  C   UNL     1      -6.417   6.199  72.520  1.00  0.00    -0.059 C  
BRANCH  19  20
HETATM   20  C   UNL     1      -7.134   6.026  73.871  1.00  0.00    -0.084 C  
HETATM   21  C   UNL     1      -8.604   6.445  73.760  1.00  0.00    -0.130 C  
ENDBRANCH  19  20
ENDBRANCH  18  19
ENDBRANCH  13  18
ENDBRANCH   8  13
ENDBRANCH   5   6
BRANCH   5  22
HETATM   22  C   UNL     1     -11.697  12.265  65.644  1.00  0.00    -0.382 C  
BRANCH  22  23
HETATM   23  C   UNL     1     -12.523  13.560  65.528  1.00  0.00    -0.538 C  
BRANCH  23  24
HETATM   24  C   UNL     1     -12.091  14.496  64.390  1.00  0.00    -0.492 C  
HETATM   25  C   UNL     1     -11.095  15.541  64.905  1.00  0.00    -0.428 C  
ENDBRANCH  23  24
ENDBRANCH  22  23
ENDBRANCH   5  22
ENDBRANCH   4   5
ENDBRANCH   3   4
ENDBRANCH   2   3
TORSDOF 14
ENDMDL
MODEL      249
REMARK 921   NORMALIZED FREE ENERGY PREDICTED BY IDOCK:   -2.65 KCAL/MOL
REMARK 922        TOTAL FREE ENERGY PREDICTED BY IDOCK:   -6.21 KCAL/MOL
REMARK 923 INTER-LIGAND FREE ENERGY PREDICTED BY IDOCK:   -4.69 KCAL/MOL
REMARK 924 INTRA-LIGAND FREE ENERGY PREDICTED BY IDOCK:   -1.52 KCAL/MOL
REMARK 927      BINDING AFFINITY PREDICTED BY RF-SCORE:    0.00 PKD
ROOT
HETATM    1  C   UNL     1     -11.332   6.250  70.231  1.00  0.00    -0.457 C  
HETATM    2  C   UNL     1     -10.381   7.090  71.085  1.00  0.00    -0.222 C  
ENDROOT
BRANCH   2   3
HETATM    3  C   UNL     1      -9.369   6.205  71.838  1.00  0.00    -0.157 C  
BRANCH   3   4
HETATM    4  C   UNL     1      -7.915   6.519  71.423  1.00  0.00    -0.108 C  
BRANCH   4   5
HETATM    5  N   UNL     1      -7.581   6.017  70.078  1.00  0.00    -0.085 NA 
BRANCH   5   6
HETATM    6  C   UNL     1      -7.233   6.961  69.024  1.00  0.00    -0.091 C  
HETATM    7  S   UNL     1      -8.465   7.451  67.751  1.00  0.00    -0.117 SA 
HETATM    8  C   UNL     1      -7.753  11.499  67.308  1.00  0.00    -0.150 C  
HETATM    9  S   UNL     1      -5.849   7.892  69.043  1.00  0.00    -0.035 SA 
HETATM   10 ZN   UNL     1      -7.253   9.183  67.972  1.00  0.00    -0.069 Zn 
HETATM   11  S   UNL     1      -7.213  10.409  66.176  1.00  0.00    -0.136 SA 
HETATM   12  S   UNL     1      -7.737  10.954  69.063  1.00  0.00    -0.122 SA 
BRANCH   8  13
HETATM   13  N   UNL     1      -8.470  12.690  66.944  1.00  0.00    -0.159 NA 
BRANCH  13  14
HETATM   14  C   UNL     1      -8.007  14.018  67.344  1.00  0.00    -0.175 C  
BRANCH  14  15
HETATM   15  C   UNL     1      -8.915  14.649  68.431  1.00  0.00    -0.180 C  
BRANCH  15  16
HETATM   16  C   UNL     1      -9.468  16.042  68.071  1.00  0.00    -0.207 C  
HETATM   17  C   UNL     1     -10.814  16.291  68.763  1.00  0.00    -0.317 C  
ENDBRANCH  15  16
ENDBRANCH  14  15
ENDBRANCH  13  14
BRANCH  13  18
HETATM   18  C   UNL     1      -9.684  12.578  66.127  1.00  0.00    -0.254 C  
BRANCH  18  19
HETATM   19  C   UNL     1     -10.915  12.151  66.961  1.00  0.00    -0.319 C  
BRANCH  19  20
HETATM   20  C   UNL     1     -12.066  13.173  66.968  1.00  0.00    -0.366 C  
HETATM   21  C   UNL     1     -11.882  14.201  65.844  1.00  0.00    -0.391 C  
ENDBRANCH  19  20
ENDBRANCH  18  19
ENDBRANCH  13  18
ENDBRANCH   8  13
ENDBRANCH   5   6
BRANCH   5  22
HETATM   22  C   UNL     1      -7.540   4.567  69.843  1.00  0.00    -0.054 C  
BRANCH  22  23
HETATM   23  C   UNL     1      -8.298   4.077  68.595  1.00  0.00    -0.093 C  
BRANCH  23  24
HETATM   24  C   UNL     1      -9.528   3.209  68.892  1.00  0.00    -0.183 C  
HETATM   25  C   UNL     1      -9.361   1.814  68.277  1.00  0.00    -0.246 C  
ENDBRANCH  23  24
ENDBRANCH  22  23
ENDBRANCH   5  22
ENDBRANCH   4   5
ENDBRANCH   3   4
ENDBRANCH   2   3
TORSDOF 14
ENDMDL
MODEL      250
REMARK 921   NORMALIZED FREE ENERGY PREDICTED BY IDOCK:   -2.65 KCAL/MOL
REMARK 922        TOTAL FREE ENERGY PREDICTED BY IDOCK:   -6.21 KCAL/MOL
REMARK 923 INTER-LIGAND FREE ENERGY PREDICTED BY IDOCK:   -5.99 KCAL/MOL
REMARK 924 INTRA-LIGAND FREE ENERGY PREDICTED BY IDOCK:   -0.21 KCAL/MOL
REMARK 927      BINDING AFFINITY PREDICTED BY RF-SCORE:    0.00 PKD
ROOT
HETATM    1  C   UNL     1      -7.357  17.646  66.167  1.00  0.00    -0.344 C  
HETATM    2  C   UNL     1      -8.841  18.017  66.163  1.00  0.00    -0.111 C  
ENDROOT
BRANCH   2   3
HETATM    3  C   UNL     1      -9.736  16.764  66.110  1.00  0.00    -0.315 C  
BRANCH   3   4
HETATM    4  C   UNL     1      -8.914  15.468  66.276  1.00  0.00    -0.327 C  
BRANCH   4   5
HETATM    5  N   UNL     1      -9.735  14.315  66.687  1.00  0.00    -0.276 NA 
BRANCH   5   6
HETATM    6  C   UNL     1      -9.186  12.969  66.584  1.00  0.00    -0.219 C  
HETATM    7  S   UNL     1      -7.914  12.374  67.769  1.00  0.00    -0.171 SA 
HETATM    8  C   UNL     1      -9.083   8.473  68.477  1.00  0.00    -0.135 C  
HETATM    9  S   UNL     1      -9.849  11.777  65.623  1.00  0.00    -0.239 SA 
HETATM   10 ZN   UNL     1      -8.998  10.615  67.270  1.00  0.00    -0.130 Zn 
HETATM   11  S   UNL     1      -7.801   8.811  67.475  1.00  0.00    -0.102 SA 
HETATM   12  S   UNL     1     -10.491   9.653  68.456  1.00  0.00    -0.215 SA 
BRANCH   8  13
HETATM   13  N   UNL     1      -8.998   7.491  69.524  1.00  0.00    -0.144 NA 
BRANCH  13  14
HETATM   14  C   UNL     1      -7.999   6.424  69.498  1.00  0.00    -0.113 C  
BRANCH  14  15
HETATM   15  C   UNL     1      -8.579   5.071  69.981  1.00  0.00    -0.111 C  
BRANCH  15  16
HETATM   16  C   UNL     1      -9.231   4.222  68.871  1.00  0.00    -0.205 C  
HETATM   17  C   UNL     1      -8.883   4.775  67.484  1.00  0.00    -0.108 C  
ENDBRANCH  15  16
ENDBRANCH  14  15
ENDBRANCH  13  14
BRANCH  13  18
HETATM   18  C   UNL     1      -9.919   7.574  70.664  1.00  0.00    -0.183 C  
BRANCH  18  19
HETATM   19  C   UNL     1     -11.276   6.889  70.372  1.00  0.00    -0.359 C  
BRANCH  19  20
HETATM   20  C   UNL     1     -12.180   6.715  71.606  1.00  0.00    -0.401 C  
HETATM   21  C   UNL     1     -12.025   7.904  72.561  1.00  0.00    -0.349 C  
ENDBRANCH  19  20
ENDBRANCH  18  19
ENDBRANCH  13  18
ENDBRANCH   8  13
ENDBRANCH   5   6
BRANCH   5  22
HETATM   22  C   UNL     1     -11.069  14.550  67.254  1.00  0.00    -0.312 C  
BRANCH  22  23
HETATM   23  C   UNL     1     -12.212  13.734  66.621  1.00  0.00    -0.454 C  
BRANCH  23  24
HETATM   24  C   UNL     1     -12.889  14.405  65.419  1.00  0.00    -0.235 C  
HETATM   25  C   UNL     1     -12.187  14.005  64.116  1.00  0.00    -0.433 C  
ENDBRANCH  23  24
ENDBRANCH  22  23
ENDBRANCH   5  22
ENDBRANCH   4   5
ENDBRANCH   3   4
ENDBRANCH   2   3
TORSDOF 14
ENDMDL
MODEL      251
REMARK 921   NORMALIZED FREE ENERGY PREDICTED BY IDOCK:   -2.64 KCAL/MOL
REMARK 922        TOTAL FREE ENERGY PREDICTED BY IDOCK:   -6.19 KCAL/MOL
REMARK 923 INTER-LIGAND FREE ENERGY PREDICTED BY IDOCK:   -5.61 KCAL/MOL
REMARK 924 INTRA-LIGAND FREE ENERGY PREDICTED BY IDOCK:   -0.58 KCAL/MOL
REMARK 927      BINDING AFFINITY PREDICTED BY RF-SCORE:    0.00 PKD
ROOT
HETATM    1  C   UNL     1      -9.045   3.594  69.187  1.00  0.00    -0.200 C  
HETATM    2  C   UNL     1     -10.142   4.506  69.738  1.00  0.00    -0.177 C  
ENDROOT
BRANCH   2   3
HETATM    3  C   UNL     1      -9.752   5.993  69.617  1.00  0.00    -0.188 C  
BRANCH   3   4
HETATM    4  C   UNL     1      -9.893   6.503  68.166  1.00  0.00    -0.131 C  
BRANCH   4   5
HETATM    5  N   UNL     1      -8.651   7.099  67.643  1.00  0.00    -0.122 NA 
BRANCH   5   6
HETATM    6  C   UNL     1      -8.452   8.540  67.734  1.00  0.00    -0.130 C  
HETATM    7  S   UNL     1      -8.927   9.649  66.349  1.00  0.00    -0.158 SA 
HETATM    8  C   UNL     1     -10.562  12.901  68.308  1.00  0.00    -0.246 C  
HETATM    9  S   UNL     1      -8.081   9.328  69.157  1.00  0.00    -0.110 SA 
HETATM   10 ZN   UNL     1      -9.227  10.847  68.079  1.00  0.00    -0.135 Zn 
HETATM   11  S   UNL     1      -9.031  12.974  67.666  1.00  0.00    -0.205 SA 
HETATM   12  S   UNL     1     -11.092  11.292  69.019  1.00  0.00    -0.266 SA 
BRANCH   8  13
HETATM   13  N   UNL     1     -11.542  13.927  68.071  1.00  0.00    -0.313 NA 
BRANCH  13  14
HETATM   14  C   UNL     1     -11.583  15.149  68.873  1.00  0.00    -0.341 C  
BRANCH  14  15
HETATM   15  C   UNL     1     -11.245  14.881  70.361  1.00  0.00    -0.252 C  
BRANCH  15  16
HETATM   16  C   UNL     1     -12.430  14.369  71.203  1.00  0.00    -0.429 C  
HETATM   17  C   UNL     1     -13.514  15.445  71.335  1.00  0.00    -0.607 C  
ENDBRANCH  15  16
ENDBRANCH  14  15
ENDBRANCH  13  14
BRANCH  13  18
HETATM   18  C   UNL     1     -12.510  13.759  66.981  1.00  0.00    -0.103 C  
BRANCH  18  19
HETATM   19  C   UNL     1     -11.993  12.802  65.881  1.00  0.00    -0.506 C  
BRANCH  19  20
HETATM   20  C   UNL     1     -11.321  13.505  64.688  1.00  0.00    -0.375 C  
HETATM   21  C   UNL     1     -12.113  14.753  64.280  1.00  0.00    -0.415 C  
ENDBRANCH  19  20
ENDBRANCH  18  19
ENDBRANCH  13  18
ENDBRANCH   8  13
ENDBRANCH   5   6
BRANCH   5  22
HETATM   22  C   UNL     1      -7.608   6.221  67.098  1.00  0.00    -0.096 C  
BRANCH  22  23
HETATM   23  C   UNL     1      -6.755   6.827  65.967  1.00  0.00    -0.052 C  
BRANCH  23  24
HETATM   24  C   UNL     1      -6.149   5.801  65.000  1.00  0.00    -0.025 C  
HETATM   25  C   UNL     1      -5.246   6.498  63.976  1.00  0.00    -0.026 C  
ENDBRANCH  23  24
ENDBRANCH  22  23
ENDBRANCH   5  22
ENDBRANCH   4   5
ENDBRANCH   3   4
ENDBRANCH   2   3
TORSDOF 14
ENDMDL
MODEL      252
REMARK 921   NORMALIZED FREE ENERGY PREDICTED BY IDOCK:   -2.62 KCAL/MOL
REMARK 922        TOTAL FREE ENERGY PREDICTED BY IDOCK:   -6.15 KCAL/MOL
REMARK 923 INTER-LIGAND FREE ENERGY PREDICTED BY IDOCK:   -4.99 KCAL/MOL
REMARK 924 INTRA-LIGAND FREE ENERGY PREDICTED BY IDOCK:   -1.16 KCAL/MOL
REMARK 927      BINDING AFFINITY PREDICTED BY RF-SCORE:    0.00 PKD
ROOT
HETATM    1  C   UNL     1      -8.179  16.400  68.646  1.00  0.00    -0.223 C  
HETATM    2  C   UNL     1      -7.829  15.059  67.999  1.00  0.00    -0.129 C  
ENDROOT
BRANCH   2   3
HETATM    3  C   UNL     1      -8.853  14.673  66.914  1.00  0.00    -0.267 C  
BRANCH   3   4
HETATM    4  C   UNL     1     -10.269  14.495  67.502  1.00  0.00    -0.232 C  
BRANCH   4   5
HETATM    5  N   UNL     1     -10.551  13.108  67.914  1.00  0.00    -0.229 NA 
BRANCH   5   6
HETATM    6  C   UNL     1      -9.770  12.016  67.345  1.00  0.00    -0.182 C  
HETATM    7  S   UNL     1      -8.492  11.150  68.340  1.00  0.00    -0.156 SA 
HETATM    8  C   UNL     1      -9.006   7.199  67.240  1.00  0.00    -0.123 C  
HETATM    9  S   UNL     1     -10.153  11.266  65.905  1.00  0.00    -0.255 SA 
HETATM   10 ZN   UNL     1      -9.219   9.641  67.032  1.00  0.00    -0.129 Zn 
HETATM   11  S   UNL     1      -7.741   8.094  66.639  1.00  0.00    -0.095 SA 
HETATM   12  S   UNL     1     -10.593   8.081  67.517  1.00  0.00    -0.187 SA 
BRANCH   8  13
HETATM   13  N   UNL     1      -8.818   5.887  67.798  1.00  0.00    -0.110 NA 
BRANCH  13  14
HETATM   14  C   UNL     1      -9.794   4.818  67.591  1.00  0.00    -0.152 C  
BRANCH  14  15
HETATM   15  C   UNL     1      -9.168   3.585  66.893  1.00  0.00    -0.208 C  
BRANCH  15  16
HETATM   16  C   UNL     1      -9.025   3.720  65.364  1.00  0.00    -0.134 C  
HETATM   17  C   UNL     1     -10.369   4.076  64.718  1.00  0.00    -0.212 C  
ENDBRANCH  15  16
ENDBRANCH  14  15
ENDBRANCH  13  14
BRANCH  13  18
HETATM   18  C   UNL     1      -7.605   5.601  68.573  1.00  0.00    -0.085 C  
BRANCH  18  19
HETATM   19  C   UNL     1      -7.864   5.632  70.099  1.00  0.00    -0.091 C  
BRANCH  19  20
HETATM   20  C   UNL     1      -7.160   6.783  70.841  1.00  0.00    -0.068 C  
HETATM   21  C   UNL     1      -7.890   8.109  70.597  1.00  0.00    -0.091 C  
ENDBRANCH  19  20
ENDBRANCH  18  19
ENDBRANCH  13  18
ENDBRANCH   8  13
ENDBRANCH   5   6
BRANCH   5  22
HETATM   22  C   UNL     1     -11.570  12.857  68.941  1.00  0.00    -0.315 C  
BRANCH  22  23
HETATM   23  C   UNL     1     -11.978  11.383  69.125  1.00  0.00    -0.395 C  
BRANCH  23  24
HETATM   24  C   UNL     1     -12.310  10.985  70.569  1.00  0.00    -0.462 C  
HETATM   25  C   UNL     1     -11.459   9.786  71.004  1.00  0.00    -0.458 C  
ENDBRANCH  23  24
ENDBRANCH  22  23
ENDBRANCH   5  22
ENDBRANCH   4   5
ENDBRANCH   3   4
ENDBRANCH   2   3
TORSDOF 14
ENDMDL
MODEL      253
REMARK 921   NORMALIZED FREE ENERGY PREDICTED BY IDOCK:   -2.60 KCAL/MOL
REMARK 922        TOTAL FREE ENERGY PREDICTED BY IDOCK:   -6.12 KCAL/MOL
REMARK 923 INTER-LIGAND FREE ENERGY PREDICTED BY IDOCK:   -5.17 KCAL/MOL
REMARK 924 INTRA-LIGAND FREE ENERGY PREDICTED BY IDOCK:   -0.95 KCAL/MOL
REMARK 927      BINDING AFFINITY PREDICTED BY RF-SCORE:    0.00 PKD
ROOT
HETATM    1  C   UNL     1     -10.666   9.308  67.331  1.00  0.00    -0.263 C  
HETATM    2  C   UNL     1     -10.791  10.826  67.467  1.00  0.00    -0.342 C  
ENDROOT
BRANCH   2   3
HETATM    3  C   UNL     1      -9.746  11.393  68.447  1.00  0.00    -0.203 C  
BRANCH   3   4
HETATM    4  C   UNL     1      -8.913  10.271  69.104  1.00  0.00    -0.180 C  
BRANCH   4   5
HETATM    5  N   UNL     1      -7.513  10.249  68.643  1.00  0.00    -0.082 NA 
BRANCH   5   6
HETATM    6  C   UNL     1      -6.740  11.484  68.632  1.00  0.00    -0.072 C  
HETATM    7  S   UNL     1      -6.514  12.443  67.081  1.00  0.00    -0.001 SA 
HETATM    8  C   UNL     1      -6.876  16.354  68.369  1.00  0.00    -0.142 C  
HETATM    9  S   UNL     1      -6.266  12.285  70.017  1.00  0.00    -0.022 SA 
HETATM   10 ZN   UNL     1      -6.512  13.932  68.598  1.00  0.00    -0.074 Zn 
HETATM   11  S   UNL     1      -5.386  15.703  68.028  1.00  0.00    -0.130 SA 
HETATM   12  S   UNL     1      -8.123  15.232  69.118  1.00  0.00    -0.240 SA 
BRANCH   8  13
HETATM   13  N   UNL     1      -7.292  17.630  67.853  1.00  0.00    -0.198 NA 
BRANCH  13  14
HETATM   14  C   UNL     1      -7.769  17.783  66.479  1.00  0.00    -0.263 C  
BRANCH  14  15
HETATM   15  C   UNL     1      -9.279  17.464  66.347  1.00  0.00    -0.272 C  
BRANCH  15  16
HETATM   16  C   UNL     1     -10.187  18.260  67.306  1.00  0.00    -0.387 C  
HETATM   17  C   UNL     1     -10.597  19.601  66.684  1.00  0.00    -0.599 C  
ENDBRANCH  15  16
ENDBRANCH  14  15
ENDBRANCH  13  14
BRANCH  13  18
HETATM   18  C   UNL     1      -7.265  18.805  68.731  1.00  0.00    -0.308 C  
BRANCH  18  19
HETATM   19  C   UNL     1      -6.183  19.827  68.307  1.00  0.00    -0.281 C  
BRANCH  19  20
HETATM   20  C   UNL     1      -6.719  21.029  67.509  1.00  0.00    -0.428 C  
HETATM   21  C   UNL     1      -6.084  21.078  66.114  1.00  0.00    -0.310 C  
ENDBRANCH  19  20
ENDBRANCH  18  19
ENDBRANCH  13  18
ENDBRANCH   8  13
ENDBRANCH   5   6
BRANCH   5  22
HETATM   22  C   UNL     1      -6.902   8.967  68.265  1.00  0.00    -0.065 C  
BRANCH  22  23
HETATM   23  C   UNL     1      -7.718   7.712  68.628  1.00  0.00    -0.119 C  
BRANCH  23  24
HETATM   24  C   UNL     1      -7.211   6.411  67.991  1.00  0.00    -0.087 C  
HETATM   25  C   UNL     1      -8.384   5.584  67.454  1.00  0.00    -0.103 C  
ENDBRANCH  23  24
ENDBRANCH  22  23
ENDBRANCH   5  22
ENDBRANCH   4   5
ENDBRANCH   3   4
ENDBRANCH   2   3
TORSDOF 14
ENDMDL
MODEL      254
REMARK 921   NORMALIZED FREE ENERGY PREDICTED BY IDOCK:   -2.59 KCAL/MOL
REMARK 922        TOTAL FREE ENERGY PREDICTED BY IDOCK:   -6.09 KCAL/MOL
REMARK 923 INTER-LIGAND FREE ENERGY PREDICTED BY IDOCK:   -4.87 KCAL/MOL
REMARK 924 INTRA-LIGAND FREE ENERGY PREDICTED BY IDOCK:   -1.22 KCAL/MOL
REMARK 927      BINDING AFFINITY PREDICTED BY RF-SCORE:    0.00 PKD
ROOT
HETATM    1  C   UNL     1      -8.143   4.709  67.862  1.00  0.00    -0.092 C  
HETATM    2  C   UNL     1      -9.329   4.997  66.941  1.00  0.00    -0.134 C  
ENDROOT
BRANCH   2   3
HETATM    3  C   UNL     1      -9.698   6.494  66.947  1.00  0.00    -0.199 C  
BRANCH   3   4
HETATM    4  C   UNL     1      -8.455   7.387  67.147  1.00  0.00    -0.118 C  
BRANCH   4   5
HETATM    5  N   UNL     1      -7.992   8.016  65.897  1.00  0.00    -0.102 NA 
BRANCH   5   6
HETATM    6  C   UNL     1      -8.317   9.411  65.631  1.00  0.00    -0.124 C  
HETATM    7  S   UNL     1     -10.050  10.013  65.734  1.00  0.00    -0.208 SA 
HETATM    8  C   UNL     1      -9.623  13.708  67.536  1.00  0.00    -0.220 C  
HETATM    9  S   UNL     1      -7.170  10.618  65.518  1.00  0.00     0.011 SA 
HETATM   10 ZN   UNL     1      -8.896  11.701  66.315  1.00  0.00    -0.160 Zn 
HETATM   11  S   UNL     1      -9.904  13.583  65.903  1.00  0.00    -0.194 SA 
HETATM   12  S   UNL     1      -8.576  12.409  68.304  1.00  0.00    -0.145 SA 
BRANCH   8  13
HETATM   13  N   UNL     1     -10.380  14.596  68.378  1.00  0.00    -0.231 NA 
BRANCH  13  14
HETATM   14  C   UNL     1     -11.787  14.349  68.686  1.00  0.00    -0.331 C  
BRANCH  14  15
HETATM   15  C   UNL     1     -12.172  14.853  70.099  1.00  0.00    -0.387 C  
BRANCH  15  16
HETATM   16  C   UNL     1     -12.480  13.735  71.115  1.00  0.00    -0.450 C  
HETATM   17  C   UNL     1     -12.229  12.353  70.499  1.00  0.00    -0.382 C  
ENDBRANCH  15  16
ENDBRANCH  14  15
ENDBRANCH  13  14
BRANCH  13  18
HETATM   18  C   UNL     1      -9.718  15.766  68.967  1.00  0.00    -0.242 C  
BRANCH  18  19
HETATM   19  C   UNL     1      -9.040  16.656  67.898  1.00  0.00    -0.218 C  
BRANCH  19  20
HETATM   20  C   UNL     1      -8.743  18.093  68.360  1.00  0.00    -0.302 C  
HETATM   21  C   UNL     1      -9.183  19.105  67.295  1.00  0.00    -0.335 C  
ENDBRANCH  19  20
ENDBRANCH  18  19
ENDBRANCH  13  18
ENDBRANCH   8  13
ENDBRANCH   5   6
BRANCH   5  22
HETATM   22  C   UNL     1      -7.153   7.242  64.972  1.00  0.00    -0.064 C  
BRANCH  22  23
HETATM   23  C   UNL     1      -7.821   6.853  63.640  1.00  0.00    -0.107 C  
BRANCH  23  24
HETATM   24  C   UNL     1      -7.852   5.345  63.354  1.00  0.00    -0.093 C  
HETATM   25  C   UNL     1      -6.887   4.603  64.286  1.00  0.00    -0.045 C  
ENDBRANCH  23  24
ENDBRANCH  22  23
ENDBRANCH   5  22
ENDBRANCH   4   5
ENDBRANCH   3   4
ENDBRANCH   2   3
TORSDOF 14
ENDMDL
MODEL      255
REMARK 921   NORMALIZED FREE ENERGY PREDICTED BY IDOCK:   -2.59 KCAL/MOL
REMARK 922        TOTAL FREE ENERGY PREDICTED BY IDOCK:   -6.09 KCAL/MOL
REMARK 923 INTER-LIGAND FREE ENERGY PREDICTED BY IDOCK:   -5.16 KCAL/MOL
REMARK 924 INTRA-LIGAND FREE ENERGY PREDICTED BY IDOCK:   -0.93 KCAL/MOL
REMARK 927      BINDING AFFINITY PREDICTED BY RF-SCORE:    0.00 PKD
ROOT
HETATM    1  C   UNL     1     -10.430  20.057  65.738  1.00  0.00    -0.469 C  
HETATM    2  C   UNL     1      -9.735  18.847  66.366  1.00  0.00    -0.395 C  
ENDROOT
BRANCH   2   3
HETATM    3  C   UNL     1     -10.490  17.540  66.056  1.00  0.00    -0.274 C  
BRANCH   3   4
HETATM    4  C   UNL     1      -9.577  16.304  66.205  1.00  0.00    -0.331 C  
BRANCH   4   5
HETATM    5  N   UNL     1      -9.782  15.586  67.476  1.00  0.00    -0.214 NA 
BRANCH   5   6
HETATM    6  C   UNL     1     -10.330  14.236  67.459  1.00  0.00    -0.248 C  
HETATM    7  S   UNL     1     -10.032  13.114  66.036  1.00  0.00    -0.261 SA 
HETATM    8  C   UNL     1      -9.384   9.468  67.873  1.00  0.00    -0.132 C  
HETATM    9  S   UNL     1     -10.987  13.494  68.801  1.00  0.00    -0.259 SA 
HETATM   10 ZN   UNL     1     -10.162  11.795  67.698  1.00  0.00    -0.181 Zn 
HETATM   11  S   UNL     1     -10.834   9.805  67.134  1.00  0.00    -0.036 SA 
HETATM   12  S   UNL     1      -8.538  10.861  68.721  1.00  0.00    -0.141 SA 
BRANCH   8  13
HETATM   13  N   UNL     1      -8.666   8.246  67.630  1.00  0.00    -0.133 NA 
BRANCH  13  14
HETATM   14  C   UNL     1      -8.870   7.058  68.457  1.00  0.00    -0.124 C  
BRANCH  14  15
HETATM   15  C   UNL     1      -8.651   5.748  67.660  1.00  0.00    -0.101 C  
BRANCH  15  16
HETATM   16  C   UNL     1      -9.909   4.869  67.516  1.00  0.00    -0.207 C  
HETATM   17  C   UNL     1     -10.342   4.770  66.048  1.00  0.00    -0.328 C  
ENDBRANCH  15  16
ENDBRANCH  14  15
ENDBRANCH  13  14
BRANCH  13  18
HETATM   18  C   UNL     1      -7.723   8.177  66.508  1.00  0.00    -0.093 C  
BRANCH  18  19
HETATM   19  C   UNL     1      -8.433   8.284  65.138  1.00  0.00    -0.164 C  
BRANCH  19  20
HETATM   20  C   UNL     1      -8.096   9.558  64.343  1.00  0.00    -0.141 C  
HETATM   21  C   UNL     1      -6.727  10.109  64.761  1.00  0.00    -0.121 C  
ENDBRANCH  19  20
ENDBRANCH  18  19
ENDBRANCH  13  18
ENDBRANCH   8  13
ENDBRANCH   5   6
BRANCH   5  22
HETATM   22  C   UNL     1      -9.368  16.223  68.734  1.00  0.00    -0.235 C  
BRANCH  22  23
HETATM   23  C   UNL     1      -7.908  16.712  68.780  1.00  0.00    -0.238 C  
BRANCH  23  24
HETATM   24  C   UNL     1      -6.881  15.630  69.137  1.00  0.00    -0.159 C  
HETATM   25  C   UNL     1      -6.212  15.087  67.868  1.00  0.00    -0.174 C  
ENDBRANCH  23  24
ENDBRANCH  22  23
ENDBRANCH   5  22
ENDBRANCH   4   5
ENDBRANCH   3   4
ENDBRANCH   2   3
TORSDOF 14
ENDMDL
MODEL      256
REMARK 921   NORMALIZED FREE ENERGY PREDICTED BY IDOCK:   -2.58 KCAL/MOL
REMARK 922        TOTAL FREE ENERGY PREDICTED BY IDOCK:   -6.07 KCAL/MOL
REMARK 923 INTER-LIGAND FREE ENERGY PREDICTED BY IDOCK:   -5.75 KCAL/MOL
REMARK 924 INTRA-LIGAND FREE ENERGY PREDICTED BY IDOCK:   -0.32 KCAL/MOL
REMARK 927      BINDING AFFINITY PREDICTED BY RF-SCORE:    0.00 PKD
ROOT
HETATM    1  C   UNL     1     -10.366  10.618  64.739  1.00  0.00    -0.353 C  
HETATM    2  C   UNL     1      -9.798   9.688  65.812  1.00  0.00    -0.373 C  
ENDROOT
BRANCH   2   3
HETATM    3  C   UNL     1     -10.823   9.427  66.933  1.00  0.00    -0.055 C  
BRANCH   3   4
HETATM    4  C   UNL     1     -10.468  10.201  68.221  1.00  0.00    -0.211 C  
BRANCH   4   5
HETATM    5  N   UNL     1     -11.566  11.062  68.695  1.00  0.00    -0.314 NA 
BRANCH   5   6
HETATM    6  C   UNL     1     -11.600  12.465  68.302  1.00  0.00    -0.333 C  
HETATM    7  S   UNL     1     -10.977  13.777  69.428  1.00  0.00    -0.023 SA 
HETATM    8  C   UNL     1      -9.011  16.334  66.844  1.00  0.00    -0.217 C  
HETATM    9  S   UNL     1     -11.901  12.976  66.743  1.00  0.00    -0.370 SA 
HETATM   10 ZN   UNL     1     -10.569  14.543  67.488  1.00  0.00    -0.240 Zn 
HETATM   11  S   UNL     1     -10.512  16.717  67.444  1.00  0.00    -0.295 SA 
HETATM   12  S   UNL     1      -8.682  14.562  66.490  1.00  0.00     0.077 SA 
BRANCH   8  13
HETATM   13  N   UNL     1      -7.915  17.266  66.868  1.00  0.00    -0.209 NA 
BRANCH  13  14
HETATM   14  C   UNL     1      -8.119  18.696  66.644  1.00  0.00    -0.271 C  
BRANCH  14  15
HETATM   15  C   UNL     1      -7.395  19.561  67.707  1.00  0.00    -0.297 C  
BRANCH  15  16
HETATM   16  C   UNL     1      -8.192  19.774  69.009  1.00  0.00    -0.100 C  
HETATM   17  C   UNL     1      -9.676  19.447  68.801  1.00  0.00    -0.516 C  
ENDBRANCH  15  16
ENDBRANCH  14  15
ENDBRANCH  13  14
BRANCH  13  18
HETATM   18  C   UNL     1      -6.561  16.777  67.150  1.00  0.00    -0.192 C  
BRANCH  18  19
HETATM   19  C   UNL     1      -6.389  16.349  68.628  1.00  0.00    -0.133 C  
BRANCH  19  20
HETATM   20  C   UNL     1      -5.644  15.016  68.823  1.00  0.00    -0.087 C  
HETATM   21  C   UNL     1      -6.345  14.155  69.880  1.00  0.00    -0.141 C  
ENDBRANCH  19  20
ENDBRANCH  18  19
ENDBRANCH  13  18
ENDBRANCH   8  13
ENDBRANCH   5   6
BRANCH   5  22
HETATM   22  C   UNL     1     -12.643  10.473  69.503  1.00  0.00     0.247 C  
BRANCH  22  23
HETATM   23  C   UNL     1     -12.353  10.358  71.011  1.00  0.00    -0.490 C  
BRANCH  23  24
HETATM   24  C   UNL     1     -12.649   8.980  71.617  1.00  0.00    -0.414 C  
HETATM   25  C   UNL     1     -11.368   8.356  72.184  1.00  0.00    -0.437 C  
ENDBRANCH  23  24
ENDBRANCH  22  23
ENDBRANCH   5  22
ENDBRANCH   4   5
ENDBRANCH   3   4
ENDBRANCH   2   3
TORSDOF 14
ENDMDL
MODEL      257
REMARK 921   NORMALIZED FREE ENERGY PREDICTED BY IDOCK:   -2.56 KCAL/MOL
REMARK 922        TOTAL FREE ENERGY PREDICTED BY IDOCK:   -6.04 KCAL/MOL
REMARK 923 INTER-LIGAND FREE ENERGY PREDICTED BY IDOCK:   -4.79 KCAL/MOL
REMARK 924 INTRA-LIGAND FREE ENERGY PREDICTED BY IDOCK:   -1.25 KCAL/MOL
REMARK 927      BINDING AFFINITY PREDICTED BY RF-SCORE:    0.00 PKD
ROOT
HETATM    1  C   UNL     1      -9.976   9.755  65.275  1.00  0.00    -0.251 C  
HETATM    2  C   UNL     1      -9.003   8.585  65.436  1.00  0.00    -0.150 C  
ENDROOT
BRANCH   2   3
HETATM    3  C   UNL     1      -8.893   8.141  66.907  1.00  0.00    -0.145 C  
BRANCH   3   4
HETATM    4  C   UNL     1      -7.520   7.501  67.208  1.00  0.00    -0.100 C  
BRANCH   4   5
HETATM    5  N   UNL     1      -6.391   8.409  66.937  1.00  0.00    -0.055 NA 
BRANCH   5   6
HETATM    6  C   UNL     1      -6.440   9.782  67.422  1.00  0.00    -0.069 C  
HETATM    7  S   UNL     1      -6.576  11.193  66.253  1.00  0.00    -0.012 SA 
HETATM    8  C   UNL     1      -9.217  13.721  68.180  1.00  0.00    -0.199 C  
HETATM    9  S   UNL     1      -6.683  10.184  69.023  1.00  0.00    -0.057 SA 
HETATM   10 ZN   UNL     1      -7.605  11.873  67.983  1.00  0.00    -0.087 Zn 
HETATM   11  S   UNL     1      -7.586  14.040  68.168  1.00  0.00    -0.160 SA 
HETATM   12  S   UNL     1      -9.720  11.956  68.264  1.00  0.00    -0.196 SA 
BRANCH   8  13
HETATM   13  N   UNL     1     -10.196  14.721  67.849  1.00  0.00    -0.228 NA 
BRANCH  13  14
HETATM   14  C   UNL     1     -11.027  14.615  66.651  1.00  0.00    -0.323 C  
BRANCH  14  15
HETATM   15  C   UNL     1     -10.187  14.684  65.350  1.00  0.00    -0.415 C  
BRANCH  15  16
HETATM   16  C   UNL     1     -10.467  13.547  64.348  1.00  0.00    -0.366 C  
HETATM   17  C   UNL     1     -11.943  13.534  63.932  1.00  0.00    -0.491 C  
ENDBRANCH  15  16
ENDBRANCH  14  15
ENDBRANCH  13  14
BRANCH  13  18
HETATM   18  C   UNL     1     -10.387  15.866  68.747  1.00  0.00    -0.228 C  
BRANCH  18  19
HETATM   19  C   UNL     1     -11.819  15.918  69.333  1.00  0.00    -0.325 C  
BRANCH  19  20
HETATM   20  C   UNL     1     -11.908  15.568  70.829  1.00  0.00    -0.406 C  
HETATM   21  C   UNL     1     -12.182  14.072  71.019  1.00  0.00    -0.430 C  
ENDBRANCH  19  20
ENDBRANCH  18  19
ENDBRANCH  13  18
ENDBRANCH   8  13
ENDBRANCH   5   6
BRANCH   5  22
HETATM   22  C   UNL     1      -5.206   7.892  66.239  1.00  0.00    -0.025 C  
BRANCH  22  23
HETATM   23  C   UNL     1      -5.227   8.034  64.705  1.00  0.00    -0.032 C  
BRANCH  23  24
HETATM   24  C   UNL     1      -5.443   6.721  63.942  1.00  0.00    -0.027 C  
HETATM   25  C   UNL     1      -5.521   5.541  64.918  1.00  0.00    -0.013 C  
ENDBRANCH  23  24
ENDBRANCH  22  23
ENDBRANCH   5  22
ENDBRANCH   4   5
ENDBRANCH   3   4
ENDBRANCH   2   3
TORSDOF 14
ENDMDL
MODEL      258
REMARK 921   NORMALIZED FREE ENERGY PREDICTED BY IDOCK:   -2.55 KCAL/MOL
REMARK 922        TOTAL FREE ENERGY PREDICTED BY IDOCK:   -6.02 KCAL/MOL
REMARK 923 INTER-LIGAND FREE ENERGY PREDICTED BY IDOCK:   -4.77 KCAL/MOL
REMARK 924 INTRA-LIGAND FREE ENERGY PREDICTED BY IDOCK:   -1.26 KCAL/MOL
REMARK 927      BINDING AFFINITY PREDICTED BY RF-SCORE:    0.00 PKD
ROOT
HETATM    1  C   UNL     1     -10.439   5.526  66.478  1.00  0.00    -0.331 C  
HETATM    2  C   UNL     1     -10.786   6.864  67.132  1.00  0.00    -0.447 C  
ENDROOT
BRANCH   2   3
HETATM    3  C   UNL     1      -9.942   8.013  66.548  1.00  0.00    -0.283 C  
BRANCH   3   4
HETATM    4  C   UNL     1      -8.621   7.497  65.937  1.00  0.00    -0.151 C  
BRANCH   4   5
HETATM    5  N   UNL     1      -7.433   7.903  66.709  1.00  0.00    -0.089 NA 
BRANCH   5   6
HETATM    6  C   UNL     1      -7.163   7.277  67.996  1.00  0.00    -0.091 C  
HETATM    7  S   UNL     1      -7.644   8.100  69.567  1.00  0.00    -0.102 SA 
HETATM    8  C   UNL     1      -9.044   4.953  71.851  1.00  0.00    -0.136 C  
HETATM    9  S   UNL     1      -6.697   5.683  68.164  1.00  0.00    -0.056 SA 
HETATM   10 ZN   UNL     1      -7.817   6.029  70.011  1.00  0.00    -0.082 Zn 
HETATM   11  S   UNL     1      -7.540   5.603  72.126  1.00  0.00    -0.102 SA 
HETATM   12  S   UNL     1      -9.617   4.886  70.107  1.00  0.00    -0.214 SA 
BRANCH   8  13
HETATM   13  N   UNL     1      -9.985   4.721  72.915  1.00  0.00    -0.151 NA 
BRANCH  13  14
HETATM   14  C   UNL     1      -9.795   3.647  73.887  1.00  0.00    -0.112 C  
BRANCH  14  15
HETATM   15  C   UNL     1      -9.391   2.313  73.211  1.00  0.00    -0.099 C  
BRANCH  15  16
HETATM   16  C   UNL     1     -10.575   1.483  72.675  1.00  0.00    -0.233 C  
HETATM   17  C   UNL     1     -11.835   1.726  73.514  1.00  0.00    -0.270 C  
ENDBRANCH  15  16
ENDBRANCH  14  15
ENDBRANCH  13  14
BRANCH  13  18
HETATM   18  C   UNL     1     -11.152   5.601  73.047  1.00  0.00    -0.282 C  
BRANCH  18  19
HETATM   19  C   UNL     1     -10.753   7.092  73.151  1.00  0.00    -0.385 C  
BRANCH  19  20
HETATM   20  C   UNL     1     -11.783   8.070  72.559  1.00  0.00    -0.446 C  
HETATM   21  C   UNL     1     -11.167   8.870  71.405  1.00  0.00    -0.382 C  
ENDBRANCH  19  20
ENDBRANCH  18  19
ENDBRANCH  13  18
ENDBRANCH   8  13
ENDBRANCH   5   6
BRANCH   5  22
HETATM   22  C   UNL     1      -6.506   8.887  66.133  1.00  0.00    -0.065 C  
BRANCH  22  23
HETATM   23  C   UNL     1      -6.938   9.496  64.786  1.00  0.00    -0.104 C  
BRANCH  23  24
HETATM   24  C   UNL     1      -5.956   9.261  63.631  1.00  0.00    -0.088 C  
HETATM   25  C   UNL     1      -6.106   7.838  63.081  1.00  0.00    -0.066 C  
ENDBRANCH  23  24
ENDBRANCH  22  23
ENDBRANCH   5  22
ENDBRANCH   4   5
ENDBRANCH   3   4
ENDBRANCH   2   3
TORSDOF 14
ENDMDL
MODEL      259
REMARK 921   NORMALIZED FREE ENERGY PREDICTED BY IDOCK:   -2.55 KCAL/MOL
REMARK 922        TOTAL FREE ENERGY PREDICTED BY IDOCK:   -6.02 KCAL/MOL
REMARK 923 INTER-LIGAND FREE ENERGY PREDICTED BY IDOCK:   -4.77 KCAL/MOL
REMARK 924 INTRA-LIGAND FREE ENERGY PREDICTED BY IDOCK:   -1.26 KCAL/MOL
REMARK 927      BINDING AFFINITY PREDICTED BY RF-SCORE:    0.00 PKD
ROOT
HETATM    1  C   UNL     1      -9.522  17.526  66.354  1.00  0.00    -0.276 C  
HETATM    2  C   UNL     1     -10.494  16.746  65.467  1.00  0.00    -0.254 C  
ENDROOT
BRANCH   2   3
HETATM    3  C   UNL     1     -10.050  15.280  65.296  1.00  0.00    -0.362 C  
BRANCH   3   4
HETATM    4  C   UNL     1      -9.071  14.847  66.408  1.00  0.00    -0.258 C  
BRANCH   4   5
HETATM    5  N   UNL     1      -9.529  13.656  67.146  1.00  0.00    -0.235 NA 
BRANCH   5   6
HETATM    6  C   UNL     1      -9.409  12.340  66.533  1.00  0.00    -0.230 C  
HETATM    7  S   UNL     1      -7.797  11.458  66.497  1.00  0.00    -0.056 SA 
HETATM    8  C   UNL     1      -8.883   7.547  67.279  1.00  0.00    -0.124 C  
HETATM    9  S   UNL     1     -10.720  11.404  66.099  1.00  0.00    -0.247 SA 
HETATM   10 ZN   UNL     1      -9.227   9.889  66.609  1.00  0.00    -0.136 Zn 
HETATM   11  S   UNL     1      -8.500   8.034  65.737  1.00  0.00    -0.149 SA 
HETATM   12  S   UNL     1      -9.757   8.763  68.344  1.00  0.00    -0.166 SA 
BRANCH   8  13
HETATM   13  N   UNL     1      -8.318   6.365  67.872  1.00  0.00    -0.118 NA 
BRANCH  13  14
HETATM   14  C   UNL     1      -7.315   5.561  67.176  1.00  0.00    -0.080 C  
BRANCH  14  15
HETATM   15  C   UNL     1      -7.950   4.617  66.125  1.00  0.00    -0.103 C  
BRANCH  15  16
HETATM   16  C   UNL     1      -7.089   4.389  64.867  1.00  0.00    -0.062 C  
HETATM   17  C   UNL     1      -7.135   2.920  64.431  1.00  0.00    -0.049 C  
ENDBRANCH  15  16
ENDBRANCH  14  15
ENDBRANCH  13  14
BRANCH  13  18
HETATM   18  C   UNL     1      -8.737   5.966  69.220  1.00  0.00    -0.119 C  
BRANCH  18  19
HETATM   19  C   UNL     1      -9.952   5.008  69.197  1.00  0.00    -0.267 C  
BRANCH  19  20
HETATM   20  C   UNL     1      -9.653   3.586  69.705  1.00  0.00    -0.206 C  
HETATM   21  C   UNL     1      -8.151   3.407  69.956  1.00  0.00    -0.057 C  
ENDBRANCH  19  20
ENDBRANCH  18  19
ENDBRANCH  13  18
ENDBRANCH   8  13
ENDBRANCH   5   6
BRANCH   5  22
HETATM   22  C   UNL     1     -10.039  13.812  68.515  1.00  0.00    -0.225 C  
BRANCH  22  23
HETATM   23  C   UNL     1     -11.486  14.329  68.628  1.00  0.00    -0.328 C  
BRANCH  23  24
HETATM   24  C   UNL     1     -11.609  15.832  68.915  1.00  0.00    -0.400 C  
HETATM   25  C   UNL     1     -10.385  16.331  69.692  1.00  0.00    -0.261 C  
ENDBRANCH  23  24
ENDBRANCH  22  23
ENDBRANCH   5  22
ENDBRANCH   4   5
ENDBRANCH   3   4
ENDBRANCH   2   3
TORSDOF 14
ENDMDL
MODEL      260
REMARK 921   NORMALIZED FREE ENERGY PREDICTED BY IDOCK:   -2.55 KCAL/MOL
REMARK 922        TOTAL FREE ENERGY PREDICTED BY IDOCK:   -6.02 KCAL/MOL
REMARK 923 INTER-LIGAND FREE ENERGY PREDICTED BY IDOCK:   -4.91 KCAL/MOL
REMARK 924 INTRA-LIGAND FREE ENERGY PREDICTED BY IDOCK:   -1.10 KCAL/MOL
REMARK 927      BINDING AFFINITY PREDICTED BY RF-SCORE:    0.00 PKD
ROOT
HETATM    1  C   UNL     1      -5.546  19.992  70.508  1.00  0.00    -0.317 C  
HETATM    2  C   UNL     1      -6.374  19.952  69.223  1.00  0.00    -0.365 C  
ENDROOT
BRANCH   2   3
HETATM    3  C   UNL     1      -6.939  18.543  68.959  1.00  0.00    -0.286 C  
BRANCH   3   4
HETATM    4  C   UNL     1      -6.243  17.864  67.761  1.00  0.00    -0.165 C  
BRANCH   4   5
HETATM    5  N   UNL     1      -6.973  16.682  67.266  1.00  0.00    -0.158 NA 
BRANCH   5   6
HETATM    6  C   UNL     1      -6.760  15.388  67.900  1.00  0.00    -0.160 C  
HETATM    7  S   UNL     1      -7.950  14.735  69.138  1.00  0.00    -0.096 SA 
HETATM    8  C   UNL     1      -8.160  10.722  68.171  1.00  0.00    -0.117 C  
HETATM    9  S   UNL     1      -5.637  14.276  67.365  1.00  0.00     0.573 SA 
HETATM   10 ZN   UNL     1      -7.199  12.987  68.192  1.00  0.00    -0.073 Zn 
HETATM   11  S   UNL     1      -7.281  11.238  69.483  1.00  0.00     0.057 SA 
HETATM   12  S   UNL     1      -8.179  11.819  66.697  1.00  0.00    -0.065 SA 
BRANCH   8  13
HETATM   13  N   UNL     1      -9.098   9.636  68.256  1.00  0.00    -0.123 NA 
BRANCH  13  14
HETATM   14  C   UNL     1      -9.627   8.982  67.060  1.00  0.00    -0.176 C  
BRANCH  14  15
HETATM   15  C   UNL     1      -9.332   7.461  67.048  1.00  0.00    -0.183 C  
BRANCH  15  16
HETATM   16  C   UNL     1     -10.579   6.569  66.885  1.00  0.00    -0.376 C  
HETATM   17  C   UNL     1     -11.131   6.146  68.252  1.00  0.00    -0.336 C  
ENDBRANCH  15  16
ENDBRANCH  14  15
ENDBRANCH  13  14
BRANCH  13  18
HETATM   18  C   UNL     1      -9.518   9.150  69.576  1.00  0.00    -0.168 C  
BRANCH  18  19
HETATM   19  C   UNL     1     -11.032   9.355  69.822  1.00  0.00    -0.234 C  
BRANCH  19  20
HETATM   20  C   UNL     1     -11.471  10.828  69.902  1.00  0.00    -0.398 C  
HETATM   21  C   UNL     1     -12.494  11.026  71.027  1.00  0.00    -0.512 C  
ENDBRANCH  19  20
ENDBRANCH  18  19
ENDBRANCH  13  18
ENDBRANCH   8  13
ENDBRANCH   5   6
BRANCH   5  22
HETATM   22  C   UNL     1      -7.953  16.846  66.183  1.00  0.00    -0.255 C  
BRANCH  22  23
HETATM   23  C   UNL     1      -9.381  17.210  66.631  1.00  0.00    -0.277 C  
BRANCH  23  24
HETATM   24  C   UNL     1     -10.471  16.244  66.145  1.00  0.00    -0.330 C  
HETATM   25  C   UNL     1      -9.841  14.963  65.587  1.00  0.00    -0.372 C  
ENDBRANCH  23  24
ENDBRANCH  22  23
ENDBRANCH   5  22
ENDBRANCH   4   5
ENDBRANCH   3   4
ENDBRANCH   2   3
TORSDOF 14
ENDMDL
MODEL      261
REMARK 921   NORMALIZED FREE ENERGY PREDICTED BY IDOCK:   -2.54 KCAL/MOL
REMARK 922        TOTAL FREE ENERGY PREDICTED BY IDOCK:   -6.01 KCAL/MOL
REMARK 923 INTER-LIGAND FREE ENERGY PREDICTED BY IDOCK:   -5.25 KCAL/MOL
REMARK 924 INTRA-LIGAND FREE ENERGY PREDICTED BY IDOCK:   -0.75 KCAL/MOL
REMARK 927      BINDING AFFINITY PREDICTED BY RF-SCORE:    0.00 PKD
ROOT
HETATM    1  C   UNL     1     -12.096  15.537  69.331  1.00  0.00    -0.302 C  
HETATM    2  C   UNL     1     -11.020  16.058  68.377  1.00  0.00    -0.331 C  
ENDROOT
BRANCH   2   3
HETATM    3  C   UNL     1     -10.762  15.069  67.224  1.00  0.00    -0.298 C  
BRANCH   3   4
HETATM    4  C   UNL     1     -11.716  13.856  67.288  1.00  0.00    -0.386 C  
BRANCH   4   5
HETATM    5  N   UNL     1     -11.044  12.580  66.983  1.00  0.00    -0.267 NA 
BRANCH   5   6
HETATM    6  C   UNL     1     -10.266  11.912  68.018  1.00  0.00    -0.192 C  
HETATM    7  S   UNL     1     -11.025  10.630  69.092  1.00  0.00    -0.267 SA 
HETATM    8  C   UNL     1      -8.025   7.803  69.395  1.00  0.00    -0.124 C  
HETATM    9  S   UNL     1      -8.603  12.009  68.125  1.00  0.00    -0.175 SA 
HETATM   10 ZN   UNL     1      -8.997  10.015  68.932  1.00  0.00    -0.114 Zn 
HETATM   11  S   UNL     1      -8.340   8.849  70.647  1.00  0.00    -0.184 SA 
HETATM   12  S   UNL     1      -8.226   8.458  67.690  1.00  0.00    -0.127 SA 
BRANCH   8  13
HETATM   13  N   UNL     1      -7.889   6.385  69.596  1.00  0.00    -0.106 NA 
BRANCH  13  14
HETATM   14  C   UNL     1      -8.041   5.780  70.918  1.00  0.00    -0.119 C  
BRANCH  14  15
HETATM   15  C   UNL     1      -9.422   5.101  71.094  1.00  0.00    -0.205 C  
BRANCH  15  16
HETATM   16  C   UNL     1     -10.620   6.071  71.064  1.00  0.00    -0.305 C  
HETATM   17  C   UNL     1     -11.394   6.025  72.387  1.00  0.00    -0.349 C  
ENDBRANCH  15  16
ENDBRANCH  14  15
ENDBRANCH  13  14
BRANCH  13  18
HETATM   18  C   UNL     1      -7.619   5.517  68.444  1.00  0.00    -0.084 C  
BRANCH  18  19
HETATM   19  C   UNL     1      -6.345   4.662  68.641  1.00  0.00    -0.036 C  
BRANCH  19  20
HETATM   20  C   UNL     1      -6.338   3.339  67.854  1.00  0.00    -0.036 C  
HETATM   21  C   UNL     1      -7.123   3.485  66.545  1.00  0.00    -0.063 C  
ENDBRANCH  19  20
ENDBRANCH  18  19
ENDBRANCH  13  18
ENDBRANCH   8  13
ENDBRANCH   5   6
BRANCH   5  22
HETATM   22  C   UNL     1     -11.227  11.971  65.659  1.00  0.00    -0.327 C  
BRANCH  22  23
HETATM   23  C   UNL     1     -10.727  10.520  65.521  1.00  0.00    -0.047 C  
BRANCH  23  24
HETATM   24  C   UNL     1      -9.770  10.281  64.346  1.00  0.00    -0.381 C  
HETATM   25  C   UNL     1      -9.902  11.404  63.310  1.00  0.00    -0.428 C  
ENDBRANCH  23  24
ENDBRANCH  22  23
ENDBRANCH   5  22
ENDBRANCH   4   5
ENDBRANCH   3   4
ENDBRANCH   2   3
TORSDOF 14
ENDMDL
MODEL      262
REMARK 921   NORMALIZED FREE ENERGY PREDICTED BY IDOCK:   -2.54 KCAL/MOL
REMARK 922        TOTAL FREE ENERGY PREDICTED BY IDOCK:   -6.00 KCAL/MOL
REMARK 923 INTER-LIGAND FREE ENERGY PREDICTED BY IDOCK:   -4.99 KCAL/MOL
REMARK 924 INTRA-LIGAND FREE ENERGY PREDICTED BY IDOCK:   -1.01 KCAL/MOL
REMARK 927      BINDING AFFINITY PREDICTED BY RF-SCORE:    0.00 PKD
ROOT
HETATM    1  C   UNL     1     -13.480   7.267  71.594  1.00  0.00    -0.428 C  
HETATM    2  C   UNL     1     -12.152   7.550  72.297  1.00  0.00    -0.269 C  
ENDROOT
BRANCH   2   3
HETATM    3  C   UNL     1     -11.350   6.255  72.532  1.00  0.00    -0.313 C  
BRANCH   3   4
HETATM    4  C   UNL     1      -9.845   6.456  72.252  1.00  0.00    -0.157 C  
BRANCH   4   5
HETATM    5  N   UNL     1      -9.354   5.636  71.130  1.00  0.00    -0.152 NA 
BRANCH   5   6
HETATM    6  C   UNL     1      -9.153   6.250  69.824  1.00  0.00    -0.143 C  
HETATM    7  S   UNL     1     -10.565   6.961  68.888  1.00  0.00    -0.220 SA 
HETATM    8  C   UNL     1      -8.948  10.411  67.286  1.00  0.00    -0.135 C  
HETATM    9  S   UNL     1      -7.650   6.636  69.211  1.00  0.00    -0.102 SA 
HETATM   10 ZN   UNL     1      -8.918   8.178  68.317  1.00  0.00    -0.128 Zn 
HETATM   11  S   UNL     1      -9.176   9.060  66.346  1.00  0.00    -0.206 SA 
HETATM   12  S   UNL     1      -8.464  10.136  69.036  1.00  0.00    -0.161 SA 
BRANCH   8  13
HETATM   13  N   UNL     1      -9.381  11.717  66.868  1.00  0.00    -0.187 NA 
BRANCH  13  14
HETATM   14  C   UNL     1      -9.626  12.032  65.462  1.00  0.00    -0.159 C  
BRANCH  14  15
HETATM   15  C   UNL     1     -11.137  12.030  65.118  1.00  0.00    -0.369 C  
BRANCH  15  16
HETATM   16  C   UNL     1     -11.466  11.565  63.686  1.00  0.00    -0.374 C  
HETATM   17  C   UNL     1     -12.821  12.120  63.229  1.00  0.00    -0.312 C  
ENDBRANCH  15  16
ENDBRANCH  14  15
ENDBRANCH  13  14
BRANCH  13  18
HETATM   18  C   UNL     1      -9.610  12.756  67.879  1.00  0.00    -0.211 C  
BRANCH  18  19
HETATM   19  C   UNL     1      -8.604  13.925  67.756  1.00  0.00    -0.182 C  
BRANCH  19  20
HETATM   20  C   UNL     1      -7.412  13.844  68.726  1.00  0.00    -0.114 C  
HETATM   21  C   UNL     1      -6.127  13.477  67.973  1.00  0.00    -0.133 C  
ENDBRANCH  19  20
ENDBRANCH  18  19
ENDBRANCH  13  18
ENDBRANCH   8  13
ENDBRANCH   5   6
BRANCH   5  22
HETATM   22  C   UNL     1      -9.014   4.226  71.368  1.00  0.00    -0.119 C  
BRANCH  22  23
HETATM   23  C   UNL     1      -9.741   3.209  70.468  1.00  0.00    -0.118 C  
BRANCH  23  24
HETATM   24  C   UNL     1      -8.826   2.425  69.518  1.00  0.00    -0.148 C  
HETATM   25  C   UNL     1      -9.634   1.849  68.349  1.00  0.00    -0.157 C  
ENDBRANCH  23  24
ENDBRANCH  22  23
ENDBRANCH   5  22
ENDBRANCH   4   5
ENDBRANCH   3   4
ENDBRANCH   2   3
TORSDOF 14
ENDMDL
MODEL      263
REMARK 921   NORMALIZED FREE ENERGY PREDICTED BY IDOCK:   -2.54 KCAL/MOL
REMARK 922        TOTAL FREE ENERGY PREDICTED BY IDOCK:   -6.00 KCAL/MOL
REMARK 923 INTER-LIGAND FREE ENERGY PREDICTED BY IDOCK:   -5.83 KCAL/MOL
REMARK 924 INTRA-LIGAND FREE ENERGY PREDICTED BY IDOCK:   -0.17 KCAL/MOL
REMARK 927      BINDING AFFINITY PREDICTED BY RF-SCORE:    0.00 PKD
ROOT
HETATM    1  C   UNL     1     -11.281   5.137  73.294  1.00  0.00    -0.389 C  
HETATM    2  C   UNL     1     -11.603   5.754  71.932  1.00  0.00    -0.184 C  
ENDROOT
BRANCH   2   3
HETATM    3  C   UNL     1     -10.404   5.651  70.969  1.00  0.00    -0.297 C  
BRANCH   3   4
HETATM    4  C   UNL     1     -10.445   6.752  69.887  1.00  0.00    -0.211 C  
BRANCH   4   5
HETATM    5  N   UNL     1      -9.113   7.303  69.577  1.00  0.00    -0.143 NA 
BRANCH   5   6
HETATM    6  C   UNL     1      -8.947   8.174  68.420  1.00  0.00    -0.136 C  
HETATM    7  S   UNL     1     -10.404   8.806  67.497  1.00  0.00    -0.272 SA 
HETATM    8  C   UNL     1      -9.330  12.710  66.666  1.00  0.00    -0.236 C  
HETATM    9  S   UNL     1      -7.502   8.906  68.020  1.00  0.00    -0.093 SA 
HETATM   10 ZN   UNL     1      -8.968  10.359  67.295  1.00  0.00    -0.128 Zn 
HETATM   11  S   UNL     1      -9.261  11.538  65.490  1.00  0.00    -0.082 SA 
HETATM   12  S   UNL     1      -8.909  12.198  68.379  1.00  0.00    -0.097 SA 
BRANCH   8  13
HETATM   13  N   UNL     1      -9.962  13.982  66.443  1.00  0.00    -0.285 NA 
BRANCH  13  14
HETATM   14  C   UNL     1     -11.413  14.108  66.322  1.00  0.00    -0.352 C  
BRANCH  14  15
HETATM   15  C   UNL     1     -12.073  12.799  65.822  1.00  0.00    -0.505 C  
BRANCH  15  16
HETATM   16  C   UNL     1     -12.868  12.945  64.509  1.00  0.00    -0.273 C  
HETATM   17  C   UNL     1     -12.339  11.981  63.439  1.00  0.00    -0.635 C  
ENDBRANCH  15  16
ENDBRANCH  14  15
ENDBRANCH  13  14
BRANCH  13  18
HETATM   18  C   UNL     1      -9.135  15.191  66.360  1.00  0.00    -0.296 C  
BRANCH  18  19
HETATM   19  C   UNL     1      -9.811  16.411  67.030  1.00  0.00    -0.253 C  
BRANCH  19  20
HETATM   20  C   UNL     1      -9.213  17.772  66.629  1.00  0.00    -0.280 C  
HETATM   21  C   UNL     1      -9.570  18.845  67.665  1.00  0.00    -0.351 C  
ENDBRANCH  19  20
ENDBRANCH  18  19
ENDBRANCH  13  18
ENDBRANCH   8  13
ENDBRANCH   5   6
BRANCH   5  22
HETATM   22  C   UNL     1      -7.990   7.017  70.479  1.00  0.00    -0.113 C  
BRANCH  22  23
HETATM   23  C   UNL     1      -7.985   7.806  71.802  1.00  0.00    -0.104 C  
BRANCH  23  24
HETATM   24  C   UNL     1      -6.701   8.603  72.069  1.00  0.00    -0.078 C  
HETATM   25  C   UNL     1      -5.554   8.079  71.198  1.00  0.00    -0.033 C  
ENDBRANCH  23  24
ENDBRANCH  22  23
ENDBRANCH   5  22
ENDBRANCH   4   5
ENDBRANCH   3   4
ENDBRANCH   2   3
TORSDOF 14
ENDMDL
MODEL      264
REMARK 921   NORMALIZED FREE ENERGY PREDICTED BY IDOCK:   -2.54 KCAL/MOL
REMARK 922        TOTAL FREE ENERGY PREDICTED BY IDOCK:   -6.00 KCAL/MOL
REMARK 923 INTER-LIGAND FREE ENERGY PREDICTED BY IDOCK:   -4.70 KCAL/MOL
REMARK 924 INTRA-LIGAND FREE ENERGY PREDICTED BY IDOCK:   -1.30 KCAL/MOL
REMARK 927      BINDING AFFINITY PREDICTED BY RF-SCORE:    0.00 PKD
ROOT
HETATM    1  C   UNL     1      -8.366  19.393  66.462  1.00  0.00    -0.342 C  
HETATM    2  C   UNL     1      -9.844  19.145  66.153  1.00  0.00    -0.397 C  
ENDROOT
BRANCH   2   3
HETATM    3  C   UNL     1     -10.332  17.816  66.762  1.00  0.00    -0.343 C  
BRANCH   3   4
HETATM    4  C   UNL     1      -9.437  16.631  66.338  1.00  0.00    -0.280 C  
BRANCH   4   5
HETATM    5  N   UNL     1      -9.470  15.513  67.297  1.00  0.00    -0.211 NA 
BRANCH   5   6
HETATM    6  C   UNL     1      -9.874  14.188  66.843  1.00  0.00    -0.265 C  
HETATM    7  S   UNL     1      -8.648  12.830  66.681  1.00  0.00     0.085 SA 
HETATM    8  C   UNL     1     -10.727   9.553  68.102  1.00  0.00    -0.197 C  
HETATM    9  S   UNL     1     -11.466  13.702  66.730  1.00  0.00    -0.364 SA 
HETATM   10 ZN   UNL     1     -10.447  11.824  67.201  1.00  0.00    -0.196 Zn 
HETATM   11  S   UNL     1     -10.498   9.776  66.472  1.00  0.00    -0.088 SA 
HETATM   12  S   UNL     1     -10.977  11.060  69.122  1.00  0.00    -0.255 SA 
BRANCH   8  13
HETATM   13  N   UNL     1     -10.458   8.297  68.749  1.00  0.00    -0.204 NA 
BRANCH  13  14
HETATM   14  C   UNL     1      -9.643   8.216  69.960  1.00  0.00    -0.171 C  
BRANCH  14  15
HETATM   15  C   UNL     1      -8.131   8.377  69.657  1.00  0.00    -0.115 C  
BRANCH  15  16
HETATM   16  C   UNL     1      -7.260   7.187  70.106  1.00  0.00    -0.078 C  
HETATM   17  C   UNL     1      -7.393   6.951  71.616  1.00  0.00    -0.084 C  
ENDBRANCH  15  16
ENDBRANCH  14  15
ENDBRANCH  13  14
BRANCH  13  18
HETATM   18  C   UNL     1     -11.036   7.066  68.199  1.00  0.00    -0.021 C  
BRANCH  18  19
HETATM   19  C   UNL     1      -9.992   6.220  67.432  1.00  0.00    -0.168 C  
BRANCH  19  20
HETATM   20  C   UNL     1     -10.169   4.698  67.583  1.00  0.00    -0.048 C  
HETATM   21  C   UNL     1      -9.623   4.222  68.934  1.00  0.00    -0.227 C  
ENDBRANCH  19  20
ENDBRANCH  18  19
ENDBRANCH  13  18
ENDBRANCH   8  13
ENDBRANCH   5   6
BRANCH   5  22
HETATM   22  C   UNL     1      -9.031  15.741  68.680  1.00  0.00    -0.204 C  
BRANCH  22  23
HETATM   23  C   UNL     1      -7.725  16.544  68.837  1.00  0.00    -0.236 C  
BRANCH  23  24
HETATM   24  C   UNL     1      -6.464  15.817  68.352  1.00  0.00    -0.113 C  
HETATM   25  C   UNL     1      -5.628  16.737  67.455  1.00  0.00    -0.180 C  
ENDBRANCH  23  24
ENDBRANCH  22  23
ENDBRANCH   5  22
ENDBRANCH   4   5
ENDBRANCH   3   4
ENDBRANCH   2   3
TORSDOF 14
ENDMDL
MODEL      265
REMARK 921   NORMALIZED FREE ENERGY PREDICTED BY IDOCK:   -2.54 KCAL/MOL
REMARK 922        TOTAL FREE ENERGY PREDICTED BY IDOCK:   -6.00 KCAL/MOL
REMARK 923 INTER-LIGAND FREE ENERGY PREDICTED BY IDOCK:   -6.16 KCAL/MOL
REMARK 924 INTRA-LIGAND FREE ENERGY PREDICTED BY IDOCK:    0.16 KCAL/MOL
REMARK 927      BINDING AFFINITY PREDICTED BY RF-SCORE:    0.00 PKD
ROOT
HETATM    1  C   UNL     1     -13.889  13.278  72.269  1.00  0.00    -0.637 C  
HETATM    2  C   UNL     1     -12.589  13.056  71.495  1.00  0.00    -0.279 C  
ENDROOT
BRANCH   2   3
HETATM    3  C   UNL     1     -12.229  11.559  71.413  1.00  0.00    -0.086 C  
BRANCH   3   4
HETATM    4  C   UNL     1     -12.336  11.025  69.969  1.00  0.00    -0.305 C  
BRANCH   4   5
HETATM    5  N   UNL     1     -11.022  10.822  69.332  1.00  0.00    -0.237 NA 
BRANCH   5   6
HETATM    6  C   UNL     1     -10.574  11.745  68.298  1.00  0.00    -0.211 C  
HETATM    7  S   UNL     1     -11.280  13.436  68.170  1.00  0.00    -0.292 SA 
HETATM    8  C   UNL     1      -7.967  15.741  67.276  1.00  0.00    -0.186 C  
HETATM    9  S   UNL     1      -9.216  11.489  67.362  1.00  0.00    -0.169 SA 
HETATM   10 ZN   UNL     1      -9.283  13.672  67.483  1.00  0.00    -0.173 Zn 
HETATM   11  S   UNL     1      -9.067  15.336  66.098  1.00  0.00    -0.196 SA 
HETATM   12  S   UNL     1      -7.640  14.486  68.578  1.00  0.00    -0.130 SA 
BRANCH   8  13
HETATM   13  N   UNL     1      -7.505  17.090  67.461  1.00  0.00    -0.158 NA 
BRANCH  13  14
HETATM   14  C   UNL     1      -8.367  18.126  68.028  1.00  0.00    -0.261 C  
BRANCH  14  15
HETATM   15  C   UNL     1      -8.373  19.414  67.168  1.00  0.00    -0.315 C  
BRANCH  15  16
HETATM   16  C   UNL     1      -9.737  20.129  67.097  1.00  0.00    -0.576 C  
HETATM   17  C   UNL     1     -10.629  19.500  66.020  1.00  0.00    -0.589 C  
ENDBRANCH  15  16
ENDBRANCH  14  15
ENDBRANCH  13  14
BRANCH  13  18
HETATM   18  C   UNL     1      -6.125  17.434  67.099  1.00  0.00    -0.146 C  
BRANCH  18  19
HETATM   19  C   UNL     1      -5.197  17.509  68.334  1.00  0.00    -0.143 C  
BRANCH  19  20
HETATM   20  C   UNL     1      -5.934  17.572  69.684  1.00  0.00    -0.252 C  
HETATM   21  C   UNL     1      -5.278  16.633  70.703  1.00  0.00    -0.208 C  
ENDBRANCH  19  20
ENDBRANCH  18  19
ENDBRANCH  13  18
ENDBRANCH   8  13
ENDBRANCH   5   6
BRANCH   5  22
HETATM   22  C   UNL     1     -10.159   9.729  69.801  1.00  0.00    -0.239 C  
BRANCH  22  23
HETATM   23  C   UNL     1      -9.763   8.693  68.731  1.00  0.00    -0.171 C  
BRANCH  23  24
HETATM   24  C   UNL     1      -8.623   7.752  69.142  1.00  0.00    -0.138 C  
HETATM   25  C   UNL     1      -7.391   8.558  69.571  1.00  0.00    -0.065 C  
ENDBRANCH  23  24
ENDBRANCH  22  23
ENDBRANCH   5  22
ENDBRANCH   4   5
ENDBRANCH   3   4
ENDBRANCH   2   3
TORSDOF 14
ENDMDL
MODEL      266
REMARK 921   NORMALIZED FREE ENERGY PREDICTED BY IDOCK:   -2.53 KCAL/MOL
REMARK 922        TOTAL FREE ENERGY PREDICTED BY IDOCK:   -5.98 KCAL/MOL
REMARK 923 INTER-LIGAND FREE ENERGY PREDICTED BY IDOCK:   -5.03 KCAL/MOL
REMARK 924 INTRA-LIGAND FREE ENERGY PREDICTED BY IDOCK:   -0.96 KCAL/MOL
REMARK 927      BINDING AFFINITY PREDICTED BY RF-SCORE:    0.00 PKD
ROOT
HETATM    1  C   UNL     1      -5.644  16.110  68.325  1.00  0.00    -0.107 C  
HETATM    2  C   UNL     1      -6.549  16.044  69.557  1.00  0.00    -0.201 C  
ENDROOT
BRANCH   2   3
HETATM    3  C   UNL     1      -7.946  15.501  69.201  1.00  0.00    -0.222 C  
BRANCH   3   4
HETATM    4  C   UNL     1      -7.981  14.905  67.777  1.00  0.00    -0.150 C  
BRANCH   4   5
HETATM    5  N   UNL     1      -9.031  13.885  67.606  1.00  0.00    -0.182 NA 
BRANCH   5   6
HETATM    6  C   UNL     1      -8.656  12.483  67.470  1.00  0.00    -0.183 C  
HETATM    7  S   UNL     1      -7.448  11.713  68.620  1.00  0.00    -0.114 SA 
HETATM    8  C   UNL     1      -9.081   7.975  69.285  1.00  0.00    -0.148 C  
HETATM    9  S   UNL     1      -9.478  11.401  66.502  1.00  0.00    -0.206 SA 
HETATM   10 ZN   UNL     1      -8.751  10.112  68.113  1.00  0.00    -0.112 Zn 
HETATM   11  S   UNL     1      -7.785   8.170  68.264  1.00  0.00    -0.115 SA 
HETATM   12  S   UNL     1     -10.332   9.321  69.310  1.00  0.00    -0.220 SA 
BRANCH   8  13
HETATM   13  N   UNL     1      -9.103   6.970  70.314  1.00  0.00    -0.156 NA 
BRANCH  13  14
HETATM   14  C   UNL     1      -9.935   7.111  71.507  1.00  0.00    -0.182 C  
BRANCH  14  15
HETATM   15  C   UNL     1     -10.762   5.832  71.795  1.00  0.00    -0.305 C  
BRANCH  15  16
HETATM   16  C   UNL     1     -12.189   6.097  72.314  1.00  0.00    -0.175 C  
HETATM   17  C   UNL     1     -12.915   7.113  71.422  1.00  0.00    -0.419 C  
ENDBRANCH  15  16
ENDBRANCH  14  15
ENDBRANCH  13  14
BRANCH  13  18
HETATM   18  C   UNL     1      -8.290   5.759  70.153  1.00  0.00    -0.117 C  
BRANCH  18  19
HETATM   19  C   UNL     1      -7.081   5.732  71.119  1.00  0.00    -0.069 C  
BRANCH  19  20
HETATM   20  C   UNL     1      -7.174   4.667  72.226  1.00  0.00    -0.079 C  
HETATM   21  C   UNL     1      -7.489   3.291  71.628  1.00  0.00    -0.047 C  
ENDBRANCH  19  20
ENDBRANCH  18  19
ENDBRANCH  13  18
ENDBRANCH   8  13
ENDBRANCH   5   6
BRANCH   5  22
HETATM   22  C   UNL     1     -10.442  14.294  67.641  1.00  0.00    -0.248 C  
BRANCH  22  23
HETATM   23  C   UNL     1     -11.004  14.850  66.319  1.00  0.00    -0.338 C  
BRANCH  23  24
HETATM   24  C   UNL     1     -12.203  14.076  65.756  1.00  0.00    -0.475 C  
HETATM   25  C   UNL     1     -12.165  14.068  64.224  1.00  0.00    -0.453 C  
ENDBRANCH  23  24
ENDBRANCH  22  23
ENDBRANCH   5  22
ENDBRANCH   4   5
ENDBRANCH   3   4
ENDBRANCH   2   3
TORSDOF 14
ENDMDL
MODEL      267
REMARK 921   NORMALIZED FREE ENERGY PREDICTED BY IDOCK:   -2.52 KCAL/MOL
REMARK 922        TOTAL FREE ENERGY PREDICTED BY IDOCK:   -5.96 KCAL/MOL
REMARK 923 INTER-LIGAND FREE ENERGY PREDICTED BY IDOCK:   -5.56 KCAL/MOL
REMARK 924 INTRA-LIGAND FREE ENERGY PREDICTED BY IDOCK:   -0.40 KCAL/MOL
REMARK 927      BINDING AFFINITY PREDICTED BY RF-SCORE:    0.00 PKD
ROOT
HETATM    1  C   UNL     1     -14.408  14.780  71.909  1.00  0.00    -0.657 C  
HETATM    2  C   UNL     1     -13.309  13.831  71.430  1.00  0.00    -0.340 C  
ENDROOT
BRANCH   2   3
HETATM    3  C   UNL     1     -12.448  14.477  70.327  1.00  0.00    -0.405 C  
BRANCH   3   4
HETATM    4  C   UNL     1     -11.312  13.538  69.866  1.00  0.00    -0.031 C  
BRANCH   4   5
HETATM    5  N   UNL     1     -11.720  12.632  68.777  1.00  0.00    -0.308 NA 
BRANCH   5   6
HETATM    6  C   UNL     1     -11.829  11.202  69.033  1.00  0.00    -0.348 C  
HETATM    7  S   UNL     1     -11.011   9.980  67.932  1.00  0.00    -0.192 SA 
HETATM    8  C   UNL     1      -9.563   7.177  70.603  1.00  0.00    -0.165 C  
HETATM    9  S   UNL     1     -12.415  10.566  70.460  1.00  0.00    -0.336 SA 
HETATM   10 ZN   UNL     1     -10.972   9.044  69.841  1.00  0.00    -0.210 Zn 
HETATM   11  S   UNL     1     -10.928   6.874  69.705  1.00  0.00    -0.268 SA 
HETATM   12  S   UNL     1      -9.302   8.907  71.164  1.00  0.00    -0.267 SA 
BRANCH   8  13
HETATM   13  N   UNL     1      -8.484   6.231  70.701  1.00  0.00    -0.133 NA 
BRANCH  13  14
HETATM   14  C   UNL     1      -8.182   5.538  71.952  1.00  0.00    -0.119 C  
BRANCH  14  15
HETATM   15  C   UNL     1      -8.929   6.160  73.159  1.00  0.00    -0.130 C  
BRANCH  15  16
HETATM   16  C   UNL     1      -8.114   7.206  73.944  1.00  0.00    -0.142 C  
HETATM   17  C   UNL     1      -6.623   7.107  73.602  1.00  0.00    -0.065 C  
ENDBRANCH  15  16
ENDBRANCH  14  15
ENDBRANCH  13  14
BRANCH  13  18
HETATM   18  C   UNL     1      -7.681   5.931  69.511  1.00  0.00    -0.097 C  
BRANCH  18  19
HETATM   19  C   UNL     1      -6.350   5.225  69.865  1.00  0.00    -0.026 C  
BRANCH  19  20
HETATM   20  C   UNL     1      -5.253   5.360  68.794  1.00  0.00     0.000 C  
HETATM   21  C   UNL     1      -5.761   4.865  67.435  1.00  0.00    -0.017 C  
ENDBRANCH  19  20
ENDBRANCH  18  19
ENDBRANCH  13  18
ENDBRANCH   8  13
ENDBRANCH   5   6
BRANCH   5  22
HETATM   22  C   UNL     1     -12.073  13.199  67.468  1.00  0.00    -0.248 C  
BRANCH  22  23
HETATM   23  C   UNL     1     -10.914  13.306  66.458  1.00  0.00    -0.299 C  
BRANCH  23  24
HETATM   24  C   UNL     1     -10.373  14.728  66.254  1.00  0.00    -0.305 C  
HETATM   25  C   UNL     1     -10.982  15.357  64.995  1.00  0.00    -0.450 C  
ENDBRANCH  23  24
ENDBRANCH  22  23
ENDBRANCH   5  22
ENDBRANCH   4   5
ENDBRANCH   3   4
ENDBRANCH   2   3
TORSDOF 14
ENDMDL
MODEL      268
REMARK 921   NORMALIZED FREE ENERGY PREDICTED BY IDOCK:   -2.52 KCAL/MOL
REMARK 922        TOTAL FREE ENERGY PREDICTED BY IDOCK:   -5.96 KCAL/MOL
REMARK 923 INTER-LIGAND FREE ENERGY PREDICTED BY IDOCK:   -5.14 KCAL/MOL
REMARK 924 INTRA-LIGAND FREE ENERGY PREDICTED BY IDOCK:   -0.82 KCAL/MOL
REMARK 927      BINDING AFFINITY PREDICTED BY RF-SCORE:    0.00 PKD
ROOT
HETATM    1  C   UNL     1     -10.603   5.501  70.586  1.00  0.00    -0.329 C  
HETATM    2  C   UNL     1      -9.595   6.391  71.314  1.00  0.00    -0.182 C  
ENDROOT
BRANCH   2   3
HETATM    3  C   UNL     1      -8.176   5.794  71.265  1.00  0.00    -0.122 C  
BRANCH   3   4
HETATM    4  C   UNL     1      -7.269   6.560  70.277  1.00  0.00    -0.080 C  
BRANCH   4   5
HETATM    5  N   UNL     1      -7.510   6.190  68.870  1.00  0.00    -0.085 NA 
BRANCH   5   6
HETATM    6  C   UNL     1      -7.763   7.234  67.886  1.00  0.00    -0.113 C  
HETATM    7  S   UNL     1      -9.478   7.738  67.463  1.00  0.00    -0.146 SA 
HETATM    8  C   UNL     1      -9.163  11.846  67.131  1.00  0.00    -0.183 C  
HETATM    9  S   UNL     1      -6.577   8.251  67.299  1.00  0.00    -0.059 SA 
HETATM   10 ZN   UNL     1      -8.353   9.525  67.217  1.00  0.00    -0.112 Zn 
HETATM   11  S   UNL     1      -9.253  10.886  65.778  1.00  0.00    -0.207 SA 
HETATM   12  S   UNL     1      -8.249  11.170  68.574  1.00  0.00    -0.153 SA 
BRANCH   8  13
HETATM   13  N   UNL     1      -9.988  13.013  67.300  1.00  0.00    -0.229 NA 
BRANCH  13  14
HETATM   14  C   UNL     1     -10.726  13.599  66.182  1.00  0.00    -0.286 C  
BRANCH  14  15
HETATM   15  C   UNL     1     -11.952  12.741  65.779  1.00  0.00    -0.502 C  
BRANCH  15  16
HETATM   16  C   UNL     1     -12.545  13.082  64.398  1.00  0.00    -0.356 C  
HETATM   17  C   UNL     1     -12.485  11.869  63.462  1.00  0.00    -0.609 C  
ENDBRANCH  15  16
ENDBRANCH  14  15
ENDBRANCH  13  14
BRANCH  13  18
HETATM   18  C   UNL     1     -10.116  13.617  68.631  1.00  0.00    -0.180 C  
BRANCH  18  19
HETATM   19  C   UNL     1     -11.430  14.419  68.786  1.00  0.00    -0.319 C  
BRANCH  19  20
HETATM   20  C   UNL     1     -12.253  14.059  70.036  1.00  0.00    -0.414 C  
HETATM   21  C   UNL     1     -12.278  12.541  70.248  1.00  0.00    -0.345 C  
ENDBRANCH  19  20
ENDBRANCH  18  19
ENDBRANCH  13  18
ENDBRANCH   8  13
ENDBRANCH   5   6
BRANCH   5  22
HETATM   22  C   UNL     1      -7.425   4.778  68.475  1.00  0.00    -0.066 C  
BRANCH  22  23
HETATM   23  C   UNL     1      -6.027   4.140  68.591  1.00  0.00    -0.026 C  
BRANCH  23  24
HETATM   24  C   UNL     1      -5.987   2.826  69.383  1.00  0.00    -0.024 C  
HETATM   25  C   UNL     1      -5.651   3.096  70.854  1.00  0.00    -0.013 C  
ENDBRANCH  23  24
ENDBRANCH  22  23
ENDBRANCH   5  22
ENDBRANCH   4   5
ENDBRANCH   3   4
ENDBRANCH   2   3
TORSDOF 14
ENDMDL
MODEL      269
REMARK 921   NORMALIZED FREE ENERGY PREDICTED BY IDOCK:   -2.50 KCAL/MOL
REMARK 922        TOTAL FREE ENERGY PREDICTED BY IDOCK:   -5.92 KCAL/MOL
REMARK 923 INTER-LIGAND FREE ENERGY PREDICTED BY IDOCK:   -4.90 KCAL/MOL
REMARK 924 INTRA-LIGAND FREE ENERGY PREDICTED BY IDOCK:   -1.02 KCAL/MOL
REMARK 927      BINDING AFFINITY PREDICTED BY RF-SCORE:    0.00 PKD
ROOT
HETATM    1  C   UNL     1     -10.623  20.077  65.850  1.00  0.00    -0.459 C  
HETATM    2  C   UNL     1      -9.683  18.926  66.210  1.00  0.00    -0.374 C  
ENDROOT
BRANCH   2   3
HETATM    3  C   UNL     1     -10.382  17.560  66.063  1.00  0.00    -0.309 C  
BRANCH   3   4
HETATM    4  C   UNL     1      -9.399  16.390  66.280  1.00  0.00    -0.315 C  
BRANCH   4   5
HETATM    5  N   UNL     1      -9.629  15.672  67.546  1.00  0.00    -0.223 NA 
BRANCH   5   6
HETATM    6  C   UNL     1     -10.258  14.357  67.523  1.00  0.00    -0.240 C  
HETATM    7  S   UNL     1     -10.009  13.216  66.105  1.00  0.00    -0.284 SA 
HETATM    8  C   UNL     1      -9.609   9.541  67.955  1.00  0.00    -0.133 C  
HETATM    9  S   UNL     1     -10.978  13.659  68.856  1.00  0.00    -0.232 SA 
HETATM   10 ZN   UNL     1     -10.242  11.911  67.767  1.00  0.00    -0.178 Zn 
HETATM   11  S   UNL     1     -11.025   9.964  67.195  1.00  0.00     0.054 SA 
HETATM   12  S   UNL     1      -8.692  10.882  68.813  1.00  0.00    -0.138 SA 
BRANCH   8  13
HETATM   13  N   UNL     1      -8.963   8.277  67.723  1.00  0.00    -0.136 NA 
BRANCH  13  14
HETATM   14  C   UNL     1      -8.051   7.690  68.704  1.00  0.00    -0.127 C  
BRANCH  14  15
HETATM   15  C   UNL     1      -6.833   7.008  68.032  1.00  0.00    -0.074 C  
BRANCH  15  16
HETATM   16  C   UNL     1      -5.695   7.972  67.642  1.00  0.00    -0.038 C  
HETATM   17  C   UNL     1      -5.516   8.020  66.120  1.00  0.00    -0.028 C  
ENDBRANCH  15  16
ENDBRANCH  14  15
ENDBRANCH  13  14
BRANCH  13  18
HETATM   18  C   UNL     1      -9.244   7.542  66.485  1.00  0.00    -0.174 C  
BRANCH  18  19
HETATM   19  C   UNL     1     -10.165   6.322  66.725  1.00  0.00    -0.262 C  
BRANCH  19  20
HETATM   20  C   UNL     1      -9.580   4.978  66.254  1.00  0.00    -0.175 C  
HETATM   21  C   UNL     1     -10.481   4.339  65.192  1.00  0.00    -0.195 C  
ENDBRANCH  19  20
ENDBRANCH  18  19
ENDBRANCH  13  18
ENDBRANCH   8  13
ENDBRANCH   5   6
BRANCH   5  22
HETATM   22  C   UNL     1      -9.161  16.268  68.804  1.00  0.00    -0.245 C  
BRANCH  22  23
HETATM   23  C   UNL     1      -7.811  17.006  68.725  1.00  0.00    -0.253 C  
BRANCH  23  24
HETATM   24  C   UNL     1      -6.615  16.216  69.273  1.00  0.00    -0.189 C  
HETATM   25  C   UNL     1      -7.026  14.773  69.590  1.00  0.00    -0.172 C  
ENDBRANCH  23  24
ENDBRANCH  22  23
ENDBRANCH   5  22
ENDBRANCH   4   5
ENDBRANCH   3   4
ENDBRANCH   2   3
TORSDOF 14
ENDMDL
MODEL      270
REMARK 921   NORMALIZED FREE ENERGY PREDICTED BY IDOCK:   -2.47 KCAL/MOL
REMARK 922        TOTAL FREE ENERGY PREDICTED BY IDOCK:   -5.88 KCAL/MOL
REMARK 923 INTER-LIGAND FREE ENERGY PREDICTED BY IDOCK:   -4.69 KCAL/MOL
REMARK 924 INTRA-LIGAND FREE ENERGY PREDICTED BY IDOCK:   -1.19 KCAL/MOL
REMARK 927      BINDING AFFINITY PREDICTED BY RF-SCORE:    0.00 PKD
ROOT
HETATM    1  C   UNL     1     -11.641   2.061  73.531  1.00  0.00    -0.294 C  
HETATM    2  C   UNL     1     -10.471   2.948  73.958  1.00  0.00    -0.240 C  
ENDROOT
BRANCH   2   3
HETATM    3  C   UNL     1     -10.878   4.434  74.008  1.00  0.00    -0.314 C  
BRANCH   3   4
HETATM    4  C   UNL     1      -9.658   5.353  74.236  1.00  0.00    -0.150 C  
BRANCH   4   5
HETATM    5  N   UNL     1      -9.596   6.473  73.280  1.00  0.00    -0.150 NA 
BRANCH   5   6
HETATM    6  C   UNL     1      -8.605   6.453  72.212  1.00  0.00    -0.117 C  
HETATM    7  S   UNL     1      -8.749   5.271  70.813  1.00  0.00    -0.133 SA 
HETATM    8  C   UNL     1      -7.626   7.566  67.564  1.00  0.00    -0.113 C  
HETATM    9  S   UNL     1      -7.464   7.650  71.992  1.00  0.00    -0.076 SA 
HETATM   10 ZN   UNL     1      -7.811   6.968  69.943  1.00  0.00    -0.091 Zn 
HETATM   11  S   UNL     1      -6.583   6.453  68.223  1.00  0.00    -0.069 SA 
HETATM   12  S   UNL     1      -8.735   8.458  68.725  1.00  0.00    -0.136 SA 
BRANCH   8  13
HETATM   13  N   UNL     1      -7.877   7.637  66.150  1.00  0.00    -0.092 NA 
BRANCH  13  14
HETATM   14  C   UNL     1      -8.887   6.798  65.507  1.00  0.00     0.035 C  
BRANCH  14  15
HETATM   15  C   UNL     1      -8.275   5.507  64.905  1.00  0.00    -0.136 C  
BRANCH  15  16
HETATM   16  C   UNL     1      -8.585   4.223  65.699  1.00  0.00    -0.118 C  
HETATM   17  C   UNL     1      -9.892   4.369  66.488  1.00  0.00    -0.247 C  
ENDBRANCH  15  16
ENDBRANCH  14  15
ENDBRANCH  13  14
BRANCH  13  18
HETATM   18  C   UNL     1      -7.123   8.593  65.332  1.00  0.00    -0.083 C  
BRANCH  18  19
HETATM   19  C   UNL     1      -8.046   9.463  64.446  1.00  0.00    -0.138 C  
BRANCH  19  20
HETATM   20  C   UNL     1      -8.674  10.668  65.170  1.00  0.00    -0.196 C  
HETATM   21  C   UNL     1     -10.160  10.414  65.453  1.00  0.00    -0.354 C  
ENDBRANCH  19  20
ENDBRANCH  18  19
ENDBRANCH  13  18
ENDBRANCH   8  13
ENDBRANCH   5   6
BRANCH   5  22
HETATM   22  C   UNL     1     -10.578   7.561  73.385  1.00  0.00    -0.354 C  
BRANCH  22  23
HETATM   23  C   UNL     1     -10.758   8.415  72.116  1.00  0.00    -0.407 C  
BRANCH  23  24
HETATM   24  C   UNL     1     -12.110   8.238  71.411  1.00  0.00    -0.331 C  
HETATM   25  C   UNL     1     -12.243   6.816  70.855  1.00  0.00    -0.386 C  
ENDBRANCH  23  24
ENDBRANCH  22  23
ENDBRANCH   5  22
ENDBRANCH   4   5
ENDBRANCH   3   4
ENDBRANCH   2   3
TORSDOF 14
ENDMDL
MODEL      271
REMARK 921   NORMALIZED FREE ENERGY PREDICTED BY IDOCK:   -2.45 KCAL/MOL
REMARK 922        TOTAL FREE ENERGY PREDICTED BY IDOCK:   -5.84 KCAL/MOL
REMARK 923 INTER-LIGAND FREE ENERGY PREDICTED BY IDOCK:   -4.97 KCAL/MOL
REMARK 924 INTRA-LIGAND FREE ENERGY PREDICTED BY IDOCK:   -0.87 KCAL/MOL
REMARK 927      BINDING AFFINITY PREDICTED BY RF-SCORE:    0.00 PKD
ROOT
HETATM    1  C   UNL     1     -12.021  13.830  66.579  1.00  0.00    -0.470 C  
HETATM    2  C   UNL     1     -11.259  14.706  65.583  1.00  0.00    -0.342 C  
ENDROOT
BRANCH   2   3
HETATM    3  C   UNL     1     -10.553  15.880  66.289  1.00  0.00    -0.301 C  
BRANCH   3   4
HETATM    4  C   UNL     1      -9.069  15.985  65.876  1.00  0.00    -0.257 C  
BRANCH   4   5
HETATM    5  N   UNL     1      -8.158  16.104  67.029  1.00  0.00    -0.187 NA 
BRANCH   5   6
HETATM    6  C   UNL     1      -7.788  14.912  67.780  1.00  0.00    -0.152 C  
HETATM    7  S   UNL     1      -9.001  14.067  68.871  1.00  0.00     0.155 SA 
HETATM    8  C   UNL     1      -8.221  10.068  68.174  1.00  0.00    -0.109 C  
HETATM    9  S   UNL     1      -6.389  14.047  67.500  1.00  0.00     0.127 SA 
HETATM   10 ZN   UNL     1      -7.763  12.485  68.175  1.00  0.00    -0.091 Zn 
HETATM   11  S   UNL     1      -7.690  10.811  69.562  1.00  0.00     0.004 SA 
HETATM   12  S   UNL     1      -8.228  11.077  66.639  1.00  0.00    -0.157 SA 
BRANCH   8  13
HETATM   13  N   UNL     1      -8.917   8.810  68.197  1.00  0.00    -0.141 NA 
BRANCH  13  14
HETATM   14  C   UNL     1      -8.207   7.538  68.077  1.00  0.00    -0.124 C  
BRANCH  14  15
HETATM   15  C   UNL     1      -8.236   6.726  69.397  1.00  0.00    -0.128 C  
BRANCH  15  16
HETATM   16  C   UNL     1      -9.119   5.464  69.351  1.00  0.00    -0.135 C  
HETATM   17  C   UNL     1     -10.266   5.562  70.364  1.00  0.00    -0.321 C  
ENDBRANCH  15  16
ENDBRANCH  14  15
ENDBRANCH  13  14
BRANCH  13  18
HETATM   18  C   UNL     1     -10.374   8.796  68.372  1.00  0.00    -0.204 C  
BRANCH  18  19
HETATM   19  C   UNL     1     -10.888  10.060  69.102  1.00  0.00    -0.253 C  
BRANCH  19  20
HETATM   20  C   UNL     1     -11.466   9.796  70.504  1.00  0.00    -0.370 C  
HETATM   21  C   UNL     1     -10.418   9.131  71.404  1.00  0.00    -0.414 C  
ENDBRANCH  19  20
ENDBRANCH  18  19
ENDBRANCH  13  18
ENDBRANCH   8  13
ENDBRANCH   5   6
BRANCH   5  22
HETATM   22  C   UNL     1      -7.589  17.418  67.360  1.00  0.00    -0.191 C  
BRANCH  22  23
HETATM   23  C   UNL     1      -7.643  17.807  68.850  1.00  0.00    -0.223 C  
BRANCH  23  24
HETATM   24  C   UNL     1      -6.924  19.118  69.196  1.00  0.00    -0.361 C  
HETATM   25  C   UNL     1      -7.032  20.112  68.034  1.00  0.00    -0.325 C  
ENDBRANCH  23  24
ENDBRANCH  22  23
ENDBRANCH   5  22
ENDBRANCH   4   5
ENDBRANCH   3   4
ENDBRANCH   2   3
TORSDOF 14
ENDMDL
MODEL      272
REMARK 921   NORMALIZED FREE ENERGY PREDICTED BY IDOCK:   -2.41 KCAL/MOL
REMARK 922        TOTAL FREE ENERGY PREDICTED BY IDOCK:   -5.77 KCAL/MOL
REMARK 923 INTER-LIGAND FREE ENERGY PREDICTED BY IDOCK:   -4.85 KCAL/MOL
REMARK 924 INTRA-LIGAND FREE ENERGY PREDICTED BY IDOCK:   -0.92 KCAL/MOL
REMARK 927      BINDING AFFINITY PREDICTED BY RF-SCORE:    0.00 PKD
ROOT
HETATM    1  C   UNL     1     -11.679  15.500  68.838  1.00  0.00    -0.385 C  
HETATM    2  C   UNL     1     -10.300  16.025  69.238  1.00  0.00    -0.251 C  
ENDROOT
BRANCH   2   3
HETATM    3  C   UNL     1      -9.200  14.977  68.979  1.00  0.00    -0.205 C  
BRANCH   3   4
HETATM    4  C   UNL     1      -9.030  14.690  67.471  1.00  0.00    -0.190 C  
BRANCH   4   5
HETATM    5  N   UNL     1      -9.012  13.250  67.158  1.00  0.00    -0.221 NA 
BRANCH   5   6
HETATM    6  C   UNL     1      -8.872  12.281  68.238  1.00  0.00    -0.178 C  
HETATM    7  S   UNL     1     -10.350  11.516  69.017  1.00  0.00    -0.054 SA 
HETATM    8  C   UNL     1      -9.169   7.590  69.545  1.00  0.00    -0.146 C  
HETATM    9  S   UNL     1      -7.423  11.564  68.649  1.00  0.00    -0.119 SA 
HETATM   10 ZN   UNL     1      -8.866  10.000  69.155  1.00  0.00    -0.110 Zn 
HETATM   11  S   UNL     1      -9.206   8.649  70.825  1.00  0.00    -0.203 SA 
HETATM   12  S   UNL     1      -8.679   8.275  67.912  1.00  0.00    -0.135 SA 
BRANCH   8  13
HETATM   13  N   UNL     1      -9.761   6.282  69.615  1.00  0.00    -0.151 NA 
BRANCH  13  14
HETATM   14  C   UNL     1     -10.867   5.987  70.524  1.00  0.00    -0.314 C  
BRANCH  14  15
HETATM   15  C   UNL     1     -12.080   6.923  70.290  1.00  0.00    -0.182 C  
BRANCH  15  16
HETATM   16  C   UNL     1     -12.925   7.201  71.548  1.00  0.00    -0.431 C  
HETATM   17  C   UNL     1     -12.730   8.643  72.031  1.00  0.00    -0.427 C  
ENDBRANCH  15  16
ENDBRANCH  14  15
ENDBRANCH  13  14
BRANCH  13  18
HETATM   18  C   UNL     1      -9.264   5.219  68.733  1.00  0.00    -0.116 C  
BRANCH  18  19
HETATM   19  C   UNL     1     -10.256   4.892  67.592  1.00  0.00    -0.135 C  
BRANCH  19  20
HETATM   20  C   UNL     1      -9.628   4.869  66.187  1.00  0.00    -0.183 C  
HETATM   21  C   UNL     1      -8.485   3.848  66.124  1.00  0.00    -0.110 C  
ENDBRANCH  19  20
ENDBRANCH  18  19
ENDBRANCH  13  18
ENDBRANCH   8  13
ENDBRANCH   5   6
BRANCH   5  22
HETATM   22  C   UNL     1      -9.200  12.816  65.768  1.00  0.00     0.196 C  
BRANCH  22  23
HETATM   23  C   UNL     1     -10.638  12.931  65.227  1.00  0.00    -0.316 C  
BRANCH  23  24
HETATM   24  C   UNL     1     -11.385  11.596  65.102  1.00  0.00    -0.223 C  
HETATM   25  C   UNL     1     -10.396  10.425  65.126  1.00  0.00    -0.260 C  
ENDBRANCH  23  24
ENDBRANCH  22  23
ENDBRANCH   5  22
ENDBRANCH   4   5
ENDBRANCH   3   4
ENDBRANCH   2   3
TORSDOF 14
ENDMDL
MODEL      273
REMARK 921   NORMALIZED FREE ENERGY PREDICTED BY IDOCK:   -2.39 KCAL/MOL
REMARK 922        TOTAL FREE ENERGY PREDICTED BY IDOCK:   -5.73 KCAL/MOL
REMARK 923 INTER-LIGAND FREE ENERGY PREDICTED BY IDOCK:   -4.85 KCAL/MOL
REMARK 924 INTRA-LIGAND FREE ENERGY PREDICTED BY IDOCK:   -0.88 KCAL/MOL
REMARK 927      BINDING AFFINITY PREDICTED BY RF-SCORE:    0.00 PKD
ROOT
HETATM    1  C   UNL     1     -10.133  10.635  63.813  1.00  0.00    -0.336 C  
HETATM    2  C   UNL     1      -8.925  10.022  64.523  1.00  0.00    -0.261 C  
ENDROOT
BRANCH   2   3
HETATM    3  C   UNL     1      -9.356   8.977  65.570  1.00  0.00    -0.255 C  
BRANCH   3   4
HETATM    4  C   UNL     1      -8.254   7.924  65.812  1.00  0.00    -0.130 C  
BRANCH   4   5
HETATM    5  N   UNL     1      -6.926   8.522  66.040  1.00  0.00    -0.068 NA 
BRANCH   5   6
HETATM    6  C   UNL     1      -6.791   9.639  66.966  1.00  0.00    -0.084 C  
HETATM    7  S   UNL     1      -6.371  11.322  66.361  1.00  0.00    -0.038 SA 
HETATM    8  C   UNL     1      -8.779  13.751  68.682  1.00  0.00    -0.051 C  
HETATM    9  S   UNL     1      -7.288   9.579  68.558  1.00  0.00    -0.079 SA 
HETATM   10 ZN   UNL     1      -7.587  11.689  68.065  1.00  0.00    -0.087 Zn 
HETATM   11  S   UNL     1      -7.155  13.605  69.002  1.00  0.00    -0.034 SA 
HETATM   12  S   UNL     1      -9.646  12.252  68.071  1.00  0.00    -0.209 SA 
BRANCH   8  13
HETATM   13  N   UNL     1      -9.430  15.030  68.595  1.00  0.00    -0.205 NA 
BRANCH  13  14
HETATM   14  C   UNL     1     -10.140  15.610  69.735  1.00  0.00    -0.287 C  
BRANCH  14  15
HETATM   15  C   UNL     1     -11.409  14.801  70.104  1.00  0.00    -0.291 C  
BRANCH  15  16
HETATM   16  C   UNL     1     -12.558  15.647  70.687  1.00  0.00    -0.461 C  
HETATM   17  C   UNL     1     -12.239  16.090  72.120  1.00  0.00    -0.597 C  
ENDBRANCH  15  16
ENDBRANCH  14  15
ENDBRANCH  13  14
BRANCH  13  18
HETATM   18  C   UNL     1      -9.361  15.789  67.342  1.00  0.00    -0.210 C  
BRANCH  18  19
HETATM   19  C   UNL     1     -10.757  15.997  66.705  1.00  0.00    -0.259 C  
BRANCH  19  20
HETATM   20  C   UNL     1     -11.386  14.721  66.118  1.00  0.00    -0.330 C  
HETATM   21  C   UNL     1     -10.584  14.232  64.906  1.00  0.00    -0.452 C  
ENDBRANCH  19  20
ENDBRANCH  18  19
ENDBRANCH  13  18
ENDBRANCH   8  13
ENDBRANCH   5   6
BRANCH   5  22
HETATM   22  C   UNL     1      -5.752   7.938  65.378  1.00  0.00    -0.037 C  
BRANCH  22  23
HETATM   23  C   UNL     1      -5.841   7.833  63.844  1.00  0.00    -0.053 C  
BRANCH  23  24
HETATM   24  C   UNL     1      -5.587   6.428  63.282  1.00  0.00    -0.019 C  
HETATM   25  C   UNL     1      -5.784   5.370  64.374  1.00  0.00    -0.017 C  
ENDBRANCH  23  24
ENDBRANCH  22  23
ENDBRANCH   5  22
ENDBRANCH   4   5
ENDBRANCH   3   4
ENDBRANCH   2   3
TORSDOF 14
ENDMDL
MODEL      274
REMARK 921   NORMALIZED FREE ENERGY PREDICTED BY IDOCK:   -2.38 KCAL/MOL
REMARK 922        TOTAL FREE ENERGY PREDICTED BY IDOCK:   -5.71 KCAL/MOL
REMARK 923 INTER-LIGAND FREE ENERGY PREDICTED BY IDOCK:   -5.30 KCAL/MOL
REMARK 924 INTRA-LIGAND FREE ENERGY PREDICTED BY IDOCK:   -0.42 KCAL/MOL
REMARK 927      BINDING AFFINITY PREDICTED BY RF-SCORE:    0.00 PKD
ROOT
HETATM    1  C   UNL     1      -6.139  19.886  64.942  1.00  0.00    -0.301 C  
HETATM    2  C   UNL     1      -5.131  19.088  65.770  1.00  0.00    -0.164 C  
ENDROOT
BRANCH   2   3
HETATM    3  C   UNL     1      -5.791  17.865  66.437  1.00  0.00    -0.216 C  
BRANCH   3   4
HETATM    4  C   UNL     1      -7.240  17.659  65.944  1.00  0.00    -0.200 C  
BRANCH   4   5
HETATM    5  N   UNL     1      -8.248  18.010  66.961  1.00  0.00    -0.221 NA 
BRANCH   5   6
HETATM    6  C   UNL     1      -9.258  17.031  67.339  1.00  0.00    -0.234 C  
HETATM    7  S   UNL     1     -10.306  16.215  66.070  1.00  0.00    -0.366 SA 
HETATM    8  C   UNL     1     -10.507  12.316  67.426  1.00  0.00    -0.210 C  
HETATM    9  S   UNL     1      -9.352  16.347  68.858  1.00  0.00    -0.244 SA 
HETATM   10 ZN   UNL     1     -10.111  14.738  67.586  1.00  0.00    -0.213 Zn 
HETATM   11  S   UNL     1     -11.789  13.355  67.624  1.00  0.00    -0.335 SA 
HETATM   12  S   UNL     1      -8.822  13.036  67.556  1.00  0.00    -0.208 SA 
BRANCH   8  13
HETATM   13  N   UNL     1     -10.671  10.991  66.891  1.00  0.00    -0.266 NA 
BRANCH  13  14
HETATM   14  C   UNL     1     -11.388  10.751  65.640  1.00  0.00     0.567 C  
BRANCH  14  15
HETATM   15  C   UNL     1     -10.667  11.384  64.423  1.00  0.00    -0.405 C  
BRANCH  15  16
HETATM   16  C   UNL     1     -11.591  12.162  63.466  1.00  0.00    -0.562 C  
HETATM   17  C   UNL     1     -12.978  11.510  63.395  1.00  0.00     0.196 C  
ENDBRANCH  15  16
ENDBRANCH  14  15
ENDBRANCH  13  14
BRANCH  13  18
HETATM   18  C   UNL     1     -10.082   9.851  67.602  1.00  0.00    -0.197 C  
BRANCH  18  19
HETATM   19  C   UNL     1     -10.341   8.509  66.875  1.00  0.00    -0.367 C  
BRANCH  19  20
HETATM   20  C   UNL     1      -9.636   7.295  67.506  1.00  0.00    -0.171 C  
HETATM   21  C   UNL     1     -10.275   6.939  68.853  1.00  0.00    -0.184 C  
ENDBRANCH  19  20
ENDBRANCH  18  19
ENDBRANCH  13  18
ENDBRANCH   8  13
ENDBRANCH   5   6
BRANCH   5  22
HETATM   22  C   UNL     1      -8.175  19.321  67.621  1.00  0.00    -0.292 C  
BRANCH  22  23
HETATM   23  C   UNL     1      -7.900  19.285  69.136  1.00  0.00    -0.250 C  
BRANCH  23  24
HETATM   24  C   UNL     1      -6.555  18.659  69.529  1.00  0.00    -0.201 C  
HETATM   25  C   UNL     1      -5.507  19.751  69.773  1.00  0.00    -0.254 C  
ENDBRANCH  23  24
ENDBRANCH  22  23
ENDBRANCH   5  22
ENDBRANCH   4   5
ENDBRANCH   3   4
ENDBRANCH   2   3
TORSDOF 14
ENDMDL
MODEL      275
REMARK 921   NORMALIZED FREE ENERGY PREDICTED BY IDOCK:   -2.36 KCAL/MOL
REMARK 922        TOTAL FREE ENERGY PREDICTED BY IDOCK:   -5.68 KCAL/MOL
REMARK 923 INTER-LIGAND FREE ENERGY PREDICTED BY IDOCK:   -4.72 KCAL/MOL
REMARK 924 INTRA-LIGAND FREE ENERGY PREDICTED BY IDOCK:   -0.96 KCAL/MOL
REMARK 927      BINDING AFFINITY PREDICTED BY RF-SCORE:    0.00 PKD
ROOT
HETATM    1  C   UNL     1      -8.049   6.957  74.404  1.00  0.00    -0.150 C  
HETATM    2  C   UNL     1      -8.582   7.040  72.973  1.00  0.00    -0.137 C  
ENDROOT
BRANCH   2   3
HETATM    3  C   UNL     1      -7.443   6.941  71.940  1.00  0.00    -0.088 C  
BRANCH   3   4
HETATM    4  C   UNL     1      -7.019   5.476  71.696  1.00  0.00    -0.068 C  
BRANCH   4   5
HETATM    5  N   UNL     1      -7.914   4.766  70.765  1.00  0.00    -0.079 NA 
BRANCH   5   6
HETATM    6  C   UNL     1      -8.386   5.442  69.564  1.00  0.00    -0.100 C  
HETATM    7  S   UNL     1     -10.168   5.824  69.332  1.00  0.00    -0.261 SA 
HETATM    8  C   UNL     1     -10.077   9.596  67.645  1.00  0.00    -0.194 C  
HETATM    9  S   UNL     1      -7.370   6.185  68.469  1.00  0.00    -0.087 SA 
HETATM   10 ZN   UNL     1      -9.177   7.408  68.318  1.00  0.00    -0.133 Zn 
HETATM   11  S   UNL     1     -10.380   8.253  66.715  1.00  0.00    -0.219 SA 
HETATM   12  S   UNL     1      -8.886   9.399  69.029  1.00  0.00    -0.145 SA 
BRANCH   8  13
HETATM   13  N   UNL     1     -10.900  10.774  67.581  1.00  0.00    -0.258 NA 
BRANCH  13  14
HETATM   14  C   UNL     1     -10.605  11.868  66.657  1.00  0.00    -0.238 C  
BRANCH  14  15
HETATM   15  C   UNL     1     -11.146  11.589  65.232  1.00  0.00    -0.257 C  
BRANCH  15  16
HETATM   16  C   UNL     1     -10.055  11.432  64.154  1.00  0.00    -0.358 C  
HETATM   17  C   UNL     1      -8.794  10.787  64.742  1.00  0.00    -0.162 C  
ENDBRANCH  15  16
ENDBRANCH  14  15
ENDBRANCH  13  14
BRANCH  13  18
HETATM   18  C   UNL     1     -12.082  10.873  68.445  1.00  0.00     0.149 C  
BRANCH  18  19
HETATM   19  C   UNL     1     -11.838  11.787  69.670  1.00  0.00    -0.407 C  
BRANCH  19  20
HETATM   20  C   UNL     1     -12.346  11.214  71.004  1.00  0.00    -0.487 C  
HETATM   21  C   UNL     1     -12.586   9.704  70.888  1.00  0.00    -0.299 C  
ENDBRANCH  19  20
ENDBRANCH  18  19
ENDBRANCH  13  18
ENDBRANCH   8  13
ENDBRANCH   5   6
BRANCH   5  22
HETATM   22  C   UNL     1      -8.262   3.364  71.034  1.00  0.00    -0.065 C  
BRANCH  22  23
HETATM   23  C   UNL     1      -9.644   3.135  71.676  1.00  0.00    -0.227 C  
BRANCH  23  24
HETATM   24  C   UNL     1      -9.695   3.381  73.190  1.00  0.00    -0.163 C  
HETATM   25  C   UNL     1     -11.123   3.195  73.715  1.00  0.00    -0.288 C  
ENDBRANCH  23  24
ENDBRANCH  22  23
ENDBRANCH   5  22
ENDBRANCH   4   5
ENDBRANCH   3   4
ENDBRANCH   2   3
TORSDOF 14
ENDMDL
MODEL      276
REMARK 921   NORMALIZED FREE ENERGY PREDICTED BY IDOCK:   -2.34 KCAL/MOL
REMARK 922        TOTAL FREE ENERGY PREDICTED BY IDOCK:   -5.64 KCAL/MOL
REMARK 923 INTER-LIGAND FREE ENERGY PREDICTED BY IDOCK:   -4.43 KCAL/MOL
REMARK 924 INTRA-LIGAND FREE ENERGY PREDICTED BY IDOCK:   -1.20 KCAL/MOL
REMARK 927      BINDING AFFINITY PREDICTED BY RF-SCORE:    0.00 PKD
ROOT
HETATM    1  C   UNL     1     -10.175   3.788  73.082  1.00  0.00    -0.228 C  
HETATM    2  C   UNL     1      -8.718   4.241  72.974  1.00  0.00    -0.100 C  
ENDROOT
BRANCH   2   3
HETATM    3  C   UNL     1      -8.608   5.639  72.336  1.00  0.00    -0.121 C  
BRANCH   3   4
HETATM    4  C   UNL     1      -9.978   6.149  71.839  1.00  0.00    -0.164 C  
BRANCH   4   5
HETATM    5  N   UNL     1     -10.002   6.412  70.388  1.00  0.00    -0.182 NA 
BRANCH   5   6
HETATM    6  C   UNL     1      -9.366   7.614  69.865  1.00  0.00    -0.150 C  
HETATM    7  S   UNL     1      -8.560   7.615  68.214  1.00  0.00    -0.123 SA 
HETATM    8  C   UNL     1      -9.648  11.292  66.672  1.00  0.00    -0.195 C  
HETATM    9  S   UNL     1      -9.566   9.127  70.539  1.00  0.00    -0.262 SA 
HETATM   10 ZN   UNL     1      -9.281   9.603  68.423  1.00  0.00    -0.125 Zn 
HETATM   11  S   UNL     1      -8.119  11.037  67.272  1.00  0.00    -0.130 SA 
HETATM   12  S   UNL     1     -11.030  10.431  67.523  1.00  0.00    -0.255 SA 
BRANCH   8  13
HETATM   13  N   UNL     1      -9.877  11.904  65.391  1.00  0.00    -0.240 NA 
BRANCH  13  14
HETATM   14  C   UNL     1      -8.953  11.714  64.273  1.00  0.00     0.417 C  
BRANCH  14  15
HETATM   15  C   UNL     1      -9.501  10.707  63.230  1.00  0.00    -0.360 C  
BRANCH  15  16
HETATM   16  C   UNL     1      -8.719   9.381  63.150  1.00  0.00    -0.222 C  
HETATM   17  C   UNL     1      -7.369   9.583  62.451  1.00  0.00    -0.107 C  
ENDBRANCH  15  16
ENDBRANCH  14  15
ENDBRANCH  13  14
BRANCH  13  18
HETATM   18  C   UNL     1     -11.080  12.719  65.188  1.00  0.00    -0.291 C  
BRANCH  18  19
HETATM   19  C   UNL     1     -10.774  14.235  65.228  1.00  0.00    -0.377 C  
BRANCH  19  20
HETATM   20  C   UNL     1     -11.049  14.905  66.586  1.00  0.00    -0.329 C  
HETATM   21  C   UNL     1     -12.183  14.183  67.325  1.00  0.00    -0.314 C  
ENDBRANCH  19  20
ENDBRANCH  18  19
ENDBRANCH  13  18
ENDBRANCH   8  13
ENDBRANCH   5   6
BRANCH   5  22
HETATM   22  C   UNL     1     -10.610   5.421  69.490  1.00  0.00    -0.246 C  
BRANCH  22  23
HETATM   23  C   UNL     1      -9.840   4.095  69.347  1.00  0.00    -0.163 C  
BRANCH  23  24
HETATM   24  C   UNL     1      -8.647   4.146  68.384  1.00  0.00    -0.111 C  
HETATM   25  C   UNL     1      -7.333   4.280  69.163  1.00  0.00    -0.055 C  
ENDBRANCH  23  24
ENDBRANCH  22  23
ENDBRANCH   5  22
ENDBRANCH   4   5
ENDBRANCH   3   4
ENDBRANCH   2   3
TORSDOF 14
ENDMDL
MODEL      277
REMARK 921   NORMALIZED FREE ENERGY PREDICTED BY IDOCK:   -2.32 KCAL/MOL
REMARK 922        TOTAL FREE ENERGY PREDICTED BY IDOCK:   -5.60 KCAL/MOL
REMARK 923 INTER-LIGAND FREE ENERGY PREDICTED BY IDOCK:   -4.94 KCAL/MOL
REMARK 924 INTRA-LIGAND FREE ENERGY PREDICTED BY IDOCK:   -0.67 KCAL/MOL
REMARK 927      BINDING AFFINITY PREDICTED BY RF-SCORE:    0.00 PKD
ROOT
HETATM    1  C   UNL     1      -7.448   7.267  64.129  1.00  0.00    -0.099 C  
HETATM    2  C   UNL     1      -6.351   6.984  65.157  1.00  0.00    -0.037 C  
ENDROOT
BRANCH   2   3
HETATM    3  C   UNL     1      -6.391   7.996  66.318  1.00  0.00    -0.046 C  
BRANCH   3   4
HETATM    4  C   UNL     1      -6.475   7.291  67.689  1.00  0.00    -0.052 C  
BRANCH   4   5
HETATM    5  N   UNL     1      -7.834   6.821  68.011  1.00  0.00    -0.112 NA 
BRANCH   5   6
HETATM    6  C   UNL     1      -8.939   7.771  68.026  1.00  0.00    -0.126 C  
HETATM    7  S   UNL     1      -9.033   9.090  69.301  1.00  0.00    -0.147 SA 
HETATM    8  C   UNL     1     -10.364  12.351  67.137  1.00  0.00    -0.219 C  
HETATM    9  S   UNL     1     -10.016   7.949  66.764  1.00  0.00    -0.256 SA 
HETATM   10 ZN   UNL     1      -9.950   9.970  67.597  1.00  0.00    -0.148 Zn 
HETATM   11  S   UNL     1     -11.396  11.505  68.127  1.00  0.00    -0.319 SA 
HETATM   12  S   UNL     1      -9.073  11.383  66.258  1.00  0.00    -0.204 SA 
BRANCH   8  13
HETATM   13  N   UNL     1     -10.271  13.786  67.174  1.00  0.00    -0.242 NA 
BRANCH  13  14
HETATM   14  C   UNL     1      -8.995  14.467  67.388  1.00  0.00    -0.199 C  
BRANCH  14  15
HETATM   15  C   UNL     1      -8.896  15.786  66.581  1.00  0.00    -0.324 C  
BRANCH  15  16
HETATM   16  C   UNL     1      -8.765  17.056  67.446  1.00  0.00    -0.211 C  
HETATM   17  C   UNL     1      -8.971  18.317  66.599  1.00  0.00    -0.296 C  
ENDBRANCH  15  16
ENDBRANCH  14  15
ENDBRANCH  13  14
BRANCH  13  18
HETATM   18  C   UNL     1     -11.479  14.591  66.964  1.00  0.00    -0.370 C  
BRANCH  18  19
HETATM   19  C   UNL     1     -11.724  15.592  68.118  1.00  0.00    -0.241 C  
BRANCH  19  20
HETATM   20  C   UNL     1     -12.323  14.965  69.389  1.00  0.00    -0.168 C  
HETATM   21  C   UNL     1     -11.377  15.151  70.581  1.00  0.00    -0.330 C  
ENDBRANCH  19  20
ENDBRANCH  18  19
ENDBRANCH  13  18
ENDBRANCH   8  13
ENDBRANCH   5   6
BRANCH   5  22
HETATM   22  C   UNL     1      -8.060   5.388  68.248  1.00  0.00    -0.095 C  
BRANCH  22  23
HETATM   23  C   UNL     1      -9.466   5.015  68.755  1.00  0.00    -0.192 C  
BRANCH  23  24
HETATM   24  C   UNL     1      -9.584   4.882  70.279  1.00  0.00    -0.265 C  
HETATM   25  C   UNL     1      -9.542   3.407  70.694  1.00  0.00    -0.238 C  
ENDBRANCH  23  24
ENDBRANCH  22  23
ENDBRANCH   5  22
ENDBRANCH   4   5
ENDBRANCH   3   4
ENDBRANCH   2   3
TORSDOF 14
ENDMDL
MODEL      278
REMARK 921   NORMALIZED FREE ENERGY PREDICTED BY IDOCK:   -2.20 KCAL/MOL
REMARK 922        TOTAL FREE ENERGY PREDICTED BY IDOCK:   -5.39 KCAL/MOL
REMARK 923 INTER-LIGAND FREE ENERGY PREDICTED BY IDOCK:   -4.66 KCAL/MOL
REMARK 924 INTRA-LIGAND FREE ENERGY PREDICTED BY IDOCK:   -0.73 KCAL/MOL
REMARK 927      BINDING AFFINITY PREDICTED BY RF-SCORE:    0.00 PKD
ROOT
HETATM    1  C   UNL     1      -8.004  10.277  63.780  1.00  0.00    -0.128 C  
HETATM    2  C   UNL     1      -9.521  10.324  63.976  1.00  0.00    -0.356 C  
ENDROOT
BRANCH   2   3
HETATM    3  C   UNL     1      -9.895  10.375  65.470  1.00  0.00    -0.332 C  
BRANCH   3   4
HETATM    4  C   UNL     1     -10.920  11.491  65.764  1.00  0.00    -0.246 C  
BRANCH   4   5
HETATM    5  N   UNL     1     -10.933  11.902  67.179  1.00  0.00    -0.254 NA 
BRANCH   5   6
HETATM    6  C   UNL     1      -9.954  11.340  68.100  1.00  0.00    -0.181 C  
HETATM    7  S   UNL     1     -10.378   9.913  69.176  1.00  0.00    -0.223 SA 
HETATM    8  C   UNL     1      -6.939   7.623  69.047  1.00  0.00    -0.069 C  
HETATM    9  S   UNL     1      -8.328  11.713  68.053  1.00  0.00    -0.156 SA 
HETATM   10 ZN   UNL     1      -8.304   9.654  68.791  1.00  0.00    -0.095 Zn 
HETATM   11  S   UNL     1      -7.292   8.558  70.374  1.00  0.00    -0.058 SA 
HETATM   12  S   UNL     1      -7.419   8.293  67.405  1.00  0.00    -0.094 SA 
BRANCH   8  13
HETATM   13  N   UNL     1      -6.553   6.243  69.162  1.00  0.00    -0.046 NA 
BRANCH  13  14
HETATM   14  C   UNL     1      -5.446   5.824  70.021  1.00  0.00    -0.009 C  
BRANCH  14  15
HETATM   15  C   UNL     1      -5.915   4.885  71.161  1.00  0.00    -0.017 C  
BRANCH  15  16
HETATM   16  C   UNL     1      -6.341   5.611  72.453  1.00  0.00    -0.052 C  
HETATM   17  C   UNL     1      -7.249   4.719  73.308  1.00  0.00    -0.081 C  
ENDBRANCH  15  16
ENDBRANCH  14  15
ENDBRANCH  13  14
BRANCH  13  18
HETATM   18  C   UNL     1      -7.303   5.221  68.422  1.00  0.00    -0.071 C  
BRANCH  18  19
HETATM   19  C   UNL     1      -8.745   5.052  68.956  1.00  0.00    -0.101 C  
BRANCH  19  20
HETATM   20  C   UNL     1      -9.213   3.590  69.075  1.00  0.00    -0.228 C  
HETATM   21  C   UNL     1      -9.157   3.122  70.534  1.00  0.00    -0.193 C  
ENDBRANCH  19  20
ENDBRANCH  18  19
ENDBRANCH  13  18
ENDBRANCH   8  13
ENDBRANCH   5   6
BRANCH   5  22
HETATM   22  C   UNL     1     -11.894  12.922  67.621  1.00  0.00    -0.346 C  
BRANCH  22  23
HETATM   23  C   UNL     1     -11.857  14.250  66.841  1.00  0.00    -0.458 C  
BRANCH  23  24
HETATM   24  C   UNL     1     -12.780  14.300  65.616  1.00  0.00    -0.395 C  
HETATM   25  C   UNL     1     -11.966  14.550  64.341  1.00  0.00    -0.467 C  
ENDBRANCH  23  24
ENDBRANCH  22  23
ENDBRANCH   5  22
ENDBRANCH   4   5
ENDBRANCH   3   4
ENDBRANCH   2   3
TORSDOF 14
ENDMDL
MODEL      279
REMARK 921   NORMALIZED FREE ENERGY PREDICTED BY IDOCK:   -2.20 KCAL/MOL
REMARK 922        TOTAL FREE ENERGY PREDICTED BY IDOCK:   -5.39 KCAL/MOL
REMARK 923 INTER-LIGAND FREE ENERGY PREDICTED BY IDOCK:   -4.38 KCAL/MOL
REMARK 924 INTRA-LIGAND FREE ENERGY PREDICTED BY IDOCK:   -1.00 KCAL/MOL
REMARK 927      BINDING AFFINITY PREDICTED BY RF-SCORE:    0.00 PKD
ROOT
HETATM    1  C   UNL     1      -8.594  17.984  67.242  1.00  0.00    -0.240 C  
HETATM    2  C   UNL     1      -8.435  17.261  68.581  1.00  0.00    -0.260 C  
ENDROOT
BRANCH   2   3
HETATM    3  C   UNL     1      -7.005  16.716  68.762  1.00  0.00    -0.185 C  
BRANCH   3   4
HETATM    4  C   UNL     1      -6.606  15.767  67.612  1.00  0.00    -0.171 C  
BRANCH   4   5
HETATM    5  N   UNL     1      -6.573  14.351  68.019  1.00  0.00    -0.133 NA 
BRANCH   5   6
HETATM    6  C   UNL     1      -7.487  13.403  67.395  1.00  0.00    -0.123 C  
HETATM    7  S   UNL     1      -6.875  11.809  66.715  1.00  0.00     0.019 SA 
HETATM    8  C   UNL     1      -9.838   9.149  67.825  1.00  0.00    -0.174 C  
HETATM    9  S   UNL     1      -9.148  13.516  67.507  1.00  0.00    -0.227 SA 
HETATM   10 ZN   UNL     1      -8.845  11.354  67.370  1.00  0.00    -0.135 Zn 
HETATM   11  S   UNL     1      -9.732   9.704  66.263  1.00  0.00    -0.259 SA 
HETATM   12  S   UNL     1      -9.395  10.330  69.161  1.00  0.00    -0.205 SA 
BRANCH   8  13
HETATM   13  N   UNL     1      -9.977   7.752  68.134  1.00  0.00    -0.171 NA 
BRANCH  13  14
HETATM   14  C   UNL     1      -9.486   6.713  67.231  1.00  0.00    -0.133 C  
BRANCH  14  15
HETATM   15  C   UNL     1     -10.624   5.782  66.739  1.00  0.00    -0.373 C  
BRANCH  15  16
HETATM   16  C   UNL     1     -10.162   4.370  66.329  1.00  0.00    -0.211 C  
HETATM   17  C   UNL     1      -8.637   4.318  66.171  1.00  0.00    -0.113 C  
ENDBRANCH  15  16
ENDBRANCH  14  15
ENDBRANCH  13  14
BRANCH  13  18
HETATM   18  C   UNL     1     -10.604   7.354  69.400  1.00  0.00    -0.226 C  
BRANCH  18  19
HETATM   19  C   UNL     1      -9.566   7.151  70.529  1.00  0.00    -0.169 C  
BRANCH  19  20
HETATM   20  C   UNL     1      -9.630   5.774  71.214  1.00  0.00    -0.198 C  
HETATM   21  C   UNL     1     -10.038   4.689  70.210  1.00  0.00    -0.276 C  
ENDBRANCH  19  20
ENDBRANCH  18  19
ENDBRANCH  13  18
ENDBRANCH   8  13
ENDBRANCH   5   6
BRANCH   5  22
HETATM   22  C   UNL     1      -5.574  13.910  69.002  1.00  0.00    -0.080 C  
BRANCH  22  23
HETATM   23  C   UNL     1      -6.092  13.739  70.442  1.00  0.00    -0.128 C  
BRANCH  23  24
HETATM   24  C   UNL     1      -5.529  12.520  71.185  1.00  0.00    -0.092 C  
HETATM   25  C   UNL     1      -5.630  11.265  70.311  1.00  0.00    -0.121 C  
ENDBRANCH  23  24
ENDBRANCH  22  23
ENDBRANCH   5  22
ENDBRANCH   4   5
ENDBRANCH   3   4
ENDBRANCH   2   3
TORSDOF 14
ENDMDL
MODEL      280
REMARK 921   NORMALIZED FREE ENERGY PREDICTED BY IDOCK:   -2.17 KCAL/MOL
REMARK 922        TOTAL FREE ENERGY PREDICTED BY IDOCK:   -5.34 KCAL/MOL
REMARK 923 INTER-LIGAND FREE ENERGY PREDICTED BY IDOCK:   -4.79 KCAL/MOL
REMARK 924 INTRA-LIGAND FREE ENERGY PREDICTED BY IDOCK:   -0.55 KCAL/MOL
REMARK 927      BINDING AFFINITY PREDICTED BY RF-SCORE:    0.00 PKD
ROOT
HETATM    1  C   UNL     1     -12.058   9.541  71.136  1.00  0.00    -0.429 C  
HETATM    2  C   UNL     1     -12.285   8.466  72.199  1.00  0.00    -0.434 C  
ENDROOT
BRANCH   2   3
HETATM    3  C   UNL     1     -10.953   7.971  72.795  1.00  0.00    -0.449 C  
BRANCH   3   4
HETATM    4  C   UNL     1      -9.945   7.579  71.693  1.00  0.00    -0.175 C  
BRANCH   4   5
HETATM    5  N   UNL     1     -10.294   6.316  71.018  1.00  0.00    -0.205 NA 
BRANCH   5   6
HETATM    6  C   UNL     1      -9.843   6.081  69.652  1.00  0.00    -0.163 C  
HETATM    7  S   UNL     1     -10.795   6.726  68.219  1.00  0.00    -0.201 SA 
HETATM    8  C   UNL     1      -7.820   8.020  65.659  1.00  0.00    -0.104 C  
HETATM    9  S   UNL     1      -8.325   5.504  69.272  1.00  0.00    -0.102 SA 
HETATM   10 ZN   UNL     1      -8.781   6.764  67.543  1.00  0.00    -0.115 Zn 
HETATM   11  S   UNL     1      -8.623   6.592  65.381  1.00  0.00    -0.006 SA 
HETATM   12  S   UNL     1      -7.507   8.472  67.411  1.00  0.00    -0.094 SA 
BRANCH   8  13
HETATM   13  N   UNL     1      -7.631   9.006  64.629  1.00  0.00    -0.103 NA 
BRANCH  13  14
HETATM   14  C   UNL     1      -8.389  10.256  64.614  1.00  0.00    -0.169 C  
BRANCH  14  15
HETATM   15  C   UNL     1      -9.875  10.041  64.999  1.00  0.00    -0.374 C  
BRANCH  15  16
HETATM   16  C   UNL     1     -10.640  11.335  65.341  1.00  0.00    -0.312 C  
HETATM   17  C   UNL     1     -10.956  11.404  66.840  1.00  0.00    -0.355 C  
ENDBRANCH  15  16
ENDBRANCH  14  15
ENDBRANCH  13  14
BRANCH  13  18
HETATM   18  C   UNL     1      -6.634   8.768  63.579  1.00  0.00    -0.089 C  
BRANCH  18  19
HETATM   19  C   UNL     1      -5.839   7.461  63.812  1.00  0.00    -0.044 C  
BRANCH  19  20
HETATM   20  C   UNL     1      -5.817   6.504  62.606  1.00  0.00    -0.027 C  
HETATM   21  C   UNL     1      -5.171   5.167  62.989  1.00  0.00    -0.010 C  
ENDBRANCH  19  20
ENDBRANCH  18  19
ENDBRANCH  13  18
ENDBRANCH   8  13
ENDBRANCH   5   6
BRANCH   5  22
HETATM   22  C   UNL     1     -11.036   5.287  71.760  1.00  0.00    -0.073 C  
BRANCH  22  23
HETATM   23  C   UNL     1     -10.175   4.179  72.396  1.00  0.00    -0.239 C  
BRANCH  23  24
HETATM   24  C   UNL     1     -10.503   3.875  73.864  1.00  0.00    -0.267 C  
HETATM   25  C   UNL     1     -10.679   2.366  74.073  1.00  0.00    -0.247 C  
ENDBRANCH  23  24
ENDBRANCH  22  23
ENDBRANCH   5  22
ENDBRANCH   4   5
ENDBRANCH   3   4
ENDBRANCH   2   3
TORSDOF 14
ENDMDL
MODEL      281
REMARK 921   NORMALIZED FREE ENERGY PREDICTED BY IDOCK:   -2.05 KCAL/MOL
REMARK 922        TOTAL FREE ENERGY PREDICTED BY IDOCK:   -5.10 KCAL/MOL
REMARK 923 INTER-LIGAND FREE ENERGY PREDICTED BY IDOCK:   -4.71 KCAL/MOL
REMARK 924 INTRA-LIGAND FREE ENERGY PREDICTED BY IDOCK:   -0.39 KCAL/MOL
REMARK 927      BINDING AFFINITY PREDICTED BY RF-SCORE:    0.00 PKD
ROOT
HETATM    1  C   UNL     1      -6.373   6.596  63.880  1.00  0.00    -0.034 C  
HETATM    2  C   UNL     1      -5.172   6.981  64.745  1.00  0.00    -0.028 C  
ENDROOT
BRANCH   2   3
HETATM    3  C   UNL     1      -5.615   7.671  66.050  1.00  0.00    -0.032 C  
BRANCH   3   4
HETATM    4  C   UNL     1      -7.093   7.370  66.381  1.00  0.00    -0.074 C  
BRANCH   4   5
HETATM    5  N   UNL     1      -7.967   8.548  66.230  1.00  0.00    -0.100 NA 
BRANCH   5   6
HETATM    6  C   UNL     1      -7.726   9.731  67.046  1.00  0.00    -0.095 C  
HETATM    7  S   UNL     1      -6.500  10.999  66.532  1.00  0.00    -0.127 SA 
HETATM    8  C   UNL     1      -8.389  14.542  67.513  1.00  0.00    -0.188 C  
HETATM    9  S   UNL     1      -8.713  10.194  68.309  1.00  0.00    -0.122 SA 
HETATM   10 ZN   UNL     1      -7.972  12.118  67.579  1.00  0.00    -0.110 Zn 
HETATM   11  S   UNL     1      -7.167  13.936  68.462  1.00  0.00    -0.114 SA 
HETATM   12  S   UNL     1      -9.513  13.322  66.723  1.00  0.00    -0.256 SA 
BRANCH   8  13
HETATM   13  N   UNL     1      -8.414  15.912  67.078  1.00  0.00    -0.197 NA 
BRANCH  13  14
HETATM   14  C   UNL     1      -7.812  16.981  67.873  1.00  0.00    -0.184 C  
BRANCH  14  15
HETATM   15  C   UNL     1      -7.381  18.186  66.998  1.00  0.00    -0.226 C  
BRANCH  15  16
HETATM   16  C   UNL     1      -7.618  19.564  67.647  1.00  0.00    -0.301 C  
HETATM   17  C   UNL     1      -7.429  19.492  69.167  1.00  0.00    -0.340 C  
ENDBRANCH  15  16
ENDBRANCH  14  15
ENDBRANCH  13  14
BRANCH  13  18
HETATM   18  C   UNL     1      -9.034  16.247  65.791  1.00  0.00    -0.030 C  
BRANCH  18  19
HETATM   19  C   UNL     1     -10.577  16.319  65.885  1.00  0.00    -0.307 C  
BRANCH  19  20
HETATM   20  C   UNL     1     -11.302  16.247  64.529  1.00  0.00    -0.209 C  
HETATM   21  C   UNL     1     -12.063  14.923  64.392  1.00  0.00    -0.417 C  
ENDBRANCH  19  20
ENDBRANCH  18  19
ENDBRANCH  13  18
ENDBRANCH   8  13
ENDBRANCH   5   6
BRANCH   5  22
HETATM   22  C   UNL     1      -9.026   8.529  65.212  1.00  0.00    -0.050 C  
BRANCH  22  23
HETATM   23  C   UNL     1      -9.102   9.778  64.313  1.00  0.00    -0.293 C  
BRANCH  23  24
HETATM   24  C   UNL     1     -10.273  10.721  64.623  1.00  0.00    -0.419 C  
HETATM   25  C   UNL     1     -10.639  11.546  63.384  1.00  0.00    -0.460 C  
ENDBRANCH  23  24
ENDBRANCH  22  23
ENDBRANCH   5  22
ENDBRANCH   4   5
ENDBRANCH   3   4
ENDBRANCH   2   3
TORSDOF 14
ENDMDL
MODEL      282
REMARK 921   NORMALIZED FREE ENERGY PREDICTED BY IDOCK:   -2.03 KCAL/MOL
REMARK 922        TOTAL FREE ENERGY PREDICTED BY IDOCK:   -5.08 KCAL/MOL
REMARK 923 INTER-LIGAND FREE ENERGY PREDICTED BY IDOCK:   -4.49 KCAL/MOL
REMARK 924 INTRA-LIGAND FREE ENERGY PREDICTED BY IDOCK:   -0.59 KCAL/MOL
REMARK 927      BINDING AFFINITY PREDICTED BY RF-SCORE:    0.00 PKD
ROOT
HETATM    1  C   UNL     1      -5.306  20.057  71.002  1.00  0.00    -0.303 C  
HETATM    2  C   UNL     1      -5.841  20.287  69.588  1.00  0.00    -0.381 C  
ENDROOT
BRANCH   2   3
HETATM    3  C   UNL     1      -6.847  19.193  69.181  1.00  0.00    -0.361 C  
BRANCH   3   4
HETATM    4  C   UNL     1      -6.142  17.979  68.538  1.00  0.00    -0.191 C  
BRANCH   4   5
HETATM    5  N   UNL     1      -7.086  16.991  67.986  1.00  0.00    -0.159 NA 
BRANCH   5   6
HETATM    6  C   UNL     1      -6.991  15.597  68.398  1.00  0.00    -0.115 C  
HETATM    7  S   UNL     1      -8.213  14.870  69.562  1.00  0.00     0.056 SA 
HETATM    8  C   UNL     1      -8.846  11.104  67.979  1.00  0.00    -0.142 C  
HETATM    9  S   UNL     1      -5.997  14.483  67.652  1.00  0.00     0.075 SA 
HETATM   10 ZN   UNL     1      -7.662  13.233  68.322  1.00  0.00    -0.092 Zn 
HETATM   11  S   UNL     1      -7.891  11.315  69.322  1.00  0.00     0.137 SA 
HETATM   12  S   UNL     1      -8.786  12.421  66.699  1.00  0.00    -0.104 SA 
BRANCH   8  13
HETATM   13  N   UNL     1      -9.887  10.113  67.926  1.00  0.00    -0.149 NA 
BRANCH  13  14
HETATM   14  C   UNL     1     -10.487   9.565  69.141  1.00  0.00    -0.210 C  
BRANCH  14  15
HETATM   15  C   UNL     1      -9.901   8.178  69.506  1.00  0.00    -0.181 C  
BRANCH  15  16
HETATM   16  C   UNL     1     -10.912   7.017  69.431  1.00  0.00    -0.232 C  
HETATM   17  C   UNL     1     -10.323   5.739  70.040  1.00  0.00    -0.328 C  
ENDBRANCH  15  16
ENDBRANCH  14  15
ENDBRANCH  13  14
BRANCH  13  18
HETATM   18  C   UNL     1     -10.381   9.658  66.622  1.00  0.00    -0.208 C  
BRANCH  18  19
HETATM   19  C   UNL     1      -9.653   8.383  66.132  1.00  0.00    -0.246 C  
BRANCH  19  20
HETATM   20  C   UNL     1      -8.167   8.589  65.789  1.00  0.00    -0.125 C  
HETATM   21  C   UNL     1      -7.868   8.101  64.366  1.00  0.00    -0.136 C  
ENDBRANCH  19  20
ENDBRANCH  18  19
ENDBRANCH  13  18
ENDBRANCH   8  13
ENDBRANCH   5   6
BRANCH   5  22
HETATM   22  C   UNL     1      -8.149  17.444  67.078  1.00  0.00    -0.216 C  
BRANCH  22  23
HETATM   23  C   UNL     1      -9.561  17.505  67.691  1.00  0.00    -0.266 C  
BRANCH  23  24
HETATM   24  C   UNL     1     -10.631  16.726  66.914  1.00  0.00    -0.219 C  
HETATM   25  C   UNL     1      -9.990  15.927  65.773  1.00  0.00    -0.391 C  
ENDBRANCH  23  24
ENDBRANCH  22  23
ENDBRANCH   5  22
ENDBRANCH   4   5
ENDBRANCH   3   4
ENDBRANCH   2   3
TORSDOF 14
ENDMDL
MODEL      283
REMARK 921   NORMALIZED FREE ENERGY PREDICTED BY IDOCK:   -1.96 KCAL/MOL
REMARK 922        TOTAL FREE ENERGY PREDICTED BY IDOCK:   -4.94 KCAL/MOL
REMARK 923 INTER-LIGAND FREE ENERGY PREDICTED BY IDOCK:   -4.49 KCAL/MOL
REMARK 924 INTRA-LIGAND FREE ENERGY PREDICTED BY IDOCK:   -0.45 KCAL/MOL
REMARK 927      BINDING AFFINITY PREDICTED BY RF-SCORE:    0.00 PKD
ROOT
HETATM    1  C   UNL     1      -7.848   9.987  63.855  1.00  0.00    -0.150 C  
HETATM    2  C   UNL     1      -9.317  10.342  64.090  1.00  0.00    -0.323 C  
ENDROOT
BRANCH   2   3
HETATM    3  C   UNL     1      -9.808   9.839  65.461  1.00  0.00    -0.378 C  
BRANCH   3   4
HETATM    4  C   UNL     1     -10.621  10.918  66.208  1.00  0.00    -0.214 C  
BRANCH   4   5
HETATM    5  N   UNL     1     -10.338  10.954  67.654  1.00  0.00    -0.189 NA 
BRANCH   5   6
HETATM    6  C   UNL     1      -9.595   9.862  68.268  1.00  0.00    -0.140 C  
HETATM    7  S   UNL     1     -10.399   8.244  68.605  1.00  0.00    -0.174 SA 
HETATM    8  C   UNL     1      -7.445   5.534  67.598  1.00  0.00    -0.081 C  
HETATM    9  S   UNL     1      -7.935   9.859  68.435  1.00  0.00    -0.098 SA 
HETATM   10 ZN   UNL     1      -8.375   7.728  68.208  1.00  0.00    -0.110 Zn 
HETATM   11  S   UNL     1      -7.778   5.881  69.188  1.00  0.00    -0.092 SA 
HETATM   12  S   UNL     1      -7.594   6.915  66.395  1.00  0.00    -0.090 SA 
BRANCH   8  13
HETATM   13  N   UNL     1      -7.333   4.184  67.114  1.00  0.00    -0.068 NA 
BRANCH  13  14
HETATM   14  C   UNL     1      -7.116   3.059  68.022  1.00  0.00    -0.050 C  
BRANCH  14  15
HETATM   15  C   UNL     1      -8.393   2.201  68.204  1.00  0.00    -0.078 C  
BRANCH  15  16
HETATM   16  C   UNL     1      -9.239   2.567  69.440  1.00  0.00    -0.194 C  
HETATM   17  C   UNL     1      -8.683   1.895  70.701  1.00  0.00    -0.107 C  
ENDBRANCH  15  16
ENDBRANCH  14  15
ENDBRANCH  13  14
BRANCH  13  18
HETATM   18  C   UNL     1      -7.468   3.921  65.677  1.00  0.00    -0.081 C  
BRANCH  18  19
HETATM   19  C   UNL     1      -8.946   3.783  65.242  1.00  0.00    -0.133 C  
BRANCH  19  20
HETATM   20  C   UNL     1      -9.176   3.882  63.724  1.00  0.00    -0.129 C  
HETATM   21  C   UNL     1     -10.286   2.920  63.281  1.00  0.00    -0.158 C  
ENDBRANCH  19  20
ENDBRANCH  18  19
ENDBRANCH  13  18
ENDBRANCH   8  13
ENDBRANCH   5   6
BRANCH   5  22
HETATM   22  C   UNL     1     -10.755  12.125  68.437  1.00  0.00    -0.228 C  
BRANCH  22  23
HETATM   23  C   UNL     1     -12.019  11.932  69.296  1.00  0.00    -0.342 C  
BRANCH  23  24
HETATM   24  C   UNL     1     -11.814  11.078  70.555  1.00  0.00    -0.464 C  
HETATM   25  C   UNL     1     -13.091  10.295  70.885  1.00  0.00    -0.423 C  
ENDBRANCH  23  24
ENDBRANCH  22  23
ENDBRANCH   5  22
ENDBRANCH   4   5
ENDBRANCH   3   4
ENDBRANCH   2   3
TORSDOF 14
ENDMDL
MODEL      284
REMARK 921   NORMALIZED FREE ENERGY PREDICTED BY IDOCK:   -1.95 KCAL/MOL
REMARK 922        TOTAL FREE ENERGY PREDICTED BY IDOCK:   -4.92 KCAL/MOL
REMARK 923 INTER-LIGAND FREE ENERGY PREDICTED BY IDOCK:   -4.69 KCAL/MOL
REMARK 924 INTRA-LIGAND FREE ENERGY PREDICTED BY IDOCK:   -0.23 KCAL/MOL
REMARK 927      BINDING AFFINITY PREDICTED BY RF-SCORE:    0.00 PKD
ROOT
HETATM    1  C   UNL     1      -6.825  16.992  65.724  1.00  0.00     0.552 C  
HETATM    2  C   UNL     1      -6.522  18.488  65.626  1.00  0.00    -0.319 C  
ENDROOT
BRANCH   2   3
HETATM    3  C   UNL     1      -5.646  18.964  66.801  1.00  0.00    -0.161 C  
BRANCH   3   4
HETATM    4  C   UNL     1      -5.735  18.002  68.005  1.00  0.00    -0.159 C  
BRANCH   4   5
HETATM    5  N   UNL     1      -6.966  18.181  68.795  1.00  0.00    -0.263 NA 
BRANCH   5   6
HETATM    6  C   UNL     1      -7.759  17.016  69.165  1.00  0.00    -0.114 C  
HETATM    7  S   UNL     1      -9.452  16.774  68.493  1.00  0.00    -0.252 SA 
HETATM    8  C   UNL     1      -9.557  12.712  67.735  1.00  0.00    -0.197 C  
HETATM    9  S   UNL     1      -7.128  15.685  69.949  1.00  0.00     0.094 SA 
HETATM   10 ZN   UNL     1      -8.723  14.793  68.747  1.00  0.00    -0.136 Zn 
HETATM   11  S   UNL     1     -10.320  13.351  69.066  1.00  0.00     0.114 SA 
HETATM   12  S   UNL     1      -7.978  13.498  67.222  1.00  0.00    -0.058 SA 
BRANCH   8  13
HETATM   13  N   UNL     1     -10.212  11.793  66.843  1.00  0.00    -0.206 NA 
BRANCH  13  14
HETATM   14  C   UNL     1      -9.929  10.359  66.874  1.00  0.00    -0.206 C  
BRANCH  14  15
HETATM   15  C   UNL     1     -10.710   9.635  67.999  1.00  0.00    -0.284 C  
BRANCH  15  16
HETATM   16  C   UNL     1      -9.896   9.387  69.285  1.00  0.00    -0.176 C  
HETATM   17  C   UNL     1     -10.657   9.888  70.518  1.00  0.00    -0.359 C  
ENDBRANCH  15  16
ENDBRANCH  14  15
ENDBRANCH  13  14
BRANCH  13  18
HETATM   18  C   UNL     1     -11.211  12.300  65.896  1.00  0.00    -0.340 C  
BRANCH  18  19
HETATM   19  C   UNL     1     -10.562  13.025  64.692  1.00  0.00    -0.397 C  
BRANCH  19  20
HETATM   20  C   UNL     1     -11.077  12.563  63.317  1.00  0.00    -0.286 C  
HETATM   21  C   UNL     1     -12.489  11.978  63.438  1.00  0.00    -0.625 C  
ENDBRANCH  19  20
ENDBRANCH  18  19
ENDBRANCH  13  18
ENDBRANCH   8  13
ENDBRANCH   5   6
BRANCH   5  22
HETATM   22  C   UNL     1      -7.336  19.528  69.252  1.00  0.00    -0.276 C  
BRANCH  22  23
HETATM   23  C   UNL     1      -7.977  20.436  68.185  1.00  0.00    -0.027 C  
BRANCH  23  24
HETATM   24  C   UNL     1      -9.243  19.865  67.533  1.00  0.00    -0.448 C  
HETATM   25  C   UNL     1     -10.495  20.378  68.253  1.00  0.00    -0.156 C  
ENDBRANCH  23  24
ENDBRANCH  22  23
ENDBRANCH   5  22
ENDBRANCH   4   5
ENDBRANCH   3   4
ENDBRANCH   2   3
TORSDOF 14
ENDMDL
MODEL      285
REMARK 921   NORMALIZED FREE ENERGY PREDICTED BY IDOCK:   -1.85 KCAL/MOL
REMARK 922        TOTAL FREE ENERGY PREDICTED BY IDOCK:   -4.74 KCAL/MOL
REMARK 923 INTER-LIGAND FREE ENERGY PREDICTED BY IDOCK:   -5.17 KCAL/MOL
REMARK 924 INTRA-LIGAND FREE ENERGY PREDICTED BY IDOCK:    0.43 KCAL/MOL
REMARK 927      BINDING AFFINITY PREDICTED BY RF-SCORE:    0.00 PKD
ROOT
HETATM    1  C   UNL     1      -7.114   6.319  71.485  1.00  0.00    -0.078 C  
HETATM    2  C   UNL     1      -8.344   5.568  70.970  1.00  0.00    -0.121 C  
ENDROOT
BRANCH   2   3
HETATM    3  C   UNL     1      -9.037   6.338  69.829  1.00  0.00    -0.143 C  
BRANCH   3   4
HETATM    4  C   UNL     1      -8.513   5.900  68.444  1.00  0.00    -0.111 C  
BRANCH   4   5
HETATM    5  N   UNL     1      -7.996   7.023  67.642  1.00  0.00    -0.112 NA 
BRANCH   5   6
HETATM    6  C   UNL     1      -8.169   8.388  68.122  1.00  0.00    -0.124 C  
HETATM    7  S   UNL     1      -7.135   9.759  67.466  1.00  0.00    -0.089 SA 
HETATM    8  C   UNL     1      -9.848  12.859  67.123  1.00  0.00    -0.225 C  
HETATM    9  S   UNL     1      -9.471   8.882  69.042  1.00  0.00    -0.157 SA 
HETATM   10 ZN   UNL     1      -8.986  10.699  67.925  1.00  0.00    -0.126 Zn 
HETATM   11  S   UNL     1      -8.758  12.814  68.376  1.00  0.00    -0.064 SA 
HETATM   12  S   UNL     1     -10.518  11.249  66.544  1.00  0.00    -0.261 SA 
BRANCH   8  13
HETATM   13  N   UNL     1     -10.049  14.038  66.324  1.00  0.00    -0.291 NA 
BRANCH  13  14
HETATM   14  C   UNL     1     -10.242  13.961  64.877  1.00  0.00    -0.351 C  
BRANCH  14  15
HETATM   15  C   UNL     1     -11.736  14.071  64.481  1.00  0.00    -0.428 C  
BRANCH  15  16
HETATM   16  C   UNL     1     -12.120  13.288  63.211  1.00  0.00    -0.407 C  
HETATM   17  C   UNL     1     -12.469  11.834  63.549  1.00  0.00    -0.504 C  
ENDBRANCH  15  16
ENDBRANCH  14  15
ENDBRANCH  13  14
BRANCH  13  18
HETATM   18  C   UNL     1     -10.089  15.351  66.977  1.00  0.00    -0.249 C  
BRANCH  18  19
HETATM   19  C   UNL     1      -9.294  16.421  66.191  1.00  0.00    -0.360 C  
BRANCH  19  20
HETATM   20  C   UNL     1      -9.930  17.823  66.202  1.00  0.00    -0.283 C  
HETATM   21  C   UNL     1      -8.952  18.855  66.774  1.00  0.00    -0.320 C  
ENDBRANCH  19  20
ENDBRANCH  18  19
ENDBRANCH  13  18
ENDBRANCH   8  13
ENDBRANCH   5   6
BRANCH   5  22
HETATM   22  C   UNL     1      -7.256   6.741  66.405  1.00  0.00    -0.072 C  
BRANCH  22  23
HETATM   23  C   UNL     1      -8.114   6.641  65.129  1.00  0.00    -0.133 C  
BRANCH  23  24
HETATM   24  C   UNL     1      -7.426   5.946  63.946  1.00  0.00    -0.075 C  
HETATM   25  C   UNL     1      -8.059   6.389  62.622  1.00  0.00    -0.084 C  
ENDBRANCH  23  24
ENDBRANCH  22  23
ENDBRANCH   5  22
ENDBRANCH   4   5
ENDBRANCH   3   4
ENDBRANCH   2   3
TORSDOF 14
ENDMDL
MODEL      286
REMARK 921   NORMALIZED FREE ENERGY PREDICTED BY IDOCK:   -1.80 KCAL/MOL
REMARK 922        TOTAL FREE ENERGY PREDICTED BY IDOCK:   -4.65 KCAL/MOL
REMARK 923 INTER-LIGAND FREE ENERGY PREDICTED BY IDOCK:   -3.81 KCAL/MOL
REMARK 924 INTRA-LIGAND FREE ENERGY PREDICTED BY IDOCK:   -0.84 KCAL/MOL
REMARK 927      BINDING AFFINITY PREDICTED BY RF-SCORE:    0.00 PKD
ROOT
HETATM    1  C   UNL     1     -10.835   6.035  66.733  1.00  0.00    -0.356 C  
HETATM    2  C   UNL     1     -10.680   7.126  67.793  1.00  0.00    -0.282 C  
ENDROOT
BRANCH   2   3
HETATM    3  C   UNL     1     -10.492   8.515  67.151  1.00  0.00    -0.370 C  
BRANCH   3   4
HETATM    4  C   UNL     1      -9.228   8.569  66.267  1.00  0.00    -0.207 C  
BRANCH   4   5
HETATM    5  N   UNL     1      -8.223   9.529  66.758  1.00  0.00    -0.112 NA 
BRANCH   5   6
HETATM    6  C   UNL     1      -7.647   9.351  68.085  1.00  0.00    -0.083 C  
HETATM    7  S   UNL     1      -8.599   9.785  69.595  1.00  0.00    -0.204 SA 
HETATM    8  C   UNL     1      -7.644   6.710  72.187  1.00  0.00    -0.095 C  
HETATM    9  S   UNL     1      -6.251   8.484  68.372  1.00  0.00    -0.055 SA 
HETATM   10 ZN   UNL     1      -7.375   8.163  70.220  1.00  0.00    -0.051 Zn 
HETATM   11  S   UNL     1      -6.951   8.212  72.353  1.00  0.00    -0.090 SA 
HETATM   12  S   UNL     1      -7.976   6.131  70.476  1.00  0.00    -0.113 SA 
BRANCH   8  13
HETATM   13  N   UNL     1      -8.230   6.010  73.298  1.00  0.00    -0.115 NA 
BRANCH  13  14
HETATM   14  C   UNL     1      -7.465   5.713  74.508  1.00  0.00    -0.087 C  
BRANCH  14  15
HETATM   15  C   UNL     1      -6.269   4.768  74.225  1.00  0.00    -0.052 C  
BRANCH  15  16
HETATM   16  C   UNL     1      -6.669   3.359  73.742  1.00  0.00    -0.035 C  
HETATM   17  C   UNL     1      -6.244   3.140  72.285  1.00  0.00    -0.014 C  
ENDBRANCH  15  16
ENDBRANCH  14  15
ENDBRANCH  13  14
BRANCH  13  18
HETATM   18  C   UNL     1      -9.638   5.604  73.230  1.00  0.00    -0.146 C  
BRANCH  18  19
HETATM   19  C   UNL     1     -10.562   6.765  72.790  1.00  0.00    -0.264 C  
BRANCH  19  20
HETATM   20  C   UNL     1     -11.949   6.322  72.293  1.00  0.00    -0.296 C  
HETATM   21  C   UNL     1     -12.711   7.509  71.691  1.00  0.00    -0.385 C  
ENDBRANCH  19  20
ENDBRANCH  18  19
ENDBRANCH  13  18
ENDBRANCH   8  13
ENDBRANCH   5   6
BRANCH   5  22
HETATM   22  C   UNL     1      -7.774  10.612  65.874  1.00  0.00    -0.146 C  
BRANCH  22  23
HETATM   23  C   UNL     1      -7.167  10.163  64.531  1.00  0.00    -0.119 C  
BRANCH  23  24
HETATM   24  C   UNL     1      -5.835   9.409  64.650  1.00  0.00    -0.070 C  
HETATM   25  C   UNL     1      -5.506   8.693  63.335  1.00  0.00    -0.064 C  
ENDBRANCH  23  24
ENDBRANCH  22  23
ENDBRANCH   5  22
ENDBRANCH   4   5
ENDBRANCH   3   4
ENDBRANCH   2   3
TORSDOF 14
ENDMDL
MODEL      287
REMARK 921   NORMALIZED FREE ENERGY PREDICTED BY IDOCK:   -1.66 KCAL/MOL
REMARK 922        TOTAL FREE ENERGY PREDICTED BY IDOCK:   -4.40 KCAL/MOL
REMARK 923 INTER-LIGAND FREE ENERGY PREDICTED BY IDOCK:   -3.60 KCAL/MOL
REMARK 924 INTRA-LIGAND FREE ENERGY PREDICTED BY IDOCK:   -0.80 KCAL/MOL
REMARK 927      BINDING AFFINITY PREDICTED BY RF-SCORE:    0.00 PKD
ROOT
HETATM    1  C   UNL     1      -8.504   9.927  64.791  1.00  0.00    -0.179 C  
HETATM    2  C   UNL     1      -8.673  11.114  65.741  1.00  0.00    -0.153 C  
ENDROOT
BRANCH   2   3
HETATM    3  C   UNL     1      -7.423  11.317  66.618  1.00  0.00    -0.133 C  
BRANCH   3   4
HETATM    4  C   UNL     1      -7.797  11.569  68.095  1.00  0.00    -0.128 C  
BRANCH   4   5
HETATM    5  N   UNL     1      -8.632  10.498  68.668  1.00  0.00    -0.131 NA 
BRANCH   5   6
HETATM    6  C   UNL     1      -8.022   9.223  69.024  1.00  0.00    -0.097 C  
HETATM    7  S   UNL     1      -7.523   8.867  70.756  1.00  0.00    -0.111 SA 
HETATM    8  C   UNL     1      -8.624   4.910  71.224  1.00  0.00    -0.123 C  
HETATM    9  S   UNL     1      -8.001   7.898  68.010  1.00  0.00    -0.130 SA 
HETATM   10 ZN   UNL     1      -8.064   6.961  69.986  1.00  0.00    -0.102 Zn 
HETATM   11  S   UNL     1      -7.033   5.331  70.992  1.00  0.00    -0.057 SA 
HETATM   12  S   UNL     1      -9.887   5.909  70.339  1.00  0.00    -0.190 SA 
BRANCH   8  13
HETATM   13  N   UNL     1      -9.035   4.018  72.274  1.00  0.00    -0.109 NA 
BRANCH  13  14
HETATM   14  C   UNL     1      -8.392   4.029  73.587  1.00  0.00    -0.089 C  
BRANCH  14  15
HETATM   15  C   UNL     1      -8.952   5.147  74.502  1.00  0.00    -0.113 C  
BRANCH  15  16
HETATM   16  C   UNL     1      -8.445   6.563  74.163  1.00  0.00    -0.140 C  
HETATM   17  C   UNL     1      -6.944   6.690  74.448  1.00  0.00    -0.091 C  
ENDBRANCH  15  16
ENDBRANCH  14  15
ENDBRANCH  13  14
BRANCH  13  18
HETATM   18  C   UNL     1     -10.146   3.090  72.036  1.00  0.00    -0.110 C  
BRANCH  18  19
HETATM   19  C   UNL     1      -9.682   1.784  71.348  1.00  0.00    -0.212 C  
BRANCH  19  20
HETATM   20  C   UNL     1      -9.334   1.938  69.857  1.00  0.00    -0.164 C  
HETATM   21  C   UNL     1      -7.882   1.520  69.595  1.00  0.00    -0.047 C  
ENDBRANCH  19  20
ENDBRANCH  18  19
ENDBRANCH  13  18
ENDBRANCH   8  13
ENDBRANCH   5   6
BRANCH   5  22
HETATM   22  C   UNL     1     -10.054  10.759  68.929  1.00  0.00    -0.205 C  
BRANCH  22  23
HETATM   23  C   UNL     1     -10.491  12.231  68.805  1.00  0.00    -0.187 C  
BRANCH  23  24
HETATM   24  C   UNL     1     -12.007  12.458  68.878  1.00  0.00    -0.289 C  
HETATM   25  C   UNL     1     -12.394  13.060  70.234  1.00  0.00    -0.311 C  
ENDBRANCH  23  24
ENDBRANCH  22  23
ENDBRANCH   5  22
ENDBRANCH   4   5
ENDBRANCH   3   4
ENDBRANCH   2   3
TORSDOF 14
ENDMDL
MODEL      288
REMARK 921   NORMALIZED FREE ENERGY PREDICTED BY IDOCK:   -1.55 KCAL/MOL
REMARK 922        TOTAL FREE ENERGY PREDICTED BY IDOCK:   -4.21 KCAL/MOL
REMARK 923 INTER-LIGAND FREE ENERGY PREDICTED BY IDOCK:   -4.82 KCAL/MOL
REMARK 924 INTRA-LIGAND FREE ENERGY PREDICTED BY IDOCK:    0.61 KCAL/MOL
REMARK 927      BINDING AFFINITY PREDICTED BY RF-SCORE:    0.00 PKD
ROOT
HETATM    1  C   UNL     1     -11.288   5.122  73.306  1.00  0.00    -0.361 C  
HETATM    2  C   UNL     1     -11.711   5.762  71.983  1.00  0.00    -0.175 C  
ENDROOT
BRANCH   2   3
HETATM    3  C   UNL     1     -10.605   5.637  70.917  1.00  0.00    -0.328 C  
BRANCH   3   4
HETATM    4  C   UNL     1     -10.692   6.768  69.870  1.00  0.00    -0.250 C  
BRANCH   4   5
HETATM    5  N   UNL     1      -9.370   7.199  69.378  1.00  0.00    -0.148 NA 
BRANCH   5   6
HETATM    6  C   UNL     1      -9.288   8.117  68.250  1.00  0.00    -0.134 C  
HETATM    7  S   UNL     1     -10.771   9.028  67.662  1.00  0.00    -0.071 SA 
HETATM    8  C   UNL     1      -9.256  12.777  66.804  1.00  0.00    -0.225 C  
HETATM    9  S   UNL     1      -7.845   8.652  67.603  1.00  0.00    -0.103 SA 
HETATM   10 ZN   UNL     1      -9.167  10.358  67.247  1.00  0.00    -0.134 Zn 
HETATM   11  S   UNL     1      -9.601  11.697  65.589  1.00  0.00    -0.212 SA 
HETATM   12  S   UNL     1      -8.608  12.082  68.376  1.00  0.00    -0.109 SA 
BRANCH   8  13
HETATM   13  N   UNL     1      -9.705  14.143  66.766  1.00  0.00    -0.267 NA 
BRANCH  13  14
HETATM   14  C   UNL     1     -11.104  14.498  66.993  1.00  0.00    -0.322 C  
BRANCH  14  15
HETATM   15  C   UNL     1     -11.258  15.605  68.066  1.00  0.00    -0.339 C  
BRANCH  15  16
HETATM   16  C   UNL     1     -12.069  15.184  69.307  1.00  0.00    -0.278 C  
HETATM   17  C   UNL     1     -11.245  15.368  70.587  1.00  0.00    -0.370 C  
ENDBRANCH  15  16
ENDBRANCH  14  15
ENDBRANCH  13  14
BRANCH  13  18
HETATM   18  C   UNL     1      -8.731  15.212  66.521  1.00  0.00    -0.245 C  
BRANCH  18  19
HETATM   19  C   UNL     1      -9.013  16.470  67.378  1.00  0.00    -0.207 C  
BRANCH  19  20
HETATM   20  C   UNL     1      -8.317  17.749  66.881  1.00  0.00    -0.257 C  
HETATM   21  C   UNL     1      -8.228  18.787  68.006  1.00  0.00    -0.317 C  
ENDBRANCH  19  20
ENDBRANCH  18  19
ENDBRANCH  13  18
ENDBRANCH   8  13
ENDBRANCH   5   6
BRANCH   5  22
HETATM   22  C   UNL     1      -8.161   6.744  70.078  1.00  0.00    -0.134 C  
BRANCH  22  23
HETATM   23  C   UNL     1      -7.850   7.468  71.401  1.00  0.00    -0.093 C  
BRANCH  23  24
HETATM   24  C   UNL     1      -6.451   8.094  71.476  1.00  0.00    -0.044 C  
HETATM   25  C   UNL     1      -6.513   9.467  72.156  1.00  0.00     0.302 C  
ENDBRANCH  23  24
ENDBRANCH  22  23
ENDBRANCH   5  22
ENDBRANCH   4   5
ENDBRANCH   3   4
ENDBRANCH   2   3
TORSDOF 14
ENDMDL
MODEL      289
REMARK 921   NORMALIZED FREE ENERGY PREDICTED BY IDOCK:   -1.44 KCAL/MOL
REMARK 922        TOTAL FREE ENERGY PREDICTED BY IDOCK:   -4.01 KCAL/MOL
REMARK 923 INTER-LIGAND FREE ENERGY PREDICTED BY IDOCK:   -3.44 KCAL/MOL
REMARK 924 INTRA-LIGAND FREE ENERGY PREDICTED BY IDOCK:   -0.57 KCAL/MOL
REMARK 927      BINDING AFFINITY PREDICTED BY RF-SCORE:    0.00 PKD
ROOT
HETATM    1  C   UNL     1      -5.845  20.331  70.541  1.00  0.00    -0.371 C  
HETATM    2  C   UNL     1      -6.311  20.328  69.084  1.00  0.00    -0.339 C  
ENDROOT
BRANCH   2   3
HETATM    3  C   UNL     1      -7.091  19.044  68.743  1.00  0.00    -0.353 C  
BRANCH   3   4
HETATM    4  C   UNL     1      -6.166  17.949  68.169  1.00  0.00    -0.175 C  
BRANCH   4   5
HETATM    5  N   UNL     1      -6.858  16.665  67.954  1.00  0.00    -0.140 NA 
BRANCH   5   6
HETATM    6  C   UNL     1      -6.283  15.440  68.495  1.00  0.00    -0.095 C  
HETATM    7  S   UNL     1      -6.999  14.637  69.984  1.00  0.00     0.042 SA 
HETATM    8  C   UNL     1      -6.786  10.618  69.041  1.00  0.00    -0.066 C  
HETATM    9  S   UNL     1      -5.164  14.511  67.677  1.00  0.00     0.213 SA 
HETATM   10 ZN   UNL     1      -6.234  13.008  68.852  1.00  0.00    -0.066 Zn 
HETATM   11  S   UNL     1      -5.702  11.305  70.095  1.00  0.00    -0.135 SA 
HETATM   12  S   UNL     1      -7.354  11.657  67.636  1.00  0.00    -0.117 SA 
BRANCH   8  13
HETATM   13  N   UNL     1      -7.482   9.397  69.344  1.00  0.00    -0.076 NA 
BRANCH  13  14
HETATM   14  C   UNL     1      -7.847   9.042  70.714  1.00  0.00    -0.136 C  
BRANCH  14  15
HETATM   15  C   UNL     1      -6.990   7.872  71.262  1.00  0.00    -0.050 C  
BRANCH  15  16
HETATM   16  C   UNL     1      -7.800   6.753  71.947  1.00  0.00    -0.097 C  
HETATM   17  C   UNL     1      -8.456   5.838  70.907  1.00  0.00    -0.126 C  
ENDBRANCH  15  16
ENDBRANCH  14  15
ENDBRANCH  13  14
BRANCH  13  18
HETATM   18  C   UNL     1      -7.860   8.494  68.251  1.00  0.00    -0.106 C  
BRANCH  18  19
HETATM   19  C   UNL     1      -6.767   7.439  67.958  1.00  0.00    -0.055 C  
BRANCH  19  20
HETATM   20  C   UNL     1      -5.507   7.999  67.273  1.00  0.00    -0.037 C  
HETATM   21  C   UNL     1      -5.175   7.195  66.011  1.00  0.00    -0.024 C  
ENDBRANCH  19  20
ENDBRANCH  18  19
ENDBRANCH  13  18
ENDBRANCH   8  13
ENDBRANCH   5   6
BRANCH   5  22
HETATM   22  C   UNL     1      -8.149  16.655  67.255  1.00  0.00    -0.168 C  
BRANCH  22  23
HETATM   23  C   UNL     1      -9.392  16.542  68.160  1.00  0.00    -0.218 C  
BRANCH  23  24
HETATM   24  C   UNL     1     -10.595  17.377  67.702  1.00  0.00    -0.350 C  
HETATM   25  C   UNL     1     -10.281  18.092  66.382  1.00  0.00    -0.393 C  
ENDBRANCH  23  24
ENDBRANCH  22  23
ENDBRANCH   5  22
ENDBRANCH   4   5
ENDBRANCH   3   4
ENDBRANCH   2   3
TORSDOF 14
ENDMDL
MODEL      290
REMARK 921   NORMALIZED FREE ENERGY PREDICTED BY IDOCK:   -1.32 KCAL/MOL
REMARK 922        TOTAL FREE ENERGY PREDICTED BY IDOCK:   -3.78 KCAL/MOL
REMARK 923 INTER-LIGAND FREE ENERGY PREDICTED BY IDOCK:   -3.22 KCAL/MOL
REMARK 924 INTRA-LIGAND FREE ENERGY PREDICTED BY IDOCK:   -0.56 KCAL/MOL
REMARK 927      BINDING AFFINITY PREDICTED BY RF-SCORE:    0.00 PKD
ROOT
HETATM    1  C   UNL     1     -10.938   6.378  67.032  1.00  0.00    -0.463 C  
HETATM    2  C   UNL     1      -9.546   5.863  67.401  1.00  0.00    -0.117 C  
ENDROOT
BRANCH   2   3
HETATM    3  C   UNL     1      -8.502   6.245  66.334  1.00  0.00    -0.125 C  
BRANCH   3   4
HETATM    4  C   UNL     1      -7.302   6.993  66.953  1.00  0.00    -0.078 C  
BRANCH   4   5
HETATM    5  N   UNL     1      -7.262   8.420  66.586  1.00  0.00    -0.077 NA 
BRANCH   5   6
HETATM    6  C   UNL     1      -8.360   9.294  66.976  1.00  0.00    -0.120 C  
HETATM    7  S   UNL     1      -8.388  10.094  68.630  1.00  0.00    -0.123 SA 
HETATM    8  C   UNL     1      -9.804  13.884  67.782  1.00  0.00    -0.237 C  
HETATM    9  S   UNL     1      -9.493   9.883  65.903  1.00  0.00    -0.235 SA 
HETATM   10 ZN   UNL     1      -9.380  11.495  67.376  1.00  0.00    -0.153 Zn 
HETATM   11  S   UNL     1     -10.793  12.738  68.467  1.00  0.00    -0.259 SA 
HETATM   12  S   UNL     1      -8.560  13.293  66.567  1.00  0.00     0.333 SA 
BRANCH   8  13
HETATM   13  N   UNL     1      -9.702  15.220  68.306  1.00  0.00    -0.208 NA 
BRANCH  13  14
HETATM   14  C   UNL     1      -9.254  15.476  69.674  1.00  0.00    -0.203 C  
BRANCH  14  15
HETATM   15  C   UNL     1     -10.293  16.293  70.483  1.00  0.00     0.482 C  
BRANCH  15  16
HETATM   16  C   UNL     1     -11.699  15.665  70.536  1.00  0.00    -0.392 C  
HETATM   17  C   UNL     1     -12.381  15.961  71.878  1.00  0.00    -0.541 C  
ENDBRANCH  15  16
ENDBRANCH  14  15
ENDBRANCH  13  14
BRANCH  13  18
HETATM   18  C   UNL     1     -10.029  16.358  67.440  1.00  0.00    -0.251 C  
BRANCH  18  19
HETATM   19  C   UNL     1      -8.865  17.373  67.342  1.00  0.00    -0.230 C  
BRANCH  19  20
HETATM   20  C   UNL     1      -9.048  18.449  66.257  1.00  0.00    -0.213 C  
HETATM   21  C   UNL     1      -7.976  19.538  66.390  1.00  0.00    -0.323 C  
ENDBRANCH  19  20
ENDBRANCH  18  19
ENDBRANCH  13  18
ENDBRANCH   8  13
ENDBRANCH   5   6
BRANCH   5  22
HETATM   22  C   UNL     1      -6.082   8.948  65.888  1.00  0.00    -0.052 C  
BRANCH  22  23
HETATM   23  C   UNL     1      -6.289   9.290  64.400  1.00  0.00    -0.077 C  
BRANCH  23  24
HETATM   24  C   UNL     1      -6.754  10.728  64.132  1.00  0.00     0.374 C  
HETATM   25  C   UNL     1      -7.185  10.888  62.670  1.00  0.00     0.071 C  
ENDBRANCH  23  24
ENDBRANCH  22  23
ENDBRANCH   5  22
ENDBRANCH   4   5
ENDBRANCH   3   4
ENDBRANCH   2   3
TORSDOF 14
ENDMDL
MODEL      291
REMARK 921   NORMALIZED FREE ENERGY PREDICTED BY IDOCK:   -1.31 KCAL/MOL
REMARK 922        TOTAL FREE ENERGY PREDICTED BY IDOCK:   -3.77 KCAL/MOL
REMARK 923 INTER-LIGAND FREE ENERGY PREDICTED BY IDOCK:   -3.29 KCAL/MOL
REMARK 924 INTRA-LIGAND FREE ENERGY PREDICTED BY IDOCK:   -0.48 KCAL/MOL
REMARK 927      BINDING AFFINITY PREDICTED BY RF-SCORE:    0.00 PKD
ROOT
HETATM    1  C   UNL     1     -13.225  14.024  70.038  1.00  0.00     0.623 C  
HETATM    2  C   UNL     1     -12.016  13.502  69.260  1.00  0.00    -0.378 C  
ENDROOT
BRANCH   2   3
HETATM    3  C   UNL     1     -12.010  11.963  69.194  1.00  0.00    -0.336 C  
BRANCH   3   4
HETATM    4  C   UNL     1     -11.032  11.441  68.119  1.00  0.00    -0.232 C  
BRANCH   4   5
HETATM    5  N   UNL     1      -9.650  11.308  68.615  1.00  0.00    -0.200 NA 
BRANCH   5   6
HETATM    6  C   UNL     1      -8.613  12.194  68.100  1.00  0.00    -0.177 C  
HETATM    7  S   UNL     1      -8.998  13.456  66.822  1.00  0.00    -0.124 SA 
HETATM    8  C   UNL     1      -6.787  16.717  68.070  1.00  0.00    -0.144 C  
HETATM    9  S   UNL     1      -7.111  12.359  68.807  1.00  0.00    -0.078 SA 
HETATM   10 ZN   UNL     1      -7.437  14.348  67.956  1.00  0.00    -0.092 Zn 
HETATM   11  S   UNL     1      -6.277  15.778  66.798  1.00  0.00     0.994 SA 
HETATM   12  S   UNL     1      -7.642  15.858  69.450  1.00  0.00    -0.155 SA 
BRANCH   8  13
HETATM   13  N   UNL     1      -6.835  18.152  67.992  1.00  0.00    -0.204 NA 
BRANCH  13  14
HETATM   14  C   UNL     1      -7.573  18.950  68.969  1.00  0.00    -0.248 C  
BRANCH  14  15
HETATM   15  C   UNL     1      -6.644  19.898  69.769  1.00  0.00    -0.353 C  
BRANCH  15  16
HETATM   16  C   UNL     1      -5.286  19.282  70.160  1.00  0.00    -0.215 C  
HETATM   17  C   UNL     1      -5.461  18.217  71.249  1.00  0.00    -0.048 C  
ENDBRANCH  15  16
ENDBRANCH  14  15
ENDBRANCH  13  14
BRANCH  13  18
HETATM   18  C   UNL     1      -6.105  18.839  66.920  1.00  0.00    -0.162 C  
BRANCH  18  19
HETATM   19  C   UNL     1      -6.668  20.253  66.640  1.00  0.00    -0.269 C  
BRANCH  19  20
HETATM   20  C   UNL     1      -6.619  20.676  65.161  1.00  0.00    -0.257 C  
HETATM   21  C   UNL     1      -5.544  19.885  64.407  1.00  0.00    -0.258 C  
ENDBRANCH  19  20
ENDBRANCH  18  19
ENDBRANCH  13  18
ENDBRANCH   8  13
ENDBRANCH   5   6
BRANCH   5  22
HETATM   22  C   UNL     1      -9.357  10.328  69.669  1.00  0.00    -0.139 C  
BRANCH  22  23
HETATM   23  C   UNL     1      -9.857   8.896  69.399  1.00  0.00    -0.183 C  
BRANCH  23  24
HETATM   24  C   UNL     1     -10.594   8.242  70.576  1.00  0.00    -0.233 C  
HETATM   25  C   UNL     1     -11.576   9.234  71.211  1.00  0.00    -0.419 C  
ENDBRANCH  23  24
ENDBRANCH  22  23
ENDBRANCH   5  22
ENDBRANCH   4   5
ENDBRANCH   3   4
ENDBRANCH   2   3
TORSDOF 14
ENDMDL
MODEL      292
REMARK 921   NORMALIZED FREE ENERGY PREDICTED BY IDOCK:   -1.21 KCAL/MOL
REMARK 922        TOTAL FREE ENERGY PREDICTED BY IDOCK:   -3.58 KCAL/MOL
REMARK 923 INTER-LIGAND FREE ENERGY PREDICTED BY IDOCK:   -3.81 KCAL/MOL
REMARK 924 INTRA-LIGAND FREE ENERGY PREDICTED BY IDOCK:    0.22 KCAL/MOL
REMARK 927      BINDING AFFINITY PREDICTED BY RF-SCORE:    0.00 PKD
ROOT
HETATM    1  C   UNL     1     -10.879   4.927  68.261  1.00  0.00     0.676 C  
HETATM    2  C   UNL     1      -9.910   5.302  67.139  1.00  0.00    -0.184 C  
ENDROOT
BRANCH   2   3
HETATM    3  C   UNL     1      -8.936   6.411  67.582  1.00  0.00    -0.113 C  
BRANCH   3   4
HETATM    4  C   UNL     1      -7.979   5.921  68.690  1.00  0.00    -0.103 C  
BRANCH   4   5
HETATM    5  N   UNL     1      -7.989   6.787  69.883  1.00  0.00    -0.118 NA 
BRANCH   5   6
HETATM    6  C   UNL     1      -8.036   8.234  69.721  1.00  0.00    -0.118 C  
HETATM    7  S   UNL     1      -7.329   9.041  68.229  1.00  0.00    -0.083 SA 
HETATM    8  C   UNL     1     -10.100  11.991  67.390  1.00  0.00    -0.194 C  
HETATM    9  S   UNL     1      -8.970   9.237  70.673  1.00  0.00    -0.227 SA 
HETATM   10 ZN   UNL     1      -8.948  10.309  68.767  1.00  0.00    -0.114 Zn 
HETATM   11  S   UNL     1      -8.652  12.363  68.115  1.00  0.00    -0.181 SA 
HETATM   12  S   UNL     1     -10.872  10.387  67.845  1.00  0.00    -0.295 SA 
BRANCH   8  13
HETATM   13  N   UNL     1     -10.597  12.718  66.253  1.00  0.00    -0.254 NA 
BRANCH  13  14
HETATM   14  C   UNL     1      -9.778  13.710  65.558  1.00  0.00    -0.059 C  
BRANCH  14  15
HETATM   15  C   UNL     1      -9.457  14.932  66.455  1.00  0.00    -0.327 C  
BRANCH  15  16
HETATM   16  C   UNL     1     -10.668  15.494  67.226  1.00  0.00    -0.308 C  
HETATM   17  C   UNL     1     -10.319  16.830  67.893  1.00  0.00    -0.319 C  
ENDBRANCH  15  16
ENDBRANCH  14  15
ENDBRANCH  13  14
BRANCH  13  18
HETATM   18  C   UNL     1     -11.950  12.441  65.757  1.00  0.00    -0.372 C  
BRANCH  18  19
HETATM   19  C   UNL     1     -12.510  13.603  64.903  1.00  0.00    -0.423 C  
BRANCH  19  20
HETATM   20  C   UNL     1     -12.317  13.431  63.386  1.00  0.00    -0.343 C  
HETATM   21  C   UNL     1     -12.462  11.957  62.987  1.00  0.00    -0.142 C  
ENDBRANCH  19  20
ENDBRANCH  18  19
ENDBRANCH  13  18
ENDBRANCH   8  13
ENDBRANCH   5   6
BRANCH   5  22
HETATM   22  C   UNL     1      -8.016   6.171  71.216  1.00  0.00    -0.113 C  
BRANCH  22  23
HETATM   23  C   UNL     1      -6.732   6.340  72.051  1.00  0.00    -0.067 C  
BRANCH  23  24
HETATM   24  C   UNL     1      -5.428   6.133  71.270  1.00  0.00    -0.022 C  
HETATM   25  C   UNL     1      -5.180   4.640  71.026  1.00  0.00    -0.004 C  
ENDBRANCH  23  24
ENDBRANCH  22  23
ENDBRANCH   5  22
ENDBRANCH   4   5
ENDBRANCH   3   4
ENDBRANCH   2   3
TORSDOF 14
ENDMDL
MODEL      293
REMARK 921   NORMALIZED FREE ENERGY PREDICTED BY IDOCK:   -1.12 KCAL/MOL
REMARK 922        TOTAL FREE ENERGY PREDICTED BY IDOCK:   -3.43 KCAL/MOL
REMARK 923 INTER-LIGAND FREE ENERGY PREDICTED BY IDOCK:   -5.99 KCAL/MOL
REMARK 924 INTRA-LIGAND FREE ENERGY PREDICTED BY IDOCK:    2.57 KCAL/MOL
REMARK 927      BINDING AFFINITY PREDICTED BY RF-SCORE:    0.00 PKD
ROOT
HETATM    1  C   UNL     1      -5.360   9.309  63.673  1.00  0.00    -0.066 C  
HETATM    2  C   UNL     1      -5.416   9.031  65.176  1.00  0.00    -0.042 C  
ENDROOT
BRANCH   2   3
HETATM    3  C   UNL     1      -5.486  10.339  65.989  1.00  0.00    -0.066 C  
BRANCH   3   4
HETATM    4  C   UNL     1      -6.790  10.431  66.810  1.00  0.00    -0.091 C  
BRANCH   4   5
HETATM    5  N   UNL     1      -8.001  10.419  65.970  1.00  0.00    -0.139 NA 
BRANCH   5   6
HETATM    6  C   UNL     1      -9.208  11.088  66.439  1.00  0.00    -0.175 C  
HETATM    7  S   UNL     1      -9.707  11.007  68.205  1.00  0.00    -0.180 SA 
HETATM    8  C   UNL     1     -11.053  14.844  68.946  1.00  0.00    -0.257 C  
HETATM    9  S   UNL     1     -10.053  12.203  65.530  1.00  0.00    -0.248 SA 
HETATM   10 ZN   UNL     1     -10.412  12.909  67.569  1.00  0.00    -0.207 Zn 
HETATM   11  S   UNL     1     -12.123  13.593  68.724  1.00  0.00    -0.193 SA 
HETATM   12  S   UNL     1      -9.506  14.804  67.955  1.00  0.00    -0.209 SA 
BRANCH   8  13
HETATM   13  N   UNL     1     -11.162  15.759  70.051  1.00  0.00    -0.310 NA 
BRANCH  13  14
HETATM   14  C   UNL     1     -10.824  17.175  69.911  1.00  0.00     0.324 C  
BRANCH  14  15
HETATM   15  C   UNL     1      -9.805  17.421  68.770  1.00  0.00    -0.311 C  
BRANCH  15  16
HETATM   16  C   UNL     1      -9.493  18.907  68.502  1.00  0.00    -0.416 C  
HETATM   17  C   UNL     1     -10.486  19.501  67.496  1.00  0.00    -0.596 C  
ENDBRANCH  15  16
ENDBRANCH  14  15
ENDBRANCH  13  14
BRANCH  13  18
HETATM   18  C   UNL     1     -11.649  15.269  71.345  1.00  0.00    -0.391 C  
BRANCH  18  19
HETATM   19  C   UNL     1     -13.137  15.623  71.582  1.00  0.00    -0.554 C  
BRANCH  19  20
HETATM   20  C   UNL     1     -14.029  14.421  71.940  1.00  0.00    -0.574 C  
HETATM   21  C   UNL     1     -13.193  13.141  72.049  1.00  0.00    -0.543 C  
ENDBRANCH  19  20
ENDBRANCH  18  19
ENDBRANCH  13  18
ENDBRANCH   8  13
ENDBRANCH   5   6
BRANCH   5  22
HETATM   22  C   UNL     1      -7.948   9.789  64.644  1.00  0.00    -0.139 C  
BRANCH  22  23
HETATM   23  C   UNL     1      -9.308   9.599  63.945  1.00  0.00    -0.096 C  
BRANCH  23  24
HETATM   24  C   UNL     1      -9.430  10.292  62.582  1.00  0.00    -0.309 C  
HETATM   25  C   UNL     1      -8.231  11.217  62.341  1.00  0.00    -0.204 C  
ENDBRANCH  23  24
ENDBRANCH  22  23
ENDBRANCH   5  22
ENDBRANCH   4   5
ENDBRANCH   3   4
ENDBRANCH   2   3
TORSDOF 14
ENDMDL
MODEL      294
REMARK 921   NORMALIZED FREE ENERGY PREDICTED BY IDOCK:   -1.09 KCAL/MOL
REMARK 922        TOTAL FREE ENERGY PREDICTED BY IDOCK:   -3.36 KCAL/MOL
REMARK 923 INTER-LIGAND FREE ENERGY PREDICTED BY IDOCK:   -3.21 KCAL/MOL
REMARK 924 INTRA-LIGAND FREE ENERGY PREDICTED BY IDOCK:   -0.15 KCAL/MOL
REMARK 927      BINDING AFFINITY PREDICTED BY RF-SCORE:    0.00 PKD
ROOT
HETATM    1  C   UNL     1     -10.630   6.960  66.595  1.00  0.00    -0.197 C  
HETATM    2  C   UNL     1     -10.334   7.174  68.081  1.00  0.00    -0.234 C  
ENDROOT
BRANCH   2   3
HETATM    3  C   UNL     1     -10.522   8.649  68.486  1.00  0.00    -0.209 C  
BRANCH   3   4
HETATM    4  C   UNL     1      -9.936   9.610  67.430  1.00  0.00    -0.187 C  
BRANCH   4   5
HETATM    5  N   UNL     1      -8.464   9.574  67.373  1.00  0.00    -0.125 NA 
BRANCH   5   6
HETATM    6  C   UNL     1      -7.712   9.067  68.514  1.00  0.00    -0.097 C  
HETATM    7  S   UNL     1      -8.129   9.588  70.226  1.00  0.00    -0.184 SA 
HETATM    8  C   UNL     1      -7.714   6.078  72.370  1.00  0.00    -0.101 C  
HETATM    9  S   UNL     1      -6.652   7.783  68.419  1.00  0.00    -0.055 SA 
HETATM   10 ZN   UNL     1      -7.403   7.604  70.465  1.00  0.00    -0.061 Zn 
HETATM   11  S   UNL     1      -6.548   7.260  72.435  1.00  0.00    -0.052 SA 
HETATM   12  S   UNL     1      -8.571   5.841  70.762  1.00  0.00    -0.130 SA 
BRANCH   8  13
HETATM   13  N   UNL     1      -8.250   5.463  73.554  1.00  0.00    -0.113 NA 
BRANCH  13  14
HETATM   14  C   UNL     1      -7.390   4.785  74.523  1.00  0.00    -0.081 C  
BRANCH  14  15
HETATM   15  C   UNL     1      -6.435   3.771  73.845  1.00  0.00    -0.037 C  
BRANCH  15  16
HETATM   16  C   UNL     1      -7.082   2.414  73.502  1.00  0.00    -0.032 C  
HETATM   17  C   UNL     1      -6.915   2.090  72.013  1.00  0.00    -0.026 C  
ENDBRANCH  15  16
ENDBRANCH  14  15
ENDBRANCH  13  14
BRANCH  13  18
HETATM   18  C   UNL     1      -9.692   5.540  73.815  1.00  0.00    -0.155 C  
BRANCH  18  19
HETATM   19  C   UNL     1     -10.485   4.458  73.043  1.00  0.00    -0.250 C  
BRANCH  19  20
HETATM   20  C   UNL     1     -10.947   3.270  73.905  1.00  0.00    -0.275 C  
HETATM   21  C   UNL     1     -10.734   1.947  73.160  1.00  0.00    -0.238 C  
ENDBRANCH  19  20
ENDBRANCH  18  19
ENDBRANCH  13  18
ENDBRANCH   8  13
ENDBRANCH   5   6
BRANCH   5  22
HETATM   22  C   UNL     1      -7.783   9.990  66.139  1.00  0.00    -0.108 C  
BRANCH  22  23
HETATM   23  C   UNL     1      -6.786  11.154  66.292  1.00  0.00    -0.055 C  
BRANCH  23  24
HETATM   24  C   UNL     1      -7.135  12.154  67.403  1.00  0.00    -0.146 C  
HETATM   25  C   UNL     1      -5.922  12.393  68.309  1.00  0.00    -0.059 C  
ENDBRANCH  23  24
ENDBRANCH  22  23
ENDBRANCH   5  22
ENDBRANCH   4   5
ENDBRANCH   3   4
ENDBRANCH   2   3
TORSDOF 14
ENDMDL
MODEL      295
REMARK 921   NORMALIZED FREE ENERGY PREDICTED BY IDOCK:   -1.07 KCAL/MOL
REMARK 922        TOTAL FREE ENERGY PREDICTED BY IDOCK:   -3.34 KCAL/MOL
REMARK 923 INTER-LIGAND FREE ENERGY PREDICTED BY IDOCK:   -3.38 KCAL/MOL
REMARK 924 INTRA-LIGAND FREE ENERGY PREDICTED BY IDOCK:    0.05 KCAL/MOL
REMARK 927      BINDING AFFINITY PREDICTED BY RF-SCORE:    0.00 PKD
ROOT
HETATM    1  C   UNL     1     -10.202   7.158  73.972  1.00  0.00    -0.284 C  
HETATM    2  C   UNL     1     -11.154   7.533  72.835  1.00  0.00    -0.426 C  
ENDROOT
BRANCH   2   3
HETATM    3  C   UNL     1     -10.510   8.550  71.873  1.00  0.00    -0.387 C  
BRANCH   3   4
HETATM    4  C   UNL     1      -9.035   8.202  71.578  1.00  0.00    -0.158 C  
BRANCH   4   5
HETATM    5  N   UNL     1      -8.885   7.000  70.737  1.00  0.00    -0.148 NA 
BRANCH   5   6
HETATM    6  C   UNL     1      -8.668   7.148  69.304  1.00  0.00    -0.136 C  
HETATM    7  S   UNL     1      -7.311   6.245  68.456  1.00  0.00    -0.088 SA 
HETATM    8  C   UNL     1      -9.075   5.080  64.904  1.00  0.00    -0.077 C  
HETATM    9  S   UNL     1      -9.767   7.870  68.277  1.00  0.00    -0.164 SA 
HETATM   10 ZN   UNL     1      -8.824   6.392  66.970  1.00  0.00    -0.112 Zn 
HETATM   11  S   UNL     1      -8.016   6.359  64.951  1.00  0.00    -0.122 SA 
HETATM   12  S   UNL     1     -10.172   4.853  66.360  1.00  0.00    -0.283 SA 
BRANCH   8  13
HETATM   13  N   UNL     1      -8.960   4.025  63.933  1.00  0.00    -0.119 NA 
BRANCH  13  14
HETATM   14  C   UNL     1      -8.007   4.100  62.827  1.00  0.00    -0.071 C  
BRANCH  14  15
HETATM   15  C   UNL     1      -6.550   4.278  63.323  1.00  0.00    -0.034 C  
BRANCH  15  16
HETATM   16  C   UNL     1      -5.739   2.970  63.406  1.00  0.00    -0.009 C  
HETATM   17  C   UNL     1      -6.304   1.914  62.448  1.00  0.00    -0.009 C  
ENDBRANCH  15  16
ENDBRANCH  14  15
ENDBRANCH  13  14
BRANCH  13  18
HETATM   18  C   UNL     1      -9.799   2.829  64.068  1.00  0.00    -0.152 C  
BRANCH  18  19
HETATM   19  C   UNL     1      -8.980   1.583  64.482  1.00  0.00    -0.107 C  
BRANCH  19  20
HETATM   20  C   UNL     1      -8.081   1.791  65.714  1.00  0.00    -0.080 C  
HETATM   21  C   UNL     1      -8.870   1.552  67.006  1.00  0.00    -0.130 C  
ENDBRANCH  19  20
ENDBRANCH  18  19
ENDBRANCH  13  18
ENDBRANCH   8  13
ENDBRANCH   5   6
BRANCH   5  22
HETATM   22  C   UNL     1      -8.892   5.676  71.372  1.00  0.00    -0.136 C  
BRANCH  22  23
HETATM   23  C   UNL     1      -7.573   5.259  72.051  1.00  0.00    -0.098 C  
BRANCH  23  24
HETATM   24  C   UNL     1      -7.091   3.845  71.701  1.00  0.00    -0.038 C  
HETATM   25  C   UNL     1      -5.759   3.904  70.944  1.00  0.00    -0.013 C  
ENDBRANCH  23  24
ENDBRANCH  22  23
ENDBRANCH   5  22
ENDBRANCH   4   5
ENDBRANCH   3   4
ENDBRANCH   2   3
TORSDOF 14
ENDMDL
MODEL      296
REMARK 921   NORMALIZED FREE ENERGY PREDICTED BY IDOCK:   -0.92 KCAL/MOL
REMARK 922        TOTAL FREE ENERGY PREDICTED BY IDOCK:   -3.05 KCAL/MOL
REMARK 923 INTER-LIGAND FREE ENERGY PREDICTED BY IDOCK:   -2.63 KCAL/MOL
REMARK 924 INTRA-LIGAND FREE ENERGY PREDICTED BY IDOCK:   -0.43 KCAL/MOL
REMARK 927      BINDING AFFINITY PREDICTED BY RF-SCORE:    0.00 PKD
ROOT
HETATM    1  C   UNL     1      -8.414  17.766  67.243  1.00  0.00    -0.239 C  
HETATM    2  C   UNL     1      -8.753  16.914  68.467  1.00  0.00    -0.251 C  
ENDROOT
BRANCH   2   3
HETATM    3  C   UNL     1      -7.503  16.631  69.322  1.00  0.00    -0.165 C  
BRANCH   3   4
HETATM    4  C   UNL     1      -6.416  15.888  68.515  1.00  0.00    -0.111 C  
BRANCH   4   5
HETATM    5  N   UNL     1      -6.289  14.469  68.893  1.00  0.00    -0.086 NA 
BRANCH   5   6
HETATM    6  C   UNL     1      -7.055  13.461  68.171  1.00  0.00    -0.116 C  
HETATM    7  S   UNL     1      -6.210  12.133  67.222  1.00  0.00    -0.141 SA 
HETATM    8  C   UNL     1      -8.535   8.814  68.038  1.00  0.00    -0.126 C  
HETATM    9  S   UNL     1      -8.694  13.230  68.376  1.00  0.00    -0.076 SA 
HETATM   10 ZN   UNL     1      -8.007  11.212  67.888  1.00  0.00    -0.097 Zn 
HETATM   11  S   UNL     1      -8.653   9.600  66.578  1.00  0.00    -0.128 SA 
HETATM   12  S   UNL     1      -8.220   9.853  69.520  1.00  0.00    -0.172 SA 
BRANCH   8  13
HETATM   13  N   UNL     1      -8.389   7.386  68.130  1.00  0.00    -0.124 NA 
BRANCH  13  14
HETATM   14  C   UNL     1      -8.424   6.693  69.416  1.00  0.00    -0.131 C  
BRANCH  14  15
HETATM   15  C   UNL     1      -7.082   6.814  70.181  1.00  0.00    -0.071 C  
BRANCH  15  16
HETATM   16  C   UNL     1      -7.157   6.422  71.670  1.00  0.00    -0.081 C  
HETATM   17  C   UNL     1      -8.285   5.412  71.913  1.00  0.00    -0.119 C  
ENDBRANCH  15  16
ENDBRANCH  14  15
ENDBRANCH  13  14
BRANCH  13  18
HETATM   18  C   UNL     1      -8.228   6.599  66.902  1.00  0.00    -0.113 C  
BRANCH  18  19
HETATM   19  C   UNL     1      -8.361   5.079  67.160  1.00  0.00    -0.106 C  
BRANCH  19  20
HETATM   20  C   UNL     1      -9.619   4.436  66.548  1.00  0.00    -0.209 C  
HETATM   21  C   UNL     1      -9.732   2.965  66.966  1.00  0.00     0.246 C  
ENDBRANCH  19  20
ENDBRANCH  18  19
ENDBRANCH  13  18
ENDBRANCH   8  13
ENDBRANCH   5   6
BRANCH   5  22
HETATM   22  C   UNL     1      -5.341  14.090  69.949  1.00  0.00    -0.096 C  
BRANCH  22  23
HETATM   23  C   UNL     1      -5.787  14.414  71.388  1.00  0.00    -0.122 C  
BRANCH  23  24
HETATM   24  C   UNL     1      -5.154  13.530  72.470  1.00  0.00    -0.127 C  
HETATM   25  C   UNL     1      -5.145  12.063  72.027  1.00  0.00     0.134 C  
ENDBRANCH  23  24
ENDBRANCH  22  23
ENDBRANCH   5  22
ENDBRANCH   4   5
ENDBRANCH   3   4
ENDBRANCH   2   3
TORSDOF 14
ENDMDL
MODEL      297
REMARK 921   NORMALIZED FREE ENERGY PREDICTED BY IDOCK:   -0.88 KCAL/MOL
REMARK 922        TOTAL FREE ENERGY PREDICTED BY IDOCK:   -2.99 KCAL/MOL
REMARK 923 INTER-LIGAND FREE ENERGY PREDICTED BY IDOCK:   -2.45 KCAL/MOL
REMARK 924 INTRA-LIGAND FREE ENERGY PREDICTED BY IDOCK:   -0.54 KCAL/MOL
REMARK 927      BINDING AFFINITY PREDICTED BY RF-SCORE:    0.00 PKD
ROOT
HETATM    1  C   UNL     1     -12.158   2.531  73.565  1.00  0.00     0.199 C  
HETATM    2  C   UNL     1     -10.738   2.327  73.036  1.00  0.00    -0.246 C  
ENDROOT
BRANCH   2   3
HETATM    3  C   UNL     1      -9.994   3.668  72.881  1.00  0.00    -0.210 C  
BRANCH   3   4
HETATM    4  C   UNL     1      -8.755   3.532  71.972  1.00  0.00    -0.090 C  
BRANCH   4   5
HETATM    5  N   UNL     1      -8.091   4.821  71.706  1.00  0.00    -0.106 NA 
BRANCH   5   6
HETATM    6  C   UNL     1      -7.277   4.977  70.509  1.00  0.00    -0.054 C  
HETATM    7  S   UNL     1      -7.299   3.710  69.179  1.00  0.00    -0.049 SA 
HETATM    8  C   UNL     1      -7.228   6.000  65.739  1.00  0.00    -0.075 C  
HETATM    9  S   UNL     1      -6.515   6.403  70.094  1.00  0.00    -0.041 SA 
HETATM   10 ZN   UNL     1      -6.943   5.528  68.136  1.00  0.00    -0.050 Zn 
HETATM   11  S   UNL     1      -5.860   5.223  66.274  1.00  0.00    -0.019 SA 
HETATM   12  S   UNL     1      -8.365   6.663  67.020  1.00  0.00    -0.114 SA 
BRANCH   8  13
HETATM   13  N   UNL     1      -7.672   5.917  64.373  1.00  0.00    -0.092 NA 
BRANCH  13  14
HETATM   14  C   UNL     1      -8.884   5.187  64.003  1.00  0.00     0.008 C  
BRANCH  14  15
HETATM   15  C   UNL     1      -8.618   4.144  62.889  1.00  0.00    -0.097 C  
BRANCH  15  16
HETATM   16  C   UNL     1      -8.982   2.695  63.270  1.00  0.00    -0.088 C  
HETATM   17  C   UNL     1      -9.476   2.619  64.720  1.00  0.00    -0.116 C  
ENDBRANCH  15  16
ENDBRANCH  14  15
ENDBRANCH  13  14
BRANCH  13  18
HETATM   18  C   UNL     1      -6.908   6.603  63.325  1.00  0.00    -0.046 C  
BRANCH  18  19
HETATM   19  C   UNL     1      -7.799   7.523  62.457  1.00  0.00    -0.129 C  
BRANCH  19  20
HETATM   20  C   UNL     1      -7.386   9.006  62.469  1.00  0.00    -0.098 C  
HETATM   21  C   UNL     1      -7.879   9.694  63.748  1.00  0.00    -0.139 C  
ENDBRANCH  19  20
ENDBRANCH  18  19
ENDBRANCH  13  18
ENDBRANCH   8  13
ENDBRANCH   5   6
BRANCH   5  22
HETATM   22  C   UNL     1      -8.318   5.946  72.623  1.00  0.00    -0.119 C  
BRANCH  22  23
HETATM   23  C   UNL     1      -9.116   7.127  72.038  1.00  0.00    -0.142 C  
BRANCH  23  24
HETATM   24  C   UNL     1     -10.393   6.728  71.286  1.00  0.00    -0.225 C  
HETATM   25  C   UNL     1     -11.611   6.817  72.212  1.00  0.00    -0.311 C  
ENDBRANCH  23  24
ENDBRANCH  22  23
ENDBRANCH   5  22
ENDBRANCH   4   5
ENDBRANCH   3   4
ENDBRANCH   2   3
TORSDOF 14
ENDMDL
MODEL      298
REMARK 921   NORMALIZED FREE ENERGY PREDICTED BY IDOCK:   -0.74 KCAL/MOL
REMARK 922        TOTAL FREE ENERGY PREDICTED BY IDOCK:   -2.72 KCAL/MOL
REMARK 923 INTER-LIGAND FREE ENERGY PREDICTED BY IDOCK:   -2.37 KCAL/MOL
REMARK 924 INTRA-LIGAND FREE ENERGY PREDICTED BY IDOCK:   -0.35 KCAL/MOL
REMARK 927      BINDING AFFINITY PREDICTED BY RF-SCORE:    0.00 PKD
ROOT
HETATM    1  C   UNL     1      -5.853   6.840  63.898  1.00  0.00    -0.031 C  
HETATM    2  C   UNL     1      -5.152   7.731  64.924  1.00  0.00    -0.029 C  
ENDROOT
BRANCH   2   3
HETATM    3  C   UNL     1      -6.063   8.886  65.384  1.00  0.00    -0.055 C  
BRANCH   3   4
HETATM    4  C   UNL     1      -7.510   8.409  65.630  1.00  0.00    -0.081 C  
BRANCH   4   5
HETATM    5  N   UNL     1      -8.499   9.497  65.532  1.00  0.00    -0.134 NA 
BRANCH   5   6
HETATM    6  C   UNL     1      -8.475  10.581  66.506  1.00  0.00    -0.139 C  
HETATM    7  S   UNL     1      -7.299  11.981  66.332  1.00  0.00     0.587 SA 
HETATM    8  C   UNL     1      -9.597  15.239  67.422  1.00  0.00    -0.207 C  
HETATM    9  S   UNL     1      -9.666  10.814  67.652  1.00  0.00    -0.167 SA 
HETATM   10 ZN   UNL     1      -8.993  12.860  67.269  1.00  0.00    -0.156 Zn 
HETATM   11  S   UNL     1      -8.475  14.600  68.467  1.00  0.00    -0.164 SA 
HETATM   12  S   UNL     1     -10.493  14.058  66.337  1.00  0.00    -0.289 SA 
BRANCH   8  13
HETATM   13  N   UNL     1      -9.674  16.649  67.150  1.00  0.00    -0.245 NA 
BRANCH  13  14
HETATM   14  C   UNL     1      -8.724  17.312  66.259  1.00  0.00    -0.224 C  
BRANCH  14  15
HETATM   15  C   UNL     1      -7.488  17.851  67.022  1.00  0.00    -0.223 C  
BRANCH  15  16
HETATM   16  C   UNL     1      -6.568  18.764  66.186  1.00  0.00    -0.256 C  
HETATM   17  C   UNL     1      -5.339  17.994  65.689  1.00  0.00    -0.217 C  
ENDBRANCH  15  16
ENDBRANCH  14  15
ENDBRANCH  13  14
BRANCH  13  18
HETATM   18  C   UNL     1     -10.749  17.441  67.758  1.00  0.00    -0.332 C  
BRANCH  18  19
HETATM   19  C   UNL     1     -10.473  18.962  67.679  1.00  0.00    -0.514 C  
BRANCH  19  20
HETATM   20  C   UNL     1     -10.429  19.673  69.044  1.00  0.00    -0.036 C  
HETATM   21  C   UNL     1      -9.420  20.828  69.018  1.00  0.00     1.018 C  
ENDBRANCH  19  20
ENDBRANCH  18  19
ENDBRANCH  13  18
ENDBRANCH   8  13
ENDBRANCH   5   6
BRANCH   5  22
HETATM   22  C   UNL     1      -9.451   9.502  64.413  1.00  0.00     0.052 C  
BRANCH  22  23
HETATM   23  C   UNL     1     -10.503  10.628  64.443  1.00  0.00    -0.247 C  
BRANCH  23  24
HETATM   24  C   UNL     1     -10.324  11.701  63.360  1.00  0.00    -0.482 C  
HETATM   25  C   UNL     1      -8.890  11.682  62.818  1.00  0.00     0.199 C  
ENDBRANCH  23  24
ENDBRANCH  22  23
ENDBRANCH   5  22
ENDBRANCH   4   5
ENDBRANCH   3   4
ENDBRANCH   2   3
TORSDOF 14
ENDMDL
MODEL      299
REMARK 921   NORMALIZED FREE ENERGY PREDICTED BY IDOCK:   -0.64 KCAL/MOL
REMARK 922        TOTAL FREE ENERGY PREDICTED BY IDOCK:   -2.54 KCAL/MOL
REMARK 923 INTER-LIGAND FREE ENERGY PREDICTED BY IDOCK:   -3.15 KCAL/MOL
REMARK 924 INTRA-LIGAND FREE ENERGY PREDICTED BY IDOCK:    0.61 KCAL/MOL
REMARK 927      BINDING AFFINITY PREDICTED BY RF-SCORE:    0.00 PKD
ROOT
HETATM    1  C   UNL     1      -6.906   5.831  67.169  1.00  0.00    -0.064 C  
HETATM    2  C   UNL     1      -7.737   5.876  65.886  1.00  0.00    -0.095 C  
ENDROOT
BRANCH   2   3
HETATM    3  C   UNL     1      -8.744   7.043  65.907  1.00  0.00    -0.140 C  
BRANCH   3   4
HETATM    4  C   UNL     1      -8.108   8.335  66.463  1.00  0.00    -0.105 C  
BRANCH   4   5
HETATM    5  N   UNL     1      -7.589   9.222  65.406  1.00  0.00    -0.097 NA 
BRANCH   5   6
HETATM    6  C   UNL     1      -7.562  10.662  65.625  1.00  0.00    -0.100 C  
HETATM    7  S   UNL     1      -9.070  11.683  65.381  1.00  0.00     0.094 SA 
HETATM    8  C   UNL     1      -8.883  14.350  68.534  1.00  0.00    -0.182 C  
HETATM    9  S   UNL     1      -6.306  11.454  66.387  1.00  0.00     0.025 SA 
HETATM   10 ZN   UNL     1      -8.023  12.694  66.930  1.00  0.00    -0.144 Zn 
HETATM   11  S   UNL     1      -8.476  14.821  66.994  1.00  0.00    -0.199 SA 
HETATM   12  S   UNL     1      -8.455  12.631  69.020  1.00  0.00     0.616 SA 
BRANCH   8  13
HETATM   13  N   UNL     1      -9.778  15.116  69.358  1.00  0.00    -0.222 NA 
BRANCH  13  14
HETATM   14  C   UNL     1     -10.905  14.495  70.052  1.00  0.00     0.007 C  
BRANCH  14  15
HETATM   15  C   UNL     1     -11.377  15.334  71.266  1.00  0.00    -0.416 C  
BRANCH  15  16
HETATM   16  C   UNL     1     -12.873  15.182  71.604  1.00  0.00    -0.439 C  
HETATM   17  C   UNL     1     -13.291  13.707  71.588  1.00  0.00    -0.424 C  
ENDBRANCH  15  16
ENDBRANCH  14  15
ENDBRANCH  13  14
BRANCH  13  18
HETATM   18  C   UNL     1      -9.543  16.554  69.532  1.00  0.00    -0.004 C  
BRANCH  18  19
HETATM   19  C   UNL     1     -10.569  17.414  68.756  1.00  0.00    -0.283 C  
BRANCH  19  20
HETATM   20  C   UNL     1     -10.781  16.987  67.293  1.00  0.00    -0.206 C  
HETATM   21  C   UNL     1     -10.253  18.061  66.334  1.00  0.00    -0.393 C  
ENDBRANCH  19  20
ENDBRANCH  18  19
ENDBRANCH  13  18
ENDBRANCH   8  13
ENDBRANCH   5   6
BRANCH   5  22
HETATM   22  C   UNL     1      -7.046   8.631  64.176  1.00  0.00    -0.090 C  
BRANCH  22  23
HETATM   23  C   UNL     1      -7.661   9.151  62.863  1.00  0.00    -0.116 C  
BRANCH  23  24
HETATM   24  C   UNL     1      -9.169   9.431  62.928  1.00  0.00     0.050 C  
HETATM   25  C   UNL     1      -9.484  10.809  62.336  1.00  0.00    -0.228 C  
ENDBRANCH  23  24
ENDBRANCH  22  23
ENDBRANCH   5  22
ENDBRANCH   4   5
ENDBRANCH   3   4
ENDBRANCH   2   3
TORSDOF 14
ENDMDL
MODEL      300
REMARK 921   NORMALIZED FREE ENERGY PREDICTED BY IDOCK:   -0.56 KCAL/MOL
REMARK 922        TOTAL FREE ENERGY PREDICTED BY IDOCK:   -2.39 KCAL/MOL
REMARK 923 INTER-LIGAND FREE ENERGY PREDICTED BY IDOCK:   -2.19 KCAL/MOL
REMARK 924 INTRA-LIGAND FREE ENERGY PREDICTED BY IDOCK:   -0.20 KCAL/MOL
REMARK 927      BINDING AFFINITY PREDICTED BY RF-SCORE:    0.00 PKD
ROOT
HETATM    1  C   UNL     1      -8.414  17.766  67.243  1.00  0.00    -0.239 C  
HETATM    2  C   UNL     1      -8.754  16.910  68.464  1.00  0.00    -0.251 C  
ENDROOT
BRANCH   2   3
HETATM    3  C   UNL     1      -7.505  16.629  69.322  1.00  0.00    -0.165 C  
BRANCH   3   4
HETATM    4  C   UNL     1      -6.415  15.891  68.517  1.00  0.00    -0.111 C  
BRANCH   4   5
HETATM    5  N   UNL     1      -6.284  14.471  68.892  1.00  0.00    -0.085 NA 
BRANCH   5   6
HETATM    6  C   UNL     1      -7.045  13.463  68.166  1.00  0.00    -0.116 C  
HETATM    7  S   UNL     1      -6.195  12.139  67.217  1.00  0.00    -0.141 SA 
HETATM    8  C   UNL     1      -8.512   8.812  68.018  1.00  0.00    -0.126 C  
HETATM    9  S   UNL     1      -8.685  13.227  68.366  1.00  0.00    -0.076 SA 
HETATM   10 ZN   UNL     1      -7.990  11.212  67.875  1.00  0.00    -0.097 Zn 
HETATM   11  S   UNL     1      -8.628   9.600  66.560  1.00  0.00    -0.128 SA 
HETATM   12  S   UNL     1      -8.204   9.848  69.504  1.00  0.00    -0.172 SA 
BRANCH   8  13
HETATM   13  N   UNL     1      -8.363   7.385  68.108  1.00  0.00    -0.124 NA 
BRANCH  13  14
HETATM   14  C   UNL     1      -8.548   6.519  66.945  1.00  0.00    -0.114 C  
BRANCH  14  15
HETATM   15  C   UNL     1     -10.046   6.277  66.631  1.00  0.00    -0.214 C  
BRANCH  15  16
HETATM   16  C   UNL     1     -10.320   5.704  65.226  1.00  0.00     0.970 C  
HETATM   17  C   UNL     1      -9.116   4.903  64.718  1.00  0.00    -0.098 C  
ENDBRANCH  15  16
ENDBRANCH  14  15
ENDBRANCH  13  14
BRANCH  13  18
HETATM   18  C   UNL     1      -7.988   6.780  69.391  1.00  0.00    -0.115 C  
BRANCH  18  19
HETATM   19  C   UNL     1      -7.606   5.287  69.246  1.00  0.00    -0.073 C  
BRANCH  19  20
HETATM   20  C   UNL     1      -6.329   5.033  68.425  1.00  0.00    -0.036 C  
HETATM   21  C   UNL     1      -6.106   3.530  68.224  1.00  0.00    -0.031 C  
ENDBRANCH  19  20
ENDBRANCH  18  19
ENDBRANCH  13  18
ENDBRANCH   8  13
ENDBRANCH   5   6
BRANCH   5  22
HETATM   22  C   UNL     1      -5.338  14.093  69.950  1.00  0.00    -0.095 C  
BRANCH  22  23
HETATM   23  C   UNL     1      -5.790  14.413  71.388  1.00  0.00    -0.122 C  
BRANCH  23  24
HETATM   24  C   UNL     1      -5.156  13.528  72.470  1.00  0.00    -0.127 C  
HETATM   25  C   UNL     1      -5.314  14.175  73.851  1.00  0.00    -0.305 C  
ENDBRANCH  23  24
ENDBRANCH  22  23
ENDBRANCH   5  22
ENDBRANCH   4   5
ENDBRANCH   3   4
ENDBRANCH   2   3
TORSDOF 14
ENDMDL
MODEL      301
REMARK 921   NORMALIZED FREE ENERGY PREDICTED BY IDOCK:   -0.49 KCAL/MOL
REMARK 922        TOTAL FREE ENERGY PREDICTED BY IDOCK:   -2.27 KCAL/MOL
REMARK 923 INTER-LIGAND FREE ENERGY PREDICTED BY IDOCK:   -1.83 KCAL/MOL
REMARK 924 INTRA-LIGAND FREE ENERGY PREDICTED BY IDOCK:   -0.44 KCAL/MOL
REMARK 927      BINDING AFFINITY PREDICTED BY RF-SCORE:    0.00 PKD
ROOT
HETATM    1  C   UNL     1      -9.403   1.493  67.736  1.00  0.00    -0.164 C  
HETATM    2  C   UNL     1     -10.014   1.470  69.138  1.00  0.00     0.231 C  
ENDROOT
BRANCH   2   3
HETATM    3  C   UNL     1      -9.576   2.695  69.964  1.00  0.00    -0.084 C  
BRANCH   3   4
HETATM    4  C   UNL     1      -8.694   3.655  69.138  1.00  0.00    -0.091 C  
BRANCH   4   5
HETATM    5  N   UNL     1      -7.621   4.278  69.934  1.00  0.00    -0.053 NA 
BRANCH   5   6
HETATM    6  C   UNL     1      -6.869   5.395  69.376  1.00  0.00    -0.057 C  
HETATM    7  S   UNL     1      -6.279   5.363  67.637  1.00  0.00    -0.035 SA 
HETATM    8  C   UNL     1      -6.942   9.244  66.379  1.00  0.00    -0.084 C  
HETATM    9  S   UNL     1      -6.741   6.882  70.124  1.00  0.00    -0.057 SA 
HETATM   10 ZN   UNL     1      -6.641   7.424  68.007  1.00  0.00    -0.038 Zn 
HETATM   11  S   UNL     1      -5.413   8.723  66.768  1.00  0.00    -0.040 SA 
HETATM   12  S   UNL     1      -8.332   8.561  67.368  1.00  0.00    -0.120 SA 
BRANCH   8  13
HETATM   13  N   UNL     1      -7.223   9.954  65.160  1.00  0.00    -0.126 NA 
BRANCH  13  14
HETATM   14  C   UNL     1      -6.931   9.375  63.850  1.00  0.00    -0.096 C  
BRANCH  14  15
HETATM   15  C   UNL     1      -7.780   8.110  63.568  1.00  0.00    -0.143 C  
BRANCH  15  16
HETATM   16  C   UNL     1      -7.033   6.779  63.779  1.00  0.00    -0.056 C  
HETATM   17  C   UNL     1      -7.260   5.831  62.595  1.00  0.00    -0.050 C  
ENDBRANCH  15  16
ENDBRANCH  14  15
ENDBRANCH  13  14
BRANCH  13  18
HETATM   18  C   UNL     1      -7.844  11.281  65.228  1.00  0.00     0.518 C  
BRANCH  18  19
HETATM   19  C   UNL     1      -9.388  11.202  65.313  1.00  0.00    -0.243 C  
BRANCH  19  20
HETATM   20  C   UNL     1     -10.110  11.369  63.964  1.00  0.00    -0.369 C  
HETATM   21  C   UNL     1     -11.621  11.518  64.175  1.00  0.00    -0.251 C  
ENDBRANCH  19  20
ENDBRANCH  18  19
ENDBRANCH  13  18
ENDBRANCH   8  13
ENDBRANCH   5   6
BRANCH   5  22
HETATM   22  C   UNL     1      -7.374   3.803  71.302  1.00  0.00    -0.040 C  
BRANCH  22  23
HETATM   23  C   UNL     1      -8.032   4.633  72.420  1.00  0.00    -0.095 C  
BRANCH  23  24
HETATM   24  C   UNL     1      -9.366   4.073  72.933  1.00  0.00    -0.140 C  
HETATM   25  C   UNL     1      -9.622   4.533  74.373  1.00  0.00    -0.147 C  
ENDBRANCH  23  24
ENDBRANCH  22  23
ENDBRANCH   5  22
ENDBRANCH   4   5
ENDBRANCH   3   4
ENDBRANCH   2   3
TORSDOF 14
ENDMDL
MODEL      302
REMARK 921   NORMALIZED FREE ENERGY PREDICTED BY IDOCK:    0.00 KCAL/MOL
REMARK 922        TOTAL FREE ENERGY PREDICTED BY IDOCK:   -1.38 KCAL/MOL
REMARK 923 INTER-LIGAND FREE ENERGY PREDICTED BY IDOCK:   -3.21 KCAL/MOL
REMARK 924 INTRA-LIGAND FREE ENERGY PREDICTED BY IDOCK:    1.83 KCAL/MOL
REMARK 927      BINDING AFFINITY PREDICTED BY RF-SCORE:    0.00 PKD
ROOT
HETATM    1  C   UNL     1     -12.687  13.798  65.445  1.00  0.00    -0.513 C  
HETATM    2  C   UNL     1     -11.829  12.556  65.198  1.00  0.00    -0.450 C  
ENDROOT
BRANCH   2   3
HETATM    3  C   UNL     1     -11.535  11.804  66.511  1.00  0.00    -0.325 C  
BRANCH   3   4
HETATM    4  C   UNL     1     -10.251  10.954  66.406  1.00  0.00    -0.238 C  
BRANCH   4   5
HETATM    5  N   UNL     1      -9.670  10.624  67.720  1.00  0.00    -0.160 NA 
BRANCH   5   6
HETATM    6  C   UNL     1      -9.294  11.698  68.630  1.00  0.00    -0.114 C  
HETATM    7  S   UNL     1      -7.578  12.354  68.659  1.00  0.00    -0.040 SA 
HETATM    8  C   UNL     1      -8.168  16.423  69.085  1.00  0.00    -0.189 C  
HETATM    9  S   UNL     1     -10.401  12.615  69.477  1.00  0.00     0.913 SA 
HETATM   10 ZN   UNL     1      -8.770  14.039  69.167  1.00  0.00    -0.194 Zn 
HETATM   11  S   UNL     1      -7.692  15.490  70.376  1.00  0.00     1.299 SA 
HETATM   12  S   UNL     1      -9.320  15.652  67.880  1.00  0.00    -0.195 SA 
BRANCH   8  13
HETATM   13  N   UNL     1      -7.507  17.654  68.745  1.00  0.00    -0.262 NA 
BRANCH  13  14
HETATM   14  C   UNL     1      -8.231  18.923  68.685  1.00  0.00    -0.345 C  
BRANCH  14  15
HETATM   15  C   UNL     1      -8.422  19.417  67.229  1.00  0.00    -0.325 C  
BRANCH  15  16
HETATM   16  C   UNL     1      -9.780  19.046  66.601  1.00  0.00    -0.383 C  
HETATM   17  C   UNL     1     -10.781  18.613  67.679  1.00  0.00    -0.428 C  
ENDBRANCH  15  16
ENDBRANCH  14  15
ENDBRANCH  13  14
BRANCH  13  18
HETATM   18  C   UNL     1      -6.065  17.646  68.475  1.00  0.00    -0.179 C  
BRANCH  18  19
HETATM   19  C   UNL     1      -5.619  18.866  67.635  1.00  0.00    -0.174 C  
BRANCH  19  20
HETATM   20  C   UNL     1      -6.038  18.809  66.155  1.00  0.00    -0.207 C  
HETATM   21  C   UNL     1      -5.847  20.175  65.486  1.00  0.00    -0.214 C  
ENDBRANCH  19  20
ENDBRANCH  18  19
ENDBRANCH  13  18
ENDBRANCH   8  13
ENDBRANCH   5   6
BRANCH   5  22
HETATM   22  C   UNL     1      -9.543   9.214  68.114  1.00  0.00    -0.144 C  
BRANCH  22  23
HETATM   23  C   UNL     1      -9.430   8.957  69.629  1.00  0.00    -0.168 C  
BRANCH  23  24
HETATM   24  C   UNL     1      -7.997   8.971  70.177  1.00  0.00    -0.115 C  
HETATM   25  C   UNL     1      -7.038   8.301  69.186  1.00  0.00    -0.064 C  
ENDBRANCH  23  24
ENDBRANCH  22  23
ENDBRANCH   5  22
ENDBRANCH   4   5
ENDBRANCH   3   4
ENDBRANCH   2   3
TORSDOF 14
ENDMDL
MODEL      303
REMARK 921   NORMALIZED FREE ENERGY PREDICTED BY IDOCK:    0.03 KCAL/MOL
REMARK 922        TOTAL FREE ENERGY PREDICTED BY IDOCK:   -1.32 KCAL/MOL
REMARK 923 INTER-LIGAND FREE ENERGY PREDICTED BY IDOCK:   -1.39 KCAL/MOL
REMARK 924 INTRA-LIGAND FREE ENERGY PREDICTED BY IDOCK:    0.07 KCAL/MOL
REMARK 927      BINDING AFFINITY PREDICTED BY RF-SCORE:    0.00 PKD
ROOT
HETATM    1  C   UNL     1     -12.332   2.669  73.900  1.00  0.00     0.925 C  
HETATM    2  C   UNL     1     -11.023   2.093  73.358  1.00  0.00    -0.290 C  
ENDROOT
BRANCH   2   3
HETATM    3  C   UNL     1      -9.975   3.198  73.122  1.00  0.00    -0.194 C  
BRANCH   3   4
HETATM    4  C   UNL     1      -8.817   2.705  72.227  1.00  0.00    -0.074 C  
BRANCH   4   5
HETATM    5  N   UNL     1      -7.792   3.738  71.993  1.00  0.00    -0.062 NA 
BRANCH   5   6
HETATM    6  C   UNL     1      -7.063   3.753  70.731  1.00  0.00    -0.033 C  
HETATM    7  S   UNL     1      -7.546   2.646  69.347  1.00  0.00    -0.043 SA 
HETATM    8  C   UNL     1      -7.103   5.083  66.037  1.00  0.00    -0.072 C  
HETATM    9  S   UNL     1      -5.965   4.940  70.318  1.00  0.00    -0.018 SA 
HETATM   10 ZN   UNL     1      -6.775   4.369  68.368  1.00  0.00    -0.037 Zn 
HETATM   11  S   UNL     1      -5.972   3.920  66.397  1.00  0.00    -0.024 SA 
HETATM   12  S   UNL     1      -7.903   5.935  67.455  1.00  0.00    -0.098 SA 
BRANCH   8  13
HETATM   13  N   UNL     1      -7.658   5.230  64.719  1.00  0.00    -0.080 NA 
BRANCH  13  14
HETATM   14  C   UNL     1      -6.915   5.878  63.640  1.00  0.00    -0.042 C  
BRANCH  14  15
HETATM   15  C   UNL     1      -7.689   7.077  63.037  1.00  0.00    -0.115 C  
BRANCH  15  16
HETATM   16  C   UNL     1      -6.935   8.420  63.095  1.00  0.00    -0.090 C  
HETATM   17  C   UNL     1      -5.547   8.241  63.724  1.00  0.00    -0.061 C  
ENDBRANCH  15  16
ENDBRANCH  14  15
ENDBRANCH  13  14
BRANCH  13  18
HETATM   18  C   UNL     1      -8.994   4.693  64.437  1.00  0.00    -0.142 C  
BRANCH  18  19
HETATM   19  C   UNL     1      -9.130   4.194  62.979  1.00  0.00    -0.121 C  
BRANCH  19  20
HETATM   20  C   UNL     1      -9.544   2.718  62.845  1.00  0.00    -0.092 C  
HETATM   21  C   UNL     1      -8.340   1.797  63.071  1.00  0.00    -0.068 C  
ENDBRANCH  19  20
ENDBRANCH  18  19
ENDBRANCH  13  18
ENDBRANCH   8  13
ENDBRANCH   5   6
BRANCH   5  22
HETATM   22  C   UNL     1      -7.570   4.773  73.011  1.00  0.00    -0.092 C  
BRANCH  22  23
HETATM   23  C   UNL     1      -7.911   6.212  72.579  1.00  0.00    -0.104 C  
BRANCH  23  24
HETATM   24  C   UNL     1      -9.106   6.327  71.623  1.00  0.00    -0.145 C  
HETATM   25  C   UNL     1     -10.422   6.348  72.410  1.00  0.00    -0.222 C  
ENDBRANCH  23  24
ENDBRANCH  22  23
ENDBRANCH   5  22
ENDBRANCH   4   5
ENDBRANCH   3   4
ENDBRANCH   2   3
TORSDOF 14
ENDMDL
MODEL      304
REMARK 921   NORMALIZED FREE ENERGY PREDICTED BY IDOCK:    0.18 KCAL/MOL
REMARK 922        TOTAL FREE ENERGY PREDICTED BY IDOCK:   -1.05 KCAL/MOL
REMARK 923 INTER-LIGAND FREE ENERGY PREDICTED BY IDOCK:   -0.90 KCAL/MOL
REMARK 924 INTRA-LIGAND FREE ENERGY PREDICTED BY IDOCK:   -0.15 KCAL/MOL
REMARK 927      BINDING AFFINITY PREDICTED BY RF-SCORE:    0.00 PKD
ROOT
HETATM    1  C   UNL     1      -9.383   1.468  67.723  1.00  0.00    -0.164 C  
HETATM    2  C   UNL     1      -9.991   1.620  69.118  1.00  0.00     0.290 C  
ENDROOT
BRANCH   2   3
HETATM    3  C   UNL     1      -9.629   2.980  69.746  1.00  0.00    -0.108 C  
BRANCH   3   4
HETATM    4  C   UNL     1      -8.723   3.815  68.815  1.00  0.00    -0.100 C  
BRANCH   4   5
HETATM    5  N   UNL     1      -7.863   4.762  69.547  1.00  0.00    -0.066 NA 
BRANCH   5   6
HETATM    6  C   UNL     1      -7.012   5.683  68.805  1.00  0.00    -0.064 C  
HETATM    7  S   UNL     1      -7.459   6.219  67.105  1.00  0.00    -0.085 SA 
HETATM    8  C   UNL     1      -6.452  10.228  67.123  1.00  0.00    -0.068 C  
HETATM    9  S   UNL     1      -5.769   6.551  69.500  1.00  0.00    -0.015 SA 
HETATM   10 ZN   UNL     1      -6.430   7.897  67.908  1.00  0.00    -0.040 Zn 
HETATM   11  S   UNL     1      -5.481   9.108  66.371  1.00  0.00    -0.045 SA 
HETATM   12  S   UNL     1      -7.303   9.694  68.661  1.00  0.00    -0.075 SA 
BRANCH   8  13
HETATM   13  N   UNL     1      -6.855  11.449  66.478  1.00  0.00    -0.106 NA 
BRANCH  13  14
HETATM   14  C   UNL     1      -7.510  11.446  65.171  1.00  0.00     1.025 C  
BRANCH  14  15
HETATM   15  C   UNL     1      -9.054  11.461  65.292  1.00  0.00    -0.087 C  
BRANCH  15  16
HETATM   16  C   UNL     1      -9.695  10.068  65.456  1.00  0.00    -0.355 C  
HETATM   17  C   UNL     1     -11.031  10.166  66.203  1.00  0.00     0.244 C  
ENDBRANCH  15  16
ENDBRANCH  14  15
ENDBRANCH  13  14
BRANCH  13  18
HETATM   18  C   UNL     1      -6.630  12.729  67.157  1.00  0.00     0.056 C  
BRANCH  18  19
HETATM   19  C   UNL     1      -7.432  12.841  68.476  1.00  0.00    -0.120 C  
BRANCH  19  20
HETATM   20  C   UNL     1      -8.728  13.664  68.367  1.00  0.00    -0.153 C  
HETATM   21  C   UNL     1      -8.549  15.044  69.011  1.00  0.00    -0.205 C  
ENDBRANCH  19  20
ENDBRANCH  18  19
ENDBRANCH  13  18
ENDBRANCH   8  13
ENDBRANCH   5   6
BRANCH   5  22
HETATM   22  C   UNL     1      -7.927   4.802  71.014  1.00  0.00    -0.083 C  
BRANCH  22  23
HETATM   23  C   UNL     1      -7.974   6.211  71.637  1.00  0.00    -0.103 C  
BRANCH  23  24
HETATM   24  C   UNL     1      -9.338   6.908  71.543  1.00  0.00    -0.155 C  
HETATM   25  C   UNL     1      -9.303   8.255  72.275  1.00  0.00    -0.323 C  
ENDBRANCH  23  24
ENDBRANCH  22  23
ENDBRANCH   5  22
ENDBRANCH   4   5
ENDBRANCH   3   4
ENDBRANCH   2   3
TORSDOF 14
ENDMDL
MODEL      305
REMARK 921   NORMALIZED FREE ENERGY PREDICTED BY IDOCK:    0.30 KCAL/MOL
REMARK 922        TOTAL FREE ENERGY PREDICTED BY IDOCK:   -0.84 KCAL/MOL
REMARK 923 INTER-LIGAND FREE ENERGY PREDICTED BY IDOCK:   -0.79 KCAL/MOL
REMARK 924 INTRA-LIGAND FREE ENERGY PREDICTED BY IDOCK:   -0.06 KCAL/MOL
REMARK 927      BINDING AFFINITY PREDICTED BY RF-SCORE:    0.00 PKD
ROOT
HETATM    1  C   UNL     1      -9.492   1.540  67.715  1.00  0.00    -0.122 C  
HETATM    2  C   UNL     1     -10.172   1.515  69.085  1.00  0.00     0.695 C  
ENDROOT
BRANCH   2   3
HETATM    3  C   UNL     1      -9.709   2.691  69.967  1.00  0.00     0.025 C  
BRANCH   3   4
HETATM    4  C   UNL     1      -8.747   3.629  69.207  1.00  0.00    -0.083 C  
BRANCH   4   5
HETATM    5  N   UNL     1      -7.584   4.038  70.016  1.00  0.00    -0.048 NA 
BRANCH   5   6
HETATM    6  C   UNL     1      -6.762   5.158  69.578  1.00  0.00    -0.051 C  
HETATM    7  S   UNL     1      -6.472   5.475  67.791  1.00  0.00    -0.049 SA 
HETATM    8  C   UNL     1      -6.695   9.596  67.553  1.00  0.00    -0.070 C  
HETATM    9  S   UNL     1      -6.278   6.394  70.588  1.00  0.00    -0.040 SA 
HETATM   10 ZN   UNL     1      -6.434   7.415  68.660  1.00  0.00    -0.032 Zn 
HETATM   11  S   UNL     1      -5.228   8.818  67.516  1.00  0.00    -0.034 SA 
HETATM   12  S   UNL     1      -7.999   8.866  68.621  1.00  0.00    -0.104 SA 
BRANCH   8  13
HETATM   13  N   UNL     1      -7.051  10.607  66.594  1.00  0.00    -0.116 NA 
BRANCH  13  14
HETATM   14  C   UNL     1      -6.925  10.379  65.155  1.00  0.00    -0.082 C  
BRANCH  14  15
HETATM   15  C   UNL     1      -7.784   9.180  64.678  1.00  0.00    -0.113 C  
BRANCH  15  16
HETATM   16  C   UNL     1      -7.653   8.859  63.176  1.00  0.00    -0.105 C  
HETATM   17  C   UNL     1      -8.287   7.501  62.851  1.00  0.00     0.086 C  
ENDBRANCH  15  16
ENDBRANCH  14  15
ENDBRANCH  13  14
BRANCH  13  18
HETATM   18  C   UNL     1      -7.578  11.892  67.065  1.00  0.00    -0.134 C  
BRANCH  18  19
HETATM   19  C   UNL     1      -6.813  12.421  68.302  1.00  0.00    -0.080 C  
BRANCH  19  20
HETATM   20  C   UNL     1      -7.281  13.801  68.799  1.00  0.00    -0.106 C  
HETATM   21  C   UNL     1      -8.450  14.313  67.950  1.00  0.00    -0.168 C  
ENDBRANCH  19  20
ENDBRANCH  18  19
ENDBRANCH  13  18
ENDBRANCH   8  13
ENDBRANCH   5   6
BRANCH   5  22
HETATM   22  C   UNL     1      -7.315   3.348  71.284  1.00  0.00    -0.033 C  
BRANCH  22  23
HETATM   23  C   UNL     1      -6.013   3.758  71.998  1.00  0.00    -0.013 C  
BRANCH  23  24
HETATM   24  C   UNL     1      -5.140   2.585  72.464  1.00  0.00     0.000 C  
HETATM   25  C   UNL     1      -6.011   1.468  73.051  1.00  0.00    -0.008 C  
ENDBRANCH  23  24
ENDBRANCH  22  23
ENDBRANCH   5  22
ENDBRANCH   4   5
ENDBRANCH   3   4
ENDBRANCH   2   3
TORSDOF 14
ENDMDL
MODEL      306
REMARK 921   NORMALIZED FREE ENERGY PREDICTED BY IDOCK:    0.37 KCAL/MOL
REMARK 922        TOTAL FREE ENERGY PREDICTED BY IDOCK:   -0.72 KCAL/MOL
REMARK 923 INTER-LIGAND FREE ENERGY PREDICTED BY IDOCK:   -0.61 KCAL/MOL
REMARK 924 INTRA-LIGAND FREE ENERGY PREDICTED BY IDOCK:   -0.10 KCAL/MOL
REMARK 927      BINDING AFFINITY PREDICTED BY RF-SCORE:    0.00 PKD
ROOT
HETATM    1  C   UNL     1      -7.371  15.966  66.372  1.00  0.00     0.432 C  
HETATM    2  C   UNL     1      -8.272  17.022  65.730  1.00  0.00     0.250 C  
ENDROOT
BRANCH   2   3
HETATM    3  C   UNL     1      -7.988  18.426  66.298  1.00  0.00    -0.264 C  
BRANCH   3   4
HETATM    4  C   UNL     1      -7.196  18.357  67.622  1.00  0.00    -0.214 C  
BRANCH   4   5
HETATM    5  N   UNL     1      -8.062  18.414  68.814  1.00  0.00    -0.283 NA 
BRANCH   5   6
HETATM    6  C   UNL     1      -8.703  17.197  69.295  1.00  0.00     0.151 C  
HETATM    7  S   UNL     1     -10.382  16.724  68.722  1.00  0.00    -0.339 SA 
HETATM    8  C   UNL     1     -10.057  12.632  68.236  1.00  0.00    -0.233 C  
HETATM    9  S   UNL     1      -7.894  16.003  70.134  1.00  0.00     1.307 SA 
HETATM   10 ZN   UNL     1      -9.425  14.858  69.070  1.00  0.00    -0.168 Zn 
HETATM   11  S   UNL     1     -10.834  13.274  69.557  1.00  0.00     0.283 SA 
HETATM   12  S   UNL     1      -8.599  13.549  67.599  1.00  0.00    -0.200 SA 
BRANCH   8  13
HETATM   13  N   UNL     1     -10.639  11.586  67.439  1.00  0.00    -0.205 NA 
BRANCH  13  14
HETATM   14  C   UNL     1     -10.100  10.228  67.441  1.00  0.00    -0.202 C  
BRANCH  14  15
HETATM   15  C   UNL     1     -10.624   9.394  68.637  1.00  0.00    -0.230 C  
BRANCH  15  16
HETATM   16  C   UNL     1      -9.776   9.513  69.919  1.00  0.00    -0.252 C  
HETATM   17  C   UNL     1     -10.672   9.646  71.156  1.00  0.00    -0.365 C  
ENDBRANCH  15  16
ENDBRANCH  14  15
ENDBRANCH  13  14
BRANCH  13  18
HETATM   18  C   UNL     1     -11.822  11.880  66.621  1.00  0.00    -0.067 C  
BRANCH  18  19
HETATM   19  C   UNL     1     -11.456  12.586  65.293  1.00  0.00    -0.374 C  
BRANCH  19  20
HETATM   20  C   UNL     1     -12.370  12.228  64.108  1.00  0.00    -0.546 C  
HETATM   21  C   UNL     1     -12.407  13.374  63.089  1.00  0.00    -0.084 C  
ENDBRANCH  19  20
ENDBRANCH  18  19
ENDBRANCH  13  18
ENDBRANCH   8  13
ENDBRANCH   5   6
BRANCH   5  22
HETATM   22  C   UNL     1      -8.210  19.687  69.532  1.00  0.00     0.284 C  
BRANCH  22  23
HETATM   23  C   UNL     1      -7.447  19.786  70.867  1.00  0.00     1.234 C  
BRANCH  23  24
HETATM   24  C   UNL     1      -5.965  19.395  70.789  1.00  0.00    -0.121 C  
HETATM   25  C   UNL     1      -5.145  20.195  71.808  1.00  0.00    -0.408 C  
ENDBRANCH  23  24
ENDBRANCH  22  23
ENDBRANCH   5  22
ENDBRANCH   4   5
ENDBRANCH   3   4
ENDBRANCH   2   3
TORSDOF 14
ENDMDL
MODEL      307
REMARK 921   NORMALIZED FREE ENERGY PREDICTED BY IDOCK:    0.75 KCAL/MOL
REMARK 922        TOTAL FREE ENERGY PREDICTED BY IDOCK:   -0.01 KCAL/MOL
REMARK 923 INTER-LIGAND FREE ENERGY PREDICTED BY IDOCK:   -3.59 KCAL/MOL
REMARK 924 INTRA-LIGAND FREE ENERGY PREDICTED BY IDOCK:    3.58 KCAL/MOL
REMARK 927      BINDING AFFINITY PREDICTED BY RF-SCORE:    0.00 PKD
ROOT
HETATM    1  C   UNL     1     -12.114  16.745  71.929  1.00  0.00     0.530 C  
HETATM    2  C   UNL     1     -12.687  15.891  70.796  1.00  0.00    -0.206 C  
ENDROOT
BRANCH   2   3
HETATM    3  C   UNL     1     -13.457  14.673  71.343  1.00  0.00    -0.462 C  
BRANCH   3   4
HETATM    4  C   UNL     1     -12.735  13.348  71.014  1.00  0.00    -0.307 C  
BRANCH   4   5
HETATM    5  N   UNL     1     -12.195  13.312  69.643  1.00  0.00    -0.248 NA 
BRANCH   5   6
HETATM    6  C   UNL     1     -11.560  14.501  69.089  1.00  0.00    -0.298 C  
HETATM    7  S   UNL     1     -10.362  15.480  70.080  1.00  0.00    -0.247 SA 
HETATM    8  C   UNL     1      -7.462  16.450  67.300  1.00  0.00    -0.169 C  
HETATM    9  S   UNL     1     -11.610  14.900  67.470  1.00  0.00    -0.296 SA 
HETATM   10 ZN   UNL     1      -9.675  15.716  68.082  1.00  0.00    -0.191 Zn 
HETATM   11  S   UNL     1      -8.583  17.574  67.789  1.00  0.00    -0.233 SA 
HETATM   12  S   UNL     1      -8.030  14.708  67.167  1.00  0.00    -0.081 SA 
BRANCH   8  13
HETATM   13  N   UNL     1      -6.053  16.740  67.260  1.00  0.00    -0.155 NA 
BRANCH  13  14
HETATM   14  C   UNL     1      -5.520  17.854  66.478  1.00  0.00    -0.165 C  
BRANCH  14  15
HETATM   15  C   UNL     1      -6.154  17.931  65.066  1.00  0.00     0.325 C  
BRANCH  15  16
HETATM   16  C   UNL     1      -5.675  19.123  64.214  1.00  0.00    -0.321 C  
HETATM   17  C   UNL     1      -6.135  20.452  64.826  1.00  0.00    -0.315 C  
ENDBRANCH  15  16
ENDBRANCH  14  15
ENDBRANCH  13  14
BRANCH  13  18
HETATM   18  C   UNL     1      -5.128  15.916  68.045  1.00  0.00    -0.119 C  
BRANCH  18  19
HETATM   19  C   UNL     1      -5.225  16.208  69.562  1.00  0.00    -0.115 C  
BRANCH  19  20
HETATM   20  C   UNL     1      -6.294  15.385  70.302  1.00  0.00    -0.029 C  
HETATM   21  C   UNL     1      -5.743  14.855  71.631  1.00  0.00     0.169 C  
ENDBRANCH  19  20
ENDBRANCH  18  19
ENDBRANCH  13  18
ENDBRANCH   8  13
ENDBRANCH   5   6
BRANCH   5  22
HETATM   22  C   UNL     1     -12.250  12.056  68.884  1.00  0.00     0.020 C  
BRANCH  22  23
HETATM   23  C   UNL     1     -10.888  11.394  68.599  1.00  0.00    -0.249 C  
BRANCH  23  24
HETATM   24  C   UNL     1     -10.481  11.375  67.120  1.00  0.00    -0.259 C  
HETATM   25  C   UNL     1      -9.171  10.602  66.934  1.00  0.00    -0.172 C  
ENDBRANCH  23  24
ENDBRANCH  22  23
ENDBRANCH   5  22
ENDBRANCH   4   5
ENDBRANCH   3   4
ENDBRANCH   2   3
TORSDOF 14
ENDMDL
MODEL      308
REMARK 921   NORMALIZED FREE ENERGY PREDICTED BY IDOCK:    0.99 KCAL/MOL
REMARK 922        TOTAL FREE ENERGY PREDICTED BY IDOCK:    0.43 KCAL/MOL
REMARK 923 INTER-LIGAND FREE ENERGY PREDICTED BY IDOCK:   -1.34 KCAL/MOL
REMARK 924 INTRA-LIGAND FREE ENERGY PREDICTED BY IDOCK:    1.77 KCAL/MOL
REMARK 927      BINDING AFFINITY PREDICTED BY RF-SCORE:    0.00 PKD
ROOT
HETATM    1  C   UNL     1      -7.046  16.192  65.967  1.00  0.00     1.458 C  
HETATM    2  C   UNL     1      -8.278  16.965  65.493  1.00  0.00     1.114 C  
ENDROOT
BRANCH   2   3
HETATM    3  C   UNL     1      -8.048  18.488  65.559  1.00  0.00     0.695 C  
BRANCH   3   4
HETATM    4  C   UNL     1      -7.239  18.889  66.812  1.00  0.00    -0.209 C  
BRANCH   4   5
HETATM    5  N   UNL     1      -8.061  18.945  68.034  1.00  0.00    -0.283 NA 
BRANCH   5   6
HETATM    6  C   UNL     1      -8.761  17.749  68.485  1.00  0.00    -0.283 C  
HETATM    7  S   UNL     1     -10.482  17.401  67.944  1.00  0.00    -0.388 SA 
HETATM    8  C   UNL     1     -10.419  13.321  67.284  1.00  0.00    -0.247 C  
HETATM    9  S   UNL     1      -8.004  16.474  69.250  1.00  0.00     0.009 SA 
HETATM   10 ZN   UNL     1      -9.630  15.469  68.187  1.00  0.00    -0.186 Zn 
HETATM   11  S   UNL     1     -11.118  13.953  68.653  1.00  0.00    -0.278 SA 
HETATM   12  S   UNL     1      -8.926  14.177  66.640  1.00  0.00    -0.108 SA 
BRANCH   8  13
HETATM   13  N   UNL     1     -11.086  12.347  66.463  1.00  0.00    -0.286 NA 
BRANCH  13  14
HETATM   14  C   UNL     1     -12.292  12.678  65.705  1.00  0.00    -0.253 C  
BRANCH  14  15
HETATM   15  C   UNL     1     -12.396  11.864  64.390  1.00  0.00    -0.249 C  
BRANCH  15  16
HETATM   16  C   UNL     1     -11.636  12.478  63.198  1.00  0.00    -0.271 C  
HETATM   17  C   UNL     1     -10.263  11.817  63.025  1.00  0.00    -0.252 C  
ENDBRANCH  15  16
ENDBRANCH  14  15
ENDBRANCH  13  14
BRANCH  13  18
HETATM   18  C   UNL     1     -10.530  10.993  66.358  1.00  0.00    -0.258 C  
BRANCH  18  19
HETATM   19  C   UNL     1     -10.861  10.127  67.597  1.00  0.00    -0.346 C  
BRANCH  19  20
HETATM   20  C   UNL     1      -9.856  10.260  68.755  1.00  0.00    -0.184 C  
HETATM   21  C   UNL     1     -10.557  10.066  70.104  1.00  0.00    -0.350 C  
ENDBRANCH  19  20
ENDBRANCH  18  19
ENDBRANCH  13  18
ENDBRANCH   8  13
ENDBRANCH   5   6
BRANCH   5  22
HETATM   22  C   UNL     1      -8.107  20.191  68.811  1.00  0.00     0.156 C  
BRANCH  22  23
HETATM   23  C   UNL     1      -7.115  20.275  69.986  1.00  0.00     0.244 C  
BRANCH  23  24
HETATM   24  C   UNL     1      -5.803  19.508  69.774  1.00  0.00    -0.298 C  
HETATM   25  C   UNL     1      -5.166  19.151  71.122  1.00  0.00    -0.288 C  
ENDBRANCH  23  24
ENDBRANCH  22  23
ENDBRANCH   5  22
ENDBRANCH   4   5
ENDBRANCH   3   4
ENDBRANCH   2   3
TORSDOF 14
ENDMDL
MODEL      309
REMARK 921   NORMALIZED FREE ENERGY PREDICTED BY IDOCK:    1.52 KCAL/MOL
REMARK 922        TOTAL FREE ENERGY PREDICTED BY IDOCK:    1.39 KCAL/MOL
REMARK 923 INTER-LIGAND FREE ENERGY PREDICTED BY IDOCK:   -0.25 KCAL/MOL
REMARK 924 INTRA-LIGAND FREE ENERGY PREDICTED BY IDOCK:    1.64 KCAL/MOL
REMARK 927      BINDING AFFINITY PREDICTED BY RF-SCORE:    0.00 PKD
ROOT
HETATM    1  C   UNL     1      -8.175  17.735  67.062  1.00  0.00    -0.239 C  
HETATM    2  C   UNL     1      -8.711  17.129  68.361  1.00  0.00    -0.246 C  
ENDROOT
BRANCH   2   3
HETATM    3  C   UNL     1      -7.614  17.048  69.440  1.00  0.00     0.080 C  
BRANCH   3   4
HETATM    4  C   UNL     1      -6.309  16.439  68.883  1.00  0.00    -0.150 C  
BRANCH   4   5
HETATM    5  N   UNL     1      -6.208  14.987  69.115  1.00  0.00    -0.102 NA 
BRANCH   5   6
HETATM    6  C   UNL     1      -6.825  14.063  68.172  1.00  0.00    -0.122 C  
HETATM    7  S   UNL     1      -5.833  13.258  66.852  1.00  0.00     1.545 SA 
HETATM    8  C   UNL     1      -7.346   9.411  66.799  1.00  0.00    -0.086 C  
HETATM    9  S   UNL     1      -8.355  13.429  68.375  1.00  0.00    -0.099 SA 
HETATM   10 ZN   UNL     1      -7.330  11.818  67.308  1.00  0.00    -0.087 Zn 
HETATM   11  S   UNL     1      -7.769  10.510  65.626  1.00  0.00    -0.109 SA 
HETATM   12  S   UNL     1      -7.095  10.061  68.499  1.00  0.00    -0.072 SA 
BRANCH   8  13
HETATM   13  N   UNL     1      -6.907   8.080  66.479  1.00  0.00    -0.066 NA 
BRANCH  13  14
HETATM   14  C   UNL     1      -6.714   7.647  65.096  1.00  0.00    -0.047 C  
BRANCH  14  15
HETATM   15  C   UNL     1      -8.051   7.579  64.314  1.00  0.00    -0.064 C  
BRANCH  15  16
HETATM   16  C   UNL     1      -8.576   8.943  63.826  1.00  0.00    -0.105 C  
HETATM   17  C   UNL     1      -8.109   9.229  62.394  1.00  0.00    -0.142 C  
ENDBRANCH  15  16
ENDBRANCH  14  15
ENDBRANCH  13  14
BRANCH  13  18
HETATM   18  C   UNL     1      -6.619   7.137  67.565  1.00  0.00    -0.059 C  
BRANCH  18  19
HETATM   19  C   UNL     1      -7.013   5.685  67.201  1.00  0.00    -0.065 C  
BRANCH  19  20
HETATM   20  C   UNL     1      -8.258   5.159  67.937  1.00  0.00    -0.098 C  
HETATM   21  C   UNL     1      -8.108   5.343  69.452  1.00  0.00    -0.093 C  
ENDBRANCH  19  20
ENDBRANCH  18  19
ENDBRANCH  13  18
ENDBRANCH   8  13
ENDBRANCH   5   6
BRANCH   5  22
HETATM   22  C   UNL     1      -5.428  14.496  70.260  1.00  0.00    -0.113 C  
BRANCH  22  23
HETATM   23  C   UNL     1      -5.997  14.847  71.648  1.00  0.00     0.351 C  
BRANCH  23  24
HETATM   24  C   UNL     1      -5.385  14.054  72.810  1.00  0.00    -0.210 C  
HETATM   25  C   UNL     1      -5.126  12.602  72.391  1.00  0.00     0.144 C  
ENDBRANCH  23  24
ENDBRANCH  22  23
ENDBRANCH   5  22
ENDBRANCH   4   5
ENDBRANCH   3   4
ENDBRANCH   2   3
TORSDOF 14
ENDMDL
MODEL      310
REMARK 921   NORMALIZED FREE ENERGY PREDICTED BY IDOCK:    1.65 KCAL/MOL
REMARK 922        TOTAL FREE ENERGY PREDICTED BY IDOCK:    1.61 KCAL/MOL
REMARK 923 INTER-LIGAND FREE ENERGY PREDICTED BY IDOCK:    0.85 KCAL/MOL
REMARK 924 INTRA-LIGAND FREE ENERGY PREDICTED BY IDOCK:    0.76 KCAL/MOL
REMARK 927      BINDING AFFINITY PREDICTED BY RF-SCORE:    0.00 PKD
ROOT
HETATM    1  C   UNL     1     -11.303   4.750  68.542  1.00  0.00     3.374 C  
HETATM    2  C   UNL     1      -9.870   4.956  68.050  1.00  0.00    -0.197 C  
ENDROOT
BRANCH   2   3
HETATM    3  C   UNL     1      -9.120   5.989  68.913  1.00  0.00    -0.121 C  
BRANCH   3   4
HETATM    4  C   UNL     1      -8.869   5.464  70.343  1.00  0.00    -0.129 C  
BRANCH   4   5
HETATM    5  N   UNL     1      -9.281   6.419  71.387  1.00  0.00    -0.149 NA 
BRANCH   5   6
HETATM    6  C   UNL     1      -9.127   7.850  71.155  1.00  0.00    -0.143 C  
HETATM    7  S   UNL     1      -8.005   8.477  69.842  1.00  0.00    -0.109 SA 
HETATM    8  C   UNL     1     -10.155  11.621  68.235  1.00  0.00    -0.202 C  
HETATM    9  S   UNL     1     -10.138   9.003  71.811  1.00  0.00    -0.211 SA 
HETATM   10 ZN   UNL     1      -9.552   9.932  69.920  1.00  0.00    -0.151 Zn 
HETATM   11  S   UNL     1      -8.884  11.897  69.269  1.00  0.00     0.926 SA 
HETATM   12  S   UNL     1     -11.187  10.136  68.563  1.00  0.00    -0.109 SA 
BRANCH   8  13
HETATM   13  N   UNL     1     -10.288  12.313  66.982  1.00  0.00    -0.218 NA 
BRANCH  13  14
HETATM   14  C   UNL     1      -9.130  12.872  66.287  1.00  0.00    -0.007 C  
BRANCH  14  15
HETATM   15  C   UNL     1      -8.360  11.798  65.478  1.00  0.00     0.586 C  
BRANCH  15  16
HETATM   16  C   UNL     1      -8.193  10.448  66.205  1.00  0.00    -0.144 C  
HETATM   17  C   UNL     1      -7.114   9.593  65.530  1.00  0.00    -0.098 C  
ENDBRANCH  15  16
ENDBRANCH  14  15
ENDBRANCH  13  14
BRANCH  13  18
HETATM   18  C   UNL     1     -11.614  12.439  66.367  1.00  0.00    -0.384 C  
BRANCH  18  19
HETATM   19  C   UNL     1     -11.745  13.724  65.515  1.00  0.00    -0.356 C  
BRANCH  19  20
HETATM   20  C   UNL     1     -11.277  13.573  64.057  1.00  0.00    -0.259 C  
HETATM   21  C   UNL     1     -11.712  12.218  63.488  1.00  0.00    -0.584 C  
ENDBRANCH  19  20
ENDBRANCH  18  19
ENDBRANCH  13  18
ENDBRANCH   8  13
ENDBRANCH   5   6
BRANCH   5  22
HETATM   22  C   UNL     1      -9.902   5.913  72.619  1.00  0.00    -0.164 C  
BRANCH  22  23
HETATM   23  C   UNL     1      -9.126   6.200  73.918  1.00  0.00    -0.133 C  
BRANCH  23  24
HETATM   24  C   UNL     1      -7.599   6.146  73.778  1.00  0.00    -0.091 C  
HETATM   25  C   UNL     1      -7.115   4.692  73.737  1.00  0.00    -0.072 C  
ENDBRANCH  23  24
ENDBRANCH  22  23
ENDBRANCH   5  22
ENDBRANCH   4   5
ENDBRANCH   3   4
ENDBRANCH   2   3
TORSDOF 14
ENDMDL
MODEL      311
REMARK 921   NORMALIZED FREE ENERGY PREDICTED BY IDOCK:    1.89 KCAL/MOL
REMARK 922        TOTAL FREE ENERGY PREDICTED BY IDOCK:    2.05 KCAL/MOL
REMARK 923 INTER-LIGAND FREE ENERGY PREDICTED BY IDOCK:    0.12 KCAL/MOL
REMARK 924 INTRA-LIGAND FREE ENERGY PREDICTED BY IDOCK:    1.93 KCAL/MOL
REMARK 927      BINDING AFFINITY PREDICTED BY RF-SCORE:    0.00 PKD
ROOT
HETATM    1  C   UNL     1     -12.906   2.446  72.902  1.00  0.00     1.285 C  
HETATM    2  C   UNL     1     -11.671   1.616  72.551  1.00  0.00     0.608 C  
ENDROOT
BRANCH   2   3
HETATM    3  C   UNL     1     -10.378   2.445  72.681  1.00  0.00    -0.234 C  
BRANCH   3   4
HETATM    4  C   UNL     1      -9.153   1.683  72.131  1.00  0.00    -0.070 C  
BRANCH   4   5
HETATM    5  N   UNL     1      -7.874   2.339  72.459  1.00  0.00    -0.052 NA 
BRANCH   5   6
HETATM    6  C   UNL     1      -6.969   2.726  71.384  1.00  0.00    -0.032 C  
HETATM    7  S   UNL     1      -7.110   1.975  69.713  1.00  0.00    -0.033 SA 
HETATM    8  C   UNL     1      -6.449   5.197  67.210  1.00  0.00    -0.049 C  
HETATM    9  S   UNL     1      -5.962   4.054  71.464  1.00  0.00    -0.014 SA 
HETATM   10 ZN   UNL     1      -6.399   3.940  69.324  1.00  0.00    -0.023 Zn 
HETATM   11  S   UNL     1      -5.263   4.065  67.473  1.00  0.00    -0.012 SA 
HETATM   12  S   UNL     1      -7.545   5.602  68.628  1.00  0.00    -0.089 SA 
BRANCH   8  13
HETATM   13  N   UNL     1      -6.812   5.634  65.889  1.00  0.00    -0.056 NA 
BRANCH  13  14
HETATM   14  C   UNL     1      -8.209   5.714  65.463  1.00  0.00    -0.129 C  
BRANCH  14  15
HETATM   15  C   UNL     1      -8.382   5.366  63.963  1.00  0.00    -0.116 C  
BRANCH  15  16
HETATM   16  C   UNL     1      -9.379   4.224  63.682  1.00  0.00    -0.131 C  
HETATM   17  C   UNL     1     -10.004   3.712  64.986  1.00  0.00    -0.110 C  
ENDBRANCH  15  16
ENDBRANCH  14  15
ENDBRANCH  13  14
BRANCH  13  18
HETATM   18  C   UNL     1      -5.759   6.036  64.949  1.00  0.00    -0.024 C  
BRANCH  18  19
HETATM   19  C   UNL     1      -6.329   6.755  63.703  1.00  0.00    -0.042 C  
BRANCH  19  20
HETATM   20  C   UNL     1      -5.706   8.134  63.422  1.00  0.00    -0.066 C  
HETATM   21  C   UNL     1      -6.332   9.203  64.325  1.00  0.00    -0.076 C  
ENDBRANCH  19  20
ENDBRANCH  18  19
ENDBRANCH  13  18
ENDBRANCH   8  13
ENDBRANCH   5   6
BRANCH   5  22
HETATM   22  C   UNL     1      -7.565   2.648  73.861  1.00  0.00    -0.050 C  
BRANCH  22  23
HETATM   23  C   UNL     1      -7.779   4.115  74.279  1.00  0.00    -0.080 C  
BRANCH  23  24
HETATM   24  C   UNL     1      -8.465   4.989  73.220  1.00  0.00    -0.110 C  
HETATM   25  C   UNL     1      -9.866   5.398  73.687  1.00  0.00    -0.170 C  
ENDBRANCH  23  24
ENDBRANCH  22  23
ENDBRANCH   5  22
ENDBRANCH   4   5
ENDBRANCH   3   4
ENDBRANCH   2   3
TORSDOF 14
ENDMDL
MODEL      312
REMARK 921   NORMALIZED FREE ENERGY PREDICTED BY IDOCK:    2.99 KCAL/MOL
REMARK 922        TOTAL FREE ENERGY PREDICTED BY IDOCK:    4.06 KCAL/MOL
REMARK 923 INTER-LIGAND FREE ENERGY PREDICTED BY IDOCK:   -3.27 KCAL/MOL
REMARK 924 INTRA-LIGAND FREE ENERGY PREDICTED BY IDOCK:    7.32 KCAL/MOL
REMARK 927      BINDING AFFINITY PREDICTED BY RF-SCORE:    0.00 PKD
ROOT
HETATM    1  C   UNL     1     -12.059  17.071  71.777  1.00  0.00     1.570 C  
HETATM    2  C   UNL     1     -12.625  16.186  70.664  1.00  0.00     0.328 C  
ENDROOT
BRANCH   2   3
HETATM    3  C   UNL     1     -13.483  15.041  71.236  1.00  0.00    -0.520 C  
BRANCH   3   4
HETATM    4  C   UNL     1     -12.836  13.662  70.983  1.00  0.00    -0.287 C  
BRANCH   4   5
HETATM    5  N   UNL     1     -12.123  13.589  69.694  1.00  0.00    -0.321 NA 
BRANCH   5   6
HETATM    6  C   UNL     1     -11.541  14.798  69.125  1.00  0.00    -0.303 C  
HETATM    7  S   UNL     1     -10.731  16.051  70.197  1.00  0.00    -0.274 SA 
HETATM    8  C   UNL     1      -7.438  17.166  67.960  1.00  0.00    -0.195 C  
HETATM    9  S   UNL     1     -11.283  15.012  67.491  1.00  0.00    -0.329 SA 
HETATM   10 ZN   UNL     1      -9.655  16.180  68.368  1.00  0.00    -0.186 Zn 
HETATM   11  S   UNL     1      -8.777  18.145  68.054  1.00  0.00    -0.275 SA 
HETATM   12  S   UNL     1      -7.732  15.352  67.952  1.00  0.00    -0.144 SA 
BRANCH   8  13
HETATM   13  N   UNL     1      -6.106  17.666  68.169  1.00  0.00    -0.161 NA 
BRANCH  13  14
HETATM   14  C   UNL     1      -5.137  16.948  68.996  1.00  0.00    -0.129 C  
BRANCH  14  15
HETATM   15  C   UNL     1      -5.742  16.505  70.352  1.00  0.00    -0.107 C  
BRANCH  15  16
HETATM   16  C   UNL     1      -5.170  15.186  70.907  1.00  0.00    -0.139 C  
HETATM   17  C   UNL     1      -6.190  14.048  70.772  1.00  0.00    -0.075 C  
ENDBRANCH  15  16
ENDBRANCH  14  15
ENDBRANCH  13  14
BRANCH  13  18
HETATM   18  C   UNL     1      -5.696  18.915  67.517  1.00  0.00    -0.172 C  
BRANCH  18  19
HETATM   19  C   UNL     1      -5.400  18.719  66.011  1.00  0.00    -0.179 C  
BRANCH  19  20
HETATM   20  C   UNL     1      -6.626  18.876  65.095  1.00  0.00    -0.200 C  
HETATM   21  C   UNL     1      -7.288  20.243  65.307  1.00  0.00    -0.067 C  
ENDBRANCH  19  20
ENDBRANCH  18  19
ENDBRANCH  13  18
ENDBRANCH   8  13
ENDBRANCH   5   6
BRANCH   5  22
HETATM   22  C   UNL     1     -11.957  12.284  69.040  1.00  0.00    -0.248 C  
BRANCH  22  23
HETATM   23  C   UNL     1     -10.501  11.816  68.857  1.00  0.00    -0.182 C  
BRANCH  23  24
HETATM   24  C   UNL     1     -10.187  10.444  69.468  1.00  0.00    -0.258 C  
HETATM   25  C   UNL     1     -11.181  10.117  70.590  1.00  0.00    -0.418 C  
ENDBRANCH  23  24
ENDBRANCH  22  23
ENDBRANCH   5  22
ENDBRANCH   4   5
ENDBRANCH   3   4
ENDBRANCH   2   3
TORSDOF 14
ENDMDL
MODEL      313
REMARK 921   NORMALIZED FREE ENERGY PREDICTED BY IDOCK:    7.60 KCAL/MOL
REMARK 922        TOTAL FREE ENERGY PREDICTED BY IDOCK:   12.44 KCAL/MOL
REMARK 923 INTER-LIGAND FREE ENERGY PREDICTED BY IDOCK:    3.28 KCAL/MOL
REMARK 924 INTRA-LIGAND FREE ENERGY PREDICTED BY IDOCK:    9.16 KCAL/MOL
REMARK 927      BINDING AFFINITY PREDICTED BY RF-SCORE:    0.00 PKD
ROOT
HETATM    1  C   UNL     1     -11.951  10.887  67.239  1.00  0.00     0.920 C  
HETATM    2  C   UNL     1     -11.269   9.987  68.271  1.00  0.00    -0.195 C  
ENDROOT
BRANCH   2   3
HETATM    3  C   UNL     1     -12.257   8.968  68.871  1.00  0.00     2.608 C  
BRANCH   3   4
HETATM    4  C   UNL     1     -11.521   7.806  69.572  1.00  0.00     0.367 C  
BRANCH   4   5
HETATM    5  N   UNL     1     -10.653   8.256  70.675  1.00  0.00    -0.211 NA 
BRANCH   5   6
HETATM    6  C   UNL     1     -10.048   9.581  70.618  1.00  0.00    -0.286 C  
HETATM    7  S   UNL     1      -8.285   9.834  71.068  1.00  0.00     0.953 SA 
HETATM    8  C   UNL     1      -7.004  12.552  68.230  1.00  0.00    -0.089 C  
HETATM    9  S   UNL     1     -10.768  10.889  69.875  1.00  0.00     0.040 SA 
HETATM   10 ZN   UNL     1      -8.642  11.310  69.581  1.00  0.00    -0.328 Zn 
HETATM   11  S   UNL     1      -7.332  13.035  69.785  1.00  0.00     1.056 SA 
HETATM   12  S   UNL     1      -8.063  11.225  67.528  1.00  0.00    -0.129 SA 
BRANCH   8  13
HETATM   13  N   UNL     1      -5.789  12.920  67.553  1.00  0.00    -0.242 NA 
BRANCH  13  14
HETATM   14  C   UNL     1      -5.145  14.213  67.780  1.00  0.00     0.023 C  
BRANCH  14  15
HETATM   15  C   UNL     1      -6.150  15.286  68.270  1.00  0.00    -0.122 C  
BRANCH  15  16
HETATM   16  C   UNL     1      -6.740  16.167  67.150  1.00  0.00    -0.227 C  
HETATM   17  C   UNL     1      -6.123  17.570  67.175  1.00  0.00    -0.167 C  
ENDBRANCH  15  16
ENDBRANCH  14  15
ENDBRANCH  13  14
BRANCH  13  18
HETATM   18  C   UNL     1      -5.161  11.966  66.632  1.00  0.00     0.014 C  
BRANCH  18  19
HETATM   19  C   UNL     1      -6.203  11.091  65.896  1.00  0.00    -0.037 C  
BRANCH  19  20
HETATM   20  C   UNL     1      -6.007   9.575  66.078  1.00  0.00    -0.062 C  
HETATM   21  C   UNL     1      -7.070   8.794  65.298  1.00  0.00    -0.083 C  
ENDBRANCH  19  20
ENDBRANCH  18  19
ENDBRANCH  13  18
ENDBRANCH   8  13
ENDBRANCH   5   6
BRANCH   5  22
HETATM   22  C   UNL     1     -10.467   7.385  71.843  1.00  0.00    -0.201 C  
BRANCH  22  23
HETATM   23  C   UNL     1     -11.414   6.173  71.923  1.00  0.00    -0.355 C  
BRANCH  23  24
HETATM   24  C   UNL     1     -11.289   5.346  73.210  1.00  0.00    -0.266 C  
HETATM   25  C   UNL     1     -11.873   3.943  73.004  1.00  0.00     0.299 C  
ENDBRANCH  23  24
ENDBRANCH  22  23
ENDBRANCH   5  22
ENDBRANCH   4   5
ENDBRANCH   3   4
ENDBRANCH   2   3
TORSDOF 14
ENDMDL
MODEL      314
REMARK 921   NORMALIZED FREE ENERGY PREDICTED BY IDOCK:    7.97 KCAL/MOL
REMARK 922        TOTAL FREE ENERGY PREDICTED BY IDOCK:   13.12 KCAL/MOL
REMARK 923 INTER-LIGAND FREE ENERGY PREDICTED BY IDOCK:    6.64 KCAL/MOL
REMARK 924 INTRA-LIGAND FREE ENERGY PREDICTED BY IDOCK:    6.48 KCAL/MOL
REMARK 927      BINDING AFFINITY PREDICTED BY RF-SCORE:    0.00 PKD
ROOT
HETATM    1  C   UNL     1     -10.133  20.019  64.353  1.00  0.00     3.900 C  
HETATM    2  C   UNL     1      -9.268  19.948  65.612  1.00  0.00     0.140 C  
ENDROOT
BRANCH   2   3
HETATM    3  C   UNL     1      -9.895  19.026  66.676  1.00  0.00    -0.403 C  
BRANCH   3   4
HETATM    4  C   UNL     1      -9.006  18.918  67.934  1.00  0.00    -0.297 C  
BRANCH   4   5
HETATM    5  N   UNL     1      -8.101  17.755  67.901  1.00  0.00    -0.230 NA 
BRANCH   5   6
HETATM    6  C   UNL     1      -8.604  16.466  67.446  1.00  0.00    -0.178 C  
HETATM    7  S   UNL     1      -7.925  15.666  65.938  1.00  0.00     1.948 SA 
HETATM    8  C   UNL     1      -7.727  11.685  67.031  1.00  0.00    -0.159 C  
HETATM    9  S   UNL     1      -9.580  15.480  68.373  1.00  0.00    -0.204 SA 
HETATM   10 ZN   UNL     1      -8.467  14.026  67.176  1.00  0.00    -0.148 Zn 
HETATM   11  S   UNL     1      -8.935  12.236  66.033  1.00  0.00     0.169 SA 
HETATM   12  S   UNL     1      -7.155  12.823  68.355  1.00  0.00    -0.111 SA 
BRANCH   8  13
HETATM   13  N   UNL     1      -6.951  10.514  66.721  1.00  0.00    -0.098 NA 
BRANCH  13  14
HETATM   14  C   UNL     1      -5.624  10.298  67.295  1.00  0.00    -0.041 C  
BRANCH  14  15
HETATM   15  C   UNL     1      -5.381   8.812  67.659  1.00  0.00    -0.035 C  
BRANCH  15  16
HETATM   16  C   UNL     1      -6.587   7.886  67.405  1.00  0.00    -0.057 C  
HETATM   17  C   UNL     1      -6.123   6.464  67.068  1.00  0.00    -0.025 C  
ENDBRANCH  15  16
ENDBRANCH  14  15
ENDBRANCH  13  14
BRANCH  13  18
HETATM   18  C   UNL     1      -7.513   9.495  65.827  1.00  0.00    -0.100 C  
BRANCH  18  19
HETATM   19  C   UNL     1      -8.626   8.666  66.511  1.00  0.00    -0.124 C  
BRANCH  19  20
HETATM   20  C   UNL     1      -8.871   9.023  67.988  1.00  0.00    -0.129 C  
HETATM   21  C   UNL     1      -9.961   8.127  68.587  1.00  0.00    -0.201 C  
ENDBRANCH  19  20
ENDBRANCH  18  19
ENDBRANCH  13  18
ENDBRANCH   8  13
ENDBRANCH   5   6
BRANCH   5  22
HETATM   22  C   UNL     1      -6.690  17.934  68.267  1.00  0.00    -0.205 C  
BRANCH  22  23
HETATM   23  C   UNL     1      -5.672  17.622  67.154  1.00  0.00    -0.159 C  
BRANCH  23  24
HETATM   24  C   UNL     1      -6.223  17.747  65.728  1.00  0.00    -0.202 C  
HETATM   25  C   UNL     1      -5.355  16.952  64.746  1.00  0.00     3.592 C  
ENDBRANCH  23  24
ENDBRANCH  22  23
ENDBRANCH   5  22
ENDBRANCH   4   5
ENDBRANCH   3   4
ENDBRANCH   2   3
TORSDOF 14
ENDMDL
MODEL      315
REMARK 921   NORMALIZED FREE ENERGY PREDICTED BY IDOCK:    8.81 KCAL/MOL
REMARK 922        TOTAL FREE ENERGY PREDICTED BY IDOCK:   14.64 KCAL/MOL
REMARK 923 INTER-LIGAND FREE ENERGY PREDICTED BY IDOCK:   10.10 KCAL/MOL
REMARK 924 INTRA-LIGAND FREE ENERGY PREDICTED BY IDOCK:    4.54 KCAL/MOL
REMARK 927      BINDING AFFINITY PREDICTED BY RF-SCORE:    0.00 PKD
ROOT
HETATM    1  C   UNL     1     -10.131  20.022  64.357  1.00  0.00     3.900 C  
HETATM    2  C   UNL     1      -9.257  20.161  65.604  1.00  0.00     0.139 C  
ENDROOT
BRANCH   2   3
HETATM    3  C   UNL     1      -9.886  19.449  66.817  1.00  0.00    -0.453 C  
BRANCH   3   4
HETATM    4  C   UNL     1      -9.022  19.613  68.087  1.00  0.00    -0.324 C  
BRANCH   4   5
HETATM    5  N   UNL     1      -8.186  18.433  68.371  1.00  0.00    -0.306 NA 
BRANCH   5   6
HETATM    6  C   UNL     1      -8.790  17.106  68.366  1.00  0.00    -0.255 C  
HETATM    7  S   UNL     1      -8.221  15.813  67.192  1.00  0.00    -0.228 SA 
HETATM    8  C   UNL     1      -8.247  12.397  69.519  1.00  0.00     1.278 C  
HETATM    9  S   UNL     1      -9.794  16.550  69.577  1.00  0.00     0.010 SA 
HETATM   10 ZN   UNL     1      -8.825  14.708  68.904  1.00  0.00    -0.146 Zn 
HETATM   11  S   UNL     1      -9.452  12.684  68.412  1.00  0.00    -0.112 SA 
HETATM   12  S   UNL     1      -7.553  13.857  70.393  1.00  0.00     2.064 SA 
BRANCH   8  13
HETATM   13  N   UNL     1      -7.562  11.135  69.597  1.00  0.00     0.060 NA 
BRANCH  13  14
HETATM   14  C   UNL     1      -6.215  11.025  70.154  1.00  0.00    -0.146 C  
BRANCH  14  15
HETATM   15  C   UNL     1      -6.036   9.738  70.998  1.00  0.00    -0.079 C  
BRANCH  15  16
HETATM   16  C   UNL     1      -7.309   8.880  71.132  1.00  0.00    -0.119 C  
HETATM   17  C   UNL     1      -6.954   7.396  71.285  1.00  0.00    -0.055 C  
ENDBRANCH  15  16
ENDBRANCH  14  15
ENDBRANCH  13  14
BRANCH  13  18
HETATM   18  C   UNL     1      -8.239   9.919  69.131  1.00  0.00    -0.128 C  
BRANCH  18  19
HETATM   19  C   UNL     1      -9.342   9.452  70.110  1.00  0.00    -0.276 C  
BRANCH  19  20
HETATM   20  C   UNL     1      -9.460  10.299  71.389  1.00  0.00     3.010 C  
HETATM   21  C   UNL     1     -10.550   9.738  72.311  1.00  0.00     1.950 C  
ENDBRANCH  19  20
ENDBRANCH  18  19
ENDBRANCH  13  18
ENDBRANCH   8  13
ENDBRANCH   5   6
BRANCH   5  22
HETATM   22  C   UNL     1      -6.744  18.611  68.588  1.00  0.00    -0.266 C  
BRANCH  22  23
HETATM   23  C   UNL     1      -5.828  17.883  67.586  1.00  0.00    -0.149 C  
BRANCH  23  24
HETATM   24  C   UNL     1      -5.823  18.479  66.172  1.00  0.00    -0.202 C  
HETATM   25  C   UNL     1      -5.333  17.442  65.155  1.00  0.00     0.931 C  
ENDBRANCH  23  24
ENDBRANCH  22  23
ENDBRANCH   5  22
ENDBRANCH   4   5
ENDBRANCH   3   4
ENDBRANCH   2   3
TORSDOF 14
ENDMDL
MODEL      316
REMARK 921   NORMALIZED FREE ENERGY PREDICTED BY IDOCK:    9.92 KCAL/MOL
REMARK 922        TOTAL FREE ENERGY PREDICTED BY IDOCK:   16.66 KCAL/MOL
REMARK 923 INTER-LIGAND FREE ENERGY PREDICTED BY IDOCK:    7.94 KCAL/MOL
REMARK 924 INTRA-LIGAND FREE ENERGY PREDICTED BY IDOCK:    8.72 KCAL/MOL
REMARK 927      BINDING AFFINITY PREDICTED BY RF-SCORE:    0.00 PKD
ROOT
HETATM    1  C   UNL     1     -12.162   9.683  67.956  1.00  0.00     3.596 C  
HETATM    2  C   UNL     1     -10.715   9.192  67.880  1.00  0.00    -0.224 C  
ENDROOT
BRANCH   2   3
HETATM    3  C   UNL     1     -10.100   9.466  66.494  1.00  0.00    -0.332 C  
BRANCH   3   4
HETATM    4  C   UNL     1      -8.571   9.667  66.578  1.00  0.00    -0.127 C  
BRANCH   4   5
HETATM    5  N   UNL     1      -8.192  10.932  67.232  1.00  0.00    -0.121 NA 
BRANCH   5   6
HETATM    6  C   UNL     1      -9.224  11.769  67.831  1.00  0.00    -0.181 C  
HETATM    7  S   UNL     1      -8.976  12.537  69.482  1.00  0.00     1.972 SA 
HETATM    8  C   UNL     1     -10.609  16.302  68.987  1.00  0.00    -0.286 C  
HETATM    9  S   UNL     1     -10.544  12.346  66.989  1.00  0.00    -0.228 SA 
HETATM   10 ZN   UNL     1     -10.208  13.933  68.456  1.00  0.00    -0.195 Zn 
HETATM   11  S   UNL     1     -11.433  15.116  69.809  1.00  0.00    -0.321 SA 
HETATM   12  S   UNL     1      -9.588  15.767  67.556  1.00  0.00    -0.224 SA 
BRANCH   8  13
HETATM   13  N   UNL     1     -10.448  17.629  69.515  1.00  0.00    -0.011 NA 
BRANCH  13  14
HETATM   14  C   UNL     1     -10.254  17.869  70.944  1.00  0.00     2.839 C  
BRANCH  14  15
HETATM   15  C   UNL     1     -11.591  17.835  71.727  1.00  0.00     3.165 C  
BRANCH  15  16
HETATM   16  C   UNL     1     -11.666  16.745  72.815  1.00  0.00    -0.035 C  
HETATM   17  C   UNL     1     -12.202  17.323  74.131  1.00  0.00     0.242 C  
ENDBRANCH  15  16
ENDBRANCH  14  15
ENDBRANCH  13  14
BRANCH  13  18
HETATM   18  C   UNL     1     -10.449  18.774  68.596  1.00  0.00    -0.061 C  
BRANCH  18  19
HETATM   19  C   UNL     1      -9.220  19.691  68.801  1.00  0.00    -0.339 C  
BRANCH  19  20
HETATM   20  C   UNL     1      -8.248  19.730  67.609  1.00  0.00    -0.340 C  
HETATM   21  C   UNL     1      -6.881  20.272  68.044  1.00  0.00    -0.335 C  
ENDBRANCH  19  20
ENDBRANCH  18  19
ENDBRANCH  13  18
ENDBRANCH   8  13
ENDBRANCH   5   6
BRANCH   5  22
HETATM   22  C   UNL     1      -6.771  11.295  67.324  1.00  0.00    -0.104 C  
BRANCH  22  23
HETATM   23  C   UNL     1      -6.482  12.794  67.530  1.00  0.00    -0.161 C  
BRANCH  23  24
HETATM   24  C   UNL     1      -7.632  13.587  68.165  1.00  0.00    -0.138 C  
HETATM   25  C   UNL     1      -7.125  14.402  69.361  1.00  0.00    -0.113 C  
ENDBRANCH  23  24
ENDBRANCH  22  23
ENDBRANCH   5  22
ENDBRANCH   4   5
ENDBRANCH   3   4
ENDBRANCH   2   3
TORSDOF 14
ENDMDL
MODEL      317
REMARK 921   NORMALIZED FREE ENERGY PREDICTED BY IDOCK:   10.87 KCAL/MOL
REMARK 922        TOTAL FREE ENERGY PREDICTED BY IDOCK:   18.39 KCAL/MOL
REMARK 923 INTER-LIGAND FREE ENERGY PREDICTED BY IDOCK:   17.93 KCAL/MOL
REMARK 924 INTRA-LIGAND FREE ENERGY PREDICTED BY IDOCK:    0.45 KCAL/MOL
REMARK 927      BINDING AFFINITY PREDICTED BY RF-SCORE:    0.00 PKD
ROOT
HETATM    1  C   UNL     1      -8.341   3.031  72.703  1.00  0.00    -0.071 C  
HETATM    2  C   UNL     1      -7.015   2.553  72.110  1.00  0.00    -0.030 C  
ENDROOT
BRANCH   2   3
HETATM    3  C   UNL     1      -6.391   3.619  71.188  1.00  0.00    -0.019 C  
BRANCH   3   4
HETATM    4  C   UNL     1      -7.049   5.001  71.388  1.00  0.00    -0.057 C  
BRANCH   4   5
HETATM    5  N   UNL     1      -7.596   5.564  70.140  1.00  0.00    -0.072 NA 
BRANCH   5   6
HETATM    6  C   UNL     1      -7.213   6.908  69.729  1.00  0.00    -0.079 C  
HETATM    7  S   UNL     1      -6.411   7.206  68.103  1.00  0.00    -0.045 SA 
HETATM    8  C   UNL     1      -8.208  10.705  66.831  1.00  0.00    -0.123 C  
HETATM    9  S   UNL     1      -7.720   8.290  70.515  1.00  0.00    -0.086 SA 
HETATM   10 ZN   UNL     1      -7.520   8.986  68.451  1.00  0.00    -0.072 Zn 
HETATM   11  S   UNL     1      -6.664  10.714  67.445  1.00  0.00    -0.078 SA 
HETATM   12  S   UNL     1      -9.394   9.517  67.578  1.00  0.00    -0.126 SA 
BRANCH   8  13
HETATM   13  N   UNL     1      -8.546  11.362  65.597  1.00  0.00    -0.035 NA 
BRANCH  13  14
HETATM   14  C   UNL     1      -7.518  11.816  64.662  1.00  0.00     2.699 C  
BRANCH  14  15
HETATM   15  C   UNL     1      -7.981  11.707  63.188  1.00  0.00     1.219 C  
BRANCH  15  16
HETATM   16  C   UNL     1      -8.225  13.061  62.493  1.00  0.00     8.319 C  
HETATM   17  C   UNL     1      -9.714  13.429  62.518  1.00  0.00     8.131 C  
ENDBRANCH  15  16
ENDBRANCH  14  15
ENDBRANCH  13  14
BRANCH  13  18
HETATM   18  C   UNL     1      -9.958  11.559  65.251  1.00  0.00    -0.260 C  
BRANCH  18  19
HETATM   19  C   UNL     1     -10.404  13.031  65.427  1.00  0.00    -0.313 C  
BRANCH  19  20
HETATM   20  C   UNL     1     -11.524  13.238  66.462  1.00  0.00    -0.372 C  
HETATM   21  C   UNL     1     -11.300  14.535  67.248  1.00  0.00    -0.363 C  
ENDBRANCH  19  20
ENDBRANCH  18  19
ENDBRANCH  13  18
ENDBRANCH   8  13
ENDBRANCH   5   6
BRANCH   5  22
HETATM   22  C   UNL     1      -8.468   4.732  69.299  1.00  0.00    -0.080 C  
BRANCH  22  23
HETATM   23  C   UNL     1      -7.818   3.457  68.729  1.00  0.00    -0.056 C  
BRANCH  23  24
HETATM   24  C   UNL     1      -7.157   3.635  67.355  1.00  0.00    -0.059 C  
HETATM   25  C   UNL     1      -6.685   2.282  66.808  1.00  0.00    -0.039 C  
ENDBRANCH  23  24
ENDBRANCH  22  23
ENDBRANCH   5  22
ENDBRANCH   4   5
ENDBRANCH   3   4
ENDBRANCH   2   3
TORSDOF 14
ENDMDL
MODEL      318
REMARK 921   NORMALIZED FREE ENERGY PREDICTED BY IDOCK:   13.55 KCAL/MOL
REMARK 922        TOTAL FREE ENERGY PREDICTED BY IDOCK:   23.26 KCAL/MOL
REMARK 923 INTER-LIGAND FREE ENERGY PREDICTED BY IDOCK:   22.16 KCAL/MOL
REMARK 924 INTRA-LIGAND FREE ENERGY PREDICTED BY IDOCK:    1.10 KCAL/MOL
REMARK 927      BINDING AFFINITY PREDICTED BY RF-SCORE:    0.00 PKD
ROOT
HETATM    1  C   UNL     1     -14.140  13.906  69.632  1.00  0.00     5.022 C  
HETATM    2  C   UNL     1     -13.202  12.955  68.888  1.00  0.00     2.993 C  
ENDROOT
BRANCH   2   3
HETATM    3  C   UNL     1     -13.620  11.484  69.081  1.00  0.00     4.581 C  
BRANCH   3   4
HETATM    4  C   UNL     1     -12.591  10.513  68.464  1.00  0.00     1.895 C  
BRANCH   4   5
HETATM    5  N   UNL     1     -11.317  10.478  69.205  1.00  0.00    -0.255 NA 
BRANCH   5   6
HETATM    6  C   UNL     1     -10.204  11.307  68.761  1.00  0.00    -0.202 C  
HETATM    7  S   UNL     1     -10.277  12.210  67.163  1.00  0.00    -0.211 SA 
HETATM    8  C   UNL     1      -8.539  15.843  68.091  1.00  0.00    -0.169 C  
HETATM    9  S   UNL     1      -8.938  11.754  69.752  1.00  0.00     2.262 SA 
HETATM   10 ZN   UNL     1      -9.081  13.463  68.395  1.00  0.00    -0.156 Zn 
HETATM   11  S   UNL     1      -7.697  14.686  67.247  1.00  0.00    -0.102 SA 
HETATM   12  S   UNL     1      -9.700  15.251  69.385  1.00  0.00    -0.224 SA 
BRANCH   8  13
HETATM   13  N   UNL     1      -8.599  17.214  67.660  1.00  0.00    -0.210 NA 
BRANCH  13  14
HETATM   14  C   UNL     1      -9.676  18.106  68.087  1.00  0.00    -0.325 C  
BRANCH  14  15
HETATM   15  C   UNL     1      -9.203  19.578  68.199  1.00  0.00    -0.411 C  
BRANCH  15  16
HETATM   16  C   UNL     1      -7.697  19.746  68.479  1.00  0.00    -0.324 C  
HETATM   17  C   UNL     1      -7.446  20.045  69.962  1.00  0.00     0.422 C  
ENDBRANCH  15  16
ENDBRANCH  14  15
ENDBRANCH  13  14
BRANCH  13  18
HETATM   18  C   UNL     1      -7.541  17.742  66.791  1.00  0.00    -0.216 C  
BRANCH  18  19
HETATM   19  C   UNL     1      -8.040  17.996  65.348  1.00  0.00     1.155 C  
BRANCH  19  20
HETATM   20  C   UNL     1      -7.040  17.596  64.248  1.00  0.00     6.294 C  
HETATM   21  C   UNL     1      -5.614  17.538  64.810  1.00  0.00     1.313 C  
ENDBRANCH  19  20
ENDBRANCH  18  19
ENDBRANCH  13  18
ENDBRANCH   8  13
ENDBRANCH   5   6
BRANCH   5  22
HETATM   22  C   UNL     1     -11.215   9.655  70.417  1.00  0.00    -0.283 C  
BRANCH  22  23
HETATM   23  C   UNL     1      -9.890   8.888  70.589  1.00  0.00    -0.261 C  
BRANCH  23  24
HETATM   24  C   UNL     1     -10.048   7.415  70.988  1.00  0.00    -0.191 C  
HETATM   25  C   UNL     1     -10.181   7.284  72.510  1.00  0.00    -0.236 C  
ENDBRANCH  23  24
ENDBRANCH  22  23
ENDBRANCH   5  22
ENDBRANCH   4   5
ENDBRANCH   3   4
ENDBRANCH   2   3
TORSDOF 14
ENDMDL
MODEL      319
REMARK 921   NORMALIZED FREE ENERGY PREDICTED BY IDOCK:   21.76 KCAL/MOL
REMARK 922        TOTAL FREE ENERGY PREDICTED BY IDOCK:   38.18 KCAL/MOL
REMARK 923 INTER-LIGAND FREE ENERGY PREDICTED BY IDOCK:   36.47 KCAL/MOL
REMARK 924 INTRA-LIGAND FREE ENERGY PREDICTED BY IDOCK:    1.72 KCAL/MOL
REMARK 927      BINDING AFFINITY PREDICTED BY RF-SCORE:    0.00 PKD
ROOT
HETATM    1  C   UNL     1     -14.354  12.667  71.803  1.00  0.00     1.303 C  
HETATM    2  C   UNL     1     -13.705  12.211  70.496  1.00  0.00     2.331 C  
ENDROOT
BRANCH   2   3
HETATM    3  C   UNL     1     -13.264  10.736  70.569  1.00  0.00     0.010 C  
BRANCH   3   4
HETATM    4  C   UNL     1     -12.453  10.320  69.323  1.00  0.00     0.602 C  
BRANCH   4   5
HETATM    5  N   UNL     1     -11.010  10.186  69.594  1.00  0.00    -0.248 NA 
BRANCH   5   6
HETATM    6  C   UNL     1     -10.114  11.292  69.282  1.00  0.00     0.009 C  
HETATM    7  S   UNL     1      -9.703  11.712  67.541  1.00  0.00    -0.179 SA 
HETATM    8  C   UNL     1      -9.729  15.845  67.573  1.00  0.00    -0.223 C  
HETATM    9  S   UNL     1      -9.638  12.434  70.401  1.00  0.00     5.865 SA 
HETATM   10 ZN   UNL     1      -9.631  13.586  68.542  1.00  0.00    -0.184 Zn 
HETATM   11  S   UNL     1      -8.298  15.001  67.568  1.00  0.00    -0.191 SA 
HETATM   12  S   UNL     1     -11.126  15.110  68.513  1.00  0.00    -0.292 SA 
BRANCH   8  13
HETATM   13  N   UNL     1      -9.981  16.933  66.667  1.00  0.00    -0.283 NA 
BRANCH  13  14
HETATM   14  C   UNL     1     -11.331  17.443  66.436  1.00  0.00     1.040 C  
BRANCH  14  15
HETATM   15  C   UNL     1     -11.465  18.137  65.057  1.00  0.00     2.258 C  
BRANCH  15  16
HETATM   16  C   UNL     1     -11.087  17.248  63.855  1.00  0.00     3.689 C  
HETATM   17  C   UNL     1     -11.730  15.861  63.978  1.00  0.00     0.137 C  
ENDBRANCH  15  16
ENDBRANCH  14  15
ENDBRANCH  13  14
BRANCH  13  18
HETATM   18  C   UNL     1      -8.854  17.569  65.975  1.00  0.00    -0.031 C  
BRANCH  18  19
HETATM   19  C   UNL     1      -8.716  17.084  64.512  1.00  0.00     6.684 C  
BRANCH  19  20
HETATM   20  C   UNL     1      -7.285  16.692  64.103  1.00  0.00    12.132 C  
HETATM   21  C   UNL     1      -6.305  16.941  65.256  1.00  0.00     2.670 C  
ENDBRANCH  19  20
ENDBRANCH  18  19
ENDBRANCH  13  18
ENDBRANCH   8  13
ENDBRANCH   5   6
BRANCH   5  22
HETATM   22  C   UNL     1     -10.512   8.962  70.236  1.00  0.00    -0.210 C  
BRANCH  22  23
HETATM   23  C   UNL     1      -9.450   8.181  69.439  1.00  0.00    -0.162 C  
BRANCH  23  24
HETATM   24  C   UNL     1      -9.906   6.802  68.943  1.00  0.00    -0.146 C  
HETATM   25  C   UNL     1      -8.742   6.060  68.276  1.00  0.00    -0.113 C  
ENDBRANCH  23  24
ENDBRANCH  22  23
ENDBRANCH   5  22
ENDBRANCH   4   5
ENDBRANCH   3   4
ENDBRANCH   2   3
TORSDOF 14
ENDMDL
MODEL      320
REMARK 921   NORMALIZED FREE ENERGY PREDICTED BY IDOCK:   26.63 KCAL/MOL
REMARK 922        TOTAL FREE ENERGY PREDICTED BY IDOCK:   47.04 KCAL/MOL
REMARK 923 INTER-LIGAND FREE ENERGY PREDICTED BY IDOCK:   30.21 KCAL/MOL
REMARK 924 INTRA-LIGAND FREE ENERGY PREDICTED BY IDOCK:   16.83 KCAL/MOL
REMARK 927      BINDING AFFINITY PREDICTED BY RF-SCORE:    0.00 PKD
ROOT
HETATM    1  C   UNL     1     -11.465  15.232  62.430  1.00  0.00     7.599 C  
HETATM    2  C   UNL     1     -10.167  14.464  62.688  1.00  0.00    10.731 C  
ENDROOT
BRANCH   2   3
HETATM    3  C   UNL     1     -10.019  14.090  64.176  1.00  0.00     1.373 C  
BRANCH   3   4
HETATM    4  C   UNL     1      -8.800  13.175  64.416  1.00  0.00     3.162 C  
BRANCH   4   5
HETATM    5  N   UNL     1      -8.874  12.441  65.692  1.00  0.00     0.385 NA 
BRANCH   5   6
HETATM    6  C   UNL     1      -8.796  13.174  66.949  1.00  0.00    -0.179 C  
HETATM    7  S   UNL     1      -7.269  14.077  67.424  1.00  0.00     0.016 SA 
HETATM    8  C   UNL     1      -8.750  17.555  69.095  1.00  0.00     0.102 C  
HETATM    9  S   UNL     1     -10.126  13.516  67.897  1.00  0.00    -0.255 SA 
HETATM   10 ZN   UNL     1      -8.826  15.229  68.298  1.00  0.00    -0.151 Zn 
HETATM   11  S   UNL     1      -8.165  16.330  70.053  1.00  0.00     1.419 SA 
HETATM   12  S   UNL     1      -9.631  17.063  67.559  1.00  0.00    -0.253 SA 
BRANCH   8  13
HETATM   13  N   UNL     1      -8.352  18.925  69.274  1.00  0.00     0.002 NA 
BRANCH  13  14
HETATM   14  C   UNL     1      -8.585  19.635  70.531  1.00  0.00     1.820 C  
BRANCH  14  15
HETATM   15  C   UNL     1      -8.956  21.121  70.301  1.00  0.00     3.747 C  
BRANCH  15  16
HETATM   16  C   UNL     1     -10.231  21.340  69.464  1.00  0.00     1.450 C  
HETATM   17  C   UNL     1     -10.722  20.018  68.860  1.00  0.00     0.332 C  
ENDBRANCH  15  16
ENDBRANCH  14  15
ENDBRANCH  13  14
BRANCH  13  18
HETATM   18  C   UNL     1      -7.670  19.625  68.179  1.00  0.00    -0.309 C  
BRANCH  18  19
HETATM   19  C   UNL     1      -8.665  20.243  67.168  1.00  0.00    -0.429 C  
BRANCH  19  20
HETATM   20  C   UNL     1     -10.037  19.546  67.118  1.00  0.00    -0.515 C  
HETATM   21  C   UNL     1     -11.112  20.422  67.774  1.00  0.00     0.725 C  
ENDBRANCH  19  20
ENDBRANCH  18  19
ENDBRANCH  13  18
ENDBRANCH   8  13
ENDBRANCH   5   6
BRANCH   5  22
HETATM   22  C   UNL     1      -9.090  10.988  65.672  1.00  0.00    -0.206 C  
BRANCH  22  23
HETATM   23  C   UNL     1     -10.563  10.537  65.676  1.00  0.00    -0.132 C  
BRANCH  23  24
HETATM   24  C   UNL     1     -11.207  10.464  67.066  1.00  0.00    -0.015 C  
HETATM   25  C   UNL     1     -10.194   9.961  68.101  1.00  0.00    -0.210 C  
ENDBRANCH  23  24
ENDBRANCH  22  23
ENDBRANCH   5  22
ENDBRANCH   4   5
ENDBRANCH   3   4
ENDBRANCH   2   3
TORSDOF 14
ENDMDL
MODEL      321
REMARK 921   NORMALIZED FREE ENERGY PREDICTED BY IDOCK:   32.11 KCAL/MOL
REMARK 922        TOTAL FREE ENERGY PREDICTED BY IDOCK:   57.01 KCAL/MOL
REMARK 923 INTER-LIGAND FREE ENERGY PREDICTED BY IDOCK:   54.91 KCAL/MOL
REMARK 924 INTRA-LIGAND FREE ENERGY PREDICTED BY IDOCK:    2.09 KCAL/MOL
REMARK 927      BINDING AFFINITY PREDICTED BY RF-SCORE:    0.00 PKD
ROOT
HETATM    1  C   UNL     1     -12.276  18.654  72.689  1.00  0.00     8.774 C  
HETATM    2  C   UNL     1     -11.189  18.459  73.748  1.00  0.00     1.883 C  
ENDROOT
BRANCH   2   3
HETATM    3  C   UNL     1      -9.786  18.406  73.114  1.00  0.00     7.826 C  
BRANCH   3   4
HETATM    4  C   UNL     1      -9.609  17.158  72.223  1.00  0.00    10.181 C  
BRANCH   4   5
HETATM    5  N   UNL     1      -8.764  17.409  71.042  1.00  0.00     6.288 NA 
BRANCH   5   6
HETATM    6  C   UNL     1      -8.547  16.343  70.073  1.00  0.00     1.257 C  
HETATM    7  S   UNL     1      -8.792  14.582  70.535  1.00  0.00     2.645 SA 
HETATM    8  C   UNL     1     -10.618  13.006  67.179  1.00  0.00    -0.246 C  
HETATM    9  S   UNL     1      -8.366  16.611  68.436  1.00  0.00    -0.217 SA 
HETATM   10 ZN   UNL     1      -9.311  14.638  68.475  1.00  0.00    -0.159 Zn 
HETATM   11  S   UNL     1      -9.009  12.725  67.486  1.00  0.00    -0.203 SA 
HETATM   12  S   UNL     1     -11.281  14.653  67.651  1.00  0.00    -0.334 SA 
BRANCH   8  13
HETATM   13  N   UNL     1     -11.530  11.947  66.839  1.00  0.00    -0.452 NA 
BRANCH  13  14
HETATM   14  C   UNL     1     -12.553  11.485  67.775  1.00  0.00     2.064 C  
BRANCH  14  15
HETATM   15  C   UNL     1     -11.936  10.931  69.085  1.00  0.00    -0.359 C  
BRANCH  15  16
HETATM   16  C   UNL     1     -12.706  11.313  70.364  1.00  0.00    -0.209 C  
HETATM   17  C   UNL     1     -13.024  12.813  70.383  1.00  0.00     0.308 C  
ENDBRANCH  15  16
ENDBRANCH  14  15
ENDBRANCH  13  14
BRANCH  13  18
HETATM   18  C   UNL     1     -11.453  11.331  65.509  1.00  0.00     0.223 C  
BRANCH  18  19
HETATM   19  C   UNL     1     -11.662  12.361  64.373  1.00  0.00    -0.435 C  
BRANCH  19  20
HETATM   20  C   UNL     1     -11.996  13.784  64.856  1.00  0.00    -0.412 C  
HETATM   21  C   UNL     1     -13.368  14.224  64.332  1.00  0.00     1.481 C  
ENDBRANCH  19  20
ENDBRANCH  18  19
ENDBRANCH  13  18
ENDBRANCH   8  13
ENDBRANCH   5   6
BRANCH   5  22
HETATM   22  C   UNL     1      -8.209  18.753  70.830  1.00  0.00     4.032 C  
BRANCH  22  23
HETATM   23  C   UNL     1      -9.021  19.910  71.443  1.00  0.00     2.634 C  
BRANCH  23  24
HETATM   24  C   UNL     1      -8.580  21.310  70.995  1.00  0.00     4.669 C  
HETATM   25  C   UNL     1      -7.469  21.212  69.943  1.00  0.00     3.676 C  
ENDBRANCH  23  24
ENDBRANCH  22  23
ENDBRANCH   5  22
ENDBRANCH   4   5
ENDBRANCH   3   4
ENDBRANCH   2   3
TORSDOF 14
ENDMDL
