MODEL        1
REMARK 921   NORMALIZED FREE ENERGY PREDICTED BY IDOCK:   -7.77 KCAL/MOL
REMARK 922        TOTAL FREE ENERGY PREDICTED BY IDOCK:  -10.10 KCAL/MOL
REMARK 923 INTER-LIGAND FREE ENERGY PREDICTED BY IDOCK:   -9.58 KCAL/MOL
REMARK 924 INTRA-LIGAND FREE ENERGY PREDICTED BY IDOCK:   -0.52 KCAL/MOL
REMARK 927      BINDING AFFINITY PREDICTED BY RF-SCORE:    0.00 PKD
ROOT
HETATM    1 CL   UNL     1     -12.770  14.077  70.596  1.00  0.00    -0.390 Cl 
HETATM    2  C   UNL     1     -12.411  12.395  70.756  1.00  0.00    -0.286 A  
HETATM    3  C   UNL     1     -11.667  11.698  69.765  1.00  0.00    -0.425 A  
HETATM    4  O   UNL     1     -14.200   7.150  71.745  1.00  0.00    -0.406 OA 
HETATM    5  C   UNL     1     -11.277  10.364  69.984  1.00  0.00    -0.385 A  
HETATM    6  C   UNL     1     -11.919   9.682  70.996  1.00  0.00    -0.427 A  
HETATM    7  N   UNL     1     -13.764   9.380  72.277  1.00  0.00    -0.456 NA 
HETATM    8  C   UNL     1     -12.043   8.202  71.197  1.00  0.00    -0.281 C  
HETATM    9  C   UNL     1     -13.042  11.693  71.781  1.00  0.00    -0.487 A  
HETATM   10  C   UNL     1     -12.869  10.328  71.784  1.00  0.00    -0.460 A  
HETATM   11  C   UNL     1     -13.459   8.118  71.763  1.00  0.00    -0.350 C  
ENDROOT
BRANCH   3  12
HETATM   12  C   UNL     1     -11.808  12.112  68.309  1.00  0.00    -0.361 C  
BRANCH  12  13
HETATM   13  C   UNL     1     -10.694  12.858  67.563  1.00  0.00    -0.226 C  
BRANCH  13  14
HETATM   14  N   UNL     1     -11.138  14.253  67.346  1.00  0.00    -0.295 NA 
HETATM   15  N   UNL     1      -9.174  16.163  66.127  1.00  0.00    -0.325 NA 
HETATM   16  C   UNL     1     -10.333  15.250  68.076  1.00  0.00    -0.244 C  
HETATM   17  C   UNL     1     -11.249  14.669  65.930  1.00  0.00    -0.336 C  
HETATM   18  C   UNL     1     -10.039  15.378  65.223  1.00  0.00    -0.319 C  
HETATM   19  C   UNL     1      -8.968  15.500  67.421  1.00  0.00    -0.192 C  
BRANCH  15  20
HETATM   20  C   UNL     1      -9.264  17.542  66.180  1.00  0.00    -0.135 A  
HETATM   21  N   UNL     1     -10.391  18.187  65.915  1.00  0.00    -0.595 NA 
HETATM   22  S   UNL     1     -10.253  19.781  66.299  1.00  0.00    -0.527 SA 
HETATM   23  C   UNL     1      -8.644  19.681  66.881  1.00  0.00    -0.315 A  
HETATM   24  C   UNL     1      -7.866  20.699  67.448  1.00  0.00    -0.329 A  
HETATM   25  C   UNL     1      -6.563  20.386  67.843  1.00  0.00    -0.328 A  
HETATM   26  C   UNL     1      -6.069  19.101  67.661  1.00  0.00    -0.214 A  
HETATM   27  C   UNL     1      -6.860  18.088  67.117  1.00  0.00    -0.207 A  
HETATM   28  C   UNL     1      -8.193  18.376  66.687  1.00  0.00    -0.283 A  
ENDBRANCH  15  20
ENDBRANCH  13  14
ENDBRANCH  12  13
ENDBRANCH   3  12
TORSDOF 4
ENDMDL
MODEL        2
REMARK 921   NORMALIZED FREE ENERGY PREDICTED BY IDOCK:   -7.67 KCAL/MOL
REMARK 922        TOTAL FREE ENERGY PREDICTED BY IDOCK:   -9.99 KCAL/MOL
REMARK 923 INTER-LIGAND FREE ENERGY PREDICTED BY IDOCK:   -9.37 KCAL/MOL
REMARK 924 INTRA-LIGAND FREE ENERGY PREDICTED BY IDOCK:   -0.62 KCAL/MOL
REMARK 927      BINDING AFFINITY PREDICTED BY RF-SCORE:    0.00 PKD
ROOT
HETATM    1 CL   UNL     1     -10.570  19.403  65.893  1.00  0.00    -0.584 Cl 
HETATM    2  C   UNL     1      -9.168  19.139  66.868  1.00  0.00    -0.310 A  
HETATM    3  C   UNL     1      -9.113  18.083  67.817  1.00  0.00    -0.262 A  
HETATM    4  O   UNL     1      -5.253  21.199  70.348  1.00  0.00    -0.556 OA 
HETATM    5  C   UNL     1      -7.914  17.811  68.502  1.00  0.00    -0.294 A  
HETATM    6  C   UNL     1      -6.943  18.789  68.475  1.00  0.00    -0.288 A  
HETATM    7  N   UNL     1      -6.388  20.981  68.321  1.00  0.00    -0.282 NA 
HETATM    8  C   UNL     1      -5.787  18.987  69.409  1.00  0.00    -0.258 C  
HETATM    9  C   UNL     1      -8.171  20.113  66.843  1.00  0.00    -0.363 A  
HETATM   10  C   UNL     1      -7.147  19.961  67.751  1.00  0.00    -0.274 A  
HETATM   11  C   UNL     1      -5.737  20.513  69.464  1.00  0.00    -0.360 C  
ENDROOT
BRANCH   3  12
HETATM   12  C   UNL     1     -10.389  17.666  68.533  1.00  0.00    -0.370 C  
BRANCH  12  13
HETATM   13  C   UNL     1     -11.280  16.532  68.013  1.00  0.00    -0.202 C  
BRANCH  13  14
HETATM   14  N   UNL     1     -10.482  15.285  68.003  1.00  0.00    -0.244 NA 
HETATM   15  N   UNL     1     -11.877  12.733  68.730  1.00  0.00    -0.315 NA 
HETATM   16  C   UNL     1     -10.423  14.610  69.313  1.00  0.00    -0.209 C  
HETATM   17  C   UNL     1     -10.863  14.298  66.970  1.00  0.00    -0.297 C  
HETATM   18  C   UNL     1     -11.883  13.155  67.314  1.00  0.00    -0.367 C  
HETATM   19  C   UNL     1     -11.722  13.866  69.652  1.00  0.00    -0.311 C  
BRANCH  15  20
HETATM   20  C   UNL     1     -11.251  11.565  69.124  1.00  0.00    -0.274 A  
HETATM   21  N   UNL     1     -10.033  11.243  68.710  1.00  0.00    -0.207 NA 
HETATM   22  S   UNL     1      -9.467   9.936  69.534  1.00  0.00    -0.231 SA 
HETATM   23  C   UNL     1     -10.847   9.747  70.531  1.00  0.00    -0.323 A  
HETATM   24  C   UNL     1     -11.047   8.819  71.563  1.00  0.00    -0.377 A  
HETATM   25  C   UNL     1     -12.270   8.843  72.238  1.00  0.00    -0.413 A  
HETATM   26  C   UNL     1     -13.248   9.759  71.877  1.00  0.00    -0.545 A  
HETATM   27  C   UNL     1     -13.031  10.694  70.863  1.00  0.00    -0.429 A  
HETATM   28  C   UNL     1     -11.798  10.689  70.140  1.00  0.00    -0.421 A  
ENDBRANCH  15  20
ENDBRANCH  13  14
ENDBRANCH  12  13
ENDBRANCH   3  12
TORSDOF 4
ENDMDL
MODEL        3
REMARK 921   NORMALIZED FREE ENERGY PREDICTED BY IDOCK:   -7.42 KCAL/MOL
REMARK 922        TOTAL FREE ENERGY PREDICTED BY IDOCK:   -9.67 KCAL/MOL
REMARK 923 INTER-LIGAND FREE ENERGY PREDICTED BY IDOCK:   -9.03 KCAL/MOL
REMARK 924 INTRA-LIGAND FREE ENERGY PREDICTED BY IDOCK:   -0.64 KCAL/MOL
REMARK 927      BINDING AFFINITY PREDICTED BY RF-SCORE:    0.00 PKD
ROOT
HETATM    1 CL   UNL     1     -12.240   9.787  70.903  1.00  0.00    -0.384 Cl 
HETATM    2  C   UNL     1     -12.504  11.491  70.800  1.00  0.00    -0.349 A  
HETATM    3  C   UNL     1     -12.064  12.242  69.676  1.00  0.00    -0.277 A  
HETATM    4  O   UNL     1     -12.117  16.586  73.162  1.00  0.00    -0.513 OA 
HETATM    5  C   UNL     1     -12.407  13.602  69.558  1.00  0.00    -0.232 A  
HETATM    6  C   UNL     1     -12.864  14.233  70.696  1.00  0.00    -0.378 A  
HETATM    7  N   UNL     1     -12.894  14.394  72.956  1.00  0.00    -0.457 NA 
HETATM    8  C   UNL     1     -12.902  15.699  71.003  1.00  0.00    -0.521 C  
HETATM    9  C   UNL     1     -12.977  12.143  71.937  1.00  0.00    -0.419 A  
HETATM   10  C   UNL     1     -13.019  13.517  71.881  1.00  0.00    -0.337 A  
HETATM   11  C   UNL     1     -12.584  15.676  72.497  1.00  0.00    -0.429 C  
ENDROOT
BRANCH   3  12
HETATM   12  C   UNL     1     -10.792  11.820  68.957  1.00  0.00    -0.239 C  
BRANCH  12  13
HETATM   13  C   UNL     1     -10.689  11.804  67.427  1.00  0.00    -0.236 C  
BRANCH  13  14
HETATM   14  N   UNL     1      -9.529  12.634  67.033  1.00  0.00    -0.213 NA 
HETATM   15  N   UNL     1      -9.446  15.465  68.018  1.00  0.00    -0.200 NA 
HETATM   16  C   UNL     1      -9.896  13.832  66.255  1.00  0.00    -0.303 C  
HETATM   17  C   UNL     1      -8.634  13.036  68.141  1.00  0.00    -0.188 C  
HETATM   18  C   UNL     1      -8.850  14.412  68.865  1.00  0.00    -0.067 C  
HETATM   19  C   UNL     1     -10.492  14.943  67.129  1.00  0.00    -0.271 C  
BRANCH  15  20
HETATM   20  C   UNL     1      -8.668  16.474  67.481  1.00  0.00    -0.182 A  
HETATM   21  N   UNL     1      -7.542  16.226  66.827  1.00  0.00    -0.242 NA 
HETATM   22  S   UNL     1      -6.978  17.591  66.102  1.00  0.00    -0.262 SA 
HETATM   23  C   UNL     1      -8.260  18.604  66.618  1.00  0.00    -0.278 A  
HETATM   24  C   UNL     1      -8.471  19.955  66.309  1.00  0.00    -0.373 A  
HETATM   25  C   UNL     1      -9.589  20.587  66.859  1.00  0.00    -0.496 A  
HETATM   26  C   UNL     1     -10.447  19.883  67.693  1.00  0.00    -0.521 A  
HETATM   27  C   UNL     1     -10.241  18.532  67.978  1.00  0.00    -0.415 A  
HETATM   28  C   UNL     1      -9.098  17.858  67.444  1.00  0.00    -0.245 A  
ENDBRANCH  15  20
ENDBRANCH  13  14
ENDBRANCH  12  13
ENDBRANCH   3  12
TORSDOF 4
ENDMDL
MODEL        4
REMARK 921   NORMALIZED FREE ENERGY PREDICTED BY IDOCK:   -7.33 KCAL/MOL
REMARK 922        TOTAL FREE ENERGY PREDICTED BY IDOCK:   -9.56 KCAL/MOL
REMARK 923 INTER-LIGAND FREE ENERGY PREDICTED BY IDOCK:   -9.63 KCAL/MOL
REMARK 924 INTRA-LIGAND FREE ENERGY PREDICTED BY IDOCK:    0.06 KCAL/MOL
REMARK 927      BINDING AFFINITY PREDICTED BY RF-SCORE:    0.00 PKD
ROOT
HETATM    1 CL   UNL     1     -12.851  14.080  70.760  1.00  0.00    -0.378 Cl 
HETATM    2  C   UNL     1     -12.494  12.397  70.918  1.00  0.00    -0.274 A  
HETATM    3  C   UNL     1     -11.703  11.714  69.954  1.00  0.00    -0.414 A  
HETATM    4  O   UNL     1     -14.311   7.137  71.764  1.00  0.00    -0.417 OA 
HETATM    5  C   UNL     1     -11.320  10.378  70.175  1.00  0.00    -0.397 A  
HETATM    6  C   UNL     1     -12.006   9.683  71.149  1.00  0.00    -0.452 A  
HETATM    7  N   UNL     1     -13.906   9.362  72.341  1.00  0.00    -0.420 NA 
HETATM    8  C   UNL     1     -12.133   8.201  71.328  1.00  0.00    -0.313 C  
HETATM    9  C   UNL     1     -13.169  11.682  71.905  1.00  0.00    -0.475 A  
HETATM   10  C   UNL     1     -12.992  10.317  71.900  1.00  0.00    -0.449 A  
HETATM   11  C   UNL     1     -13.574   8.107  71.828  1.00  0.00    -0.359 C  
ENDROOT
BRANCH   3  12
HETATM   12  C   UNL     1     -11.779  12.144  68.497  1.00  0.00    -0.382 C  
BRANCH  12  13
HETATM   13  C   UNL     1     -10.549  12.651  67.734  1.00  0.00    -0.220 C  
BRANCH  13  14
HETATM   14  N   UNL     1     -10.436  14.110  67.958  1.00  0.00    -0.236 NA 
HETATM   15  N   UNL     1      -8.434  15.618  66.313  1.00  0.00    -0.247 NA 
HETATM   16  C   UNL     1      -9.096  14.537  68.403  1.00  0.00    -0.191 C  
HETATM   17  C   UNL     1     -10.859  14.959  66.823  1.00  0.00    -0.320 C  
HETATM   18  C   UNL     1      -9.800  15.454  65.775  1.00  0.00    -0.364 C  
HETATM   19  C   UNL     1      -8.073  14.555  67.259  1.00  0.00    -0.196 C  
BRANCH  15  20
HETATM   20  C   UNL     1      -7.934  16.871  66.616  1.00  0.00    -0.265 A  
HETATM   21  N   UNL     1      -6.645  17.163  66.504  1.00  0.00    -0.230 NA 
HETATM   22  S   UNL     1      -6.396  18.778  66.693  1.00  0.00    -0.189 SA 
HETATM   23  C   UNL     1      -8.046  19.183  66.914  1.00  0.00    -0.263 A  
HETATM   24  C   UNL     1      -8.608  20.457  67.082  1.00  0.00    -0.402 A  
HETATM   25  C   UNL     1      -9.991  20.545  67.260  1.00  0.00    -0.528 A  
HETATM   26  C   UNL     1     -10.766  19.394  67.277  1.00  0.00    -0.603 A  
HETATM   27  C   UNL     1     -10.201  18.132  67.086  1.00  0.00    -0.376 A  
HETATM   28  C   UNL     1      -8.787  18.003  66.917  1.00  0.00    -0.266 A  
ENDBRANCH  15  20
ENDBRANCH  13  14
ENDBRANCH  12  13
ENDBRANCH   3  12
TORSDOF 4
ENDMDL
MODEL        5
REMARK 921   NORMALIZED FREE ENERGY PREDICTED BY IDOCK:   -7.23 KCAL/MOL
REMARK 922        TOTAL FREE ENERGY PREDICTED BY IDOCK:   -9.44 KCAL/MOL
REMARK 923 INTER-LIGAND FREE ENERGY PREDICTED BY IDOCK:   -8.92 KCAL/MOL
REMARK 924 INTRA-LIGAND FREE ENERGY PREDICTED BY IDOCK:   -0.52 KCAL/MOL
REMARK 927      BINDING AFFINITY PREDICTED BY RF-SCORE:    0.00 PKD
ROOT
HETATM    1 CL   UNL     1     -11.225  16.655  68.536  1.00  0.00    -0.309 Cl 
HETATM    2  C   UNL     1     -10.124  17.843  67.934  1.00  0.00    -0.349 A  
HETATM    3  C   UNL     1      -9.649  17.803  66.595  1.00  0.00    -0.311 A  
HETATM    4  O   UNL     1      -5.331  20.729  68.545  1.00  0.00    -0.258 OA 
HETATM    5  C   UNL     1      -8.859  18.854  66.094  1.00  0.00    -0.165 A  
HETATM    6  C   UNL     1      -8.298  19.709  67.019  1.00  0.00    -0.328 A  
HETATM    7  N   UNL     1      -7.497  20.068  69.108  1.00  0.00    -0.135 NA 
HETATM    8  C   UNL     1      -7.119  20.621  66.856  1.00  0.00    -0.353 C  
HETATM    9  C   UNL     1      -9.557  18.724  68.853  1.00  0.00    -0.369 A  
HETATM   10  C   UNL     1      -8.562  19.547  68.376  1.00  0.00    -0.349 A  
HETATM   11  C   UNL     1      -6.492  20.510  68.245  1.00  0.00    -0.303 C  
ENDROOT
BRANCH   3  12
HETATM   12  C   UNL     1      -9.452  16.453  65.922  1.00  0.00    -0.289 C  
BRANCH  12  13
HETATM   13  C   UNL     1     -10.605  15.708  65.239  1.00  0.00    -0.426 C  
BRANCH  13  14
HETATM   14  N   UNL     1     -10.245  14.274  65.159  1.00  0.00    -0.396 NA 
HETATM   15  N   UNL     1     -11.678  12.376  66.984  1.00  0.00    -0.473 NA 
HETATM   16  C   UNL     1      -9.719  13.725  66.423  1.00  0.00    -0.294 C  
HETATM   17  C   UNL     1     -11.311  13.381  64.654  1.00  0.00    -0.350 C  
HETATM   18  C   UNL     1     -12.274  12.660  65.663  1.00  0.00    -0.411 C  
HETATM   19  C   UNL     1     -10.821  13.469  67.459  1.00  0.00    -0.264 C  
BRANCH  15  20
HETATM   20  C   UNL     1     -11.245  11.104  67.313  1.00  0.00    -0.277 A  
HETATM   21  N   UNL     1     -10.517  10.370  66.483  1.00  0.00    -0.223 NA 
HETATM   22  S   UNL     1      -9.953   9.024  67.242  1.00  0.00    -0.236 SA 
HETATM   23  C   UNL     1     -10.651   9.377  68.766  1.00  0.00    -0.208 A  
HETATM   24  C   UNL     1     -10.529   8.654  69.961  1.00  0.00    -0.229 A  
HETATM   25  C   UNL     1     -11.204   9.131  71.088  1.00  0.00    -0.395 A  
HETATM   26  C   UNL     1     -11.975  10.282  71.003  1.00  0.00    -0.483 A  
HETATM   27  C   UNL     1     -12.072  11.008  69.815  1.00  0.00    -0.424 A  
HETATM   28  C   UNL     1     -11.407  10.541  68.638  1.00  0.00    -0.315 A  
ENDBRANCH  15  20
ENDBRANCH  13  14
ENDBRANCH  12  13
ENDBRANCH   3  12
TORSDOF 4
ENDMDL
MODEL        6
REMARK 921   NORMALIZED FREE ENERGY PREDICTED BY IDOCK:   -7.18 KCAL/MOL
REMARK 922        TOTAL FREE ENERGY PREDICTED BY IDOCK:   -9.38 KCAL/MOL
REMARK 923 INTER-LIGAND FREE ENERGY PREDICTED BY IDOCK:   -9.18 KCAL/MOL
REMARK 924 INTRA-LIGAND FREE ENERGY PREDICTED BY IDOCK:   -0.20 KCAL/MOL
REMARK 927      BINDING AFFINITY PREDICTED BY RF-SCORE:    0.00 PKD
ROOT
HETATM    1 CL   UNL     1     -12.691  12.641  64.741  1.00  0.00    -0.537 Cl 
HETATM    2  C   UNL     1     -11.707  13.930  65.338  1.00  0.00    -0.340 A  
HETATM    3  C   UNL     1     -11.254  13.954  66.685  1.00  0.00    -0.328 A  
HETATM    4  O   UNL     1     -10.846  19.459  65.945  1.00  0.00    -0.420 OA 
HETATM    5  C   UNL     1     -10.349  14.945  67.107  1.00  0.00    -0.260 A  
HETATM    6  C   UNL     1     -10.203  16.047  66.291  1.00  0.00    -0.329 A  
HETATM    7  N   UNL     1     -11.078  17.465  64.755  1.00  0.00    -0.883 NA 
HETATM    8  C   UNL     1      -9.676  17.407  66.639  1.00  0.00    -0.296 C  
HETATM    9  C   UNL     1     -11.539  15.046  64.521  1.00  0.00    -0.346 A  
HETATM   10  C   UNL     1     -10.893  16.124  65.084  1.00  0.00    -0.361 A  
HETATM   11  C   UNL     1     -10.579  18.282  65.771  1.00  0.00    -0.186 C  
ENDROOT
BRANCH   3  12
HETATM   12  C   UNL     1     -12.139  13.365  67.773  1.00  0.00    -0.299 C  
BRANCH  12  13
HETATM   13  C   UNL     1     -11.557  12.637  68.990  1.00  0.00    -0.317 C  
BRANCH  13  14
HETATM   14  N   UNL     1     -12.058  11.245  68.979  1.00  0.00    -0.454 NA 
HETATM   15  N   UNL     1     -10.774   9.289  70.854  1.00  0.00    -0.274 NA 
HETATM   16  C   UNL     1     -11.031  10.249  68.620  1.00  0.00    -0.244 C  
HETATM   17  C   UNL     1     -12.740  10.808  70.217  1.00  0.00    -0.216 C  
HETATM   18  C   UNL     1     -11.928  10.071  71.342  1.00  0.00    -0.383 C  
HETATM   19  C   UNL     1     -10.054   9.970  69.770  1.00  0.00    -0.248 C  
BRANCH  15  20
HETATM   20  C   UNL     1     -10.842   7.912  70.741  1.00  0.00    -0.232 A  
HETATM   21  N   UNL     1     -10.879   7.301  69.564  1.00  0.00    -0.233 NA 
HETATM   22  S   UNL     1     -10.707   5.676  69.748  1.00  0.00    -0.285 SA 
HETATM   23  C   UNL     1     -10.543   5.710  71.454  1.00  0.00    -0.253 A  
HETATM   24  C   UNL     1     -10.298   4.635  72.320  1.00  0.00    -0.251 A  
HETATM   25  C   UNL     1     -10.215   4.902  73.689  1.00  0.00    -0.228 A  
HETATM   26  C   UNL     1     -10.382   6.197  74.157  1.00  0.00    -0.308 A  
HETATM   27  C   UNL     1     -10.603   7.265  73.286  1.00  0.00    -0.428 A  
HETATM   28  C   UNL     1     -10.710   7.026  71.880  1.00  0.00    -0.244 A  
ENDBRANCH  15  20
ENDBRANCH  13  14
ENDBRANCH  12  13
ENDBRANCH   3  12
TORSDOF 4
ENDMDL
MODEL        7
REMARK 921   NORMALIZED FREE ENERGY PREDICTED BY IDOCK:   -7.15 KCAL/MOL
REMARK 922        TOTAL FREE ENERGY PREDICTED BY IDOCK:   -9.34 KCAL/MOL
REMARK 923 INTER-LIGAND FREE ENERGY PREDICTED BY IDOCK:   -8.92 KCAL/MOL
REMARK 924 INTRA-LIGAND FREE ENERGY PREDICTED BY IDOCK:   -0.43 KCAL/MOL
REMARK 927      BINDING AFFINITY PREDICTED BY RF-SCORE:    0.00 PKD
ROOT
HETATM    1 CL   UNL     1     -13.381  12.447  71.775  1.00  0.00    -0.460 Cl 
HETATM    2  C   UNL     1     -12.324  11.222  71.169  1.00  0.00    -0.324 A  
HETATM    3  C   UNL     1     -11.567  11.416  69.982  1.00  0.00    -0.382 A  
HETATM    4  O   UNL     1     -11.512   5.855  69.678  1.00  0.00    -0.296 OA 
HETATM    5  C   UNL     1     -10.618  10.456  69.585  1.00  0.00    -0.289 A  
HETATM    6  C   UNL     1     -10.702   9.212  70.176  1.00  0.00    -0.263 A  
HETATM    7  N   UNL     1     -11.958   7.603  71.159  1.00  0.00    -0.299 NA 
HETATM    8  C   UNL     1     -10.150   7.906  69.690  1.00  0.00    -0.197 C  
HETATM    9  C   UNL     1     -12.388   9.962  71.762  1.00  0.00    -0.456 A  
HETATM   10  C   UNL     1     -11.660   8.964  71.155  1.00  0.00    -0.300 A  
HETATM   11  C   UNL     1     -11.259   6.955  70.139  1.00  0.00    -0.313 C  
ENDROOT
BRANCH   3  12
HETATM   12  C   UNL     1     -12.152  12.265  68.863  1.00  0.00    -0.177 C  
BRANCH  12  13
HETATM   13  C   UNL     1     -11.325  12.682  67.641  1.00  0.00    -0.310 C  
BRANCH  13  14
HETATM   14  N   UNL     1     -11.698  14.068  67.283  1.00  0.00    -0.368 NA 
HETATM   15  N   UNL     1      -9.556  15.837  66.155  1.00  0.00    -0.304 NA 
HETATM   16  C   UNL     1     -10.942  15.094  68.026  1.00  0.00    -0.295 C  
HETATM   17  C   UNL     1     -11.646  14.385  65.839  1.00  0.00    -0.361 C  
HETATM   18  C   UNL     1     -10.346  15.011  65.219  1.00  0.00    -0.395 C  
HETATM   19  C   UNL     1      -9.509  15.264  67.506  1.00  0.00    -0.202 C  
BRANCH  15  20
HETATM   20  C   UNL     1      -9.606  17.218  66.104  1.00  0.00    -0.202 A  
HETATM   21  N   UNL     1     -10.688  17.872  65.702  1.00  0.00    -0.495 NA 
HETATM   22  S   UNL     1     -10.530  19.485  65.984  1.00  0.00    -0.477 SA 
HETATM   23  C   UNL     1      -8.978  19.385  66.702  1.00  0.00    -0.346 A  
HETATM   24  C   UNL     1      -8.215  20.422  67.259  1.00  0.00    -0.390 A  
HETATM   25  C   UNL     1      -6.959  20.104  67.780  1.00  0.00    -0.313 A  
HETATM   26  C   UNL     1      -6.494  18.798  67.730  1.00  0.00    -0.217 A  
HETATM   27  C   UNL     1      -7.269  17.768  67.195  1.00  0.00    -0.204 A  
HETATM   28  C   UNL     1      -8.553  18.059  66.637  1.00  0.00    -0.281 A  
ENDBRANCH  15  20
ENDBRANCH  13  14
ENDBRANCH  12  13
ENDBRANCH   3  12
TORSDOF 4
ENDMDL
MODEL        8
REMARK 921   NORMALIZED FREE ENERGY PREDICTED BY IDOCK:   -6.98 KCAL/MOL
REMARK 922        TOTAL FREE ENERGY PREDICTED BY IDOCK:   -9.13 KCAL/MOL
REMARK 923 INTER-LIGAND FREE ENERGY PREDICTED BY IDOCK:   -8.67 KCAL/MOL
REMARK 924 INTRA-LIGAND FREE ENERGY PREDICTED BY IDOCK:   -0.46 KCAL/MOL
REMARK 927      BINDING AFFINITY PREDICTED BY RF-SCORE:    0.00 PKD
ROOT
HETATM    1 CL   UNL     1     -10.671  19.026  66.017  1.00  0.00    -0.478 Cl 
HETATM    2  C   UNL     1      -9.282  18.792  67.016  1.00  0.00    -0.294 A  
HETATM    3  C   UNL     1      -9.223  17.739  67.970  1.00  0.00    -0.273 A  
HETATM    4  O   UNL     1      -5.467  20.936  70.557  1.00  0.00    -0.526 OA 
HETATM    5  C   UNL     1      -8.031  17.492  68.676  1.00  0.00    -0.268 A  
HETATM    6  C   UNL     1      -7.078  18.488  68.662  1.00  0.00    -0.298 A  
HETATM    7  N   UNL     1      -6.562  20.690  68.510  1.00  0.00    -0.245 NA 
HETATM    8  C   UNL     1      -5.942  18.711  69.615  1.00  0.00    -0.268 C  
HETATM    9  C   UNL     1      -8.303  19.784  67.006  1.00  0.00    -0.349 A  
HETATM   10  C   UNL     1      -7.292  19.654  67.931  1.00  0.00    -0.280 A  
HETATM   11  C   UNL     1      -5.922  20.238  69.666  1.00  0.00    -0.351 C  
ENDROOT
BRANCH   3  12
HETATM   12  C   UNL     1     -10.503  17.300  68.665  1.00  0.00    -0.356 C  
BRANCH  12  13
HETATM   13  C   UNL     1     -11.175  15.956  68.359  1.00  0.00    -0.368 C  
BRANCH  13  14
HETATM   14  N   UNL     1     -10.532  15.382  67.157  1.00  0.00    -0.284 NA 
HETATM   15  N   UNL     1     -11.588  12.770  66.129  1.00  0.00    -0.358 NA 
HETATM   16  C   UNL     1      -9.930  14.055  67.385  1.00  0.00    -0.243 C  
HETATM   17  C   UNL     1     -11.387  15.321  65.950  1.00  0.00    -0.172 C  
HETATM   18  C   UNL     1     -12.204  14.018  65.632  1.00  0.00    -0.442 C  
HETATM   19  C   UNL     1     -10.978  12.936  67.454  1.00  0.00    -0.260 C  
BRANCH  15  20
HETATM   20  C   UNL     1     -10.914  11.918  65.273  1.00  0.00    -0.302 A  
HETATM   21  N   UNL     1     -10.563  12.281  64.047  1.00  0.00    -0.365 NA 
HETATM   22  S   UNL     1      -9.570  11.157  63.371  1.00  0.00    -0.357 SA 
HETATM   23  C   UNL     1      -9.537  10.113  64.730  1.00  0.00    -0.314 A  
HETATM   24  C   UNL     1      -8.808   8.927  64.891  1.00  0.00    -0.161 A  
HETATM   25  C   UNL     1      -8.949   8.229  66.093  1.00  0.00    -0.222 A  
HETATM   26  C   UNL     1      -9.798   8.707  67.081  1.00  0.00    -0.269 A  
HETATM   27  C   UNL     1     -10.502   9.901  66.921  1.00  0.00    -0.284 A  
HETATM   28  C   UNL     1     -10.395  10.634  65.698  1.00  0.00    -0.285 A  
ENDBRANCH  15  20
ENDBRANCH  13  14
ENDBRANCH  12  13
ENDBRANCH   3  12
TORSDOF 4
ENDMDL
MODEL        9
REMARK 921   NORMALIZED FREE ENERGY PREDICTED BY IDOCK:   -6.97 KCAL/MOL
REMARK 922        TOTAL FREE ENERGY PREDICTED BY IDOCK:   -9.12 KCAL/MOL
REMARK 923 INTER-LIGAND FREE ENERGY PREDICTED BY IDOCK:   -8.57 KCAL/MOL
REMARK 924 INTRA-LIGAND FREE ENERGY PREDICTED BY IDOCK:   -0.55 KCAL/MOL
REMARK 927      BINDING AFFINITY PREDICTED BY RF-SCORE:    0.00 PKD
ROOT
HETATM    1 CL   UNL     1     -10.237  10.175  65.489  1.00  0.00    -0.334 Cl 
HETATM    2  C   UNL     1     -10.567   9.933  67.168  1.00  0.00    -0.228 A  
HETATM    3  C   UNL     1     -11.393  10.830  67.898  1.00  0.00    -0.372 A  
HETATM    4  O   UNL     1      -8.655   8.956  72.371  1.00  0.00    -0.399 OA 
HETATM    5  C   UNL     1     -11.752  10.537  69.227  1.00  0.00    -0.281 A  
HETATM    6  C   UNL     1     -11.014   9.568  69.874  1.00  0.00    -0.263 A  
HETATM    7  N   UNL     1      -9.058   8.452  70.128  1.00  0.00    -0.148 NA 
HETATM    8  C   UNL     1     -10.862   9.335  71.347  1.00  0.00    -0.434 C  
HETATM    9  C   UNL     1      -9.839   8.949  67.835  1.00  0.00    -0.205 A  
HETATM   10  C   UNL     1     -10.001   8.890  69.201  1.00  0.00    -0.190 A  
HETATM   11  C   UNL     1      -9.399   8.898  71.407  1.00  0.00    -0.268 C  
ENDROOT
BRANCH   3  12
HETATM   12  C   UNL     1     -11.389  12.305  67.528  1.00  0.00    -0.388 C  
BRANCH  12  13
HETATM   13  C   UNL     1     -11.727  13.401  68.546  1.00  0.00    -0.357 C  
BRANCH  13  14
HETATM   14  N   UNL     1     -11.918  14.671  67.812  1.00  0.00    -0.323 NA 
HETATM   15  N   UNL     1      -9.464  16.192  67.001  1.00  0.00    -0.218 NA 
HETATM   16  C   UNL     1     -11.359  15.846  68.507  1.00  0.00    -0.374 C  
HETATM   17  C   UNL     1     -11.442  14.670  66.411  1.00  0.00    -0.347 C  
HETATM   18  C   UNL     1      -9.992  15.170  66.074  1.00  0.00    -0.311 C  
HETATM   19  C   UNL     1      -9.830  15.923  68.398  1.00  0.00    -0.214 C  
BRANCH  15  20
HETATM   20  C   UNL     1      -9.433  17.528  66.648  1.00  0.00    -0.275 A  
HETATM   21  N   UNL     1     -10.462  18.128  66.063  1.00  0.00    -0.505 NA 
HETATM   22  S   UNL     1     -10.223  19.754  65.993  1.00  0.00    -0.471 SA 
HETATM   23  C   UNL     1      -8.704  19.741  66.786  1.00  0.00    -0.339 A  
HETATM   24  C   UNL     1      -7.904  20.837  67.138  1.00  0.00    -0.288 A  
HETATM   25  C   UNL     1      -6.686  20.583  67.774  1.00  0.00    -0.351 A  
HETATM   26  C   UNL     1      -6.295  19.276  68.033  1.00  0.00    -0.231 A  
HETATM   27  C   UNL     1      -7.108  18.192  67.699  1.00  0.00    -0.202 A  
HETATM   28  C   UNL     1      -8.354  18.415  67.033  1.00  0.00    -0.257 A  
ENDBRANCH  15  20
ENDBRANCH  13  14
ENDBRANCH  12  13
ENDBRANCH   3  12
TORSDOF 4
ENDMDL
MODEL       10
REMARK 921   NORMALIZED FREE ENERGY PREDICTED BY IDOCK:   -6.90 KCAL/MOL
REMARK 922        TOTAL FREE ENERGY PREDICTED BY IDOCK:   -9.03 KCAL/MOL
REMARK 923 INTER-LIGAND FREE ENERGY PREDICTED BY IDOCK:   -8.29 KCAL/MOL
REMARK 924 INTRA-LIGAND FREE ENERGY PREDICTED BY IDOCK:   -0.75 KCAL/MOL
REMARK 927      BINDING AFFINITY PREDICTED BY RF-SCORE:    0.00 PKD
ROOT
HETATM    1 CL   UNL     1     -12.452  12.542  63.362  1.00  0.00    -0.577 Cl 
HETATM    2  C   UNL     1     -11.608  11.947  64.747  1.00  0.00    -0.236 A  
HETATM    3  C   UNL     1     -11.898  12.425  66.054  1.00  0.00    -0.459 A  
HETATM    4  O   UNL     1      -6.723  10.776  67.286  1.00  0.00    -0.073 OA 
HETATM    5  C   UNL     1     -11.289  11.830  67.174  1.00  0.00    -0.387 A  
HETATM    6  C   UNL     1     -10.185  11.038  66.939  1.00  0.00    -0.263 A  
HETATM    7  N   UNL     1      -8.381  10.539  65.661  1.00  0.00    -0.163 NA 
HETATM    8  C   UNL     1      -9.104  10.631  67.895  1.00  0.00    -0.145 C  
HETATM    9  C   UNL     1     -10.496  11.135  64.528  1.00  0.00    -0.415 A  
HETATM   10  C   UNL     1      -9.747  10.813  65.636  1.00  0.00    -0.237 A  
HETATM   11  C   UNL     1      -7.892  10.651  66.964  1.00  0.00    -0.117 C  
ENDROOT
BRANCH   3  12
HETATM   12  C   UNL     1     -12.331  13.872  66.232  1.00  0.00    -0.489 C  
BRANCH  12  13
HETATM   13  C   UNL     1     -11.588  14.835  67.166  1.00  0.00    -0.359 C  
BRANCH  13  14
HETATM   14  N   UNL     1     -10.784  15.757  66.333  1.00  0.00    -0.303 NA 
HETATM   15  N   UNL     1      -8.201  16.767  67.473  1.00  0.00    -0.171 NA 
HETATM   16  C   UNL     1     -10.569  17.079  66.952  1.00  0.00    -0.208 C  
HETATM   17  C   UNL     1      -9.482  15.224  65.875  1.00  0.00    -0.316 C  
HETATM   18  C   UNL     1      -8.182  15.503  66.711  1.00  0.00    -0.242 C  
HETATM   19  C   UNL     1      -9.516  17.043  68.067  1.00  0.00    -0.256 C  
BRANCH  15  20
HETATM   20  C   UNL     1      -7.513  17.880  67.027  1.00  0.00    -0.199 A  
HETATM   21  N   UNL     1      -7.570  18.287  65.766  1.00  0.00    -0.534 NA 
HETATM   22  S   UNL     1      -6.856  19.760  65.598  1.00  0.00    -0.302 SA 
HETATM   23  C   UNL     1      -6.447  19.945  67.252  1.00  0.00    -0.198 A  
HETATM   24  C   UNL     1      -5.837  21.044  67.874  1.00  0.00    -0.391 A  
HETATM   25  C   UNL     1      -5.587  20.965  69.246  1.00  0.00    -0.391 A  
HETATM   26  C   UNL     1      -5.930  19.820  69.952  1.00  0.00    -0.333 A  
HETATM   27  C   UNL     1      -6.557  18.740  69.329  1.00  0.00    -0.298 A  
HETATM   28  C   UNL     1      -6.814  18.780  67.923  1.00  0.00    -0.226 A  
ENDBRANCH  15  20
ENDBRANCH  13  14
ENDBRANCH  12  13
ENDBRANCH   3  12
TORSDOF 4
ENDMDL
MODEL       11
REMARK 921   NORMALIZED FREE ENERGY PREDICTED BY IDOCK:   -6.89 KCAL/MOL
REMARK 922        TOTAL FREE ENERGY PREDICTED BY IDOCK:   -9.03 KCAL/MOL
REMARK 923 INTER-LIGAND FREE ENERGY PREDICTED BY IDOCK:   -8.26 KCAL/MOL
REMARK 924 INTRA-LIGAND FREE ENERGY PREDICTED BY IDOCK:   -0.76 KCAL/MOL
REMARK 927      BINDING AFFINITY PREDICTED BY RF-SCORE:    0.00 PKD
ROOT
HETATM    1 CL   UNL     1     -12.785  11.862  63.386  1.00  0.00    -0.655 Cl 
HETATM    2  C   UNL     1     -11.814  12.668  64.566  1.00  0.00    -0.379 A  
HETATM    3  C   UNL     1     -10.515  12.200  64.902  1.00  0.00    -0.325 A  
HETATM    4  O   UNL     1     -11.323  14.868  69.724  1.00  0.00    -0.258 OA 
HETATM    5  C   UNL     1      -9.697  12.949  65.768  1.00  0.00    -0.155 A  
HETATM    6  C   UNL     1     -10.313  13.928  66.519  1.00  0.00    -0.286 A  
HETATM    7  N   UNL     1     -12.170  14.711  67.555  1.00  0.00    -0.182 NA 
HETATM    8  C   UNL     1      -9.836  14.578  67.783  1.00  0.00    -0.220 C  
HETATM    9  C   UNL     1     -12.418  13.669  65.326  1.00  0.00    -0.517 A  
HETATM   10  C   UNL     1     -11.674  14.177  66.367  1.00  0.00    -0.390 A  
HETATM   11  C   UNL     1     -11.163  14.751  68.521  1.00  0.00    -0.276 C  
ENDROOT
BRANCH   3  12
HETATM   12  C   UNL     1     -10.235  10.706  64.862  1.00  0.00    -0.395 C  
BRANCH  12  13
HETATM   13  C   UNL     1      -9.554   9.973  66.025  1.00  0.00    -0.222 C  
BRANCH  13  14
HETATM   14  N   UNL     1     -10.605   9.527  66.967  1.00  0.00    -0.231 NA 
HETATM   15  N   UNL     1     -10.042   9.786  69.901  1.00  0.00    -0.236 NA 
HETATM   16  C   UNL     1     -10.171   8.440  67.864  1.00  0.00    -0.217 C  
HETATM   17  C   UNL     1     -11.226  10.599  67.776  1.00  0.00    -0.313 C  
HETATM   18  C   UNL     1     -10.663  10.931  69.204  1.00  0.00    -0.226 C  
HETATM   19  C   UNL     1      -9.259   8.936  68.995  1.00  0.00    -0.140 C  
BRANCH  15  20
HETATM   20  C   UNL     1     -10.713   9.113  70.905  1.00  0.00    -0.275 A  
HETATM   21  N   UNL     1     -12.016   8.872  70.845  1.00  0.00    -0.256 NA 
HETATM   22  S   UNL     1     -12.473   7.850  72.050  1.00  0.00    -0.283 SA 
HETATM   23  C   UNL     1     -10.907   7.652  72.715  1.00  0.00    -0.360 A  
HETATM   24  C   UNL     1     -10.519   6.832  73.784  1.00  0.00    -0.383 A  
HETATM   25  C   UNL     1      -9.175   6.842  74.164  1.00  0.00    -0.234 A  
HETATM   26  C   UNL     1      -8.268   7.654  73.496  1.00  0.00    -0.206 A  
HETATM   27  C   UNL     1      -8.659   8.450  72.419  1.00  0.00    -0.261 A  
HETATM   28  C   UNL     1     -10.030   8.477  72.013  1.00  0.00    -0.383 A  
ENDBRANCH  15  20
ENDBRANCH  13  14
ENDBRANCH  12  13
ENDBRANCH   3  12
TORSDOF 4
ENDMDL
MODEL       12
REMARK 921   NORMALIZED FREE ENERGY PREDICTED BY IDOCK:   -6.88 KCAL/MOL
REMARK 922        TOTAL FREE ENERGY PREDICTED BY IDOCK:   -9.00 KCAL/MOL
REMARK 923 INTER-LIGAND FREE ENERGY PREDICTED BY IDOCK:   -9.07 KCAL/MOL
REMARK 924 INTRA-LIGAND FREE ENERGY PREDICTED BY IDOCK:    0.07 KCAL/MOL
REMARK 927      BINDING AFFINITY PREDICTED BY RF-SCORE:    0.00 PKD
ROOT
HETATM    1 CL   UNL     1     -11.890  10.199  70.024  1.00  0.00    -0.275 Cl 
HETATM    2  C   UNL     1     -12.332  11.823  70.412  1.00  0.00    -0.277 A  
HETATM    3  C   UNL     1     -11.872  12.922  69.637  1.00  0.00    -0.387 A  
HETATM    4  O   UNL     1     -12.751  15.925  74.244  1.00  0.00    -0.598 OA 
HETATM    5  C   UNL     1     -12.352  14.219  69.896  1.00  0.00    -0.377 A  
HETATM    6  C   UNL     1     -12.985  14.421  71.104  1.00  0.00    -0.419 A  
HETATM    7  N   UNL     1     -13.253  13.859  73.283  1.00  0.00    -0.413 NA 
HETATM    8  C   UNL     1     -13.217  15.709  71.836  1.00  0.00    -0.537 C  
HETATM    9  C   UNL     1     -12.983  12.044  71.624  1.00  0.00    -0.439 A  
HETATM   10  C   UNL     1     -13.173  13.359  71.985  1.00  0.00    -0.438 A  
HETATM   11  C   UNL     1     -13.045  15.240  73.280  1.00  0.00    -0.513 C  
ENDROOT
BRANCH   3  12
HETATM   12  C   UNL     1     -10.496  12.846  68.991  1.00  0.00    -0.022 C  
BRANCH  12  13
HETATM   13  C   UNL     1     -10.283  13.117  67.497  1.00  0.00    -0.225 C  
BRANCH  13  14
HETATM   14  N   UNL     1      -9.380  14.282  67.363  1.00  0.00    -0.197 NA 
HETATM   15  N   UNL     1     -10.425  16.957  68.227  1.00  0.00    -0.333 NA 
HETATM   16  C   UNL     1      -9.903  15.336  66.473  1.00  0.00    -0.266 C  
HETATM   17  C   UNL     1      -8.950  14.899  68.637  1.00  0.00    -0.184 C  
HETATM   18  C   UNL     1      -9.753  16.109  69.234  1.00  0.00    -0.242 C  
HETATM   19  C   UNL     1     -11.009  16.170  67.133  1.00  0.00    -0.144 C  
BRANCH  15  20
HETATM   20  C   UNL     1      -9.895  18.178  67.855  1.00  0.00    -0.313 A  
HETATM   21  N   UNL     1     -10.661  19.208  67.522  1.00  0.00    -0.473 NA 
HETATM   22  S   UNL     1      -9.761  20.577  67.371  1.00  0.00    -0.380 SA 
HETATM   23  C   UNL     1      -8.265  19.848  67.781  1.00  0.00    -0.301 A  
HETATM   24  C   UNL     1      -7.012  20.463  67.915  1.00  0.00    -0.334 A  
HETATM   25  C   UNL     1      -5.920  19.659  68.248  1.00  0.00    -0.255 A  
HETATM   26  C   UNL     1      -6.089  18.292  68.427  1.00  0.00    -0.193 A  
HETATM   27  C   UNL     1      -7.344  17.693  68.314  1.00  0.00    -0.234 A  
HETATM   28  C   UNL     1      -8.482  18.483  67.958  1.00  0.00    -0.302 A  
ENDBRANCH  15  20
ENDBRANCH  13  14
ENDBRANCH  12  13
ENDBRANCH   3  12
TORSDOF 4
ENDMDL
MODEL       13
REMARK 921   NORMALIZED FREE ENERGY PREDICTED BY IDOCK:   -6.85 KCAL/MOL
REMARK 922        TOTAL FREE ENERGY PREDICTED BY IDOCK:   -8.97 KCAL/MOL
REMARK 923 INTER-LIGAND FREE ENERGY PREDICTED BY IDOCK:   -8.80 KCAL/MOL
REMARK 924 INTRA-LIGAND FREE ENERGY PREDICTED BY IDOCK:   -0.16 KCAL/MOL
REMARK 927      BINDING AFFINITY PREDICTED BY RF-SCORE:    0.00 PKD
ROOT
HETATM    1 CL   UNL     1     -13.154  11.150  71.896  1.00  0.00    -0.583 Cl 
HETATM    2  C   UNL     1     -11.957  10.073  71.269  1.00  0.00    -0.394 A  
HETATM    3  C   UNL     1     -11.248  10.368  70.073  1.00  0.00    -0.385 A  
HETATM    4  O   UNL     1     -10.484   4.862  69.731  1.00  0.00    -0.232 OA 
HETATM    5  C   UNL     1     -10.189   9.540  69.657  1.00  0.00    -0.234 A  
HETATM    6  C   UNL     1     -10.105   8.293  70.240  1.00  0.00    -0.195 A  
HETATM    7  N   UNL     1     -11.130   6.531  71.230  1.00  0.00    -0.261 NA 
HETATM    8  C   UNL     1      -9.396   7.071  69.739  1.00  0.00    -0.146 C  
HETATM    9  C   UNL     1     -11.850   8.813  71.854  1.00  0.00    -0.437 A  
HETATM   10  C   UNL     1     -11.009   7.919  71.231  1.00  0.00    -0.238 A  
HETATM   11  C   UNL     1     -10.367   5.983  70.196  1.00  0.00    -0.224 C  
ENDROOT
BRANCH   3  12
HETATM   12  C   UNL     1     -11.952  11.140  68.968  1.00  0.00    -0.389 C  
BRANCH  12  13
HETATM   13  C   UNL     1     -11.205  11.654  67.731  1.00  0.00    -0.268 C  
BRANCH  13  14
HETATM   14  N   UNL     1     -10.237  12.683  68.170  1.00  0.00    -0.233 NA 
HETATM   15  N   UNL     1     -10.353  15.364  66.832  1.00  0.00    -0.272 NA 
HETATM   16  C   UNL     1      -9.344  13.152  67.094  1.00  0.00    -0.235 C  
HETATM   17  C   UNL     1     -10.826  13.856  68.852  1.00  0.00    -0.255 C  
HETATM   18  C   UNL     1     -11.192  15.142  68.027  1.00  0.00    -0.323 C  
HETATM   19  C   UNL     1     -10.044  14.114  66.124  1.00  0.00    -0.313 C  
BRANCH  15  20
HETATM   20  C   UNL     1      -9.339  16.303  66.837  1.00  0.00    -0.224 A  
HETATM   21  N   UNL     1      -8.100  16.007  66.466  1.00  0.00    -0.280 NA 
HETATM   22  S   UNL     1      -7.190  17.372  66.342  1.00  0.00    -0.317 SA 
HETATM   23  C   UNL     1      -8.445  18.458  66.764  1.00  0.00    -0.264 A  
HETATM   24  C   UNL     1      -8.397  19.859  66.811  1.00  0.00    -0.364 A  
HETATM   25  C   UNL     1      -9.552  20.542  67.198  1.00  0.00    -0.570 A  
HETATM   26  C   UNL     1     -10.700  19.837  67.533  1.00  0.00    -0.494 A  
HETATM   27  C   UNL     1     -10.745  18.444  67.462  1.00  0.00    -0.399 A  
HETATM   28  C   UNL     1      -9.577  17.711  67.085  1.00  0.00    -0.278 A  
ENDBRANCH  15  20
ENDBRANCH  13  14
ENDBRANCH  12  13
ENDBRANCH   3  12
TORSDOF 4
ENDMDL
MODEL       14
REMARK 921   NORMALIZED FREE ENERGY PREDICTED BY IDOCK:   -6.81 KCAL/MOL
REMARK 922        TOTAL FREE ENERGY PREDICTED BY IDOCK:   -8.92 KCAL/MOL
REMARK 923 INTER-LIGAND FREE ENERGY PREDICTED BY IDOCK:   -8.01 KCAL/MOL
REMARK 924 INTRA-LIGAND FREE ENERGY PREDICTED BY IDOCK:   -0.91 KCAL/MOL
REMARK 927      BINDING AFFINITY PREDICTED BY RF-SCORE:    0.00 PKD
ROOT
HETATM    1 CL   UNL     1     -10.842  11.184  69.652  1.00  0.00    -0.243 Cl 
HETATM    2  C   UNL     1     -11.022  11.567  67.977  1.00  0.00    -0.231 A  
HETATM    3  C   UNL     1     -10.055  11.164  67.016  1.00  0.00    -0.235 A  
HETATM    4  O   UNL     1     -11.999  15.412  63.984  1.00  0.00    -0.512 OA 
HETATM    5  C   UNL     1     -10.292  11.375  65.645  1.00  0.00    -0.307 A  
HETATM    6  C   UNL     1     -11.292  12.265  65.313  1.00  0.00    -0.384 A  
HETATM    7  N   UNL     1     -12.528  14.091  65.834  1.00  0.00    -0.491 NA 
HETATM    8  C   UNL     1     -11.499  13.002  64.024  1.00  0.00    -0.473 C  
HETATM    9  C   UNL     1     -12.035  12.455  67.622  1.00  0.00    -0.249 A  
HETATM   10  C   UNL     1     -12.051  12.872  66.310  1.00  0.00    -0.365 A  
HETATM   11  C   UNL     1     -12.030  14.334  64.552  1.00  0.00    -0.462 C  
ENDROOT
BRANCH   3  12
HETATM   12  C   UNL     1      -8.592  11.089  67.427  1.00  0.00    -0.132 C  
BRANCH  12  13
HETATM   13  C   UNL     1      -7.934  12.168  68.296  1.00  0.00    -0.163 C  
BRANCH  13  14
HETATM   14  N   UNL     1      -7.406  13.222  67.402  1.00  0.00    -0.148 NA 
HETATM   15  N   UNL     1      -7.364  16.034  68.441  1.00  0.00    -0.127 NA 
HETATM   16  C   UNL     1      -8.389  14.276  67.086  1.00  0.00    -0.180 C  
HETATM   17  C   UNL     1      -6.146  13.857  67.847  1.00  0.00    -0.148 C  
HETATM   18  C   UNL     1      -6.190  15.175  68.698  1.00  0.00    -0.089 C  
HETATM   19  C   UNL     1      -8.595  15.257  68.248  1.00  0.00    -0.159 C  
BRANCH  15  20
HETATM   20  C   UNL     1      -7.258  17.172  67.661  1.00  0.00    -0.157 A  
HETATM   21  N   UNL     1      -6.380  17.271  66.672  1.00  0.00    -0.196 NA 
HETATM   22  S   UNL     1      -6.660  18.626  65.782  1.00  0.00    -0.277 SA 
HETATM   23  C   UNL     1      -8.022  19.148  66.681  1.00  0.00    -0.272 A  
HETATM   24  C   UNL     1      -8.842  20.259  66.441  1.00  0.00    -0.267 A  
HETATM   25  C   UNL     1      -9.899  20.497  67.323  1.00  0.00    -0.581 A  
HETATM   26  C   UNL     1     -10.107  19.653  68.405  1.00  0.00    -0.557 A  
HETATM   27  C   UNL     1      -9.299  18.536  68.624  1.00  0.00    -0.352 A  
HETATM   28  C   UNL     1      -8.199  18.270  67.750  1.00  0.00    -0.253 A  
ENDBRANCH  15  20
ENDBRANCH  13  14
ENDBRANCH  12  13
ENDBRANCH   3  12
TORSDOF 4
ENDMDL
MODEL       15
REMARK 921   NORMALIZED FREE ENERGY PREDICTED BY IDOCK:   -6.80 KCAL/MOL
REMARK 922        TOTAL FREE ENERGY PREDICTED BY IDOCK:   -8.92 KCAL/MOL
REMARK 923 INTER-LIGAND FREE ENERGY PREDICTED BY IDOCK:   -8.39 KCAL/MOL
REMARK 924 INTRA-LIGAND FREE ENERGY PREDICTED BY IDOCK:   -0.53 KCAL/MOL
REMARK 927      BINDING AFFINITY PREDICTED BY RF-SCORE:    0.00 PKD
ROOT
HETATM    1 CL   UNL     1      -9.835   9.154  66.059  1.00  0.00    -0.359 Cl 
HETATM    2  C   UNL     1     -10.513   9.296  67.642  1.00  0.00    -0.264 A  
HETATM    3  C   UNL     1     -10.886  10.558  68.179  1.00  0.00    -0.300 A  
HETATM    4  O   UNL     1     -10.232   8.107  73.137  1.00  0.00    -0.293 OA 
HETATM    5  C   UNL     1     -11.555  10.630  69.415  1.00  0.00    -0.352 A  
HETATM    6  C   UNL     1     -11.520   9.505  70.211  1.00  0.00    -0.256 A  
HETATM    7  N   UNL     1     -10.458   7.613  70.867  1.00  0.00    -0.206 NA 
HETATM    8  C   UNL     1     -11.749   9.396  71.689  1.00  0.00    -0.468 C  
HETATM    9  C   UNL     1     -10.497   8.165  68.457  1.00  0.00    -0.199 A  
HETATM   10  C   UNL     1     -10.888   8.348  69.764  1.00  0.00    -0.183 A  
HETATM   11  C   UNL     1     -10.735   8.311  72.045  1.00  0.00    -0.297 C  
ENDROOT
BRANCH   3  12
HETATM   12  C   UNL     1     -10.083  11.791  67.793  1.00  0.00    -0.199 C  
BRANCH  12  13
HETATM   13  C   UNL     1     -10.447  12.652  66.577  1.00  0.00    -0.247 C  
BRANCH  13  14
HETATM   14  N   UNL     1     -10.866  13.985  67.064  1.00  0.00    -0.288 NA 
HETATM   15  N   UNL     1      -9.584  16.389  65.813  1.00  0.00    -0.500 NA 
HETATM   16  C   UNL     1      -9.764  14.777  67.642  1.00  0.00    -0.213 C  
HETATM   17  C   UNL     1     -11.593  14.818  66.081  1.00  0.00    -0.292 C  
HETATM   18  C   UNL     1     -10.808  15.845  65.190  1.00  0.00    -0.421 C  
HETATM   19  C   UNL     1      -8.842  15.373  66.570  1.00  0.00    -0.312 C  
BRANCH  15  20
HETATM   20  C   UNL     1      -9.566  17.659  66.359  1.00  0.00    -0.274 A  
HETATM   21  N   UNL     1     -10.579  18.138  67.069  1.00  0.00    -0.363 NA 
HETATM   22  S   UNL     1     -10.166  19.560  67.785  1.00  0.00    -0.455 SA 
HETATM   23  C   UNL     1      -8.560  19.596  67.188  1.00  0.00    -0.308 A  
HETATM   24  C   UNL     1      -7.560  20.541  67.456  1.00  0.00    -0.344 A  
HETATM   25  C   UNL     1      -6.317  20.372  66.842  1.00  0.00    -0.257 A  
HETATM   26  C   UNL     1      -6.102  19.299  65.987  1.00  0.00    -0.201 A  
HETATM   27  C   UNL     1      -7.097  18.350  65.745  1.00  0.00    -0.258 A  
HETATM   28  C   UNL     1      -8.386  18.500  66.344  1.00  0.00    -0.278 A  
ENDBRANCH  15  20
ENDBRANCH  13  14
ENDBRANCH  12  13
ENDBRANCH   3  12
TORSDOF 4
ENDMDL
MODEL       16
REMARK 921   NORMALIZED FREE ENERGY PREDICTED BY IDOCK:   -6.76 KCAL/MOL
REMARK 922        TOTAL FREE ENERGY PREDICTED BY IDOCK:   -8.87 KCAL/MOL
REMARK 923 INTER-LIGAND FREE ENERGY PREDICTED BY IDOCK:   -8.40 KCAL/MOL
REMARK 924 INTRA-LIGAND FREE ENERGY PREDICTED BY IDOCK:   -0.47 KCAL/MOL
REMARK 927      BINDING AFFINITY PREDICTED BY RF-SCORE:    0.00 PKD
ROOT
HETATM    1 CL   UNL     1     -14.244   9.049  72.326  1.00  0.00    -0.471 Cl 
HETATM    2  C   UNL     1     -12.624   8.637  71.889  1.00  0.00    -0.359 A  
HETATM    3  C   UNL     1     -11.756   9.585  71.282  1.00  0.00    -0.444 A  
HETATM    4  O   UNL     1      -9.072   5.134  69.282  1.00  0.00    -0.101 OA 
HETATM    5  C   UNL     1     -10.405   9.262  71.057  1.00  0.00    -0.388 A  
HETATM    6  C   UNL     1     -10.062   7.928  71.122  1.00  0.00    -0.210 A  
HETATM    7  N   UNL     1     -10.647   5.751  70.889  1.00  0.00    -0.250 NA 
HETATM    8  C   UNL     1      -8.864   7.240  70.539  1.00  0.00    -0.153 C  
HETATM    9  C   UNL     1     -12.257   7.294  71.959  1.00  0.00    -0.312 A  
HETATM   10  C   UNL     1     -11.020   6.972  71.449  1.00  0.00    -0.240 A  
HETATM   11  C   UNL     1      -9.486   5.905  70.130  1.00  0.00    -0.160 C  
ENDROOT
BRANCH   3  12
HETATM   12  C   UNL     1     -12.344  10.638  70.355  1.00  0.00    -0.428 C  
BRANCH  12  13
HETATM   13  C   UNL     1     -11.881  12.099  70.386  1.00  0.00    -0.187 C  
BRANCH  13  14
HETATM   14  N   UNL     1     -11.887  12.615  68.999  1.00  0.00    -0.304 NA 
HETATM   15  N   UNL     1      -9.981  14.830  68.329  1.00  0.00    -0.217 NA 
HETATM   16  C   UNL     1     -12.225  14.048  68.902  1.00  0.00    -0.226 C  
HETATM   17  C   UNL     1     -10.654  12.358  68.222  1.00  0.00    -0.222 C  
HETATM   18  C   UNL     1      -9.514  13.437  68.181  1.00  0.00    -0.218 C  
HETATM   19  C   UNL     1     -11.061  14.957  69.317  1.00  0.00    -0.271 C  
BRANCH  15  20
HETATM   20  C   UNL     1     -10.084  15.668  67.235  1.00  0.00    -0.255 A  
HETATM   21  N   UNL     1     -10.377  15.215  66.023  1.00  0.00    -0.293 NA 
HETATM   22  S   UNL     1     -10.671  16.463  64.992  1.00  0.00    -0.118 SA 
HETATM   23  C   UNL     1     -10.440  17.704  66.150  1.00  0.00    -0.295 A  
HETATM   24  C   UNL     1     -10.593  19.087  65.976  1.00  0.00    -0.499 A  
HETATM   25  C   UNL     1     -10.337  19.918  67.070  1.00  0.00    -0.592 A  
HETATM   26  C   UNL     1      -9.934  19.371  68.281  1.00  0.00    -0.516 A  
HETATM   27  C   UNL     1      -9.807  17.992  68.451  1.00  0.00    -0.369 A  
HETATM   28  C   UNL     1     -10.046  17.112  67.348  1.00  0.00    -0.301 A  
ENDBRANCH  15  20
ENDBRANCH  13  14
ENDBRANCH  12  13
ENDBRANCH   3  12
TORSDOF 4
ENDMDL
MODEL       17
REMARK 921   NORMALIZED FREE ENERGY PREDICTED BY IDOCK:   -6.76 KCAL/MOL
REMARK 922        TOTAL FREE ENERGY PREDICTED BY IDOCK:   -8.87 KCAL/MOL
REMARK 923 INTER-LIGAND FREE ENERGY PREDICTED BY IDOCK:   -8.94 KCAL/MOL
REMARK 924 INTRA-LIGAND FREE ENERGY PREDICTED BY IDOCK:    0.07 KCAL/MOL
REMARK 927      BINDING AFFINITY PREDICTED BY RF-SCORE:    0.00 PKD
ROOT
HETATM    1 CL   UNL     1     -13.001  14.879  70.628  1.00  0.00    -0.404 Cl 
HETATM    2  C   UNL     1     -12.476  13.234  70.695  1.00  0.00    -0.298 A  
HETATM    3  C   UNL     1     -11.745  12.645  69.628  1.00  0.00    -0.373 A  
HETATM    4  O   UNL     1     -13.696   7.813  71.593  1.00  0.00    -0.356 OA 
HETATM    5  C   UNL     1     -11.218  11.347  69.765  1.00  0.00    -0.266 A  
HETATM    6  C   UNL     1     -11.720  10.574  70.791  1.00  0.00    -0.454 A  
HETATM    7  N   UNL     1     -13.431  10.055  72.183  1.00  0.00    -0.397 NA 
HETATM    8  C   UNL     1     -11.691   9.083  70.940  1.00  0.00    -0.327 C  
HETATM    9  C   UNL     1     -12.964  12.441  71.732  1.00  0.00    -0.422 A  
HETATM   10  C   UNL     1     -12.666  11.099  71.668  1.00  0.00    -0.360 A  
HETATM   11  C   UNL     1     -13.049   8.846  71.599  1.00  0.00    -0.357 C  
ENDROOT
BRANCH   3  12
HETATM   12  C   UNL     1     -12.029  13.092  68.202  1.00  0.00    -0.333 C  
BRANCH  12  13
HETATM   13  C   UNL     1     -11.777  14.531  67.735  1.00  0.00    -0.374 C  
BRANCH  13  14
HETATM   14  N   UNL     1     -10.320  14.785  67.789  1.00  0.00    -0.243 NA 
HETATM   15  N   UNL     1      -9.379  17.593  67.322  1.00  0.00    -0.246 NA 
HETATM   16  C   UNL     1      -9.765  15.314  66.529  1.00  0.00    -0.268 C  
HETATM   17  C   UNL     1      -9.867  15.639  68.909  1.00  0.00    -0.219 C  
HETATM   18  C   UNL     1      -9.713  17.188  68.703  1.00  0.00    -0.293 C  
HETATM   19  C   UNL     1     -10.093  16.797  66.316  1.00  0.00    -0.326 C  
BRANCH  15  20
HETATM   20  C   UNL     1      -8.090  17.957  66.977  1.00  0.00    -0.221 A  
HETATM   21  N   UNL     1      -7.578  17.696  65.782  1.00  0.00    -0.527 NA 
HETATM   22  S   UNL     1      -6.134  18.460  65.589  1.00  0.00    -0.255 SA 
HETATM   23  C   UNL     1      -6.133  19.220  67.125  1.00  0.00    -0.182 A  
HETATM   24  C   UNL     1      -5.186  20.114  67.645  1.00  0.00    -0.191 A  
HETATM   25  C   UNL     1      -5.387  20.602  68.939  1.00  0.00    -0.346 A  
HETATM   26  C   UNL     1      -6.492  20.194  69.674  1.00  0.00    -0.333 A  
HETATM   27  C   UNL     1      -7.441  19.321  69.139  1.00  0.00    -0.324 A  
HETATM   28  C   UNL     1      -7.259  18.790  67.823  1.00  0.00    -0.247 A  
ENDBRANCH  15  20
ENDBRANCH  13  14
ENDBRANCH  12  13
ENDBRANCH   3  12
TORSDOF 4
ENDMDL
MODEL       18
REMARK 921   NORMALIZED FREE ENERGY PREDICTED BY IDOCK:   -6.75 KCAL/MOL
REMARK 922        TOTAL FREE ENERGY PREDICTED BY IDOCK:   -8.84 KCAL/MOL
REMARK 923 INTER-LIGAND FREE ENERGY PREDICTED BY IDOCK:   -7.92 KCAL/MOL
REMARK 924 INTRA-LIGAND FREE ENERGY PREDICTED BY IDOCK:   -0.92 KCAL/MOL
REMARK 927      BINDING AFFINITY PREDICTED BY RF-SCORE:    0.00 PKD
ROOT
HETATM    1 CL   UNL     1      -7.564   8.221  64.495  1.00  0.00    -0.101 Cl 
HETATM    2  C   UNL     1      -8.553   8.376  65.903  1.00  0.00    -0.158 A  
HETATM    3  C   UNL     1      -9.688   9.232  65.921  1.00  0.00    -0.355 A  
HETATM    4  O   UNL     1      -8.953   9.298  71.442  1.00  0.00    -0.311 OA 
HETATM    5  C   UNL     1     -10.549   9.240  67.034  1.00  0.00    -0.263 A  
HETATM    6  C   UNL     1     -10.073   8.671  68.197  1.00  0.00    -0.236 A  
HETATM    7  N   UNL     1      -8.318   8.128  69.525  1.00  0.00    -0.121 NA 
HETATM    8  C   UNL     1     -10.540   8.887  69.605  1.00  0.00    -0.230 C  
HETATM    9  C   UNL     1      -8.093   7.797  67.084  1.00  0.00    -0.118 A  
HETATM   10  C   UNL     1      -8.813   8.077  68.223  1.00  0.00    -0.133 A  
HETATM   11  C   UNL     1      -9.208   8.817  70.350  1.00  0.00    -0.180 C  
ENDROOT
BRANCH   3  12
HETATM   12  C   UNL     1      -9.659  10.515  65.103  1.00  0.00    -0.316 C  
BRANCH  12  13
HETATM   13  C   UNL     1     -10.914  11.369  64.885  1.00  0.00    -0.216 C  
BRANCH  13  14
HETATM   14  N   UNL     1     -10.696  12.683  65.530  1.00  0.00    -0.269 NA 
HETATM   15  N   UNL     1     -10.856  12.807  68.521  1.00  0.00    -0.246 NA 
HETATM   16  C   UNL     1     -11.852  13.154  66.316  1.00  0.00    -0.401 C  
HETATM   17  C   UNL     1      -9.476  12.785  66.360  1.00  0.00    -0.229 C  
HETATM   18  C   UNL     1      -9.550  12.502  67.903  1.00  0.00    -0.206 C  
HETATM   19  C   UNL     1     -11.985  12.429  67.661  1.00  0.00    -0.180 C  
BRANCH  15  20
HETATM   20  C   UNL     1     -11.042  13.959  69.263  1.00  0.00    -0.218 A  
HETATM   21  N   UNL     1     -10.554  15.131  68.882  1.00  0.00    -0.233 NA 
HETATM   22  S   UNL     1     -11.144  16.341  69.828  1.00  0.00    -0.307 SA 
HETATM   23  C   UNL     1     -12.129  15.335  70.804  1.00  0.00    -0.351 A  
HETATM   24  C   UNL     1     -13.002  15.716  71.833  1.00  0.00    -0.541 A  
HETATM   25  C   UNL     1     -13.700  14.711  72.507  1.00  0.00    -0.572 A  
HETATM   26  C   UNL     1     -13.513  13.380  72.159  1.00  0.00    -0.646 A  
HETATM   27  C   UNL     1     -12.659  13.012  71.119  1.00  0.00    -0.388 A  
HETATM   28  C   UNL     1     -11.916  14.013  70.418  1.00  0.00    -0.398 A  
ENDBRANCH  15  20
ENDBRANCH  13  14
ENDBRANCH  12  13
ENDBRANCH   3  12
TORSDOF 4
ENDMDL
MODEL       19
REMARK 921   NORMALIZED FREE ENERGY PREDICTED BY IDOCK:   -6.72 KCAL/MOL
REMARK 922        TOTAL FREE ENERGY PREDICTED BY IDOCK:   -8.82 KCAL/MOL
REMARK 923 INTER-LIGAND FREE ENERGY PREDICTED BY IDOCK:   -8.97 KCAL/MOL
REMARK 924 INTRA-LIGAND FREE ENERGY PREDICTED BY IDOCK:    0.15 KCAL/MOL
REMARK 927      BINDING AFFINITY PREDICTED BY RF-SCORE:    0.00 PKD
ROOT
HETATM    1 CL   UNL     1     -10.658  12.840  65.887  1.00  0.00    -0.287 Cl 
HETATM    2  C   UNL     1     -11.217  12.352  67.447  1.00  0.00    -0.297 A  
HETATM    3  C   UNL     1     -11.432  13.297  68.487  1.00  0.00    -0.347 A  
HETATM    4  O   UNL     1     -10.701   8.973  71.919  1.00  0.00    -0.347 OA 
HETATM    5  C   UNL     1     -12.012  12.890  69.703  1.00  0.00    -0.358 A  
HETATM    6  C   UNL     1     -12.033  11.535  69.962  1.00  0.00    -0.435 A  
HETATM    7  N   UNL     1     -11.117   9.482  69.680  1.00  0.00    -0.211 NA 
HETATM    8  C   UNL     1     -12.177  10.837  71.280  1.00  0.00    -0.426 C  
HETATM    9  C   UNL     1     -11.257  10.986  67.722  1.00  0.00    -0.374 A  
HETATM   10  C   UNL     1     -11.545  10.633  69.021  1.00  0.00    -0.261 A  
HETATM   11  C   UNL     1     -11.250   9.642  71.061  1.00  0.00    -0.375 C  
ENDROOT
BRANCH   3  12
HETATM   12  C   UNL     1     -10.541  14.528  68.562  1.00  0.00    -0.252 C  
BRANCH  12  13
HETATM   13  C   UNL     1     -11.032  15.915  68.131  1.00  0.00    -0.335 C  
BRANCH  13  14
HETATM   14  N   UNL     1      -9.960  16.894  68.420  1.00  0.00    -0.260 NA 
HETATM   15  N   UNL     1      -8.833  18.444  66.114  1.00  0.00    -0.493 NA 
HETATM   16  C   UNL     1      -8.693  16.607  67.721  1.00  0.00    -0.201 C  
HETATM   17  C   UNL     1     -10.322  18.312  68.198  1.00  0.00    -0.373 C  
HETATM   18  C   UNL     1     -10.008  18.995  66.820  1.00  0.00    -0.360 C  
HETATM   19  C   UNL     1      -8.742  16.983  66.234  1.00  0.00    -0.250 C  
BRANCH  15  20
HETATM   20  C   UNL     1      -7.622  19.111  66.117  1.00  0.00    -0.280 A  
HETATM   21  N   UNL     1      -7.056  19.552  65.001  1.00  0.00    -0.327 NA 
HETATM   22  S   UNL     1      -5.764  20.511  65.345  1.00  0.00    -0.219 SA 
HETATM   23  C   UNL     1      -5.916  20.403  67.049  1.00  0.00    -0.181 A  
HETATM   24  C   UNL     1      -5.146  21.049  68.027  1.00  0.00    -0.298 A  
HETATM   25  C   UNL     1      -5.447  20.798  69.368  1.00  0.00    -0.416 A  
HETATM   26  C   UNL     1      -6.475  19.926  69.701  1.00  0.00    -0.388 A  
HETATM   27  C   UNL     1      -7.250  19.306  68.720  1.00  0.00    -0.380 A  
HETATM   28  C   UNL     1      -6.960  19.527  67.337  1.00  0.00    -0.237 A  
ENDBRANCH  15  20
ENDBRANCH  13  14
ENDBRANCH  12  13
ENDBRANCH   3  12
TORSDOF 4
ENDMDL
MODEL       20
REMARK 921   NORMALIZED FREE ENERGY PREDICTED BY IDOCK:   -6.70 KCAL/MOL
REMARK 922        TOTAL FREE ENERGY PREDICTED BY IDOCK:   -8.79 KCAL/MOL
REMARK 923 INTER-LIGAND FREE ENERGY PREDICTED BY IDOCK:   -8.69 KCAL/MOL
REMARK 924 INTRA-LIGAND FREE ENERGY PREDICTED BY IDOCK:   -0.10 KCAL/MOL
REMARK 927      BINDING AFFINITY PREDICTED BY RF-SCORE:    0.00 PKD
ROOT
HETATM    1 CL   UNL     1     -13.428  13.217  72.449  1.00  0.00    -0.667 Cl 
HETATM    2  C   UNL     1     -12.737  13.887  71.014  1.00  0.00    -0.357 A  
HETATM    3  C   UNL     1     -12.272  13.057  69.958  1.00  0.00    -0.306 A  
HETATM    4  O   UNL     1      -9.036  17.388  68.621  1.00  0.00    -0.267 OA 
HETATM    5  C   UNL     1     -11.836  13.631  68.749  1.00  0.00    -0.395 A  
HETATM    6  C   UNL     1     -11.559  14.982  68.763  1.00  0.00    -0.357 A  
HETATM    7  N   UNL     1     -10.901  16.825  69.906  1.00  0.00    -0.231 NA 
HETATM    8  C   UNL     1     -10.709  15.773  67.814  1.00  0.00    -0.307 C  
HETATM    9  C   UNL     1     -12.461  15.253  71.006  1.00  0.00    -0.444 A  
HETATM   10  C   UNL     1     -11.760  15.728  69.921  1.00  0.00    -0.357 A  
HETATM   11  C   UNL     1     -10.077  16.774  68.780  1.00  0.00    -0.286 C  
ENDROOT
BRANCH   3  12
HETATM   12  C   UNL     1     -11.678  11.698  70.293  1.00  0.00    -0.355 C  
BRANCH  12  13
HETATM   13  C   UNL     1     -12.541  10.533  70.794  1.00  0.00    -0.382 C  
BRANCH  13  14
HETATM   14  N   UNL     1     -11.713   9.699  71.693  1.00  0.00    -0.395 NA 
HETATM   15  N   UNL     1     -11.292   6.830  70.931  1.00  0.00    -0.295 NA 
HETATM   16  C   UNL     1     -12.433   8.540  72.253  1.00  0.00    -0.387 C  
HETATM   17  C   UNL     1     -10.429   9.236  71.123  1.00  0.00    -0.331 C  
HETATM   18  C   UNL     1     -10.341   7.836  70.417  1.00  0.00    -0.212 C  
HETATM   19  C   UNL     1     -12.608   7.406  71.235  1.00  0.00    -0.340 C  
BRANCH  15  20
HETATM   20  C   UNL     1     -10.876   5.829  71.790  1.00  0.00    -0.252 A  
HETATM   21  N   UNL     1     -11.178   5.835  73.081  1.00  0.00    -0.246 NA 
HETATM   22  S   UNL     1     -10.761   4.406  73.782  1.00  0.00    -0.287 SA 
HETATM   23  C   UNL     1     -10.165   3.677  72.351  1.00  0.00    -0.145 A  
HETATM   24  C   UNL     1      -9.675   2.374  72.184  1.00  0.00    -0.205 A  
HETATM   25  C   UNL     1      -9.227   2.000  70.915  1.00  0.00    -0.183 A  
HETATM   26  C   UNL     1      -9.264   2.908  69.866  1.00  0.00    -0.216 A  
HETATM   27  C   UNL     1      -9.774   4.196  70.036  1.00  0.00    -0.282 A  
HETATM   28  C   UNL     1     -10.227   4.619  71.325  1.00  0.00    -0.205 A  
ENDBRANCH  15  20
ENDBRANCH  13  14
ENDBRANCH  12  13
ENDBRANCH   3  12
TORSDOF 4
ENDMDL
MODEL       21
REMARK 921   NORMALIZED FREE ENERGY PREDICTED BY IDOCK:   -6.69 KCAL/MOL
REMARK 922        TOTAL FREE ENERGY PREDICTED BY IDOCK:   -8.78 KCAL/MOL
REMARK 923 INTER-LIGAND FREE ENERGY PREDICTED BY IDOCK:   -8.57 KCAL/MOL
REMARK 924 INTRA-LIGAND FREE ENERGY PREDICTED BY IDOCK:   -0.21 KCAL/MOL
REMARK 927      BINDING AFFINITY PREDICTED BY RF-SCORE:    0.00 PKD
ROOT
HETATM    1 CL   UNL     1     -12.416  14.130  71.586  1.00  0.00    -0.409 Cl 
HETATM    2  C   UNL     1     -12.115  14.319  69.895  1.00  0.00    -0.347 A  
HETATM    3  C   UNL     1     -12.007  13.195  69.031  1.00  0.00    -0.329 A  
HETATM    4  O   UNL     1      -9.043  16.595  65.764  1.00  0.00    -0.503 OA 
HETATM    5  C   UNL     1     -11.893  13.382  67.641  1.00  0.00    -0.394 A  
HETATM    6  C   UNL     1     -11.551  14.645  67.205  1.00  0.00    -0.404 A  
HETATM    7  N   UNL     1     -10.506  16.620  67.582  1.00  0.00    -0.313 NA 
HETATM    8  C   UNL     1     -10.958  15.053  65.891  1.00  0.00    -0.343 C  
HETATM    9  C   UNL     1     -11.780  15.591  69.435  1.00  0.00    -0.382 A  
HETATM   10  C   UNL     1     -11.384  15.681  68.120  1.00  0.00    -0.340 A  
HETATM   11  C   UNL     1     -10.030  16.179  66.346  1.00  0.00    -0.299 C  
ENDROOT
BRANCH   3  12
HETATM   12  C   UNL     1     -11.416  11.902  69.572  1.00  0.00    -0.357 C  
BRANCH  12  13
HETATM   13  C   UNL     1     -12.286  10.816  70.216  1.00  0.00    -0.341 C  
BRANCH  13  14
HETATM   14  N   UNL     1     -11.434  10.026  71.133  1.00  0.00    -0.368 NA 
HETATM   15  N   UNL     1     -11.277   7.066  70.679  1.00  0.00    -0.274 NA 
HETATM   16  C   UNL     1     -12.174   8.994  71.885  1.00  0.00    -0.381 C  
HETATM   17  C   UNL     1     -10.242   9.407  70.512  1.00  0.00    -0.271 C  
HETATM   18  C   UNL     1     -10.314   7.935  69.971  1.00  0.00    -0.221 C  
HETATM   19  C   UNL     1     -12.518   7.771  71.025  1.00  0.00    -0.148 C  
BRANCH  15  20
HETATM   20  C   UNL     1     -10.849   6.137  71.609  1.00  0.00    -0.258 A  
HETATM   21  N   UNL     1     -11.124   6.254  72.901  1.00  0.00    -0.253 NA 
HETATM   22  S   UNL     1     -10.701   4.886  73.711  1.00  0.00    -0.313 SA 
HETATM   23  C   UNL     1     -10.139   4.035  72.334  1.00  0.00    -0.175 A  
HETATM   24  C   UNL     1      -9.660   2.719  72.267  1.00  0.00    -0.198 A  
HETATM   25  C   UNL     1      -9.240   2.237  71.026  1.00  0.00    -0.190 A  
HETATM   26  C   UNL     1      -9.294   3.055  69.905  1.00  0.00    -0.221 A  
HETATM   27  C   UNL     1      -9.793   4.356  69.977  1.00  0.00    -0.294 A  
HETATM   28  C   UNL     1     -10.217   4.889  71.235  1.00  0.00    -0.248 A  
ENDBRANCH  15  20
ENDBRANCH  13  14
ENDBRANCH  12  13
ENDBRANCH   3  12
TORSDOF 4
ENDMDL
MODEL       22
REMARK 921   NORMALIZED FREE ENERGY PREDICTED BY IDOCK:   -6.67 KCAL/MOL
REMARK 922        TOTAL FREE ENERGY PREDICTED BY IDOCK:   -8.75 KCAL/MOL
REMARK 923 INTER-LIGAND FREE ENERGY PREDICTED BY IDOCK:   -8.49 KCAL/MOL
REMARK 924 INTRA-LIGAND FREE ENERGY PREDICTED BY IDOCK:   -0.25 KCAL/MOL
REMARK 927      BINDING AFFINITY PREDICTED BY RF-SCORE:    0.00 PKD
ROOT
HETATM    1 CL   UNL     1     -13.003  11.861  63.527  1.00  0.00    -0.499 Cl 
HETATM    2  C   UNL     1     -12.101  12.960  64.508  1.00  0.00    -0.413 A  
HETATM    3  C   UNL     1     -10.686  13.056  64.405  1.00  0.00    -0.414 A  
HETATM    4  O   UNL     1     -10.920  15.018  69.613  1.00  0.00    -0.259 OA 
HETATM    5  C   UNL     1      -9.993  14.050  65.121  1.00  0.00    -0.257 A  
HETATM    6  C   UNL     1     -10.671  14.668  66.150  1.00  0.00    -0.314 A  
HETATM    7  N   UNL     1     -12.268  14.589  67.757  1.00  0.00    -0.224 NA 
HETATM    8  C   UNL     1     -10.113  15.419  67.321  1.00  0.00    -0.238 C  
HETATM    9  C   UNL     1     -12.774  13.602  65.546  1.00  0.00    -0.514 A  
HETATM   10  C   UNL     1     -11.999  14.340  66.412  1.00  0.00    -0.419 A  
HETATM   11  C   UNL     1     -11.107  15.011  68.408  1.00  0.00    -0.278 C  
ENDROOT
BRANCH   3  12
HETATM   12  C   UNL     1      -9.884  11.810  64.064  1.00  0.00    -0.265 C  
BRANCH  12  13
HETATM   13  C   UNL     1      -9.227  10.944  65.145  1.00  0.00    -0.214 C  
BRANCH  13  14
HETATM   14  N   UNL     1     -10.292  10.426  66.033  1.00  0.00    -0.223 NA 
HETATM   15  N   UNL     1      -9.475   9.365  68.715  1.00  0.00    -0.148 NA 
HETATM   16  C   UNL     1     -10.128   9.004  66.387  1.00  0.00    -0.281 C  
HETATM   17  C   UNL     1     -10.521  11.207  67.269  1.00  0.00    -0.226 C  
HETATM   18  C   UNL     1      -9.788  10.804  68.598  1.00  0.00    -0.184 C  
HETATM   19  C   UNL     1      -9.035   8.782  67.441  1.00  0.00    -0.133 C  
BRANCH  15  20
HETATM   20  C   UNL     1     -10.240   8.532  69.510  1.00  0.00    -0.206 A  
HETATM   21  N   UNL     1      -9.937   7.253  69.690  1.00  0.00    -0.174 NA 
HETATM   22  S   UNL     1     -10.876   6.594  70.869  1.00  0.00    -0.266 SA 
HETATM   23  C   UNL     1     -11.739   8.030  71.228  1.00  0.00    -0.282 A  
HETATM   24  C   UNL     1     -12.711   8.229  72.219  1.00  0.00    -0.338 A  
HETATM   25  C   UNL     1     -13.295   9.494  72.319  1.00  0.00    -0.526 A  
HETATM   26  C   UNL     1     -12.917  10.507  71.448  1.00  0.00    -0.542 A  
HETATM   27  C   UNL     1     -11.933  10.306  70.479  1.00  0.00    -0.415 A  
HETATM   28  C   UNL     1     -11.326   9.019  70.337  1.00  0.00    -0.242 A  
ENDBRANCH  15  20
ENDBRANCH  13  14
ENDBRANCH  12  13
ENDBRANCH   3  12
TORSDOF 4
ENDMDL
MODEL       23
REMARK 921   NORMALIZED FREE ENERGY PREDICTED BY IDOCK:   -6.66 KCAL/MOL
REMARK 922        TOTAL FREE ENERGY PREDICTED BY IDOCK:   -8.74 KCAL/MOL
REMARK 923 INTER-LIGAND FREE ENERGY PREDICTED BY IDOCK:   -7.95 KCAL/MOL
REMARK 924 INTRA-LIGAND FREE ENERGY PREDICTED BY IDOCK:   -0.79 KCAL/MOL
REMARK 927      BINDING AFFINITY PREDICTED BY RF-SCORE:    0.00 PKD
ROOT
HETATM    1 CL   UNL     1      -7.353   6.731  70.379  1.00  0.00    -0.079 Cl 
HETATM    2  C   UNL     1      -9.066   6.719  70.606  1.00  0.00    -0.155 A  
HETATM    3  C   UNL     1      -9.953   6.409  69.539  1.00  0.00    -0.190 A  
HETATM    4  O   UNL     1     -13.707   9.313  72.452  1.00  0.00    -0.465 OA 
HETATM    5  C   UNL     1     -11.332   6.279  69.783  1.00  0.00    -0.506 A  
HETATM    6  C   UNL     1     -11.808   6.788  70.973  1.00  0.00    -0.427 A  
HETATM    7  N   UNL     1     -11.623   8.285  72.665  1.00  0.00    -0.392 NA 
HETATM    8  C   UNL     1     -13.210   7.178  71.331  1.00  0.00    -0.391 C  
HETATM    9  C   UNL     1      -9.563   7.219  71.808  1.00  0.00    -0.163 A  
HETATM   10  C   UNL     1     -10.930   7.353  71.895  1.00  0.00    -0.233 A  
HETATM   11  C   UNL     1     -12.939   8.398  72.212  1.00  0.00    -0.301 C  
ENDROOT
BRANCH   3  12
HETATM   12  C   UNL     1      -9.571   6.807  68.121  1.00  0.00    -0.122 C  
BRANCH  12  13
HETATM   13  C   UNL     1     -10.313   7.910  67.357  1.00  0.00    -0.279 C  
BRANCH  13  14
HETATM   14  N   UNL     1      -9.787   9.218  67.808  1.00  0.00    -0.164 NA 
HETATM   15  N   UNL     1     -11.543  11.622  67.451  1.00  0.00    -0.539 NA 
HETATM   16  C   UNL     1      -9.679  10.216  66.726  1.00  0.00    -0.187 C  
HETATM   17  C   UNL     1     -10.498   9.826  68.954  1.00  0.00    -0.214 C  
HETATM   18  C   UNL     1     -11.665  10.846  68.702  1.00  0.00    -0.263 C  
HETATM   19  C   UNL     1     -11.038  10.811  66.335  1.00  0.00     0.057 C  
BRANCH  15  20
HETATM   20  C   UNL     1     -11.110  12.935  67.465  1.00  0.00    -0.269 A  
HETATM   21  N   UNL     1     -10.254  13.387  68.371  1.00  0.00    -0.249 NA 
HETATM   22  S   UNL     1      -9.745  14.903  67.984  1.00  0.00    -0.215 SA 
HETATM   23  C   UNL     1     -10.648  15.025  66.533  1.00  0.00    -0.305 A  
HETATM   24  C   UNL     1     -10.657  16.077  65.607  1.00  0.00    -0.392 A  
HETATM   25  C   UNL     1     -11.490  15.962  64.491  1.00  0.00    -0.287 A  
HETATM   26  C   UNL     1     -12.284  14.835  64.328  1.00  0.00    -0.402 A  
HETATM   27  C   UNL     1     -12.252  13.782  65.244  1.00  0.00    -0.461 A  
HETATM   28  C   UNL     1     -11.423  13.873  66.406  1.00  0.00    -0.354 A  
ENDBRANCH  15  20
ENDBRANCH  13  14
ENDBRANCH  12  13
ENDBRANCH   3  12
TORSDOF 4
ENDMDL
MODEL       24
REMARK 921   NORMALIZED FREE ENERGY PREDICTED BY IDOCK:   -6.65 KCAL/MOL
REMARK 922        TOTAL FREE ENERGY PREDICTED BY IDOCK:   -8.73 KCAL/MOL
REMARK 923 INTER-LIGAND FREE ENERGY PREDICTED BY IDOCK:   -8.50 KCAL/MOL
REMARK 924 INTRA-LIGAND FREE ENERGY PREDICTED BY IDOCK:   -0.23 KCAL/MOL
REMARK 927      BINDING AFFINITY PREDICTED BY RF-SCORE:    0.00 PKD
ROOT
HETATM    1 CL   UNL     1      -8.249  11.459  68.471  1.00  0.00    -0.149 Cl 
HETATM    2  C   UNL     1      -9.603  12.276  67.775  1.00  0.00    -0.200 A  
HETATM    3  C   UNL     1     -10.920  12.089  68.277  1.00  0.00    -0.275 A  
HETATM    4  O   UNL     1     -12.567  13.671  63.197  1.00  0.00    -0.792 OA 
HETATM    5  C   UNL     1     -11.982  12.865  67.778  1.00  0.00    -0.336 A  
HETATM    6  C   UNL     1     -11.766  13.532  66.590  1.00  0.00    -0.425 A  
HETATM    7  N   UNL     1     -10.698  13.664  64.596  1.00  0.00    -0.405 NA 
HETATM    8  C   UNL     1     -12.775  14.066  65.619  1.00  0.00    -0.515 C  
HETATM    9  C   UNL     1      -9.399  12.965  66.581  1.00  0.00    -0.240 A  
HETATM   10  C   UNL     1     -10.524  13.464  65.963  1.00  0.00    -0.294 A  
HETATM   11  C   UNL     1     -12.057  13.791  64.298  1.00  0.00    -0.440 C  
ENDROOT
BRANCH   3  12
HETATM   12  C   UNL     1     -11.307  10.734  68.848  1.00  0.00    -0.349 C  
BRANCH  12  13
HETATM   13  C   UNL     1     -12.006  10.593  70.206  1.00  0.00    -0.339 C  
BRANCH  13  14
HETATM   14  N   UNL     1     -11.151   9.760  71.081  1.00  0.00    -0.360 NA 
HETATM   15  N   UNL     1     -11.320   6.783  70.768  1.00  0.00    -0.303 NA 
HETATM   16  C   UNL     1     -11.910   8.840  71.949  1.00  0.00    -0.367 C  
HETATM   17  C   UNL     1     -10.087   9.000  70.389  1.00  0.00    -0.207 C  
HETATM   18  C   UNL     1     -10.350   7.521  69.932  1.00  0.00    -0.223 C  
HETATM   19  C   UNL     1     -12.450   7.622  71.187  1.00  0.00    -0.247 C  
BRANCH  15  20
HETATM   20  C   UNL     1     -10.896   5.857  71.702  1.00  0.00    -0.263 A  
HETATM   21  N   UNL     1     -11.201   5.961  72.989  1.00  0.00    -0.250 NA 
HETATM   22  S   UNL     1     -10.773   4.596  73.800  1.00  0.00    -0.304 SA 
HETATM   23  C   UNL     1     -10.166   3.763  72.431  1.00  0.00    -0.149 A  
HETATM   24  C   UNL     1      -9.663   2.456  72.368  1.00  0.00    -0.193 A  
HETATM   25  C   UNL     1      -9.208   1.987  71.133  1.00  0.00    -0.175 A  
HETATM   26  C   UNL     1      -9.251   2.811  70.016  1.00  0.00    -0.205 A  
HETATM   27  C   UNL     1      -9.774   4.103  70.084  1.00  0.00    -0.278 A  
HETATM   28  C   UNL     1     -10.235   4.621  71.335  1.00  0.00    -0.212 A  
ENDBRANCH  15  20
ENDBRANCH  13  14
ENDBRANCH  12  13
ENDBRANCH   3  12
TORSDOF 4
ENDMDL
MODEL       25
REMARK 921   NORMALIZED FREE ENERGY PREDICTED BY IDOCK:   -6.64 KCAL/MOL
REMARK 922        TOTAL FREE ENERGY PREDICTED BY IDOCK:   -8.72 KCAL/MOL
REMARK 923 INTER-LIGAND FREE ENERGY PREDICTED BY IDOCK:   -8.28 KCAL/MOL
REMARK 924 INTRA-LIGAND FREE ENERGY PREDICTED BY IDOCK:   -0.44 KCAL/MOL
REMARK 927      BINDING AFFINITY PREDICTED BY RF-SCORE:    0.00 PKD
ROOT
HETATM    1 CL   UNL     1     -10.773  20.081  66.405  1.00  0.00    -0.464 Cl 
HETATM    2  C   UNL     1      -9.265  19.322  66.775  1.00  0.00    -0.323 A  
HETATM    3  C   UNL     1      -8.907  18.068  66.209  1.00  0.00    -0.194 A  
HETATM    4  O   UNL     1      -5.566  17.563  70.636  1.00  0.00    -0.231 OA 
HETATM    5  C   UNL     1      -7.622  17.538  66.423  1.00  0.00    -0.329 A  
HETATM    6  C   UNL     1      -6.880  18.090  67.447  1.00  0.00    -0.202 A  
HETATM    7  N   UNL     1      -6.808  19.145  69.451  1.00  0.00    -0.295 NA 
HETATM    8  C   UNL     1      -5.712  17.502  68.179  1.00  0.00    -0.152 C  
HETATM    9  C   UNL     1      -8.497  19.874  67.799  1.00  0.00    -0.356 A  
HETATM   10  C   UNL     1      -7.387  19.157  68.184  1.00  0.00    -0.270 A  
HETATM   11  C   UNL     1      -5.974  18.033  69.587  1.00  0.00    -0.247 C  
ENDROOT
BRANCH   3  12
HETATM   12  C   UNL     1     -10.000  17.050  65.921  1.00  0.00    -0.239 C  
BRANCH  12  13
HETATM   13  C   UNL     1      -9.859  15.573  66.312  1.00  0.00    -0.294 C  
BRANCH  13  14
HETATM   14  N   UNL     1     -10.142  15.450  67.760  1.00  0.00    -0.226 NA 
HETATM   15  N   UNL     1     -11.174  12.818  68.756  1.00  0.00    -0.267 NA 
HETATM   16  C   UNL     1     -11.550  15.131  68.061  1.00  0.00    -0.328 C  
HETATM   17  C   UNL     1      -9.267  14.513  68.498  1.00  0.00    -0.195 C  
HETATM   18  C   UNL     1      -9.712  13.021  68.704  1.00  0.00    -0.045 C  
HETATM   19  C   UNL     1     -11.892  13.659  67.791  1.00  0.00    -0.368 C  
BRANCH  15  20
HETATM   20  C   UNL     1     -11.823  12.619  69.961  1.00  0.00    -0.285 A  
HETATM   21  N   UNL     1     -12.459  13.598  70.590  1.00  0.00    -0.354 NA 
HETATM   22  S   UNL     1     -13.332  13.006  71.853  1.00  0.00    -0.380 SA 
HETATM   23  C   UNL     1     -12.913  11.364  71.600  1.00  0.00    -0.418 A  
HETATM   24  C   UNL     1     -13.363  10.239  72.305  1.00  0.00    -0.296 A  
HETATM   25  C   UNL     1     -12.871   8.987  71.925  1.00  0.00    -0.451 A  
HETATM   26  C   UNL     1     -11.957   8.883  70.885  1.00  0.00    -0.254 A  
HETATM   27  C   UNL     1     -11.533  10.007  70.174  1.00  0.00    -0.344 A  
HETATM   28  C   UNL     1     -12.003  11.305  70.545  1.00  0.00    -0.467 A  
ENDBRANCH  15  20
ENDBRANCH  13  14
ENDBRANCH  12  13
ENDBRANCH   3  12
TORSDOF 4
ENDMDL
MODEL       26
REMARK 921   NORMALIZED FREE ENERGY PREDICTED BY IDOCK:   -6.64 KCAL/MOL
REMARK 922        TOTAL FREE ENERGY PREDICTED BY IDOCK:   -8.71 KCAL/MOL
REMARK 923 INTER-LIGAND FREE ENERGY PREDICTED BY IDOCK:   -8.39 KCAL/MOL
REMARK 924 INTRA-LIGAND FREE ENERGY PREDICTED BY IDOCK:   -0.32 KCAL/MOL
REMARK 927      BINDING AFFINITY PREDICTED BY RF-SCORE:    0.00 PKD
ROOT
HETATM    1 CL   UNL     1      -6.837   7.217  70.394  1.00  0.00    -0.052 Cl 
HETATM    2  C   UNL     1      -8.549   7.017  70.513  1.00  0.00    -0.141 A  
HETATM    3  C   UNL     1      -9.362   6.882  69.355  1.00  0.00    -0.146 A  
HETATM    4  O   UNL     1     -13.476   8.750  72.611  1.00  0.00    -0.391 OA 
HETATM    5  C   UNL     1     -10.732   6.590  69.484  1.00  0.00    -0.322 A  
HETATM    6  C   UNL     1     -11.298   6.780  70.728  1.00  0.00    -0.374 A  
HETATM    7  N   UNL     1     -11.317   7.872  72.714  1.00  0.00    -0.405 NA 
HETATM    8  C   UNL     1     -12.742   6.967  71.081  1.00  0.00    -0.331 C  
HETATM    9  C   UNL     1      -9.136   7.194  71.765  1.00  0.00    -0.146 A  
HETATM   10  C   UNL     1     -10.512   7.194  71.800  1.00  0.00    -0.197 A  
HETATM   11  C   UNL     1     -12.619   7.976  72.221  1.00  0.00    -0.232 C  
ENDROOT
BRANCH   3  12
HETATM   12  C   UNL     1      -8.963   7.616  68.084  1.00  0.00    -0.126 C  
BRANCH  12  13
HETATM   13  C   UNL     1      -9.802   8.764  67.509  1.00  0.00    -0.179 C  
BRANCH  13  14
HETATM   14  N   UNL     1      -9.518   9.983  68.298  1.00  0.00    -0.139 NA 
HETATM   15  N   UNL     1     -11.813  11.814  68.906  1.00  0.00    -0.319 NA 
HETATM   16  C   UNL     1      -9.838  11.236  67.588  1.00  0.00    -0.175 C  
HETATM   17  C   UNL     1     -10.132  10.024  69.644  1.00  0.00    -0.236 C  
HETATM   18  C   UNL     1     -11.528  10.713  69.849  1.00  0.00    -0.317 C  
HETATM   19  C   UNL     1     -11.345  11.521  67.545  1.00  0.00    -0.299 C  
BRANCH  15  20
HETATM   20  C   UNL     1     -11.699  13.135  69.296  1.00  0.00    -0.321 A  
HETATM   21  N   UNL     1     -11.138  14.054  68.521  1.00  0.00    -0.246 NA 
HETATM   22  S   UNL     1     -11.370  15.559  69.144  1.00  0.00    -0.354 SA 
HETATM   23  C   UNL     1     -12.280  15.047  70.503  1.00  0.00    -0.337 A  
HETATM   24  C   UNL     1     -12.884  15.842  71.487  1.00  0.00    -0.512 A  
HETATM   25  C   UNL     1     -13.571  15.198  72.519  1.00  0.00    -0.592 A  
HETATM   26  C   UNL     1     -13.635  13.812  72.555  1.00  0.00    -0.680 A  
HETATM   27  C   UNL     1     -13.050  13.029  71.558  1.00  0.00    -0.400 A  
HETATM   28  C   UNL     1     -12.324  13.654  70.496  1.00  0.00    -0.425 A  
ENDBRANCH  15  20
ENDBRANCH  13  14
ENDBRANCH  12  13
ENDBRANCH   3  12
TORSDOF 4
ENDMDL
MODEL       27
REMARK 921   NORMALIZED FREE ENERGY PREDICTED BY IDOCK:   -6.62 KCAL/MOL
REMARK 922        TOTAL FREE ENERGY PREDICTED BY IDOCK:   -8.69 KCAL/MOL
REMARK 923 INTER-LIGAND FREE ENERGY PREDICTED BY IDOCK:   -8.44 KCAL/MOL
REMARK 924 INTRA-LIGAND FREE ENERGY PREDICTED BY IDOCK:   -0.25 KCAL/MOL
REMARK 927      BINDING AFFINITY PREDICTED BY RF-SCORE:    0.00 PKD
ROOT
HETATM    1 CL   UNL     1     -12.860  13.821  65.293  1.00  0.00    -0.484 Cl 
HETATM    2  C   UNL     1     -11.769  12.500  65.070  1.00  0.00    -0.362 A  
HETATM    3  C   UNL     1     -11.158  11.848  66.175  1.00  0.00    -0.374 A  
HETATM    4  O   UNL     1      -7.223  10.374  62.520  1.00  0.00    -0.139 OA 
HETATM    5  C   UNL     1     -10.379  10.694  65.972  1.00  0.00    -0.290 A  
HETATM    6  C   UNL     1      -9.961  10.441  64.682  1.00  0.00    -0.408 A  
HETATM    7  N   UNL     1      -9.397  11.217  62.629  1.00  0.00    -0.331 NA 
HETATM    8  C   UNL     1      -8.822   9.584  64.218  1.00  0.00    -0.247 C  
HETATM    9  C   UNL     1     -11.346  12.223  63.771  1.00  0.00    -0.534 A  
HETATM   10  C   UNL     1     -10.353  11.279  63.640  1.00  0.00    -0.408 A  
HETATM   11  C   UNL     1      -8.334  10.400  63.021  1.00  0.00    -0.174 C  
ENDROOT
BRANCH   3  12
HETATM   12  C   UNL     1     -10.822  12.659  67.417  1.00  0.00    -0.272 C  
BRANCH  12  13
HETATM   13  C   UNL     1      -9.495  12.485  68.168  1.00  0.00    -0.214 C  
BRANCH  13  14
HETATM   14  N   UNL     1      -8.540  13.493  67.655  1.00  0.00    -0.172 NA 
HETATM   15  N   UNL     1      -8.222  16.030  69.222  1.00  0.00    -0.239 NA 
HETATM   16  C   UNL     1      -9.164  14.791  67.337  1.00  0.00    -0.196 C  
HETATM   17  C   UNL     1      -7.351  13.727  68.504  1.00  0.00    -0.117 C  
HETATM   18  C   UNL     1      -7.362  14.880  69.570  1.00  0.00    -0.178 C  
HETATM   19  C   UNL     1      -9.482  15.616  68.591  1.00  0.00    -0.204 C  
BRANCH  15  20
HETATM   20  C   UNL     1      -7.679  17.205  68.736  1.00  0.00    -0.259 A  
HETATM   21  N   UNL     1      -6.395  17.315  68.425  1.00  0.00    -0.158 NA 
HETATM   22  S   UNL     1      -6.104  18.736  67.650  1.00  0.00    -0.192 SA 
HETATM   23  C   UNL     1      -7.728  19.279  67.666  1.00  0.00    -0.257 A  
HETATM   24  C   UNL     1      -8.254  20.449  67.100  1.00  0.00    -0.374 A  
HETATM   25  C   UNL     1      -9.621  20.694  67.251  1.00  0.00    -0.558 A  
HETATM   26  C   UNL     1     -10.416  19.798  67.952  1.00  0.00    -0.531 A  
HETATM   27  C   UNL     1      -9.888  18.624  68.493  1.00  0.00    -0.427 A  
HETATM   28  C   UNL     1      -8.490  18.349  68.371  1.00  0.00    -0.345 A  
ENDBRANCH  15  20
ENDBRANCH  13  14
ENDBRANCH  12  13
ENDBRANCH   3  12
TORSDOF 4
ENDMDL
MODEL       28
REMARK 921   NORMALIZED FREE ENERGY PREDICTED BY IDOCK:   -6.60 KCAL/MOL
REMARK 922        TOTAL FREE ENERGY PREDICTED BY IDOCK:   -8.67 KCAL/MOL
REMARK 923 INTER-LIGAND FREE ENERGY PREDICTED BY IDOCK:   -8.44 KCAL/MOL
REMARK 924 INTRA-LIGAND FREE ENERGY PREDICTED BY IDOCK:   -0.23 KCAL/MOL
REMARK 927      BINDING AFFINITY PREDICTED BY RF-SCORE:    0.00 PKD
ROOT
HETATM    1 CL   UNL     1     -10.399  20.212  66.274  1.00  0.00    -0.545 Cl 
HETATM    2  C   UNL     1      -9.059  19.167  66.585  1.00  0.00    -0.335 A  
HETATM    3  C   UNL     1      -8.956  17.889  65.970  1.00  0.00    -0.005 A  
HETATM    4  O   UNL     1      -5.708  16.593  70.304  1.00  0.00    -0.210 OA 
HETATM    5  C   UNL     1      -7.792  17.117  66.138  1.00  0.00    -0.303 A  
HETATM    6  C   UNL     1      -6.944  17.478  67.164  1.00  0.00    -0.199 A  
HETATM    7  N   UNL     1      -6.642  18.425  69.201  1.00  0.00    -0.267 NA 
HETATM    8  C   UNL     1      -5.899  16.652  67.850  1.00  0.00    -0.140 C  
HETATM    9  C   UNL     1      -8.185  19.523  67.611  1.00  0.00    -0.332 A  
HETATM   10  C   UNL     1      -7.227  18.594  67.948  1.00  0.00    -0.238 A  
HETATM   11  C   UNL     1      -6.034  17.170  69.282  1.00  0.00    -0.207 C  
ENDROOT
BRANCH   3  12
HETATM   12  C   UNL     1     -10.227  17.109  65.671  1.00  0.00    -0.162 C  
BRANCH  12  13
HETATM   13  C   UNL     1     -10.298  15.584  65.817  1.00  0.00    -0.363 C  
BRANCH  13  14
HETATM   14  N   UNL     1     -11.057  15.272  67.048  1.00  0.00    -0.325 NA 
HETATM   15  N   UNL     1     -10.478  12.669  68.418  1.00  0.00    -0.234 NA 
HETATM   16  C   UNL     1     -11.867  14.044  66.949  1.00  0.00    -0.430 C  
HETATM   17  C   UNL     1     -10.254  15.220  68.290  1.00  0.00    -0.226 C  
HETATM   18  C   UNL     1      -9.675  13.851  68.793  1.00  0.00    -0.093 C  
HETATM   19  C   UNL     1     -11.020  12.769  67.057  1.00  0.00    -0.263 C  
BRANCH  15  20
HETATM   20  C   UNL     1     -11.306  12.049  69.336  1.00  0.00    -0.251 A  
HETATM   21  N   UNL     1     -11.251  10.744  69.568  1.00  0.00    -0.259 NA 
HETATM   22  S   UNL     1     -12.171  10.347  70.872  1.00  0.00    -0.418 SA 
HETATM   23  C   UNL     1     -12.682  11.945  71.219  1.00  0.00    -0.298 A  
HETATM   24  C   UNL     1     -13.479  12.385  72.284  1.00  0.00    -0.428 A  
HETATM   25  C   UNL     1     -13.780  13.748  72.359  1.00  0.00    -0.692 A  
HETATM   26  C   UNL     1     -13.302  14.621  71.392  1.00  0.00    -0.441 A  
HETATM   27  C   UNL     1     -12.489  14.177  70.347  1.00  0.00    -0.424 A  
HETATM   28  C   UNL     1     -12.174  12.787  70.231  1.00  0.00    -0.351 A  
ENDBRANCH  15  20
ENDBRANCH  13  14
ENDBRANCH  12  13
ENDBRANCH   3  12
TORSDOF 4
ENDMDL
MODEL       29
REMARK 921   NORMALIZED FREE ENERGY PREDICTED BY IDOCK:   -6.60 KCAL/MOL
REMARK 922        TOTAL FREE ENERGY PREDICTED BY IDOCK:   -8.66 KCAL/MOL
REMARK 923 INTER-LIGAND FREE ENERGY PREDICTED BY IDOCK:   -8.22 KCAL/MOL
REMARK 924 INTRA-LIGAND FREE ENERGY PREDICTED BY IDOCK:   -0.44 KCAL/MOL
REMARK 927      BINDING AFFINITY PREDICTED BY RF-SCORE:    0.00 PKD
ROOT
HETATM    1 CL   UNL     1      -9.997  10.072  66.933  1.00  0.00    -0.250 Cl 
HETATM    2  C   UNL     1     -10.815   9.765  68.424  1.00  0.00    -0.201 A  
HETATM    3  C   UNL     1     -11.507  10.797  69.116  1.00  0.00    -0.368 A  
HETATM    4  O   UNL     1     -10.717   7.639  73.634  1.00  0.00    -0.292 OA 
HETATM    5  C   UNL     1     -12.273  10.491  70.255  1.00  0.00    -0.393 A  
HETATM    6  C   UNL     1     -12.048   9.267  70.850  1.00  0.00    -0.297 A  
HETATM    7  N   UNL     1     -10.640   7.550  71.303  1.00  0.00    -0.215 NA 
HETATM    8  C   UNL     1     -12.365   8.834  72.250  1.00  0.00    -0.448 C  
HETATM    9  C   UNL     1     -10.608   8.529  69.033  1.00  0.00    -0.173 A  
HETATM   10  C   UNL     1     -11.135   8.374  70.295  1.00  0.00    -0.213 A  
HETATM   11  C   UNL     1     -11.162   7.937  72.539  1.00  0.00    -0.376 C  
ENDROOT
BRANCH   3  12
HETATM   12  C   UNL     1     -10.976  12.220  69.042  1.00  0.00    -0.250 C  
BRANCH  12  13
HETATM   13  C   UNL     1     -11.814  13.425  69.486  1.00  0.00    -0.332 C  
BRANCH  13  14
HETATM   14  N   UNL     1     -11.819  14.415  68.386  1.00  0.00    -0.326 NA 
HETATM   15  N   UNL     1      -9.437  16.218  68.128  1.00  0.00    -0.212 NA 
HETATM   16  C   UNL     1     -11.738  15.814  68.849  1.00  0.00    -0.394 C  
HETATM   17  C   UNL     1     -10.801  14.197  67.334  1.00  0.00    -0.287 C  
HETATM   18  C   UNL     1      -9.409  14.918  67.427  1.00  0.00    -0.199 C  
HETATM   19  C   UNL     1     -10.323  16.204  69.299  1.00  0.00    -0.265 C  
BRANCH  15  20
HETATM   20  C   UNL     1      -9.409  17.408  67.425  1.00  0.00    -0.237 A  
HETATM   21  N   UNL     1     -10.378  17.758  66.590  1.00  0.00    -0.352 NA 
HETATM   22  S   UNL     1     -10.188  19.317  66.101  1.00  0.00    -0.467 SA 
HETATM   23  C   UNL     1      -8.778  19.620  67.026  1.00  0.00    -0.316 A  
HETATM   24  C   UNL     1      -8.065  20.821  67.146  1.00  0.00    -0.244 A  
HETATM   25  C   UNL     1      -6.926  20.829  67.956  1.00  0.00    -0.236 A  
HETATM   26  C   UNL     1      -6.525  19.670  68.605  1.00  0.00    -0.308 A  
HETATM   27  C   UNL     1      -7.254  18.485  68.498  1.00  0.00    -0.306 A  
HETATM   28  C   UNL     1      -8.416  18.436  67.665  1.00  0.00    -0.264 A  
ENDBRANCH  15  20
ENDBRANCH  13  14
ENDBRANCH  12  13
ENDBRANCH   3  12
TORSDOF 4
ENDMDL
MODEL       30
REMARK 921   NORMALIZED FREE ENERGY PREDICTED BY IDOCK:   -6.60 KCAL/MOL
REMARK 922        TOTAL FREE ENERGY PREDICTED BY IDOCK:   -8.66 KCAL/MOL
REMARK 923 INTER-LIGAND FREE ENERGY PREDICTED BY IDOCK:   -7.50 KCAL/MOL
REMARK 924 INTRA-LIGAND FREE ENERGY PREDICTED BY IDOCK:   -1.17 KCAL/MOL
REMARK 927      BINDING AFFINITY PREDICTED BY RF-SCORE:    0.00 PKD
ROOT
HETATM    1 CL   UNL     1      -7.654  10.708  62.367  1.00  0.00    -0.177 Cl 
HETATM    2  C   UNL     1      -8.509  10.313  63.816  1.00  0.00    -0.179 A  
HETATM    3  C   UNL     1      -9.899  10.578  63.952  1.00  0.00    -0.373 A  
HETATM    4  O   UNL     1      -8.876  10.577  69.427  1.00  0.00    -0.152 OA 
HETATM    5  C   UNL     1     -10.595  10.127  65.089  1.00  0.00     0.227 A  
HETATM    6  C   UNL     1      -9.837   9.748  66.177  1.00  0.00    -0.329 A  
HETATM    7  N   UNL     1      -7.932   9.943  67.389  1.00  0.00    -0.106 NA 
HETATM    8  C   UNL     1     -10.250   9.636  67.614  1.00  0.00    -0.267 C  
HETATM    9  C   UNL     1      -7.759   9.916  64.922  1.00  0.00    -0.134 A  
HETATM   10  C   UNL     1      -8.446   9.770  66.105  1.00  0.00    -0.124 A  
HETATM   11  C   UNL     1      -8.972  10.110  68.305  1.00  0.00    -0.120 C  
ENDROOT
BRANCH   3  12
HETATM   12  C   UNL     1     -10.491  11.794  63.258  1.00  0.00    -0.439 C  
BRANCH  12  13
HETATM   13  C   UNL     1     -11.856  12.372  63.652  1.00  0.00    -0.526 C  
BRANCH  13  14
HETATM   14  N   UNL     1     -11.628  13.647  64.369  1.00  0.00    -0.383 NA 
HETATM   15  N   UNL     1     -10.889  13.497  67.270  1.00  0.00    -0.274 NA 
HETATM   16  C   UNL     1     -12.543  13.857  65.507  1.00  0.00    -0.526 C  
HETATM   17  C   UNL     1     -10.238  13.879  64.820  1.00  0.00    -0.324 C  
HETATM   18  C   UNL     1      -9.803  13.461  66.269  1.00  0.00    -0.290 C  
HETATM   19  C   UNL     1     -12.165  13.011  66.731  1.00  0.00    -0.194 C  
BRANCH  15  20
HETATM   20  C   UNL     1     -10.991  14.538  68.175  1.00  0.00    -0.251 A  
HETATM   21  N   UNL     1     -10.736  15.795  67.837  1.00  0.00    -0.293 NA 
HETATM   22  S   UNL     1     -11.180  16.822  69.043  1.00  0.00     0.055 SA 
HETATM   23  C   UNL     1     -11.776  15.608  70.095  1.00  0.00    -0.360 A  
HETATM   24  C   UNL     1     -12.389  15.773  71.345  1.00  0.00    -0.505 A  
HETATM   25  C   UNL     1     -12.787  14.626  72.037  1.00  0.00    -0.403 A  
HETATM   26  C   UNL     1     -12.565  13.370  71.489  1.00  0.00    -0.331 A  
HETATM   27  C   UNL     1     -11.975  13.216  70.234  1.00  0.00    -0.366 A  
HETATM   28  C   UNL     1     -11.540  14.367  69.505  1.00  0.00    -0.352 A  
ENDBRANCH  15  20
ENDBRANCH  13  14
ENDBRANCH  12  13
ENDBRANCH   3  12
TORSDOF 4
ENDMDL
MODEL       31
REMARK 921   NORMALIZED FREE ENERGY PREDICTED BY IDOCK:   -6.50 KCAL/MOL
REMARK 922        TOTAL FREE ENERGY PREDICTED BY IDOCK:   -8.54 KCAL/MOL
REMARK 923 INTER-LIGAND FREE ENERGY PREDICTED BY IDOCK:   -8.55 KCAL/MOL
REMARK 924 INTRA-LIGAND FREE ENERGY PREDICTED BY IDOCK:    0.01 KCAL/MOL
REMARK 927      BINDING AFFINITY PREDICTED BY RF-SCORE:    0.00 PKD
ROOT
HETATM    1 CL   UNL     1     -10.480  10.923  65.820  1.00  0.00    -0.297 Cl 
HETATM    2  C   UNL     1     -10.793  10.455  67.454  1.00  0.00    -0.286 A  
HETATM    3  C   UNL     1     -11.663  11.209  68.287  1.00  0.00    -0.323 A  
HETATM    4  O   UNL     1      -8.821   8.934  72.501  1.00  0.00    -0.381 OA 
HETATM    5  C   UNL     1     -12.003  10.733  69.567  1.00  0.00    -0.364 A  
HETATM    6  C   UNL     1     -11.214   9.730  70.091  1.00  0.00    -0.324 A  
HETATM    7  N   UNL     1      -9.202   8.695  70.211  1.00  0.00    -0.160 NA 
HETATM    8  C   UNL     1     -11.046   9.323  71.524  1.00  0.00    -0.443 C  
HETATM    9  C   UNL     1     -10.013   9.434  67.995  1.00  0.00    -0.209 A  
HETATM   10  C   UNL     1     -10.169   9.196  69.342  1.00  0.00    -0.210 A  
HETATM   11  C   UNL     1      -9.562   8.959  71.534  1.00  0.00    -0.292 C  
ENDROOT
BRANCH   3  12
HETATM   12  C   UNL     1     -11.737  12.717  68.105  1.00  0.00    -0.392 C  
BRANCH  12  13
HETATM   13  C   UNL     1     -11.987  13.668  69.282  1.00  0.00    -0.336 C  
BRANCH  13  14
HETATM   14  N   UNL     1     -11.641  15.040  68.849  1.00  0.00    -0.309 NA 
HETATM   15  N   UNL     1      -8.735  15.715  68.554  1.00  0.00    -0.174 NA 
HETATM   16  C   UNL     1     -10.821  15.780  69.827  1.00  0.00    -0.314 C  
HETATM   17  C   UNL     1     -11.008  15.142  67.515  1.00  0.00    -0.310 C  
HETATM   18  C   UNL     1      -9.443  15.149  67.388  1.00  0.00    -0.204 C  
HETATM   19  C   UNL     1      -9.355  15.328  69.828  1.00  0.00    -0.075 C  
BRANCH  15  20
HETATM   20  C   UNL     1      -8.212  16.994  68.520  1.00  0.00    -0.259 A  
HETATM   21  N   UNL     1      -6.955  17.253  68.855  1.00  0.00    -0.224 NA 
HETATM   22  S   UNL     1      -6.562  18.805  68.479  1.00  0.00    -0.251 SA 
HETATM   23  C   UNL     1      -8.084  19.213  67.805  1.00  0.00    -0.278 A  
HETATM   24  C   UNL     1      -8.467  20.420  67.204  1.00  0.00    -0.393 A  
HETATM   25  C   UNL     1      -9.778  20.530  66.733  1.00  0.00    -0.466 A  
HETATM   26  C   UNL     1     -10.661  19.469  66.874  1.00  0.00    -0.602 A  
HETATM   27  C   UNL     1     -10.263  18.262  67.453  1.00  0.00    -0.385 A  
HETATM   28  C   UNL     1      -8.934  18.120  67.961  1.00  0.00    -0.289 A  
ENDBRANCH  15  20
ENDBRANCH  13  14
ENDBRANCH  12  13
ENDBRANCH   3  12
TORSDOF 4
ENDMDL
MODEL       32
REMARK 921   NORMALIZED FREE ENERGY PREDICTED BY IDOCK:   -6.46 KCAL/MOL
REMARK 922        TOTAL FREE ENERGY PREDICTED BY IDOCK:   -8.49 KCAL/MOL
REMARK 923 INTER-LIGAND FREE ENERGY PREDICTED BY IDOCK:   -8.41 KCAL/MOL
REMARK 924 INTRA-LIGAND FREE ENERGY PREDICTED BY IDOCK:   -0.08 KCAL/MOL
REMARK 927      BINDING AFFINITY PREDICTED BY RF-SCORE:    0.00 PKD
ROOT
HETATM    1 CL   UNL     1     -12.900  15.448  70.675  1.00  0.00    -0.489 Cl 
HETATM    2  C   UNL     1     -12.493  13.770  70.731  1.00  0.00    -0.370 A  
HETATM    3  C   UNL     1     -11.757  13.150  69.685  1.00  0.00    -0.370 A  
HETATM    4  O   UNL     1     -14.119   8.431  71.466  1.00  0.00    -0.394 OA 
HETATM    5  C   UNL     1     -11.327  11.817  69.818  1.00  0.00    -0.245 A  
HETATM    6  C   UNL     1     -11.925  11.063  70.806  1.00  0.00    -0.436 A  
HETATM    7  N   UNL     1     -13.728  10.639  72.113  1.00  0.00    -0.063 NA 
HETATM    8  C   UNL     1     -12.004   9.571  70.926  1.00  0.00    -0.372 C  
HETATM    9  C   UNL     1     -13.079  12.995  71.731  1.00  0.00    -0.469 A  
HETATM   10  C   UNL     1     -12.871  11.637  71.652  1.00  0.00    -0.349 A  
HETATM   11  C   UNL     1     -13.403   9.417  71.522  1.00  0.00    -0.386 C  
ENDROOT
BRANCH   3  12
HETATM   12  C   UNL     1     -11.947  13.641  68.258  1.00  0.00    -0.385 C  
BRANCH  12  13
HETATM   13  C   UNL     1     -10.758  13.976  67.348  1.00  0.00    -0.283 C  
BRANCH  13  14
HETATM   14  N   UNL     1     -10.579  15.445  67.345  1.00  0.00    -0.283 NA 
HETATM   15  N   UNL     1      -7.783  16.506  67.550  1.00  0.00    -0.144 NA 
HETATM   16  C   UNL     1      -9.938  15.965  68.568  1.00  0.00    -0.216 C  
HETATM   17  C   UNL     1      -9.878  15.995  66.164  1.00  0.00    -0.325 C  
HETATM   18  C   UNL     1      -8.325  16.218  66.207  1.00  0.00    -0.308 C  
HETATM   19  C   UNL     1      -8.427  15.704  68.598  1.00  0.00    -0.179 C  
BRANCH  15  20
HETATM   20  C   UNL     1      -7.443  17.794  67.922  1.00  0.00    -0.210 A  
HETATM   21  N   UNL     1      -7.357  18.163  69.192  1.00  0.00    -0.181 NA 
HETATM   22  S   UNL     1      -6.699  19.666  69.317  1.00  0.00    -0.354 SA 
HETATM   23  C   UNL     1      -6.465  19.894  67.635  1.00  0.00    -0.220 A  
HETATM   24  C   UNL     1      -5.866  20.983  66.986  1.00  0.00    -0.318 A  
HETATM   25  C   UNL     1      -5.795  20.957  65.591  1.00  0.00    -0.273 A  
HETATM   26  C   UNL     1      -6.316  19.880  64.887  1.00  0.00    -0.324 A  
HETATM   27  C   UNL     1      -6.890  18.789  65.543  1.00  0.00    -0.251 A  
HETATM   28  C   UNL     1      -6.994  18.790  66.969  1.00  0.00    -0.212 A  
ENDBRANCH  15  20
ENDBRANCH  13  14
ENDBRANCH  12  13
ENDBRANCH   3  12
TORSDOF 4
ENDMDL
MODEL       33
REMARK 921   NORMALIZED FREE ENERGY PREDICTED BY IDOCK:   -6.46 KCAL/MOL
REMARK 922        TOTAL FREE ENERGY PREDICTED BY IDOCK:   -8.49 KCAL/MOL
REMARK 923 INTER-LIGAND FREE ENERGY PREDICTED BY IDOCK:   -8.08 KCAL/MOL
REMARK 924 INTRA-LIGAND FREE ENERGY PREDICTED BY IDOCK:   -0.41 KCAL/MOL
REMARK 927      BINDING AFFINITY PREDICTED BY RF-SCORE:    0.00 PKD
ROOT
HETATM    1 CL   UNL     1     -12.916  10.266  70.863  1.00  0.00    -0.457 Cl 
HETATM    2  C   UNL     1     -11.842   9.125  71.592  1.00  0.00    -0.372 A  
HETATM    3  C   UNL     1     -10.433   9.227  71.433  1.00  0.00    -0.408 A  
HETATM    4  O   UNL     1     -10.397   3.763  72.510  1.00  0.00    -0.168 OA 
HETATM    5  C   UNL     1      -9.579   8.364  72.144  1.00  0.00    -0.367 A  
HETATM    6  C   UNL     1     -10.149   7.238  72.700  1.00  0.00    -0.233 A  
HETATM    7  N   UNL     1     -11.764   5.649  72.660  1.00  0.00    -0.268 NA 
HETATM    8  C   UNL     1      -9.483   5.965  73.126  1.00  0.00    -0.143 C  
HETATM    9  C   UNL     1     -12.402   7.987  72.169  1.00  0.00    -0.358 A  
HETATM   10  C   UNL     1     -11.519   7.019  72.592  1.00  0.00    -0.211 A  
HETATM   11  C   UNL     1     -10.558   4.950  72.740  1.00  0.00    -0.217 C  
ENDROOT
BRANCH   3  12
HETATM   12  C   UNL     1      -9.874   9.782  70.132  1.00  0.00    -0.306 C  
BRANCH  12  13
HETATM   13  C   UNL     1      -9.604   8.887  68.916  1.00  0.00    -0.160 C  
BRANCH  13  14
HETATM   14  N   UNL     1     -10.566   9.251  67.852  1.00  0.00    -0.246 NA 
HETATM   15  N   UNL     1      -9.652  11.187  65.753  1.00  0.00    -0.212 NA 
HETATM   16  C   UNL     1     -10.881  10.691  67.807  1.00  0.00    -0.286 C  
HETATM   17  C   UNL     1     -10.207   8.795  66.491  1.00  0.00    -0.244 C  
HETATM   18  C   UNL     1      -9.412   9.747  65.528  1.00  0.00    -0.262 C  
HETATM   19  C   UNL     1      -9.754  11.522  67.180  1.00  0.00    -0.183 C  
BRANCH  15  20
HETATM   20  C   UNL     1     -10.484  11.911  64.919  1.00  0.00    -0.287 A  
HETATM   21  N   UNL     1     -11.385  11.327  64.140  1.00  0.00    -0.185 NA 
HETATM   22  S   UNL     1     -12.378  12.448  63.459  1.00  0.00    -0.496 SA 
HETATM   23  C   UNL     1     -11.652  13.805  64.212  1.00  0.00    -0.369 A  
HETATM   24  C   UNL     1     -12.039  15.149  64.129  1.00  0.00    -0.195 A  
HETATM   25  C   UNL     1     -11.282  16.094  64.826  1.00  0.00    -0.313 A  
HETATM   26  C   UNL     1     -10.178  15.694  65.565  1.00  0.00    -0.414 A  
HETATM   27  C   UNL     1      -9.813  14.350  65.661  1.00  0.00    -0.322 A  
HETATM   28  C   UNL     1     -10.555  13.358  64.948  1.00  0.00    -0.398 A  
ENDBRANCH  15  20
ENDBRANCH  13  14
ENDBRANCH  12  13
ENDBRANCH   3  12
TORSDOF 4
ENDMDL
MODEL       34
REMARK 921   NORMALIZED FREE ENERGY PREDICTED BY IDOCK:   -6.46 KCAL/MOL
REMARK 922        TOTAL FREE ENERGY PREDICTED BY IDOCK:   -8.49 KCAL/MOL
REMARK 923 INTER-LIGAND FREE ENERGY PREDICTED BY IDOCK:   -7.92 KCAL/MOL
REMARK 924 INTRA-LIGAND FREE ENERGY PREDICTED BY IDOCK:   -0.56 KCAL/MOL
REMARK 927      BINDING AFFINITY PREDICTED BY RF-SCORE:    0.00 PKD
ROOT
HETATM    1 CL   UNL     1     -13.419  13.207  72.501  1.00  0.00    -0.646 Cl 
HETATM    2  C   UNL     1     -12.698  12.860  70.970  1.00  0.00    -0.251 A  
HETATM    3  C   UNL     1     -12.502  11.523  70.528  1.00  0.00    -0.367 A  
HETATM    4  O   UNL     1      -8.486  13.675  67.325  1.00  0.00    -0.188 OA 
HETATM    5  C   UNL     1     -12.034  11.272  69.225  1.00  0.00    -0.411 A  
HETATM    6  C   UNL     1     -11.464  12.331  68.551  1.00  0.00    -0.349 A  
HETATM    7  N   UNL     1     -10.337  14.296  68.604  1.00  0.00    -0.243 NA 
HETATM    8  C   UNL     1     -10.528  12.300  67.380  1.00  0.00    -0.228 C  
HETATM    9  C   UNL     1     -12.127  13.921  70.269  1.00  0.00    -0.423 A  
HETATM   10  C   UNL     1     -11.415  13.592  69.138  1.00  0.00    -0.297 A  
HETATM   11  C   UNL     1      -9.624  13.485  67.719  1.00  0.00    -0.219 C  
ENDROOT
BRANCH   3  12
HETATM   12  C   UNL     1     -12.202  10.442  71.555  1.00  0.00    -0.418 C  
BRANCH  12  13
HETATM   13  C   UNL     1     -13.138   9.247  71.776  1.00  0.00    -0.400 C  
BRANCH  13  14
HETATM   14  N   UNL     1     -12.338   8.130  72.325  1.00  0.00    -0.336 NA 
HETATM   15  N   UNL     1     -10.537   6.649  70.440  1.00  0.00    -0.214 NA 
HETATM   16  C   UNL     1     -12.628   6.829  71.694  1.00  0.00    -0.333 C  
HETATM   17  C   UNL     1     -10.874   8.344  72.335  1.00  0.00    -0.346 C  
HETATM   18  C   UNL     1      -9.999   7.837  71.134  1.00  0.00    -0.176 C  
HETATM   19  C   UNL     1     -11.998   6.696  70.301  1.00  0.00    -0.240 C  
BRANCH  15  20
HETATM   20  C   UNL     1     -10.007   5.392  70.664  1.00  0.00    -0.214 A  
HETATM   21  N   UNL     1      -9.902   4.876  71.881  1.00  0.00    -0.176 NA 
HETATM   22  S   UNL     1      -9.472   3.290  71.805  1.00  0.00    -0.156 SA 
HETATM   23  C   UNL     1      -9.429   3.203  70.094  1.00  0.00    -0.148 A  
HETATM   24  C   UNL     1      -9.176   2.082  69.292  1.00  0.00    -0.188 A  
HETATM   25  C   UNL     1      -9.181   2.253  67.906  1.00  0.00    -0.240 A  
HETATM   26  C   UNL     1      -9.421   3.506  67.359  1.00  0.00    -0.234 A  
HETATM   27  C   UNL     1      -9.694   4.612  68.165  1.00  0.00    -0.197 A  
HETATM   28  C   UNL     1      -9.682   4.477  69.588  1.00  0.00    -0.288 A  
ENDBRANCH  15  20
ENDBRANCH  13  14
ENDBRANCH  12  13
ENDBRANCH   3  12
TORSDOF 4
ENDMDL
MODEL       35
REMARK 921   NORMALIZED FREE ENERGY PREDICTED BY IDOCK:   -6.40 KCAL/MOL
REMARK 922        TOTAL FREE ENERGY PREDICTED BY IDOCK:   -8.42 KCAL/MOL
REMARK 923 INTER-LIGAND FREE ENERGY PREDICTED BY IDOCK:   -7.90 KCAL/MOL
REMARK 924 INTRA-LIGAND FREE ENERGY PREDICTED BY IDOCK:   -0.52 KCAL/MOL
REMARK 927      BINDING AFFINITY PREDICTED BY RF-SCORE:    0.00 PKD
ROOT
HETATM    1 CL   UNL     1      -7.082   7.197  72.025  1.00  0.00    -0.071 Cl 
HETATM    2  C   UNL     1      -8.794   6.972  71.966  1.00  0.00    -0.127 A  
HETATM    3  C   UNL     1      -9.389   6.032  71.081  1.00  0.00    -0.174 A  
HETATM    4  O   UNL     1     -13.943   9.205  71.534  1.00  0.00    -0.354 OA 
HETATM    5  C   UNL     1     -10.770   5.776  71.147  1.00  0.00    -0.327 A  
HETATM    6  C   UNL     1     -11.544   6.690  71.832  1.00  0.00    -0.344 A  
HETATM    7  N   UNL     1     -11.877   8.815  72.546  1.00  0.00    -0.289 NA 
HETATM    8  C   UNL     1     -13.020   6.931  71.729  1.00  0.00    -0.326 C  
HETATM    9  C   UNL     1      -9.591   7.879  72.663  1.00  0.00    -0.290 A  
HETATM   10  C   UNL     1     -10.949   7.778  72.464  1.00  0.00    -0.338 A  
HETATM   11  C   UNL     1     -13.063   8.448  71.906  1.00  0.00    -0.358 C  
ENDROOT
BRANCH   3  12
HETATM   12  C   UNL     1      -8.735   5.773  69.732  1.00  0.00    -0.127 C  
BRANCH  12  13
HETATM   13  C   UNL     1      -8.475   6.899  68.724  1.00  0.00    -0.121 C  
BRANCH  13  14
HETATM   14  N   UNL     1      -9.732   7.661  68.548  1.00  0.00    -0.155 NA 
HETATM   15  N   UNL     1      -9.604  10.215  66.983  1.00  0.00    -0.167 NA 
HETATM   16  C   UNL     1      -9.683   9.022  69.115  1.00  0.00    -0.167 C  
HETATM   17  C   UNL     1     -10.237   7.736  67.159  1.00  0.00    -0.295 C  
HETATM   18  C   UNL     1      -9.853   8.957  66.250  1.00  0.00    -0.285 C  
HETATM   19  C   UNL     1      -8.881   9.996  68.242  1.00  0.00    -0.116 C  
BRANCH  15  20
HETATM   20  C   UNL     1     -10.553  11.220  67.017  1.00  0.00    -0.246 A  
HETATM   21  N   UNL     1     -10.895  11.830  68.144  1.00  0.00    -0.206 NA 
HETATM   22  S   UNL     1     -11.851  13.132  67.831  1.00  0.00    -0.318 SA 
HETATM   23  C   UNL     1     -11.833  12.958  66.127  1.00  0.00    -0.429 A  
HETATM   24  C   UNL     1     -12.422  13.792  65.167  1.00  0.00    -0.483 A  
HETATM   25  C   UNL     1     -12.286  13.441  63.821  1.00  0.00    -0.482 A  
HETATM   26  C   UNL     1     -11.592  12.292  63.468  1.00  0.00    -0.570 A  
HETATM   27  C   UNL     1     -10.990  11.479  64.429  1.00  0.00    -0.390 A  
HETATM   28  C   UNL     1     -11.122  11.799  65.817  1.00  0.00    -0.351 A  
ENDBRANCH  15  20
ENDBRANCH  13  14
ENDBRANCH  12  13
ENDBRANCH   3  12
TORSDOF 4
ENDMDL
MODEL       36
REMARK 921   NORMALIZED FREE ENERGY PREDICTED BY IDOCK:   -6.39 KCAL/MOL
REMARK 922        TOTAL FREE ENERGY PREDICTED BY IDOCK:   -8.41 KCAL/MOL
REMARK 923 INTER-LIGAND FREE ENERGY PREDICTED BY IDOCK:   -8.09 KCAL/MOL
REMARK 924 INTRA-LIGAND FREE ENERGY PREDICTED BY IDOCK:   -0.31 KCAL/MOL
REMARK 927      BINDING AFFINITY PREDICTED BY RF-SCORE:    0.00 PKD
ROOT
HETATM    1 CL   UNL     1      -9.824  15.555  69.706  1.00  0.00    -0.289 Cl 
HETATM    2  C   UNL     1      -9.689  16.891  68.619  1.00  0.00    -0.267 A  
HETATM    3  C   UNL     1     -10.491  16.978  67.448  1.00  0.00    -0.322 A  
HETATM    4  O   UNL     1      -6.437  20.258  65.492  1.00  0.00    -0.222 OA 
HETATM    5  C   UNL     1     -10.454  18.138  66.652  1.00  0.00    -0.354 A  
HETATM    6  C   UNL     1      -9.395  18.998  66.850  1.00  0.00    -0.346 A  
HETATM    7  N   UNL     1      -7.241  19.327  67.476  1.00  0.00    -0.220 NA 
HETATM    8  C   UNL     1      -8.852  20.044  65.923  1.00  0.00    -0.146 C  
HETATM    9  C   UNL     1      -8.630  17.777  68.811  1.00  0.00    -0.206 A  
HETATM   10  C   UNL     1      -8.448  18.732  67.836  1.00  0.00    -0.292 A  
HETATM   11  C   UNL     1      -7.358  19.927  66.220  1.00  0.00    -0.288 C  
ENDROOT
BRANCH   3  12
HETATM   12  C   UNL     1     -10.891  15.699  66.729  1.00  0.00    -0.277 C  
BRANCH  12  13
HETATM   13  C   UNL     1      -9.856  14.777  66.073  1.00  0.00    -0.324 C  
BRANCH  13  14
HETATM   14  N   UNL     1     -10.381  13.394  66.109  1.00  0.00    -0.289 NA 
HETATM   15  N   UNL     1     -10.592  12.056  68.783  1.00  0.00    -0.227 NA 
HETATM   16  C   UNL     1      -9.428  12.414  66.663  1.00  0.00    -0.232 C  
HETATM   17  C   UNL     1     -11.687  13.231  66.784  1.00  0.00    -0.385 C  
HETATM   18  C   UNL     1     -11.741  12.852  68.307  1.00  0.00    -0.350 C  
HETATM   19  C   UNL     1      -9.322  12.496  68.192  1.00  0.00    -0.210 C  
BRANCH  15  20
HETATM   20  C   UNL     1     -10.705  10.693  68.987  1.00  0.00    -0.221 A  
HETATM   21  N   UNL     1      -9.992   9.814  68.295  1.00  0.00    -0.149 NA 
HETATM   22  S   UNL     1     -10.160   8.304  68.927  1.00  0.00    -0.202 SA 
HETATM   23  C   UNL     1     -11.200   8.766  70.208  1.00  0.00    -0.195 A  
HETATM   24  C   UNL     1     -11.722   7.960  71.230  1.00  0.00    -0.313 A  
HETATM   25  C   UNL     1     -12.568   8.558  72.168  1.00  0.00    -0.431 A  
HETATM   26  C   UNL     1     -12.876   9.907  72.068  1.00  0.00    -0.488 A  
HETATM   27  C   UNL     1     -12.333  10.707  71.061  1.00  0.00    -0.507 A  
HETATM   28  C   UNL     1     -11.476  10.125  70.074  1.00  0.00    -0.344 A  
ENDBRANCH  15  20
ENDBRANCH  13  14
ENDBRANCH  12  13
ENDBRANCH   3  12
TORSDOF 4
ENDMDL
MODEL       37
REMARK 921   NORMALIZED FREE ENERGY PREDICTED BY IDOCK:   -6.38 KCAL/MOL
REMARK 922        TOTAL FREE ENERGY PREDICTED BY IDOCK:   -8.39 KCAL/MOL
REMARK 923 INTER-LIGAND FREE ENERGY PREDICTED BY IDOCK:   -7.84 KCAL/MOL
REMARK 924 INTRA-LIGAND FREE ENERGY PREDICTED BY IDOCK:   -0.55 KCAL/MOL
REMARK 927      BINDING AFFINITY PREDICTED BY RF-SCORE:    0.00 PKD
ROOT
HETATM    1 CL   UNL     1      -7.654  10.711  62.368  1.00  0.00    -0.177 Cl 
HETATM    2  C   UNL     1      -8.512  10.357  63.825  1.00  0.00    -0.162 A  
HETATM    3  C   UNL     1      -9.900  10.636  63.955  1.00  0.00    -0.398 A  
HETATM    4  O   UNL     1      -8.877  10.751  69.428  1.00  0.00    -0.093 OA 
HETATM    5  C   UNL     1     -10.600  10.217  65.101  1.00  0.00     0.081 A  
HETATM    6  C   UNL     1      -9.845   9.856  66.197  1.00  0.00    -0.324 A  
HETATM    7  N   UNL     1      -7.938  10.063  67.405  1.00  0.00    -0.106 NA 
HETATM    8  C   UNL     1     -10.259   9.781  67.636  1.00  0.00    -0.261 C  
HETATM    9  C   UNL     1      -7.765   9.979  64.939  1.00  0.00    -0.138 A  
HETATM   10  C   UNL     1      -8.454   9.865  66.126  1.00  0.00    -0.125 A  
HETATM   11  C   UNL     1      -8.977  10.260  68.317  1.00  0.00    -0.132 C  
ENDROOT
BRANCH   3  12
HETATM   12  C   UNL     1     -10.481  11.841  63.232  1.00  0.00    -0.439 C  
BRANCH  12  13
HETATM   13  C   UNL     1     -11.837  12.445  63.619  1.00  0.00    -0.526 C  
BRANCH  13  14
HETATM   14  N   UNL     1     -11.591  13.746  64.281  1.00  0.00    -0.385 NA 
HETATM   15  N   UNL     1     -10.823  13.707  67.179  1.00  0.00    -0.283 NA 
HETATM   16  C   UNL     1     -12.493  14.010  65.419  1.00  0.00    -0.498 C  
HETATM   17  C   UNL     1     -10.195  13.984  64.708  1.00  0.00    -0.301 C  
HETATM   18  C   UNL     1      -9.749  13.622  66.169  1.00  0.00    -0.255 C  
HETATM   19  C   UNL     1     -12.109  13.211  66.672  1.00  0.00    -0.346 C  
BRANCH  15  20
HETATM   20  C   UNL     1     -10.908  14.785  68.041  1.00  0.00    -0.260 A  
HETATM   21  N   UNL     1     -11.110  14.633  69.343  1.00  0.00    -0.261 NA 
HETATM   22  S   UNL     1     -10.916  16.064  70.131  1.00  0.00    -0.361 SA 
HETATM   23  C   UNL     1     -10.515  16.978  68.738  1.00  0.00    -0.347 A  
HETATM   24  C   UNL     1     -10.153  18.330  68.667  1.00  0.00    -0.407 A  
HETATM   25  C   UNL     1      -9.879  18.870  67.408  1.00  0.00    -0.373 A  
HETATM   26  C   UNL     1      -9.977  18.076  66.273  1.00  0.00    -0.338 A  
HETATM   27  C   UNL     1     -10.316  16.725  66.356  1.00  0.00    -0.309 A  
HETATM   28  C   UNL     1     -10.619  16.143  67.627  1.00  0.00    -0.315 A  
ENDBRANCH  15  20
ENDBRANCH  13  14
ENDBRANCH  12  13
ENDBRANCH   3  12
TORSDOF 4
ENDMDL
MODEL       38
REMARK 921   NORMALIZED FREE ENERGY PREDICTED BY IDOCK:   -6.36 KCAL/MOL
REMARK 922        TOTAL FREE ENERGY PREDICTED BY IDOCK:   -8.37 KCAL/MOL
REMARK 923 INTER-LIGAND FREE ENERGY PREDICTED BY IDOCK:   -7.96 KCAL/MOL
REMARK 924 INTRA-LIGAND FREE ENERGY PREDICTED BY IDOCK:   -0.41 KCAL/MOL
REMARK 927      BINDING AFFINITY PREDICTED BY RF-SCORE:    0.00 PKD
ROOT
HETATM    1 CL   UNL     1      -9.947   9.234  66.871  1.00  0.00    -0.275 Cl 
HETATM    2  C   UNL     1     -10.651   9.041  68.437  1.00  0.00    -0.154 A  
HETATM    3  C   UNL     1     -11.335  10.109  69.079  1.00  0.00    -0.188 A  
HETATM    4  O   UNL     1     -10.121   7.415  73.799  1.00  0.00    -0.327 OA 
HETATM    5  C   UNL     1     -12.011   9.886  70.293  1.00  0.00    -0.209 A  
HETATM    6  C   UNL     1     -11.698   8.732  70.979  1.00  0.00    -0.329 A  
HETATM    7  N   UNL     1     -10.197   7.112  71.487  1.00  0.00    -0.198 NA 
HETATM    8  C   UNL     1     -11.904   8.421  72.431  1.00  0.00    -0.452 C  
HETATM    9  C   UNL     1     -10.355   7.875  69.140  1.00  0.00    -0.225 A  
HETATM   10  C   UNL     1     -10.790   7.821  70.445  1.00  0.00    -0.244 A  
HETATM   11  C   UNL     1     -10.650   7.595  72.716  1.00  0.00    -0.325 C  
ENDROOT
BRANCH   3  12
HETATM   12  C   UNL     1     -10.867  11.536  68.838  1.00  0.00    -0.263 C  
BRANCH  12  13
HETATM   13  C   UNL     1     -11.584  12.474  67.858  1.00  0.00    -0.347 C  
BRANCH  13  14
HETATM   14  N   UNL     1     -10.556  13.206  67.085  1.00  0.00    -0.256 NA 
HETATM   15  N   UNL     1      -9.270  15.583  68.382  1.00  0.00    -0.187 NA 
HETATM   16  C   UNL     1     -10.899  14.618  66.835  1.00  0.00    -0.305 C  
HETATM   17  C   UNL     1      -9.183  13.133  67.630  1.00  0.00    -0.207 C  
HETATM   18  C   UNL     1      -8.663  14.254  68.599  1.00  0.00    -0.150 C  
HETATM   19  C   UNL     1     -10.704  15.500  68.076  1.00  0.00    -0.283 C  
BRANCH  15  20
HETATM   20  C   UNL     1      -8.583  16.582  67.716  1.00  0.00    -0.177 A  
HETATM   21  N   UNL     1      -7.580  16.319  66.889  1.00  0.00    -0.221 NA 
HETATM   22  S   UNL     1      -7.134  17.673  66.069  1.00  0.00    -0.222 SA 
HETATM   23  C   UNL     1      -8.307  18.701  66.777  1.00  0.00    -0.281 A  
HETATM   24  C   UNL     1      -8.558  20.051  66.493  1.00  0.00    -0.366 A  
HETATM   25  C   UNL     1      -9.567  20.696  67.212  1.00  0.00    -0.558 A  
HETATM   26  C   UNL     1     -10.282  20.006  68.181  1.00  0.00    -0.535 A  
HETATM   27  C   UNL     1     -10.041  18.656  68.442  1.00  0.00    -0.426 A  
HETATM   28  C   UNL     1      -9.005  17.968  67.736  1.00  0.00    -0.255 A  
ENDBRANCH  15  20
ENDBRANCH  13  14
ENDBRANCH  12  13
ENDBRANCH   3  12
TORSDOF 4
ENDMDL
MODEL       39
REMARK 921   NORMALIZED FREE ENERGY PREDICTED BY IDOCK:   -6.35 KCAL/MOL
REMARK 922        TOTAL FREE ENERGY PREDICTED BY IDOCK:   -8.35 KCAL/MOL
REMARK 923 INTER-LIGAND FREE ENERGY PREDICTED BY IDOCK:   -7.60 KCAL/MOL
REMARK 924 INTRA-LIGAND FREE ENERGY PREDICTED BY IDOCK:   -0.76 KCAL/MOL
REMARK 927      BINDING AFFINITY PREDICTED BY RF-SCORE:    0.00 PKD
ROOT
HETATM    1 CL   UNL     1     -12.785  11.971  63.541  1.00  0.00    -0.648 Cl 
HETATM    2  C   UNL     1     -11.822  12.717  64.767  1.00  0.00    -0.380 A  
HETATM    3  C   UNL     1     -10.510  12.255  65.063  1.00  0.00    -0.322 A  
HETATM    4  O   UNL     1     -11.336  14.575  70.058  1.00  0.00    -0.259 OA 
HETATM    5  C   UNL     1      -9.702  12.962  65.972  1.00  0.00    -0.228 A  
HETATM    6  C   UNL     1     -10.332  13.875  66.791  1.00  0.00    -0.272 A  
HETATM    7  N   UNL     1     -12.197  14.546  67.889  1.00  0.00    -0.211 NA 
HETATM    8  C   UNL     1      -9.859  14.448  68.093  1.00  0.00    -0.223 C  
HETATM    9  C   UNL     1     -12.440  13.651  65.597  1.00  0.00    -0.540 A  
HETATM   10  C   UNL     1     -11.700  14.104  66.665  1.00  0.00    -0.403 A  
HETATM   11  C   UNL     1     -11.183  14.542  68.849  1.00  0.00    -0.262 C  
ENDROOT
BRANCH   3  12
HETATM   12  C   UNL     1     -10.199  10.773  64.920  1.00  0.00    -0.388 C  
BRANCH  12  13
HETATM   13  C   UNL     1      -9.551   9.965  66.050  1.00  0.00    -0.225 C  
BRANCH  13  14
HETATM   14  N   UNL     1     -10.610   9.584  67.012  1.00  0.00    -0.231 NA 
HETATM   15  N   UNL     1      -9.751   8.642  69.726  1.00  0.00    -0.174 NA 
HETATM   16  C   UNL     1     -10.529   8.180  67.455  1.00  0.00    -0.285 C  
HETATM   17  C   UNL     1     -10.729  10.457  68.200  1.00  0.00    -0.236 C  
HETATM   18  C   UNL     1      -9.967  10.089  69.524  1.00  0.00    -0.228 C  
HETATM   19  C   UNL     1      -9.409   7.947  68.478  1.00  0.00    -0.141 C  
BRANCH  15  20
HETATM   20  C   UNL     1     -10.536   7.919  70.605  1.00  0.00    -0.213 A  
HETATM   21  N   UNL     1     -11.842   8.119  70.714  1.00  0.00    -0.218 NA 
HETATM   22  S   UNL     1     -12.532   6.954  71.647  1.00  0.00    -0.354 SA 
HETATM   23  C   UNL     1     -11.085   6.084  71.939  1.00  0.00    -0.277 A  
HETATM   24  C   UNL     1     -10.925   4.886  72.649  1.00  0.00    -0.255 A  
HETATM   25  C   UNL     1      -9.635   4.363  72.770  1.00  0.00    -0.171 A  
HETATM   26  C   UNL     1      -8.557   5.029  72.205  1.00  0.00    -0.125 A  
HETATM   27  C   UNL     1      -8.729   6.210  71.480  1.00  0.00    -0.135 A  
HETATM   28  C   UNL     1     -10.033   6.783  71.350  1.00  0.00    -0.191 A  
ENDBRANCH  15  20
ENDBRANCH  13  14
ENDBRANCH  12  13
ENDBRANCH   3  12
TORSDOF 4
ENDMDL
MODEL       40
REMARK 921   NORMALIZED FREE ENERGY PREDICTED BY IDOCK:   -6.34 KCAL/MOL
REMARK 922        TOTAL FREE ENERGY PREDICTED BY IDOCK:   -8.35 KCAL/MOL
REMARK 923 INTER-LIGAND FREE ENERGY PREDICTED BY IDOCK:   -7.73 KCAL/MOL
REMARK 924 INTRA-LIGAND FREE ENERGY PREDICTED BY IDOCK:   -0.62 KCAL/MOL
REMARK 927      BINDING AFFINITY PREDICTED BY RF-SCORE:    0.00 PKD
ROOT
HETATM    1 CL   UNL     1      -7.584   6.352  71.308  1.00  0.00    -0.093 Cl 
HETATM    2  C   UNL     1      -9.303   6.500  71.220  1.00  0.00    -0.155 A  
HETATM    3  C   UNL     1     -10.001   6.322  69.995  1.00  0.00    -0.208 A  
HETATM    4  O   UNL     1     -13.957   9.459  72.345  1.00  0.00    -0.426 OA 
HETATM    5  C   UNL     1     -11.408   6.318  69.977  1.00  0.00    -0.486 A  
HETATM    6  C   UNL     1     -12.048   6.822  71.090  1.00  0.00    -0.422 A  
HETATM    7  N   UNL     1     -12.049   8.223  72.871  1.00  0.00    -0.223 NA 
HETATM    8  C   UNL     1     -13.452   7.333  71.210  1.00  0.00    -0.333 C  
HETATM    9  C   UNL     1      -9.968   6.996  72.340  1.00  0.00    -0.184 A  
HETATM   10  C   UNL     1     -11.311   7.260  72.186  1.00  0.00    -0.265 A  
HETATM   11  C   UNL     1     -13.243   8.483  72.195  1.00  0.00    -0.352 C  
ENDROOT
BRANCH   3  12
HETATM   12  C   UNL     1      -9.328   6.739  68.695  1.00  0.00    -0.131 C  
BRANCH  12  13
HETATM   13  C   UNL     1      -9.053   8.209  68.356  1.00  0.00    -0.136 C  
BRANCH  13  14
HETATM   14  N   UNL     1      -9.864   8.569  67.172  1.00  0.00    -0.186 NA 
HETATM   15  N   UNL     1      -9.385  11.252  65.922  1.00  0.00    -0.214 NA 
HETATM   16  C   UNL     1     -10.691   9.775  67.368  1.00  0.00    -0.249 C  
HETATM   17  C   UNL     1      -9.111   8.702  65.906  1.00  0.00    -0.205 C  
HETATM   18  C   UNL     1      -8.576  10.108  65.455  1.00  0.00    -0.155 C  
HETATM   19  C   UNL     1      -9.872  11.070  67.296  1.00  0.00    -0.178 C  
BRANCH  15  20
HETATM   20  C   UNL     1     -10.259  11.903  65.071  1.00  0.00    -0.278 A  
HETATM   21  N   UNL     1     -11.117  11.247  64.302  1.00  0.00    -0.295 NA 
HETATM   22  S   UNL     1     -12.178  12.287  63.597  1.00  0.00    -0.567 SA 
HETATM   23  C   UNL     1     -11.544  13.703  64.324  1.00  0.00    -0.382 A  
HETATM   24  C   UNL     1     -12.017  15.018  64.212  1.00  0.00    -0.310 A  
HETATM   25  C   UNL     1     -11.325  16.024  64.891  1.00  0.00    -0.232 A  
HETATM   26  C   UNL     1     -10.200  15.711  65.641  1.00  0.00    -0.402 A  
HETATM   27  C   UNL     1      -9.749  14.396  65.766  1.00  0.00    -0.283 A  
HETATM   28  C   UNL     1     -10.424  13.343  65.071  1.00  0.00    -0.378 A  
ENDBRANCH  15  20
ENDBRANCH  13  14
ENDBRANCH  12  13
ENDBRANCH   3  12
TORSDOF 4
ENDMDL
MODEL       41
REMARK 921   NORMALIZED FREE ENERGY PREDICTED BY IDOCK:   -6.33 KCAL/MOL
REMARK 922        TOTAL FREE ENERGY PREDICTED BY IDOCK:   -8.33 KCAL/MOL
REMARK 923 INTER-LIGAND FREE ENERGY PREDICTED BY IDOCK:   -7.78 KCAL/MOL
REMARK 924 INTRA-LIGAND FREE ENERGY PREDICTED BY IDOCK:   -0.56 KCAL/MOL
REMARK 927      BINDING AFFINITY PREDICTED BY RF-SCORE:    0.00 PKD
ROOT
HETATM    1 CL   UNL     1     -10.502   8.154  67.664  1.00  0.00    -0.306 Cl 
HETATM    2  C   UNL     1     -10.611   7.971  69.378  1.00  0.00    -0.205 A  
HETATM    3  C   UNL     1     -11.007   9.049  70.216  1.00  0.00    -0.274 A  
HETATM    4  O   UNL     1      -8.247   6.330  74.216  1.00  0.00    -0.114 OA 
HETATM    5  C   UNL     1     -11.214   8.836  71.591  1.00  0.00    -0.394 A  
HETATM    6  C   UNL     1     -10.697   7.676  72.128  1.00  0.00    -0.289 A  
HETATM    7  N   UNL     1      -9.139   6.030  72.080  1.00  0.00    -0.143 NA 
HETATM    8  C   UNL     1     -10.382   7.366  73.561  1.00  0.00    -0.405 C  
HETATM    9  C   UNL     1     -10.105   6.799  69.937  1.00  0.00    -0.195 A  
HETATM   10  C   UNL     1     -10.051   6.751  71.312  1.00  0.00    -0.187 A  
HETATM   11  C   UNL     1      -9.121   6.519  73.388  1.00  0.00    -0.128 C  
ENDROOT
BRANCH   3  12
HETATM   12  C   UNL     1     -10.632  10.469  69.819  1.00  0.00    -0.274 C  
BRANCH  12  13
HETATM   13  C   UNL     1     -11.671  11.595  69.745  1.00  0.00    -0.352 C  
BRANCH  13  14
HETATM   14  N   UNL     1     -11.571  12.227  68.410  1.00  0.00    -0.304 NA 
HETATM   15  N   UNL     1     -10.070  14.815  68.207  1.00  0.00    -0.217 NA 
HETATM   16  C   UNL     1     -12.171  13.573  68.348  1.00  0.00    -0.115 C  
HETATM   17  C   UNL     1     -10.208  12.281  67.836  1.00  0.00    -0.200 C  
HETATM   18  C   UNL     1      -9.315  13.554  68.053  1.00  0.00    -0.213 C  
HETATM   19  C   UNL     1     -11.290  14.643  69.006  1.00  0.00    -0.277 C  
BRANCH  15  20
HETATM   20  C   UNL     1     -10.172  15.717  67.164  1.00  0.00    -0.279 A  
HETATM   21  N   UNL     1     -10.542  15.349  65.945  1.00  0.00    -0.322 NA 
HETATM   22  S   UNL     1     -10.809  16.666  64.997  1.00  0.00    -0.023 SA 
HETATM   23  C   UNL     1     -10.460  17.827  66.208  1.00  0.00    -0.307 A  
HETATM   24  C   UNL     1     -10.543  19.223  66.115  1.00  0.00    -0.549 A  
HETATM   25  C   UNL     1     -10.195  19.976  67.239  1.00  0.00    -0.565 A  
HETATM   26  C   UNL     1      -9.772  19.342  68.399  1.00  0.00    -0.488 A  
HETATM   27  C   UNL     1      -9.715  17.951  68.490  1.00  0.00    -0.352 A  
HETATM   28  C   UNL     1     -10.049  17.149  67.354  1.00  0.00    -0.301 A  
ENDBRANCH  15  20
ENDBRANCH  13  14
ENDBRANCH  12  13
ENDBRANCH   3  12
TORSDOF 4
ENDMDL
MODEL       42
REMARK 921   NORMALIZED FREE ENERGY PREDICTED BY IDOCK:   -6.31 KCAL/MOL
REMARK 922        TOTAL FREE ENERGY PREDICTED BY IDOCK:   -8.31 KCAL/MOL
REMARK 923 INTER-LIGAND FREE ENERGY PREDICTED BY IDOCK:   -8.34 KCAL/MOL
REMARK 924 INTRA-LIGAND FREE ENERGY PREDICTED BY IDOCK:    0.04 KCAL/MOL
REMARK 927      BINDING AFFINITY PREDICTED BY RF-SCORE:    0.00 PKD
ROOT
HETATM    1 CL   UNL     1      -8.640   4.756  66.550  1.00  0.00    -0.109 Cl 
HETATM    2  C   UNL     1      -9.668   5.268  67.841  1.00  0.00    -0.141 A  
HETATM    3  C   UNL     1     -10.441   6.458  67.745  1.00  0.00    -0.281 A  
HETATM    4  O   UNL     1     -10.346   6.397  73.313  1.00  0.00    -0.200 OA 
HETATM    5  C   UNL     1     -11.366   6.781  68.754  1.00  0.00    -0.102 A  
HETATM    6  C   UNL     1     -11.243   6.111  69.954  1.00  0.00    -0.484 A  
HETATM    7  N   UNL     1      -9.935   5.038  71.461  1.00  0.00    -0.183 NA 
HETATM    8  C   UNL     1     -11.764   6.504  71.303  1.00  0.00    -0.386 C  
HETATM    9  C   UNL     1      -9.565   4.595  69.057  1.00  0.00    -0.242 A  
HETATM   10  C   UNL     1     -10.270   5.128  70.112  1.00  0.00    -0.278 A  
HETATM   11  C   UNL     1     -10.626   6.006  72.193  1.00  0.00    -0.214 C  
ENDROOT
BRANCH   3  12
HETATM   12  C   UNL     1      -9.889   7.636  66.957  1.00  0.00    -0.282 C  
BRANCH  12  13
HETATM   13  C   UNL     1     -10.655   8.958  66.827  1.00  0.00    -0.142 C  
BRANCH  13  14
HETATM   14  N   UNL     1     -10.115   9.904  67.828  1.00  0.00    -0.170 NA 
HETATM   15  N   UNL     1     -11.883  12.161  68.705  1.00  0.00    -0.318 NA 
HETATM   16  C   UNL     1     -10.043  11.297  67.347  1.00  0.00    -0.188 C  
HETATM   17  C   UNL     1     -10.788   9.885  69.145  1.00  0.00    -0.221 C  
HETATM   18  C   UNL     1     -11.964  10.883  69.441  1.00  0.00    -0.322 C  
HETATM   19  C   UNL     1     -11.415  11.984  67.324  1.00  0.00    -0.335 C  
BRANCH  15  20
HETATM   20  C   UNL     1     -11.452  13.318  69.328  1.00  0.00    -0.288 A  
HETATM   21  N   UNL     1     -10.597  14.153  68.754  1.00  0.00    -0.250 NA 
HETATM   22  S   UNL     1     -10.469  15.543  69.624  1.00  0.00    -0.304 SA 
HETATM   23  C   UNL     1     -11.601  15.097  70.831  1.00  0.00    -0.338 A  
HETATM   24  C   UNL     1     -12.054  15.862  71.915  1.00  0.00    -0.578 A  
HETATM   25  C   UNL     1     -12.979  15.281  72.786  1.00  0.00    -0.535 A  
HETATM   26  C   UNL     1     -13.417  13.982  72.572  1.00  0.00    -0.661 A  
HETATM   27  C   UNL     1     -12.978  13.236  71.477  1.00  0.00    -0.426 A  
HETATM   28  C   UNL     1     -12.019  13.793  70.574  1.00  0.00    -0.367 A  
ENDBRANCH  15  20
ENDBRANCH  13  14
ENDBRANCH  12  13
ENDBRANCH   3  12
TORSDOF 4
ENDMDL
MODEL       43
REMARK 921   NORMALIZED FREE ENERGY PREDICTED BY IDOCK:   -6.30 KCAL/MOL
REMARK 922        TOTAL FREE ENERGY PREDICTED BY IDOCK:   -8.29 KCAL/MOL
REMARK 923 INTER-LIGAND FREE ENERGY PREDICTED BY IDOCK:   -8.14 KCAL/MOL
REMARK 924 INTRA-LIGAND FREE ENERGY PREDICTED BY IDOCK:   -0.15 KCAL/MOL
REMARK 927      BINDING AFFINITY PREDICTED BY RF-SCORE:    0.00 PKD
ROOT
HETATM    1 CL   UNL     1     -13.169   9.765  71.623  1.00  0.00    -0.481 Cl 
HETATM    2  C   UNL     1     -12.975  11.436  71.227  1.00  0.00    -0.316 A  
HETATM    3  C   UNL     1     -12.179  11.850  70.125  1.00  0.00    -0.319 A  
HETATM    4  O   UNL     1     -11.728  16.672  72.873  1.00  0.00    -0.452 OA 
HETATM    5  C   UNL     1     -12.146  13.205  69.747  1.00  0.00    -0.336 A  
HETATM    6  C   UNL     1     -12.615  14.121  70.664  1.00  0.00    -0.421 A  
HETATM    7  N   UNL     1     -12.983  14.705  72.823  1.00  0.00    -0.439 NA 
HETATM    8  C   UNL     1     -12.335  15.592  70.746  1.00  0.00    -0.463 C  
HETATM    9  C   UNL     1     -13.455  12.376  72.138  1.00  0.00    -0.481 A  
HETATM   10  C   UNL     1     -13.140  13.692  71.880  1.00  0.00    -0.387 A  
HETATM   11  C   UNL     1     -12.289  15.779  72.262  1.00  0.00    -0.452 C  
ENDROOT
BRANCH   3  12
HETATM   12  C   UNL     1     -10.951  11.033  69.753  1.00  0.00    -0.258 C  
BRANCH  12  13
HETATM   13  C   UNL     1     -10.877  10.220  68.454  1.00  0.00    -0.245 C  
BRANCH  13  14
HETATM   14  N   UNL     1      -9.890   9.134  68.645  1.00  0.00    -0.160 NA 
HETATM   15  N   UNL     1     -10.938   6.403  69.305  1.00  0.00    -0.322 NA 
HETATM   16  C   UNL     1      -9.934   8.525  69.988  1.00  0.00    -0.188 C  
HETATM   17  C   UNL     1      -9.927   8.059  67.628  1.00  0.00    -0.180 C  
HETATM   18  C   UNL     1     -10.783   6.768  67.882  1.00  0.00    -0.256 C  
HETATM   19  C   UNL     1     -11.127   7.577  70.167  1.00  0.00    -0.231 C  
BRANCH  15  20
HETATM   20  C   UNL     1     -10.197   5.377  69.862  1.00  0.00    -0.281 A  
HETATM   21  N   UNL     1      -9.191   4.801  69.218  1.00  0.00    -0.109 NA 
HETATM   22  S   UNL     1      -8.356   3.800  70.222  1.00  0.00    -0.057 SA 
HETATM   23  C   UNL     1      -9.307   4.114  71.612  1.00  0.00    -0.141 A  
HETATM   24  C   UNL     1      -9.127   3.620  72.912  1.00  0.00    -0.117 A  
HETATM   25  C   UNL     1     -10.043   4.006  73.893  1.00  0.00    -0.192 A  
HETATM   26  C   UNL     1     -11.099   4.846  73.568  1.00  0.00    -0.405 A  
HETATM   27  C   UNL     1     -11.258   5.351  72.276  1.00  0.00    -0.235 A  
HETATM   28  C   UNL     1     -10.348   4.964  71.243  1.00  0.00    -0.219 A  
ENDBRANCH  15  20
ENDBRANCH  13  14
ENDBRANCH  12  13
ENDBRANCH   3  12
TORSDOF 4
ENDMDL
MODEL       44
REMARK 921   NORMALIZED FREE ENERGY PREDICTED BY IDOCK:   -6.28 KCAL/MOL
REMARK 922        TOTAL FREE ENERGY PREDICTED BY IDOCK:   -8.27 KCAL/MOL
REMARK 923 INTER-LIGAND FREE ENERGY PREDICTED BY IDOCK:   -7.79 KCAL/MOL
REMARK 924 INTRA-LIGAND FREE ENERGY PREDICTED BY IDOCK:   -0.48 KCAL/MOL
REMARK 927      BINDING AFFINITY PREDICTED BY RF-SCORE:    0.00 PKD
ROOT
HETATM    1 CL   UNL     1     -11.807  10.693  70.511  1.00  0.00    -0.420 Cl 
HETATM    2  C   UNL     1     -10.984   9.778  69.298  1.00  0.00    -0.193 A  
HETATM    3  C   UNL     1     -10.600  10.363  68.060  1.00  0.00    -0.259 A  
HETATM    4  O   UNL     1     -10.699   5.147  66.110  1.00  0.00    -0.296 OA 
HETATM    5  C   UNL     1      -9.818   9.633  67.147  1.00  0.00    -0.238 A  
HETATM    6  C   UNL     1      -9.742   8.269  67.339  1.00  0.00    -0.225 A  
HETATM    7  N   UNL     1     -10.678   6.354  68.108  1.00  0.00    -0.261 NA 
HETATM    8  C   UNL     1      -9.368   7.204  66.352  1.00  0.00    -0.190 C  
HETATM    9  C   UNL     1     -10.888   8.399  69.481  1.00  0.00    -0.126 A  
HETATM   10  C   UNL     1     -10.378   7.677  68.426  1.00  0.00    -0.194 A  
HETATM   11  C   UNL     1     -10.311   6.083  66.788  1.00  0.00    -0.238 C  
ENDROOT
BRANCH   3  12
HETATM   12  C   UNL     1     -11.474  11.451  67.456  1.00  0.00    -0.336 C  
BRANCH  12  13
HETATM   13  C   UNL     1     -10.940  12.432  66.404  1.00  0.00    -0.276 C  
BRANCH  13  14
HETATM   14  N   UNL     1     -11.326  13.801  66.812  1.00  0.00    -0.319 NA 
HETATM   15  N   UNL     1      -9.609  16.070  65.867  1.00  0.00    -0.337 NA 
HETATM   16  C   UNL     1     -10.293  14.494  67.606  1.00  0.00    -0.237 C  
HETATM   17  C   UNL     1     -11.764  14.689  65.714  1.00  0.00    -0.302 C  
HETATM   18  C   UNL     1     -10.728  15.635  65.007  1.00  0.00    -0.436 C  
HETATM   19  C   UNL     1      -9.126  14.996  66.745  1.00  0.00    -0.262 C  
BRANCH  15  20
HETATM   20  C   UNL     1      -9.585  17.337  66.420  1.00  0.00    -0.274 A  
HETATM   21  N   UNL     1     -10.603  17.823  67.117  1.00  0.00    -0.326 NA 
HETATM   22  S   UNL     1     -10.185  19.237  67.847  1.00  0.00    -0.430 SA 
HETATM   23  C   UNL     1      -8.571  19.258  67.273  1.00  0.00    -0.292 A  
HETATM   24  C   UNL     1      -7.564  20.191  67.561  1.00  0.00    -0.333 A  
HETATM   25  C   UNL     1      -6.314  20.012  66.963  1.00  0.00    -0.213 A  
HETATM   26  C   UNL     1      -6.098  18.941  66.107  1.00  0.00    -0.207 A  
HETATM   27  C   UNL     1      -7.099  18.004  65.845  1.00  0.00    -0.302 A  
HETATM   28  C   UNL     1      -8.396  18.165  66.426  1.00  0.00    -0.272 A  
ENDBRANCH  15  20
ENDBRANCH  13  14
ENDBRANCH  12  13
ENDBRANCH   3  12
TORSDOF 4
ENDMDL
MODEL       45
REMARK 921   NORMALIZED FREE ENERGY PREDICTED BY IDOCK:   -6.24 KCAL/MOL
REMARK 922        TOTAL FREE ENERGY PREDICTED BY IDOCK:   -8.22 KCAL/MOL
REMARK 923 INTER-LIGAND FREE ENERGY PREDICTED BY IDOCK:   -8.15 KCAL/MOL
REMARK 924 INTRA-LIGAND FREE ENERGY PREDICTED BY IDOCK:   -0.07 KCAL/MOL
REMARK 927      BINDING AFFINITY PREDICTED BY RF-SCORE:    0.00 PKD
ROOT
HETATM    1 CL   UNL     1     -12.321  14.839  71.758  1.00  0.00    -0.387 Cl 
HETATM    2  C   UNL     1     -12.086  14.823  70.046  1.00  0.00    -0.329 A  
HETATM    3  C   UNL     1     -12.086  13.608  69.309  1.00  0.00    -0.360 A  
HETATM    4  O   UNL     1      -9.067  16.430  65.576  1.00  0.00    -0.390 OA 
HETATM    5  C   UNL     1     -12.024  13.635  67.904  1.00  0.00    -0.382 A  
HETATM    6  C   UNL     1     -11.624  14.818  67.318  1.00  0.00    -0.385 A  
HETATM    7  N   UNL     1     -10.443  16.748  67.434  1.00  0.00    -0.314 NA 
HETATM    8  C   UNL     1     -11.066  15.041  65.945  1.00  0.00    -0.334 C  
HETATM    9  C   UNL     1     -11.693  16.013  69.437  1.00  0.00    -0.287 A  
HETATM   10  C   UNL     1     -11.352  15.934  68.105  1.00  0.00    -0.311 A  
HETATM   11  C   UNL     1     -10.051  16.146  66.237  1.00  0.00    -0.321 C  
ENDROOT
BRANCH   3  12
HETATM   12  C   UNL     1     -11.552  12.345  69.967  1.00  0.00    -0.216 C  
BRANCH  12  13
HETATM   13  C   UNL     1     -12.419  11.479  70.889  1.00  0.00    -0.366 C  
BRANCH  13  14
HETATM   14  N   UNL     1     -12.442  10.103  70.344  1.00  0.00    -0.216 NA 
HETATM   15  N   UNL     1     -10.779   8.029  71.731  1.00  0.00    -0.230 NA 
HETATM   16  C   UNL     1     -11.119   9.619  69.905  1.00  0.00    -0.235 C  
HETATM   17  C   UNL     1     -13.060   9.085  71.221  1.00  0.00    -0.220 C  
HETATM   18  C   UNL     1     -12.164   8.242  72.198  1.00  0.00    -0.364 C  
HETATM   19  C   UNL     1     -10.217   9.221  71.081  1.00  0.00    -0.317 C  
BRANCH  15  20
HETATM   20  C   UNL     1     -10.388   6.821  71.182  1.00  0.00    -0.205 A  
HETATM   21  N   UNL     1      -9.684   6.750  70.061  1.00  0.00    -0.163 NA 
HETATM   22  S   UNL     1      -9.166   5.211  69.798  1.00  0.00    -0.126 SA 
HETATM   23  C   UNL     1      -9.852   4.550  71.223  1.00  0.00    -0.190 A  
HETATM   24  C   UNL     1      -9.754   3.235  71.699  1.00  0.00    -0.234 A  
HETATM   25  C   UNL     1     -10.413   2.919  72.890  1.00  0.00    -0.239 A  
HETATM   26  C   UNL     1     -11.146   3.889  73.560  1.00  0.00    -0.342 A  
HETATM   27  C   UNL     1     -11.218   5.201  73.090  1.00  0.00    -0.398 A  
HETATM   28  C   UNL     1     -10.569   5.557  71.866  1.00  0.00    -0.293 A  
ENDBRANCH  15  20
ENDBRANCH  13  14
ENDBRANCH  12  13
ENDBRANCH   3  12
TORSDOF 4
ENDMDL
MODEL       46
REMARK 921   NORMALIZED FREE ENERGY PREDICTED BY IDOCK:   -6.24 KCAL/MOL
REMARK 922        TOTAL FREE ENERGY PREDICTED BY IDOCK:   -8.22 KCAL/MOL
REMARK 923 INTER-LIGAND FREE ENERGY PREDICTED BY IDOCK:   -7.69 KCAL/MOL
REMARK 924 INTRA-LIGAND FREE ENERGY PREDICTED BY IDOCK:   -0.53 KCAL/MOL
REMARK 927      BINDING AFFINITY PREDICTED BY RF-SCORE:    0.00 PKD
ROOT
HETATM    1 CL   UNL     1     -10.694   6.206  66.861  1.00  0.00    -0.390 Cl 
HETATM    2  C   UNL     1     -10.907   6.964  68.399  1.00  0.00    -0.180 A  
HETATM    3  C   UNL     1     -10.587   8.334  68.601  1.00  0.00    -0.144 A  
HETATM    4  O   UNL     1     -10.041   6.925  73.961  1.00  0.00    -0.313 OA 
HETATM    5  C   UNL     1     -10.894   8.958  69.824  1.00  0.00    -0.207 A  
HETATM    6  C   UNL     1     -11.179   8.134  70.892  1.00  0.00    -0.286 A  
HETATM    7  N   UNL     1     -10.915   6.143  71.943  1.00  0.00    -0.251 NA 
HETATM    8  C   UNL     1     -11.125   8.446  72.357  1.00  0.00    -0.431 C  
HETATM    9  C   UNL     1     -11.208   6.147  69.487  1.00  0.00    -0.482 A  
HETATM   10  C   UNL     1     -11.207   6.752  70.724  1.00  0.00    -0.304 A  
HETATM   11  C   UNL     1     -10.620   7.112  72.905  1.00  0.00    -0.281 C  
ENDROOT
BRANCH   3  12
HETATM   12  C   UNL     1      -9.433   8.946  67.821  1.00  0.00    -0.163 C  
BRANCH  12  13
HETATM   13  C   UNL     1      -9.660   9.955  66.689  1.00  0.00    -0.184 C  
BRANCH  13  14
HETATM   14  N   UNL     1     -10.479  11.068  67.220  1.00  0.00    -0.218 NA 
HETATM   15  N   UNL     1      -9.722  13.856  66.419  1.00  0.00    -0.291 NA 
HETATM   16  C   UNL     1      -9.714  12.026  68.039  1.00  0.00    -0.198 C  
HETATM   17  C   UNL     1     -11.261  11.816  66.210  1.00  0.00    -0.312 C  
HETATM   18  C   UNL     1     -10.663  13.112  65.557  1.00  0.00    -0.283 C  
HETATM   19  C   UNL     1      -8.846  12.966  67.192  1.00  0.00    -0.210 C  
BRANCH  15  20
HETATM   20  C   UNL     1     -10.114  15.009  67.074  1.00  0.00    -0.244 A  
HETATM   21  N   UNL     1     -11.158  15.036  67.893  1.00  0.00    -0.295 NA 
HETATM   22  S   UNL     1     -11.223  16.467  68.703  1.00  0.00    -0.277 SA 
HETATM   23  C   UNL     1      -9.807  17.129  68.002  1.00  0.00    -0.283 A  
HETATM   24  C   UNL     1      -9.198  18.360  68.283  1.00  0.00    -0.333 A  
HETATM   25  C   UNL     1      -8.045  18.700  67.571  1.00  0.00    -0.262 A  
HETATM   26  C   UNL     1      -7.539  17.834  66.611  1.00  0.00    -0.271 A  
HETATM   27  C   UNL     1      -8.138  16.600  66.354  1.00  0.00    -0.359 A  
HETATM   28  C   UNL     1      -9.329  16.227  67.053  1.00  0.00    -0.235 A  
ENDBRANCH  15  20
ENDBRANCH  13  14
ENDBRANCH  12  13
ENDBRANCH   3  12
TORSDOF 4
ENDMDL
MODEL       47
REMARK 921   NORMALIZED FREE ENERGY PREDICTED BY IDOCK:   -6.20 KCAL/MOL
REMARK 922        TOTAL FREE ENERGY PREDICTED BY IDOCK:   -8.18 KCAL/MOL
REMARK 923 INTER-LIGAND FREE ENERGY PREDICTED BY IDOCK:   -7.40 KCAL/MOL
REMARK 924 INTRA-LIGAND FREE ENERGY PREDICTED BY IDOCK:   -0.77 KCAL/MOL
REMARK 927      BINDING AFFINITY PREDICTED BY RF-SCORE:    0.00 PKD
ROOT
HETATM    1 CL   UNL     1      -7.365   7.979  65.183  1.00  0.00    -0.071 Cl 
HETATM    2  C   UNL     1      -8.418   7.964  66.552  1.00  0.00    -0.134 A  
HETATM    3  C   UNL     1      -9.722   8.528  66.492  1.00  0.00    -0.330 A  
HETATM    4  O   UNL     1      -9.242   9.031  72.017  1.00  0.00    -0.373 OA 
HETATM    5  C   UNL     1     -10.604   8.386  67.578  1.00  0.00    -0.285 A  
HETATM    6  C   UNL     1     -10.054   8.002  68.784  1.00  0.00    -0.206 A  
HETATM    7  N   UNL     1      -8.275   7.953  70.187  1.00  0.00    -0.123 NA 
HETATM    8  C   UNL     1     -10.615   8.169  70.164  1.00  0.00    -0.237 C  
HETATM    9  C   UNL     1      -7.882   7.567  67.776  1.00  0.00    -0.117 A  
HETATM   10  C   UNL     1      -8.693   7.724  68.878  1.00  0.00    -0.135 A  
HETATM   11  C   UNL     1      -9.334   8.452  70.948  1.00  0.00    -0.166 C  
ENDROOT
BRANCH   3  12
HETATM   12  C   UNL     1      -9.962   9.740  65.604  1.00  0.00    -0.352 C  
BRANCH  12  13
HETATM   13  C   UNL     1      -9.131  11.023  65.736  1.00  0.00    -0.202 C  
BRANCH  13  14
HETATM   14  N   UNL     1      -9.589  11.746  66.943  1.00  0.00    -0.190 NA 
HETATM   15  N   UNL     1     -10.651  14.526  66.579  1.00  0.00    -0.292 NA 
HETATM   16  C   UNL     1      -8.849  12.996  67.200  1.00  0.00    -0.218 C  
HETATM   17  C   UNL     1     -11.041  12.027  67.000  1.00  0.00    -0.298 C  
HETATM   18  C   UNL     1     -11.596  13.397  66.470  1.00  0.00    -0.357 C  
HETATM   19  C   UNL     1      -9.271  14.135  66.263  1.00  0.00    -0.123 C  
BRANCH  15  20
HETATM   20  C   UNL     1     -10.779  15.470  67.582  1.00  0.00    -0.302 A  
HETATM   21  N   UNL     1     -10.937  15.131  68.855  1.00  0.00    -0.242 NA 
HETATM   22  S   UNL     1     -10.811  16.452  69.827  1.00  0.00    -0.298 SA 
HETATM   23  C   UNL     1     -10.504  17.569  68.565  1.00  0.00    -0.361 A  
HETATM   24  C   UNL     1     -10.227  18.939  68.673  1.00  0.00    -0.371 A  
HETATM   25  C   UNL     1     -10.020  19.661  67.494  1.00  0.00    -0.513 A  
HETATM   26  C   UNL     1     -10.099  19.023  66.264  1.00  0.00    -0.479 A  
HETATM   27  C   UNL     1     -10.352  17.654  66.168  1.00  0.00    -0.334 A  
HETATM   28  C   UNL     1     -10.585  16.887  67.352  1.00  0.00    -0.294 A  
ENDBRANCH  15  20
ENDBRANCH  13  14
ENDBRANCH  12  13
ENDBRANCH   3  12
TORSDOF 4
ENDMDL
MODEL       48
REMARK 921   NORMALIZED FREE ENERGY PREDICTED BY IDOCK:   -6.19 KCAL/MOL
REMARK 922        TOTAL FREE ENERGY PREDICTED BY IDOCK:   -8.16 KCAL/MOL
REMARK 923 INTER-LIGAND FREE ENERGY PREDICTED BY IDOCK:   -8.11 KCAL/MOL
REMARK 924 INTRA-LIGAND FREE ENERGY PREDICTED BY IDOCK:   -0.05 KCAL/MOL
REMARK 927      BINDING AFFINITY PREDICTED BY RF-SCORE:    0.00 PKD
ROOT
HETATM    1 CL   UNL     1     -13.444   9.731  71.918  1.00  0.00    -0.486 Cl 
HETATM    2  C   UNL     1     -13.157  11.382  71.498  1.00  0.00    -0.335 A  
HETATM    3  C   UNL     1     -12.273  11.736  70.443  1.00  0.00    -0.416 A  
HETATM    4  O   UNL     1     -11.811  16.607  73.104  1.00  0.00    -0.473 OA 
HETATM    5  C   UNL     1     -12.160  13.079  70.037  1.00  0.00    -0.367 A  
HETATM    6  C   UNL     1     -12.651  14.036  70.900  1.00  0.00    -0.431 A  
HETATM    7  N   UNL     1     -13.138  14.689  73.015  1.00  0.00    -0.505 NA 
HETATM    8  C   UNL     1     -12.318  15.496  70.966  1.00  0.00    -0.471 C  
HETATM    9  C   UNL     1     -13.657  12.364  72.353  1.00  0.00    -0.262 A  
HETATM   10  C   UNL     1     -13.274  13.659  72.087  1.00  0.00    -0.449 A  
HETATM   11  C   UNL     1     -12.365  15.720  72.477  1.00  0.00    -0.455 C  
ENDROOT
BRANCH   3  12
HETATM   12  C   UNL     1     -11.058  10.863  70.173  1.00  0.00    -0.238 C  
BRANCH  12  13
HETATM   13  C   UNL     1     -11.015   9.865  69.009  1.00  0.00    -0.190 C  
BRANCH  13  14
HETATM   14  N   UNL     1     -10.018   8.820  69.334  1.00  0.00    -0.191 NA 
HETATM   15  N   UNL     1     -11.034   6.055  69.894  1.00  0.00    -0.362 NA 
HETATM   16  C   UNL     1     -10.204   8.220  70.669  1.00  0.00    -0.193 C  
HETATM   17  C   UNL     1      -9.888   7.737  68.334  1.00  0.00    -0.168 C  
HETATM   18  C   UNL     1     -10.719   6.415  68.496  1.00  0.00    -0.288 C  
HETATM   19  C   UNL     1     -11.373   7.227  70.711  1.00  0.00    -0.285 C  
BRANCH  15  20
HETATM   20  C   UNL     1     -10.329   5.064  70.551  1.00  0.00    -0.215 A  
HETATM   21  N   UNL     1     -10.348   4.941  71.872  1.00  0.00    -0.203 NA 
HETATM   22  S   UNL     1      -9.625   3.537  72.334  1.00  0.00    -0.145 SA 
HETATM   23  C   UNL     1      -9.265   2.996  70.749  1.00  0.00    -0.135 A  
HETATM   24  C   UNL     1      -8.671   1.785  70.364  1.00  0.00    -0.112 A  
HETATM   25  C   UNL     1      -8.461   1.563  69.001  1.00  0.00    -0.080 A  
HETATM   26  C   UNL     1      -8.828   2.528  68.073  1.00  0.00    -0.163 A  
HETATM   27  C   UNL     1      -9.440   3.720  68.464  1.00  0.00    -0.211 A  
HETATM   28  C   UNL     1      -9.655   3.988  69.852  1.00  0.00    -0.281 A  
ENDBRANCH  15  20
ENDBRANCH  13  14
ENDBRANCH  12  13
ENDBRANCH   3  12
TORSDOF 4
ENDMDL
MODEL       49
REMARK 921   NORMALIZED FREE ENERGY PREDICTED BY IDOCK:   -6.16 KCAL/MOL
REMARK 922        TOTAL FREE ENERGY PREDICTED BY IDOCK:   -8.12 KCAL/MOL
REMARK 923 INTER-LIGAND FREE ENERGY PREDICTED BY IDOCK:   -7.82 KCAL/MOL
REMARK 924 INTRA-LIGAND FREE ENERGY PREDICTED BY IDOCK:   -0.31 KCAL/MOL
REMARK 927      BINDING AFFINITY PREDICTED BY RF-SCORE:    0.00 PKD
ROOT
HETATM    1 CL   UNL     1      -7.935  10.603  63.057  1.00  0.00    -0.097 Cl 
HETATM    2  C   UNL     1      -8.141  10.097  64.696  1.00  0.00    -0.153 A  
HETATM    3  C   UNL     1      -9.433   9.951  65.271  1.00  0.00    -0.331 A  
HETATM    4  O   UNL     1      -6.831  10.710  70.136  1.00  0.00    -0.160 OA 
HETATM    5  C   UNL     1      -9.574   9.413  66.563  1.00  0.00    -0.267 A  
HETATM    6  C   UNL     1      -8.441   9.366  67.348  1.00  0.00    -0.125 A  
HETATM    7  N   UNL     1      -6.412  10.214  67.895  1.00  0.00    -0.061 NA 
HETATM    8  C   UNL     1      -8.339   9.259  68.840  1.00  0.00    -0.120 C  
HETATM    9  C   UNL     1      -7.004  10.032  65.501  1.00  0.00    -0.124 A  
HETATM   10  C   UNL     1      -7.216   9.790  66.839  1.00  0.00    -0.090 A  
HETATM   11  C   UNL     1      -7.120  10.144  69.096  1.00  0.00    -0.073 C  
ENDROOT
BRANCH   3  12
HETATM   12  C   UNL     1     -10.551  10.877  64.818  1.00  0.00    -0.316 C  
BRANCH  12  13
HETATM   13  C   UNL     1     -10.666  12.321  65.322  1.00  0.00    -0.292 C  
BRANCH  13  14
HETATM   14  N   UNL     1     -11.786  12.385  66.288  1.00  0.00    -0.550 NA 
HETATM   15  N   UNL     1     -11.260  13.671  68.944  1.00  0.00    -0.258 NA 
HETATM   16  C   UNL     1     -11.517  11.678  67.553  1.00  0.00    -0.289 C  
HETATM   17  C   UNL     1     -12.281  13.746  66.593  1.00  0.00    -0.409 C  
HETATM   18  C   UNL     1     -11.712  14.529  67.830  1.00  0.00    -0.374 C  
HETATM   19  C   UNL     1     -10.574  12.460  68.477  1.00  0.00    -0.231 C  
BRANCH  15  20
HETATM   20  C   UNL     1     -12.035  13.508  70.078  1.00  0.00    -0.340 A  
HETATM   21  N   UNL     1     -12.619  12.354  70.374  1.00  0.00    -0.097 NA 
HETATM   22  S   UNL     1     -13.258  12.399  71.889  1.00  0.00    -0.260 SA 
HETATM   23  C   UNL     1     -12.750  13.996  72.246  1.00  0.00    -0.247 A  
HETATM   24  C   UNL     1     -12.908  14.706  73.444  1.00  0.00    -0.526 A  
HETATM   25  C   UNL     1     -12.419  16.014  73.501  1.00  0.00    -0.682 A  
HETATM   26  C   UNL     1     -11.808  16.578  72.390  1.00  0.00    -0.425 A  
HETATM   27  C   UNL     1     -11.635  15.856  71.208  1.00  0.00    -0.509 A  
HETATM   28  C   UNL     1     -12.136  14.521  71.109  1.00  0.00    -0.408 A  
ENDBRANCH  15  20
ENDBRANCH  13  14
ENDBRANCH  12  13
ENDBRANCH   3  12
TORSDOF 4
ENDMDL
MODEL       50
REMARK 921   NORMALIZED FREE ENERGY PREDICTED BY IDOCK:   -6.16 KCAL/MOL
REMARK 922        TOTAL FREE ENERGY PREDICTED BY IDOCK:   -8.12 KCAL/MOL
REMARK 923 INTER-LIGAND FREE ENERGY PREDICTED BY IDOCK:   -8.04 KCAL/MOL
REMARK 924 INTRA-LIGAND FREE ENERGY PREDICTED BY IDOCK:   -0.08 KCAL/MOL
REMARK 927      BINDING AFFINITY PREDICTED BY RF-SCORE:    0.00 PKD
ROOT
HETATM    1 CL   UNL     1     -13.146  13.154  71.068  1.00  0.00    -0.193 Cl 
HETATM    2  C   UNL     1     -12.126  11.820  70.665  1.00  0.00    -0.311 A  
HETATM    3  C   UNL     1     -11.338  11.819  69.482  1.00  0.00    -0.317 A  
HETATM    4  O   UNL     1     -11.492   6.272  69.953  1.00  0.00    -0.422 OA 
HETATM    5  C   UNL     1     -10.419  10.780  69.246  1.00  0.00    -0.243 A  
HETATM    6  C   UNL     1     -10.563   9.635  70.001  1.00  0.00    -0.300 A  
HETATM    7  N   UNL     1     -11.900   8.224  71.166  1.00  0.00    -0.281 NA 
HETATM    8  C   UNL     1     -10.052   8.255  69.715  1.00  0.00    -0.197 C  
HETATM    9  C   UNL     1     -12.250  10.658  71.425  1.00  0.00    -0.405 A  
HETATM   10  C   UNL     1     -11.549   9.559  70.981  1.00  0.00    -0.344 A  
HETATM   11  C   UNL     1     -11.206   7.416  70.263  1.00  0.00    -0.247 C  
ENDROOT
BRANCH   3  12
HETATM   12  C   UNL     1     -11.867  12.524  68.242  1.00  0.00    -0.361 C  
BRANCH  12  13
HETATM   13  C   UNL     1     -11.744  14.041  68.053  1.00  0.00    -0.359 C  
BRANCH  13  14
HETATM   14  N   UNL     1     -10.305  14.388  68.030  1.00  0.00    -0.225 NA 
HETATM   15  N   UNL     1      -9.572  17.244  67.490  1.00  0.00    -0.255 NA 
HETATM   16  C   UNL     1      -9.850  14.935  66.738  1.00  0.00    -0.246 C  
HETATM   17  C   UNL     1      -9.852  15.283  69.117  1.00  0.00    -0.239 C  
HETATM   18  C   UNL     1      -9.809  16.835  68.889  1.00  0.00    -0.264 C  
HETATM   19  C   UNL     1     -10.284  16.392  66.529  1.00  0.00    -0.304 C  
BRANCH  15  20
HETATM   20  C   UNL     1      -8.328  17.684  67.076  1.00  0.00    -0.221 A  
HETATM   21  N   UNL     1      -7.860  17.440  65.860  1.00  0.00    -0.530 NA 
HETATM   22  S   UNL     1      -6.481  18.292  65.585  1.00  0.00    -0.239 SA 
HETATM   23  C   UNL     1      -6.452  19.073  67.110  1.00  0.00    -0.188 A  
HETATM   24  C   UNL     1      -5.541  20.034  67.572  1.00  0.00    -0.191 A  
HETATM   25  C   UNL     1      -5.709  20.527  68.868  1.00  0.00    -0.366 A  
HETATM   26  C   UNL     1      -6.747  20.059  69.663  1.00  0.00    -0.294 A  
HETATM   27  C   UNL     1      -7.663  19.120  69.186  1.00  0.00    -0.247 A  
HETATM   28  C   UNL     1      -7.512  18.582  67.870  1.00  0.00    -0.249 A  
ENDBRANCH  15  20
ENDBRANCH  13  14
ENDBRANCH  12  13
ENDBRANCH   3  12
TORSDOF 4
ENDMDL
MODEL       51
REMARK 921   NORMALIZED FREE ENERGY PREDICTED BY IDOCK:   -6.15 KCAL/MOL
REMARK 922        TOTAL FREE ENERGY PREDICTED BY IDOCK:   -8.11 KCAL/MOL
REMARK 923 INTER-LIGAND FREE ENERGY PREDICTED BY IDOCK:   -7.70 KCAL/MOL
REMARK 924 INTRA-LIGAND FREE ENERGY PREDICTED BY IDOCK:   -0.41 KCAL/MOL
REMARK 927      BINDING AFFINITY PREDICTED BY RF-SCORE:    0.00 PKD
ROOT
HETATM    1 CL   UNL     1      -7.629   6.558  72.031  1.00  0.00    -0.093 Cl 
HETATM    2  C   UNL     1      -9.329   6.642  71.735  1.00  0.00    -0.148 A  
HETATM    3  C   UNL     1      -9.875   6.335  70.459  1.00  0.00    -0.207 A  
HETATM    4  O   UNL     1     -14.143   9.542  72.045  1.00  0.00    -0.250 OA 
HETATM    5  C   UNL     1     -11.270   6.284  70.283  1.00  0.00    -0.455 A  
HETATM    6  C   UNL     1     -12.046   6.865  71.263  1.00  0.00    -0.419 A  
HETATM    7  N   UNL     1     -12.283   8.419  72.896  1.00  0.00    -0.203 NA 
HETATM    8  C   UNL     1     -13.465   7.341  71.176  1.00  0.00    -0.243 C  
HETATM    9  C   UNL     1     -10.129   7.216  72.721  1.00  0.00    -0.230 A  
HETATM   10  C   UNL     1     -11.450   7.422  72.392  1.00  0.00    -0.300 A  
HETATM   11  C   UNL     1     -13.395   8.579  72.068  1.00  0.00    -0.369 C  
ENDROOT
BRANCH   3  12
HETATM   12  C   UNL     1      -9.065   6.654  69.212  1.00  0.00    -0.138 C  
BRANCH  12  13
HETATM   13  C   UNL     1      -9.629   7.513  68.073  1.00  0.00    -0.143 C  
BRANCH  13  14
HETATM   14  N   UNL     1      -9.318   8.930  68.367  1.00  0.00    -0.136 NA 
HETATM   15  N   UNL     1     -11.585  10.891  68.321  1.00  0.00    -0.470 NA 
HETATM   16  C   UNL     1      -9.645   9.849  67.260  1.00  0.00    -0.160 C  
HETATM   17  C   UNL     1      -9.899   9.460  69.620  1.00  0.00    -0.193 C  
HETATM   18  C   UNL     1     -11.285  10.198  69.591  1.00  0.00    -0.261 C  
HETATM   19  C   UNL     1     -11.151  10.123  67.147  1.00  0.00    -0.050 C  
BRANCH  15  20
HETATM   20  C   UNL     1     -11.452  12.263  68.208  1.00  0.00    -0.315 A  
HETATM   21  N   UNL     1     -11.109  12.848  67.069  1.00  0.00    -0.266 NA 
HETATM   22  S   UNL     1     -11.273  14.481  67.182  1.00  0.00    -0.345 SA 
HETATM   23  C   UNL     1     -11.853  14.487  68.794  1.00  0.00    -0.315 A  
HETATM   24  C   UNL     1     -12.272  15.585  69.557  1.00  0.00    -0.264 A  
HETATM   25  C   UNL     1     -12.698  15.350  70.867  1.00  0.00    -0.520 A  
HETATM   26  C   UNL     1     -12.689  14.060  71.381  1.00  0.00    -0.442 A  
HETATM   27  C   UNL     1     -12.291  12.969  70.606  1.00  0.00    -0.391 A  
HETATM   28  C   UNL     1     -11.834  13.176  69.267  1.00  0.00    -0.377 A  
ENDBRANCH  15  20
ENDBRANCH  13  14
ENDBRANCH  12  13
ENDBRANCH   3  12
TORSDOF 4
ENDMDL
MODEL       52
REMARK 921   NORMALIZED FREE ENERGY PREDICTED BY IDOCK:   -6.14 KCAL/MOL
REMARK 922        TOTAL FREE ENERGY PREDICTED BY IDOCK:   -8.10 KCAL/MOL
REMARK 923 INTER-LIGAND FREE ENERGY PREDICTED BY IDOCK:   -7.68 KCAL/MOL
REMARK 924 INTRA-LIGAND FREE ENERGY PREDICTED BY IDOCK:   -0.42 KCAL/MOL
REMARK 927      BINDING AFFINITY PREDICTED BY RF-SCORE:    0.00 PKD
ROOT
HETATM    1 CL   UNL     1     -11.693  15.052  70.474  1.00  0.00    -0.317 Cl 
HETATM    2  C   UNL     1     -11.423  13.845  69.268  1.00  0.00    -0.297 A  
HETATM    3  C   UNL     1     -11.991  12.546  69.379  1.00  0.00    -0.315 A  
HETATM    4  O   UNL     1      -7.816  10.957  66.053  1.00  0.00    -0.159 OA 
HETATM    5  C   UNL     1     -11.863  11.627  68.321  1.00  0.00    -0.335 A  
HETATM    6  C   UNL     1     -10.908  11.902  67.366  1.00  0.00    -0.289 A  
HETATM    7  N   UNL     1      -8.934  12.864  66.804  1.00  0.00    -0.208 NA 
HETATM    8  C   UNL     1     -10.254  10.963  66.398  1.00  0.00    -0.289 C  
HETATM    9  C   UNL     1     -10.469  14.111  68.288  1.00  0.00    -0.249 A  
HETATM   10  C   UNL     1     -10.155  13.071  67.443  1.00  0.00    -0.231 A  
HETATM   11  C   UNL     1      -8.840  11.541  66.366  1.00  0.00    -0.193 C  
ENDROOT
BRANCH   3  12
HETATM   12  C   UNL     1     -12.179  11.937  70.760  1.00  0.00    -0.401 C  
BRANCH  12  13
HETATM   13  C   UNL     1     -12.879  10.589  70.967  1.00  0.00    -0.407 C  
BRANCH  13  14
HETATM   14  N   UNL     1     -12.004   9.738  71.805  1.00  0.00    -0.372 NA 
HETATM   15  N   UNL     1     -11.475   6.940  70.870  1.00  0.00    -0.303 NA 
HETATM   16  C   UNL     1     -12.668   8.519  72.304  1.00  0.00    -0.367 C  
HETATM   17  C   UNL     1     -10.710   9.366  71.194  1.00  0.00    -0.347 C  
HETATM   18  C   UNL     1     -10.574   8.014  70.405  1.00  0.00    -0.224 C  
HETATM   19  C   UNL     1     -12.810   7.440  71.223  1.00  0.00    -0.321 C  
BRANCH  15  20
HETATM   20  C   UNL     1     -11.005   5.908  71.663  1.00  0.00    -0.268 A  
HETATM   21  N   UNL     1     -11.270   5.838  72.960  1.00  0.00    -0.268 NA 
HETATM   22  S   UNL     1     -10.792   4.388  73.573  1.00  0.00    -0.301 SA 
HETATM   23  C   UNL     1     -10.216   3.753  72.089  1.00  0.00    -0.109 A  
HETATM   24  C   UNL     1      -9.694   2.476  71.840  1.00  0.00    -0.221 A  
HETATM   25  C   UNL     1      -9.271   2.182  70.542  1.00  0.00    -0.186 A  
HETATM   26  C   UNL     1      -9.365   3.143  69.544  1.00  0.00    -0.228 A  
HETATM   27  C   UNL     1      -9.907   4.404  69.796  1.00  0.00    -0.284 A  
HETATM   28  C   UNL     1     -10.335   4.745  71.117  1.00  0.00    -0.188 A  
ENDBRANCH  15  20
ENDBRANCH  13  14
ENDBRANCH  12  13
ENDBRANCH   3  12
TORSDOF 4
ENDMDL
MODEL       53
REMARK 921   NORMALIZED FREE ENERGY PREDICTED BY IDOCK:   -6.13 KCAL/MOL
REMARK 922        TOTAL FREE ENERGY PREDICTED BY IDOCK:   -8.08 KCAL/MOL
REMARK 923 INTER-LIGAND FREE ENERGY PREDICTED BY IDOCK:   -7.92 KCAL/MOL
REMARK 924 INTRA-LIGAND FREE ENERGY PREDICTED BY IDOCK:   -0.16 KCAL/MOL
REMARK 927      BINDING AFFINITY PREDICTED BY RF-SCORE:    0.00 PKD
ROOT
HETATM    1 CL   UNL     1      -9.640   3.588  68.869  1.00  0.00    -0.205 Cl 
HETATM    2  C   UNL     1     -10.089   4.820  69.995  1.00  0.00    -0.238 A  
HETATM    3  C   UNL     1     -10.918   5.909  69.612  1.00  0.00    -0.447 A  
HETATM    4  O   UNL     1      -8.562   8.588  73.888  1.00  0.00    -0.279 OA 
HETATM    5  C   UNL     1     -11.374   6.823  70.579  1.00  0.00    -0.394 A  
HETATM    6  C   UNL     1     -10.725   6.823  71.795  1.00  0.00    -0.250 A  
HETATM    7  N   UNL     1      -8.842   6.448  73.000  1.00  0.00    -0.127 NA 
HETATM    8  C   UNL     1     -10.679   7.904  72.833  1.00  0.00    -0.440 C  
HETATM    9  C   UNL     1      -9.451   4.827  71.234  1.00  0.00    -0.216 A  
HETATM   10  C   UNL     1      -9.703   5.910  72.045  1.00  0.00    -0.153 A  
HETATM   11  C   UNL     1      -9.244   7.743  73.333  1.00  0.00    -0.284 C  
ENDROOT
BRANCH   3  12
HETATM   12  C   UNL     1     -10.823   6.445  68.192  1.00  0.00    -0.386 C  
BRANCH  12  13
HETATM   13  C   UNL     1      -9.746   7.454  67.774  1.00  0.00    -0.143 C  
BRANCH  13  14
HETATM   14  N   UNL     1     -10.401   8.535  67.003  1.00  0.00    -0.301 NA 
HETATM   15  N   UNL     1      -9.379  11.328  67.382  1.00  0.00    -0.161 NA 
HETATM   16  C   UNL     1     -11.017   9.575  67.850  1.00  0.00    -0.110 C  
HETATM   17  C   UNL     1      -9.553   9.187  65.981  1.00  0.00    -0.272 C  
HETATM   18  C   UNL     1      -8.752  10.489  66.340  1.00  0.00    -0.145 C  
HETATM   19  C   UNL     1      -9.981  10.530  68.457  1.00  0.00    -0.170 C  
BRANCH  15  20
HETATM   20  C   UNL     1     -10.066  12.482  67.050  1.00  0.00    -0.216 A  
HETATM   21  N   UNL     1      -9.931  13.607  67.739  1.00  0.00    -0.230 NA 
HETATM   22  S   UNL     1     -10.674  14.854  66.965  1.00  0.00    -0.313 SA 
HETATM   23  C   UNL     1     -11.204  13.934  65.621  1.00  0.00    -0.306 A  
HETATM   24  C   UNL     1     -11.888  14.383  64.482  1.00  0.00    -0.463 A  
HETATM   25  C   UNL     1     -12.233  13.441  63.510  1.00  0.00    -0.468 A  
HETATM   26  C   UNL     1     -11.908  12.104  63.690  1.00  0.00    -0.608 A  
HETATM   27  C   UNL     1     -11.207  11.669  64.816  1.00  0.00    -0.300 A  
HETATM   28  C   UNL     1     -10.852  12.603  65.839  1.00  0.00    -0.300 A  
ENDBRANCH  15  20
ENDBRANCH  13  14
ENDBRANCH  12  13
ENDBRANCH   3  12
TORSDOF 4
ENDMDL
MODEL       54
REMARK 921   NORMALIZED FREE ENERGY PREDICTED BY IDOCK:   -6.13 KCAL/MOL
REMARK 922        TOTAL FREE ENERGY PREDICTED BY IDOCK:   -8.08 KCAL/MOL
REMARK 923 INTER-LIGAND FREE ENERGY PREDICTED BY IDOCK:   -7.68 KCAL/MOL
REMARK 924 INTRA-LIGAND FREE ENERGY PREDICTED BY IDOCK:   -0.40 KCAL/MOL
REMARK 927      BINDING AFFINITY PREDICTED BY RF-SCORE:    0.00 PKD
ROOT
HETATM    1 CL   UNL     1     -12.241  12.431  70.349  1.00  0.00    -0.411 Cl 
HETATM    2  C   UNL     1     -11.987  13.190  68.818  1.00  0.00    -0.280 A  
HETATM    3  C   UNL     1     -11.901  12.431  67.619  1.00  0.00    -0.363 A  
HETATM    4  O   UNL     1      -9.034  16.775  65.639  1.00  0.00    -0.475 OA 
HETATM    5  C   UNL     1     -11.826  13.083  66.375  1.00  0.00    -0.465 A  
HETATM    6  C   UNL     1     -11.499  14.422  66.389  1.00  0.00    -0.365 A  
HETATM    7  N   UNL     1     -10.446  16.160  67.392  1.00  0.00    -0.305 NA 
HETATM    8  C   UNL     1     -10.943  15.262  65.279  1.00  0.00    -0.403 C  
HETATM    9  C   UNL     1     -11.667  14.546  68.813  1.00  0.00    -0.362 A  
HETATM   10  C   UNL     1     -11.308  15.085  67.599  1.00  0.00    -0.334 A  
HETATM   11  C   UNL     1     -10.004  16.174  66.068  1.00  0.00    -0.348 C  
ENDROOT
BRANCH   3  12
HETATM   12  C   UNL     1     -11.293  11.037  67.670  1.00  0.00    -0.355 C  
BRANCH  12  13
HETATM   13  C   UNL     1      -9.827  10.803  68.055  1.00  0.00    -0.165 C  
BRANCH  13  14
HETATM   14  N   UNL     1      -9.786  10.356  69.465  1.00  0.00    -0.213 NA 
HETATM   15  N   UNL     1      -9.346   7.436  69.987  1.00  0.00    -0.152 NA 
HETATM   16  C   UNL     1     -10.830   9.370  69.804  1.00  0.00    -0.232 C  
HETATM   17  C   UNL     1      -8.477   9.848  69.930  1.00  0.00    -0.191 C  
HETATM   18  C   UNL     1      -8.162   8.311  69.864  1.00  0.00    -0.123 C  
HETATM   19  C   UNL     1     -10.512   7.967  69.269  1.00  0.00    -0.215 C  
BRANCH  15  20
HETATM   20  C   UNL     1      -9.632   6.786  71.173  1.00  0.00    -0.173 A  
HETATM   21  N   UNL     1     -10.089   7.429  72.239  1.00  0.00    -0.191 NA 
HETATM   22  S   UNL     1     -10.565   6.364  73.400  1.00  0.00    -0.273 SA 
HETATM   23  C   UNL     1     -10.199   4.952  72.501  1.00  0.00    -0.195 A  
HETATM   24  C   UNL     1     -10.413   3.615  72.867  1.00  0.00    -0.239 A  
HETATM   25  C   UNL     1     -10.019   2.619  71.970  1.00  0.00    -0.224 A  
HETATM   26  C   UNL     1      -9.428   2.962  70.763  1.00  0.00    -0.223 A  
HETATM   27  C   UNL     1      -9.240   4.296  70.397  1.00  0.00    -0.191 A  
HETATM   28  C   UNL     1      -9.616   5.342  71.297  1.00  0.00    -0.212 A  
ENDBRANCH  15  20
ENDBRANCH  13  14
ENDBRANCH  12  13
ENDBRANCH   3  12
TORSDOF 4
ENDMDL
MODEL       55
REMARK 921   NORMALIZED FREE ENERGY PREDICTED BY IDOCK:   -6.12 KCAL/MOL
REMARK 922        TOTAL FREE ENERGY PREDICTED BY IDOCK:   -8.08 KCAL/MOL
REMARK 923 INTER-LIGAND FREE ENERGY PREDICTED BY IDOCK:   -7.56 KCAL/MOL
REMARK 924 INTRA-LIGAND FREE ENERGY PREDICTED BY IDOCK:   -0.51 KCAL/MOL
REMARK 927      BINDING AFFINITY PREDICTED BY RF-SCORE:    0.00 PKD
ROOT
HETATM    1 CL   UNL     1      -7.699  13.402  68.395  1.00  0.00    -0.134 Cl 
HETATM    2  C   UNL     1      -9.272  13.449  67.681  1.00  0.00    -0.212 A  
HETATM    3  C   UNL     1     -10.225  12.422  67.918  1.00  0.00    -0.213 A  
HETATM    4  O   UNL     1     -12.471  14.050  63.089  1.00  0.00    -0.733 OA 
HETATM    5  C   UNL     1     -11.539  12.552  67.432  1.00  0.00    -0.434 A  
HETATM    6  C   UNL     1     -11.754  13.507  66.460  1.00  0.00    -0.408 A  
HETATM    7  N   UNL     1     -10.964  14.742  64.732  1.00  0.00    -0.393 NA 
HETATM    8  C   UNL     1     -12.880  13.603  65.475  1.00  0.00    -0.443 C  
HETATM    9  C   UNL     1      -9.511  14.416  66.706  1.00  0.00    -0.280 A  
HETATM   10  C   UNL     1     -10.711  14.326  66.037  1.00  0.00    -0.304 A  
HETATM   11  C   UNL     1     -12.134  14.145  64.257  1.00  0.00    -0.444 C  
ENDROOT
BRANCH   3  12
HETATM   12  C   UNL     1      -9.738  10.996  68.124  1.00  0.00    -0.180 C  
BRANCH  12  13
HETATM   13  C   UNL     1     -10.534   9.784  67.622  1.00  0.00    -0.251 C  
BRANCH  13  14
HETATM   14  N   UNL     1      -9.700   8.576  67.809  1.00  0.00    -0.156 NA 
HETATM   15  N   UNL     1     -10.824   6.355  69.481  1.00  0.00    -0.285 NA 
HETATM   16  C   UNL     1      -9.366   8.300  69.219  1.00  0.00    -0.155 C  
HETATM   17  C   UNL     1     -10.228   7.340  67.189  1.00  0.00    -0.269 C  
HETATM   18  C   UNL     1     -11.115   6.357  68.033  1.00  0.00    -0.267 C  
HETATM   19  C   UNL     1     -10.544   7.701  69.998  1.00  0.00    -0.238 C  
BRANCH  15  20
HETATM   20  C   UNL     1     -10.085   5.338  70.058  1.00  0.00    -0.266 A  
HETATM   21  N   UNL     1      -9.077   4.752  69.428  1.00  0.00    -0.098 NA 
HETATM   22  S   UNL     1      -8.247   3.767  70.451  1.00  0.00    -0.057 SA 
HETATM   23  C   UNL     1      -9.202   4.104  71.832  1.00  0.00    -0.126 A  
HETATM   24  C   UNL     1      -9.027   3.632  73.141  1.00  0.00    -0.107 A  
HETATM   25  C   UNL     1      -9.947   4.035  74.112  1.00  0.00    -0.183 A  
HETATM   26  C   UNL     1     -11.001   4.870  73.769  1.00  0.00    -0.361 A  
HETATM   27  C   UNL     1     -11.155   5.354  72.469  1.00  0.00    -0.310 A  
HETATM   28  C   UNL     1     -10.241   4.949  71.445  1.00  0.00    -0.257 A  
ENDBRANCH  15  20
ENDBRANCH  13  14
ENDBRANCH  12  13
ENDBRANCH   3  12
TORSDOF 4
ENDMDL
MODEL       56
REMARK 921   NORMALIZED FREE ENERGY PREDICTED BY IDOCK:   -6.12 KCAL/MOL
REMARK 922        TOTAL FREE ENERGY PREDICTED BY IDOCK:   -8.07 KCAL/MOL
REMARK 923 INTER-LIGAND FREE ENERGY PREDICTED BY IDOCK:   -7.83 KCAL/MOL
REMARK 924 INTRA-LIGAND FREE ENERGY PREDICTED BY IDOCK:   -0.24 KCAL/MOL
REMARK 927      BINDING AFFINITY PREDICTED BY RF-SCORE:    0.00 PKD
ROOT
HETATM    1 CL   UNL     1     -11.842   9.627  70.345  1.00  0.00    -0.258 Cl 
HETATM    2  C   UNL     1     -11.240   8.596  71.594  1.00  0.00    -0.309 A  
HETATM    3  C   UNL     1      -9.889   8.671  72.030  1.00  0.00    -0.396 A  
HETATM    4  O   UNL     1     -10.640   3.411  73.701  1.00  0.00    -0.158 OA 
HETATM    5  C   UNL     1      -9.461   7.913  73.135  1.00  0.00    -0.344 A  
HETATM    6  C   UNL     1     -10.278   6.878  73.538  1.00  0.00    -0.345 A  
HETATM    7  N   UNL     1     -11.826   5.304  73.025  1.00  0.00    -0.186 NA 
HETATM    8  C   UNL     1      -9.929   5.675  74.361  1.00  0.00    -0.262 C  
HETATM    9  C   UNL     1     -12.058   7.552  72.021  1.00  0.00    -0.326 A  
HETATM   10  C   UNL     1     -11.492   6.650  72.894  1.00  0.00    -0.065 A  
HETATM   11  C   UNL     1     -10.808   4.619  73.691  1.00  0.00    -0.302 C  
ENDROOT
BRANCH   3  12
HETATM   12  C   UNL     1      -8.807   9.035  71.024  1.00  0.00    -0.291 C  
BRANCH  12  13
HETATM   13  C   UNL     1      -8.454   8.123  69.843  1.00  0.00    -0.125 C  
BRANCH  13  14
HETATM   14  N   UNL     1      -8.108   8.979  68.686  1.00  0.00    -0.106 NA 
HETATM   15  N   UNL     1     -10.364  10.244  67.169  1.00  0.00    -0.225 NA 
HETATM   16  C   UNL     1      -8.668   8.500  67.408  1.00  0.00    -0.134 C  
HETATM   17  C   UNL     1      -8.429  10.415  68.843  1.00  0.00    -0.144 C  
HETATM   18  C   UNL     1      -9.801  10.974  68.323  1.00  0.00    -0.178 C  
HETATM   19  C   UNL     1     -10.169   8.792  67.275  1.00  0.00    -0.263 C  
BRANCH  15  20
HETATM   20  C   UNL     1     -10.276  10.757  65.888  1.00  0.00    -0.259 A  
HETATM   21  N   UNL     1      -9.598  10.145  64.927  1.00  0.00    -0.284 NA 
HETATM   22  S   UNL     1      -9.880  10.859  63.472  1.00  0.00    -0.382 SA 
HETATM   23  C   UNL     1     -10.974  12.036  64.065  1.00  0.00    -0.381 A  
HETATM   24  C   UNL     1     -11.689  12.997  63.335  1.00  0.00    -0.477 A  
HETATM   25  C   UNL     1     -12.522  13.870  64.040  1.00  0.00    -0.263 A  
HETATM   26  C   UNL     1     -12.618  13.778  65.422  1.00  0.00    -0.534 A  
HETATM   27  C   UNL     1     -11.920  12.804  66.137  1.00  0.00    -0.476 A  
HETATM   28  C   UNL     1     -11.046  11.904  65.451  1.00  0.00    -0.360 A  
ENDBRANCH  15  20
ENDBRANCH  13  14
ENDBRANCH  12  13
ENDBRANCH   3  12
TORSDOF 4
ENDMDL
MODEL       57
REMARK 921   NORMALIZED FREE ENERGY PREDICTED BY IDOCK:   -6.11 KCAL/MOL
REMARK 922        TOTAL FREE ENERGY PREDICTED BY IDOCK:   -8.06 KCAL/MOL
REMARK 923 INTER-LIGAND FREE ENERGY PREDICTED BY IDOCK:   -7.44 KCAL/MOL
REMARK 924 INTRA-LIGAND FREE ENERGY PREDICTED BY IDOCK:   -0.62 KCAL/MOL
REMARK 927      BINDING AFFINITY PREDICTED BY RF-SCORE:    0.00 PKD
ROOT
HETATM    1 CL   UNL     1      -9.398   3.104  69.593  1.00  0.00    -0.225 Cl 
HETATM    2  C   UNL     1      -9.866   4.455  70.564  1.00  0.00    -0.215 A  
HETATM    3  C   UNL     1     -10.676   5.499  70.041  1.00  0.00    -0.356 A  
HETATM    4  O   UNL     1      -8.409   8.622  74.056  1.00  0.00    -0.325 OA 
HETATM    5  C   UNL     1     -11.150   6.517  70.889  1.00  0.00    -0.345 A  
HETATM    6  C   UNL     1     -10.532   6.647  72.115  1.00  0.00    -0.228 A  
HETATM    7  N   UNL     1      -8.683   6.399  73.402  1.00  0.00    -0.124 NA 
HETATM    8  C   UNL     1     -10.503   7.836  73.027  1.00  0.00    -0.432 C  
HETATM    9  C   UNL     1      -9.260   4.595  71.811  1.00  0.00    -0.179 A  
HETATM   10  C   UNL     1      -9.523   5.763  72.490  1.00  0.00    -0.141 A  
HETATM   11  C   UNL     1      -9.083   7.725  73.580  1.00  0.00    -0.286 C  
ENDROOT
BRANCH   3  12
HETATM   12  C   UNL     1     -10.541   5.874  68.574  1.00  0.00    -0.317 C  
BRANCH  12  13
HETATM   13  C   UNL     1      -9.197   6.285  67.960  1.00  0.00    -0.116 C  
BRANCH  13  14
HETATM   14  N   UNL     1      -9.466   6.974  66.678  1.00  0.00    -0.163 NA 
HETATM   15  N   UNL     1      -9.327   9.969  66.653  1.00  0.00    -0.162 NA 
HETATM   16  C   UNL     1     -10.618   7.895  66.732  1.00  0.00    -0.163 C  
HETATM   17  C   UNL     1      -8.311   7.684  66.086  1.00  0.00    -0.134 C  
HETATM   18  C   UNL     1      -8.088   9.209  66.386  1.00  0.00    -0.107 C  
HETATM   19  C   UNL     1     -10.290   9.207  67.458  1.00  0.00    -0.261 C  
BRANCH  15  20
HETATM   20  C   UNL     1      -9.884  10.786  65.687  1.00  0.00    -0.245 A  
HETATM   21  N   UNL     1      -9.854  10.477  64.397  1.00  0.00    -0.322 NA 
HETATM   22  S   UNL     1     -10.803  11.505  63.532  1.00  0.00    -0.351 SA 
HETATM   23  C   UNL     1     -11.338  12.422  64.876  1.00  0.00    -0.317 A  
HETATM   24  C   UNL     1     -12.257  13.481  64.889  1.00  0.00    -0.447 A  
HETATM   25  C   UNL     1     -12.534  14.094  66.113  1.00  0.00    -0.426 A  
HETATM   26  C   UNL     1     -11.900  13.660  67.269  1.00  0.00    -0.429 A  
HETATM   27  C   UNL     1     -11.003  12.590  67.250  1.00  0.00    -0.300 A  
HETATM   28  C   UNL     1     -10.684  11.949  66.012  1.00  0.00    -0.326 A  
ENDBRANCH  15  20
ENDBRANCH  13  14
ENDBRANCH  12  13
ENDBRANCH   3  12
TORSDOF 4
ENDMDL
MODEL       58
REMARK 921   NORMALIZED FREE ENERGY PREDICTED BY IDOCK:   -6.09 KCAL/MOL
REMARK 922        TOTAL FREE ENERGY PREDICTED BY IDOCK:   -8.03 KCAL/MOL
REMARK 923 INTER-LIGAND FREE ENERGY PREDICTED BY IDOCK:   -7.50 KCAL/MOL
REMARK 924 INTRA-LIGAND FREE ENERGY PREDICTED BY IDOCK:   -0.53 KCAL/MOL
REMARK 927      BINDING AFFINITY PREDICTED BY RF-SCORE:    0.00 PKD
ROOT
HETATM    1 CL   UNL     1      -8.985   4.306  67.528  1.00  0.00    -0.123 Cl 
HETATM    2  C   UNL     1      -9.889   4.981  68.837  1.00  0.00    -0.175 A  
HETATM    3  C   UNL     1     -10.673   6.155  68.669  1.00  0.00    -0.370 A  
HETATM    4  O   UNL     1     -10.051   6.782  74.168  1.00  0.00    -0.317 OA 
HETATM    5  C   UNL     1     -11.500   6.607  69.713  1.00  0.00    -0.388 A  
HETATM    6  C   UNL     1     -11.261   6.090  70.969  1.00  0.00    -0.332 A  
HETATM    7  N   UNL     1      -9.811   5.202  72.467  1.00  0.00    -0.157 NA 
HETATM    8  C   UNL     1     -11.653   6.650  72.303  1.00  0.00    -0.313 C  
HETATM    9  C   UNL     1      -9.668   4.462  70.111  1.00  0.00    -0.288 A  
HETATM   10  C   UNL     1     -10.272   5.127  71.155  1.00  0.00    -0.221 A  
HETATM   11  C   UNL     1     -10.433   6.258  73.135  1.00  0.00    -0.239 C  
ENDROOT
BRANCH   3  12
HETATM   12  C   UNL     1     -10.204   7.223  67.692  1.00  0.00    -0.257 C  
BRANCH  12  13
HETATM   13  C   UNL     1     -10.072   8.696  68.098  1.00  0.00    -0.197 C  
BRANCH  13  14
HETATM   14  N   UNL     1     -10.794   9.516  67.101  1.00  0.00    -0.173 NA 
HETATM   15  N   UNL     1      -9.532  12.098  66.247  1.00  0.00    -0.232 NA 
HETATM   16  C   UNL     1     -11.156  10.860  67.591  1.00  0.00    -0.313 C  
HETATM   17  C   UNL     1     -10.128   9.647  65.787  1.00  0.00    -0.204 C  
HETATM   18  C   UNL     1      -9.186  10.870  65.502  1.00  0.00    -0.209 C  
HETATM   19  C   UNL     1      -9.957  11.817  67.624  1.00  0.00    -0.194 C  
BRANCH  15  20
HETATM   20  C   UNL     1     -10.193  13.144  65.630  1.00  0.00    -0.286 A  
HETATM   21  N   UNL     1     -11.316  12.966  64.947  1.00  0.00    -0.298 NA 
HETATM   22  S   UNL     1     -11.989  14.412  64.547  1.00  0.00    -0.461 SA 
HETATM   23  C   UNL     1     -10.795  15.377  65.308  1.00  0.00    -0.409 A  
HETATM   24  C   UNL     1     -10.755  16.774  65.422  1.00  0.00    -0.201 A  
HETATM   25  C   UNL     1      -9.666  17.347  66.082  1.00  0.00    -0.235 A  
HETATM   26  C   UNL     1      -8.659  16.541  66.596  1.00  0.00    -0.289 A  
HETATM   27  C   UNL     1      -8.718  15.150  66.498  1.00  0.00    -0.280 A  
HETATM   28  C   UNL     1      -9.810  14.529  65.815  1.00  0.00    -0.343 A  
ENDBRANCH  15  20
ENDBRANCH  13  14
ENDBRANCH  12  13
ENDBRANCH   3  12
TORSDOF 4
ENDMDL
MODEL       59
REMARK 921   NORMALIZED FREE ENERGY PREDICTED BY IDOCK:   -6.08 KCAL/MOL
REMARK 922        TOTAL FREE ENERGY PREDICTED BY IDOCK:   -8.03 KCAL/MOL
REMARK 923 INTER-LIGAND FREE ENERGY PREDICTED BY IDOCK:   -7.77 KCAL/MOL
REMARK 924 INTRA-LIGAND FREE ENERGY PREDICTED BY IDOCK:   -0.26 KCAL/MOL
REMARK 927      BINDING AFFINITY PREDICTED BY RF-SCORE:    0.00 PKD
ROOT
HETATM    1 CL   UNL     1     -11.025  19.564  66.534  1.00  0.00    -0.442 Cl 
HETATM    2  C   UNL     1      -9.495  18.913  67.002  1.00  0.00    -0.310 A  
HETATM    3  C   UNL     1      -9.229  17.518  66.932  1.00  0.00    -0.273 A  
HETATM    4  O   UNL     1      -5.371  18.542  70.815  1.00  0.00    -0.243 OA 
HETATM    5  C   UNL     1      -7.935  17.032  67.193  1.00  0.00    -0.214 A  
HETATM    6  C   UNL     1      -7.064  17.887  67.835  1.00  0.00    -0.210 A  
HETATM    7  N   UNL     1      -6.726  19.623  69.253  1.00  0.00    -0.344 NA 
HETATM    8  C   UNL     1      -5.822  17.553  68.606  1.00  0.00    -0.171 C  
HETATM    9  C   UNL     1      -8.597  19.766  67.642  1.00  0.00    -0.376 A  
HETATM   10  C   UNL     1      -7.458  19.184  68.151  1.00  0.00    -0.282 A  
HETATM   11  C   UNL     1      -5.899  18.599  69.718  1.00  0.00    -0.252 C  
ENDROOT
BRANCH   3  12
HETATM   12  C   UNL     1     -10.364  16.537  67.182  1.00  0.00    -0.298 C  
BRANCH  12  13
HETATM   13  C   UNL     1     -10.364  15.124  66.586  1.00  0.00    -0.274 C  
BRANCH  13  14
HETATM   14  N   UNL     1      -9.847  14.190  67.612  1.00  0.00    -0.226 NA 
HETATM   15  N   UNL     1     -10.648  11.309  67.400  1.00  0.00    -0.212 NA 
HETATM   16  C   UNL     1     -10.906  13.527  68.395  1.00  0.00    -0.267 C  
HETATM   17  C   UNL     1      -8.902  13.165  67.115  1.00  0.00    -0.222 C  
HETATM   18  C   UNL     1      -9.433  11.751  66.687  1.00  0.00    -0.205 C  
HETATM   19  C   UNL     1     -11.602  12.405  67.614  1.00  0.00    -0.357 C  
BRANCH  15  20
HETATM   20  C   UNL     1     -10.577  10.383  68.425  1.00  0.00    -0.208 A  
HETATM   21  N   UNL     1     -10.670  10.733  69.701  1.00  0.00    -0.234 NA 
HETATM   22  S   UNL     1     -10.799   9.403  70.660  1.00  0.00    -0.310 SA 
HETATM   23  C   UNL     1     -10.762   8.262  69.382  1.00  0.00    -0.151 A  
HETATM   24  C   UNL     1     -10.890   6.869  69.464  1.00  0.00    -0.287 A  
HETATM   25  C   UNL     1     -10.815   6.133  68.279  1.00  0.00    -0.387 A  
HETATM   26  C   UNL     1     -10.610   6.780  67.068  1.00  0.00    -0.405 A  
HETATM   27  C   UNL     1     -10.507   8.170  66.994  1.00  0.00    -0.396 A  
HETATM   28  C   UNL     1     -10.563   8.954  68.188  1.00  0.00    -0.211 A  
ENDBRANCH  15  20
ENDBRANCH  13  14
ENDBRANCH  12  13
ENDBRANCH   3  12
TORSDOF 4
ENDMDL
MODEL       60
REMARK 921   NORMALIZED FREE ENERGY PREDICTED BY IDOCK:   -6.07 KCAL/MOL
REMARK 922        TOTAL FREE ENERGY PREDICTED BY IDOCK:   -8.02 KCAL/MOL
REMARK 923 INTER-LIGAND FREE ENERGY PREDICTED BY IDOCK:   -7.29 KCAL/MOL
REMARK 924 INTRA-LIGAND FREE ENERGY PREDICTED BY IDOCK:   -0.73 KCAL/MOL
REMARK 927      BINDING AFFINITY PREDICTED BY RF-SCORE:    0.00 PKD
ROOT
HETATM    1 CL   UNL     1     -12.294  15.187  70.279  1.00  0.00    -0.380 Cl 
HETATM    2  C   UNL     1     -11.217  15.679  69.021  1.00  0.00    -0.306 A  
HETATM    3  C   UNL     1     -11.462  15.342  67.661  1.00  0.00    -0.287 A  
HETATM    4  O   UNL     1      -5.969  15.993  67.010  1.00  0.00    -0.334 OA 
HETATM    5  C   UNL     1     -10.641  15.865  66.646  1.00  0.00    -0.305 A  
HETATM    6  C   UNL     1      -9.434  16.407  67.034  1.00  0.00    -0.240 A  
HETATM    7  N   UNL     1      -7.704  16.465  68.498  1.00  0.00    -0.184 NA 
HETATM    8  C   UNL     1      -8.205  16.644  66.210  1.00  0.00    -0.365 C  
HETATM    9  C   UNL     1      -9.997  16.239  69.396  1.00  0.00    -0.232 A  
HETATM   10  C   UNL     1      -9.093  16.467  68.383  1.00  0.00    -0.214 A  
HETATM   11  C   UNL     1      -7.118  16.330  67.238  1.00  0.00    -0.190 C  
ENDROOT
BRANCH   3  12
HETATM   12  C   UNL     1     -12.146  14.022  67.339  1.00  0.00    -0.384 C  
BRANCH  12  13
HETATM   13  C   UNL     1     -11.439  12.908  66.557  1.00  0.00    -0.341 C  
BRANCH  13  14
HETATM   14  N   UNL     1     -10.297  12.429  67.367  1.00  0.00    -0.207 NA 
HETATM   15  N   UNL     1     -10.418   9.625  68.421  1.00  0.00    -0.214 NA 
HETATM   16  C   UNL     1     -10.668  12.036  68.739  1.00  0.00    -0.220 C  
HETATM   17  C   UNL     1      -9.498  11.344  66.755  1.00  0.00    -0.182 C  
HETATM   18  C   UNL     1      -9.829   9.845  67.084  1.00  0.00    -0.186 C  
HETATM   19  C   UNL     1     -11.375  10.675  68.791  1.00  0.00    -0.277 C  
BRANCH  15  20
HETATM   20  C   UNL     1      -9.655   9.131  69.463  1.00  0.00    -0.168 A  
HETATM   21  N   UNL     1      -8.341   9.301  69.520  1.00  0.00    -0.122 NA 
HETATM   22  S   UNL     1      -7.756   8.824  70.981  1.00  0.00    -0.129 SA 
HETATM   23  C   UNL     1      -9.274   8.380  71.640  1.00  0.00    -0.206 A  
HETATM   24  C   UNL     1      -9.552   7.918  72.935  1.00  0.00    -0.329 A  
HETATM   25  C   UNL     1     -10.876   7.602  73.247  1.00  0.00    -0.379 A  
HETATM   26  C   UNL     1     -11.871   7.739  72.288  1.00  0.00    -0.378 A  
HETATM   27  C   UNL     1     -11.588   8.222  71.009  1.00  0.00    -0.301 A  
HETATM   28  C   UNL     1     -10.241   8.540  70.649  1.00  0.00    -0.230 A  
ENDBRANCH  15  20
ENDBRANCH  13  14
ENDBRANCH  12  13
ENDBRANCH   3  12
TORSDOF 4
ENDMDL
MODEL       61
REMARK 921   NORMALIZED FREE ENERGY PREDICTED BY IDOCK:   -6.04 KCAL/MOL
REMARK 922        TOTAL FREE ENERGY PREDICTED BY IDOCK:   -7.98 KCAL/MOL
REMARK 923 INTER-LIGAND FREE ENERGY PREDICTED BY IDOCK:   -7.40 KCAL/MOL
REMARK 924 INTRA-LIGAND FREE ENERGY PREDICTED BY IDOCK:   -0.58 KCAL/MOL
REMARK 927      BINDING AFFINITY PREDICTED BY RF-SCORE:    0.00 PKD
ROOT
HETATM    1 CL   UNL     1      -7.098  15.661  67.280  1.00  0.00    -0.244 Cl 
HETATM    2  C   UNL     1      -8.689  15.079  66.944  1.00  0.00    -0.256 A  
HETATM    3  C   UNL     1      -9.119  13.799  67.387  1.00  0.00    -0.221 A  
HETATM    4  O   UNL     1     -12.785  14.113  63.206  1.00  0.00    -0.714 OA 
HETATM    5  C   UNL     1     -10.459  13.405  67.214  1.00  0.00    -0.248 A  
HETATM    6  C   UNL     1     -11.215  14.136  66.322  1.00  0.00    -0.329 A  
HETATM    7  N   UNL     1     -11.328  15.431  64.466  1.00  0.00    -0.363 NA 
HETATM    8  C   UNL     1     -12.479  13.740  65.621  1.00  0.00    -0.541 C  
HETATM    9  C   UNL     1      -9.472  15.812  66.054  1.00  0.00    -0.392 A  
HETATM   10  C   UNL     1     -10.666  15.241  65.676  1.00  0.00    -0.365 A  
HETATM   11  C   UNL     1     -12.266  14.416  64.267  1.00  0.00    -0.423 C  
ENDROOT
BRANCH   3  12
HETATM   12  C   UNL     1      -8.107  12.667  67.469  1.00  0.00    -0.178 C  
BRANCH  12  13
HETATM   13  C   UNL     1      -7.890  11.860  68.755  1.00  0.00    -0.052 C  
BRANCH  13  14
HETATM   14  N   UNL     1      -8.024  10.423  68.427  1.00  0.00    -0.106 NA 
HETATM   15  N   UNL     1     -10.269   8.907  69.711  1.00  0.00    -0.195 NA 
HETATM   16  C   UNL     1      -7.909   9.536  69.600  1.00  0.00    -0.116 C  
HETATM   17  C   UNL     1      -9.238  10.059  67.665  1.00  0.00    -0.137 C  
HETATM   18  C   UNL     1     -10.528   9.584  68.424  1.00  0.00    -0.224 C  
HETATM   19  C   UNL     1      -9.177   9.536  70.465  1.00  0.00    -0.225 C  
BRANCH  15  20
HETATM   20  C   UNL     1     -10.343   7.531  69.821  1.00  0.00    -0.221 A  
HETATM   21  N   UNL     1     -10.076   6.725  68.801  1.00  0.00    -0.154 NA 
HETATM   22  S   UNL     1     -10.008   5.160  69.300  1.00  0.00    -0.212 SA 
HETATM   23  C   UNL     1     -10.312   5.490  70.953  1.00  0.00    -0.242 A  
HETATM   24  C   UNL     1     -10.342   4.585  72.024  1.00  0.00    -0.216 A  
HETATM   25  C   UNL     1     -10.626   5.085  73.297  1.00  0.00    -0.287 A  
HETATM   26  C   UNL     1     -10.877   6.439  73.474  1.00  0.00    -0.198 A  
HETATM   27  C   UNL     1     -10.822   7.336  72.406  1.00  0.00    -0.293 A  
HETATM   28  C   UNL     1     -10.551   6.857  71.086  1.00  0.00    -0.246 A  
ENDBRANCH  15  20
ENDBRANCH  13  14
ENDBRANCH  12  13
ENDBRANCH   3  12
TORSDOF 4
ENDMDL
MODEL       62
REMARK 921   NORMALIZED FREE ENERGY PREDICTED BY IDOCK:   -6.00 KCAL/MOL
REMARK 922        TOTAL FREE ENERGY PREDICTED BY IDOCK:   -7.92 KCAL/MOL
REMARK 923 INTER-LIGAND FREE ENERGY PREDICTED BY IDOCK:   -7.39 KCAL/MOL
REMARK 924 INTRA-LIGAND FREE ENERGY PREDICTED BY IDOCK:   -0.53 KCAL/MOL
REMARK 927      BINDING AFFINITY PREDICTED BY RF-SCORE:    0.00 PKD
ROOT
HETATM    1 CL   UNL     1     -12.274  13.722  64.177  1.00  0.00    -0.465 Cl 
HETATM    2  C   UNL     1     -11.057  14.541  65.090  1.00  0.00    -0.370 A  
HETATM    3  C   UNL     1     -10.185  13.836  65.964  1.00  0.00    -0.315 A  
HETATM    4  O   UNL     1      -9.640  18.719  68.586  1.00  0.00    -0.353 OA 
HETATM    5  C   UNL     1      -9.121  14.508  66.593  1.00  0.00    -0.277 A  
HETATM    6  C   UNL     1      -9.171  15.886  66.603  1.00  0.00    -0.280 A  
HETATM    7  N   UNL     1     -10.397  17.792  66.582  1.00  0.00    -0.352 NA 
HETATM    8  C   UNL     1      -8.461  16.842  67.514  1.00  0.00    -0.203 C  
HETATM    9  C   UNL     1     -11.085  15.934  65.102  1.00  0.00    -0.319 A  
HETATM   10  C   UNL     1     -10.213  16.556  65.967  1.00  0.00    -0.356 A  
HETATM   11  C   UNL     1      -9.533  17.920  67.671  1.00  0.00    -0.260 C  
ENDROOT
BRANCH   3  12
HETATM   12  C   UNL     1     -10.704  12.602  66.687  1.00  0.00    -0.275 C  
BRANCH  12  13
HETATM   13  C   UNL     1     -11.618  12.703  67.914  1.00  0.00    -0.349 C  
BRANCH  13  14
HETATM   14  N   UNL     1     -12.026  11.333  68.299  1.00  0.00    -0.621 NA 
HETATM   15  N   UNL     1     -10.590  10.048  70.596  1.00  0.00    -0.267 NA 
HETATM   16  C   UNL     1     -10.939  10.341  68.194  1.00  0.00    -0.274 C  
HETATM   17  C   UNL     1     -12.661  11.212  69.630  1.00  0.00    -0.006 C  
HETATM   18  C   UNL     1     -11.787  10.863  70.887  1.00  0.00    -0.258 C  
HETATM   19  C   UNL     1      -9.931  10.447  69.346  1.00  0.00    -0.218 C  
BRANCH  15  20
HETATM   20  C   UNL     1     -10.568   8.692  70.865  1.00  0.00    -0.214 A  
HETATM   21  N   UNL     1     -11.622   7.914  70.663  1.00  0.00    -0.248 NA 
HETATM   22  S   UNL     1     -11.217   6.329  70.836  1.00  0.00    -0.317 SA 
HETATM   23  C   UNL     1      -9.561   6.609  71.174  1.00  0.00    -0.170 A  
HETATM   24  C   UNL     1      -8.549   5.660  71.383  1.00  0.00    -0.132 A  
HETATM   25  C   UNL     1      -7.261   6.125  71.658  1.00  0.00    -0.087 A  
HETATM   26  C   UNL     1      -7.013   7.489  71.727  1.00  0.00    -0.062 A  
HETATM   27  C   UNL     1      -8.021   8.426  71.495  1.00  0.00    -0.161 A  
HETATM   28  C   UNL     1      -9.355   7.986  71.227  1.00  0.00    -0.182 A  
ENDBRANCH  15  20
ENDBRANCH  13  14
ENDBRANCH  12  13
ENDBRANCH   3  12
TORSDOF 4
ENDMDL
MODEL       63
REMARK 921   NORMALIZED FREE ENERGY PREDICTED BY IDOCK:   -5.99 KCAL/MOL
REMARK 922        TOTAL FREE ENERGY PREDICTED BY IDOCK:   -7.91 KCAL/MOL
REMARK 923 INTER-LIGAND FREE ENERGY PREDICTED BY IDOCK:   -7.41 KCAL/MOL
REMARK 924 INTRA-LIGAND FREE ENERGY PREDICTED BY IDOCK:   -0.50 KCAL/MOL
REMARK 927      BINDING AFFINITY PREDICTED BY RF-SCORE:    0.00 PKD
ROOT
HETATM    1 CL   UNL     1     -12.191  13.704  71.308  1.00  0.00    -0.350 Cl 
HETATM    2  C   UNL     1     -11.995  14.158  69.653  1.00  0.00    -0.336 A  
HETATM    3  C   UNL     1     -11.906  13.183  68.622  1.00  0.00    -0.363 A  
HETATM    4  O   UNL     1      -9.235  17.144  65.761  1.00  0.00    -0.524 OA 
HETATM    5  C   UNL     1     -11.879  13.582  67.273  1.00  0.00    -0.427 A  
HETATM    6  C   UNL     1     -11.599  14.908  67.019  1.00  0.00    -0.314 A  
HETATM    7  N   UNL     1     -10.589  16.840  67.637  1.00  0.00    -0.331 NA 
HETATM    8  C   UNL     1     -11.095  15.532  65.753  1.00  0.00    -0.217 C  
HETATM    9  C   UNL     1     -11.723  15.497  69.377  1.00  0.00    -0.382 A  
HETATM   10  C   UNL     1     -11.407  15.799  68.071  1.00  0.00    -0.310 A  
HETATM   11  C   UNL     1     -10.174  16.609  66.324  1.00  0.00    -0.334 C  
ENDROOT
BRANCH   3  12
HETATM   12  C   UNL     1     -11.248  11.845  68.926  1.00  0.00    -0.310 C  
BRANCH  12  13
HETATM   13  C   UNL     1     -11.358  10.649  67.973  1.00  0.00    -0.278 C  
BRANCH  13  14
HETATM   14  N   UNL     1     -10.186   9.773  68.194  1.00  0.00    -0.176 NA 
HETATM   15  N   UNL     1     -10.658   7.128  69.523  1.00  0.00    -0.229 NA 
HETATM   16  C   UNL     1      -9.940   9.463  69.614  1.00  0.00    -0.197 C  
HETATM   17  C   UNL     1     -10.182   8.513  67.418  1.00  0.00    -0.261 C  
HETATM   18  C   UNL     1     -10.766   7.200  68.052  1.00  0.00    -0.171 C  
HETATM   19  C   UNL     1     -10.920   8.420  70.168  1.00  0.00    -0.215 C  
BRANCH  15  20
HETATM   20  C   UNL     1      -9.685   6.354  70.129  1.00  0.00    -0.166 A  
HETATM   21  N   UNL     1      -8.443   6.291  69.668  1.00  0.00    -0.127 NA 
HETATM   22  S   UNL     1      -7.469   5.499  70.730  1.00  0.00    -0.090 SA 
HETATM   23  C   UNL     1      -8.684   5.215  71.904  1.00  0.00    -0.130 A  
HETATM   24  C   UNL     1      -8.547   4.607  73.160  1.00  0.00    -0.102 A  
HETATM   25  C   UNL     1      -9.691   4.471  73.950  1.00  0.00    -0.153 A  
HETATM   26  C   UNL     1     -10.918   4.922  73.484  1.00  0.00    -0.397 A  
HETATM   27  C   UNL     1     -11.041   5.547  72.242  1.00  0.00    -0.297 A  
HETATM   28  C   UNL     1      -9.894   5.689  71.400  1.00  0.00    -0.221 A  
ENDBRANCH  15  20
ENDBRANCH  13  14
ENDBRANCH  12  13
ENDBRANCH   3  12
TORSDOF 4
ENDMDL
MODEL       64
REMARK 921   NORMALIZED FREE ENERGY PREDICTED BY IDOCK:   -5.96 KCAL/MOL
REMARK 922        TOTAL FREE ENERGY PREDICTED BY IDOCK:   -7.87 KCAL/MOL
REMARK 923 INTER-LIGAND FREE ENERGY PREDICTED BY IDOCK:   -7.41 KCAL/MOL
REMARK 924 INTRA-LIGAND FREE ENERGY PREDICTED BY IDOCK:   -0.46 KCAL/MOL
REMARK 927      BINDING AFFINITY PREDICTED BY RF-SCORE:    0.00 PKD
ROOT
HETATM    1 CL   UNL     1     -11.981  14.284  64.148  1.00  0.00    -0.439 Cl 
HETATM    2  C   UNL     1     -10.910  15.318  65.025  1.00  0.00    -0.439 A  
HETATM    3  C   UNL     1      -9.864  14.791  65.831  1.00  0.00    -0.363 A  
HETATM    4  O   UNL     1     -10.194  19.622  68.582  1.00  0.00    -0.433 OA 
HETATM    5  C   UNL     1      -8.929  15.655  66.428  1.00  0.00    -0.362 A  
HETATM    6  C   UNL     1      -9.261  16.992  66.487  1.00  0.00    -0.296 A  
HETATM    7  N   UNL     1     -10.853  18.602  66.589  1.00  0.00    -0.228 NA 
HETATM    8  C   UNL     1      -8.714  18.055  67.392  1.00  0.00    -0.248 C  
HETATM    9  C   UNL     1     -11.225  16.675  65.085  1.00  0.00     0.020 A  
HETATM   10  C   UNL     1     -10.453  17.445  65.925  1.00  0.00    -0.252 A  
HETATM   11  C   UNL     1      -9.975  18.883  67.637  1.00  0.00    -0.349 C  
ENDROOT
BRANCH   3  12
HETATM   12  C   UNL     1     -10.076  13.461  66.538  1.00  0.00    -0.280 C  
BRANCH  12  13
HETATM   13  C   UNL     1      -8.902  12.606  67.032  1.00  0.00    -0.212 C  
BRANCH  13  14
HETATM   14  N   UNL     1      -9.298  11.183  66.942  1.00  0.00    -0.173 NA 
HETATM   15  N   UNL     1     -10.373   9.879  69.419  1.00  0.00    -0.206 NA 
HETATM   16  C   UNL     1      -8.544  10.301  67.852  1.00  0.00    -0.118 C  
HETATM   17  C   UNL     1     -10.744  10.917  67.103  1.00  0.00    -0.270 C  
HETATM   18  C   UNL     1     -11.324  10.562  68.519  1.00  0.00    -0.257 C  
HETATM   19  C   UNL     1      -9.011  10.419  69.309  1.00  0.00    -0.163 C  
BRANCH  15  20
HETATM   20  C   UNL     1     -10.449   8.515  69.634  1.00  0.00    -0.221 A  
HETATM   21  N   UNL     1     -10.268   7.635  68.659  1.00  0.00    -0.195 NA 
HETATM   22  S   UNL     1     -10.174   6.108  69.264  1.00  0.00    -0.223 SA 
HETATM   23  C   UNL     1     -10.348   6.561  70.907  1.00  0.00    -0.207 A  
HETATM   24  C   UNL     1     -10.304   5.737  72.040  1.00  0.00    -0.254 A  
HETATM   25  C   UNL     1     -10.486   6.331  73.291  1.00  0.00    -0.267 A  
HETATM   26  C   UNL     1     -10.712   7.698  73.387  1.00  0.00    -0.330 A  
HETATM   27  C   UNL     1     -10.731   8.514  72.256  1.00  0.00    -0.411 A  
HETATM   28  C   UNL     1     -10.565   7.937  70.958  1.00  0.00    -0.232 A  
ENDBRANCH  15  20
ENDBRANCH  13  14
ENDBRANCH  12  13
ENDBRANCH   3  12
TORSDOF 4
ENDMDL
MODEL       65
REMARK 921   NORMALIZED FREE ENERGY PREDICTED BY IDOCK:   -5.94 KCAL/MOL
REMARK 922        TOTAL FREE ENERGY PREDICTED BY IDOCK:   -7.85 KCAL/MOL
REMARK 923 INTER-LIGAND FREE ENERGY PREDICTED BY IDOCK:   -7.37 KCAL/MOL
REMARK 924 INTRA-LIGAND FREE ENERGY PREDICTED BY IDOCK:   -0.48 KCAL/MOL
REMARK 927      BINDING AFFINITY PREDICTED BY RF-SCORE:    0.00 PKD
ROOT
HETATM    1 CL   UNL     1     -12.063  13.479  67.825  1.00  0.00    -0.362 Cl 
HETATM    2  C   UNL     1     -11.358  12.007  67.261  1.00  0.00    -0.330 A  
HETATM    3  C   UNL     1     -11.316  10.844  68.078  1.00  0.00    -0.382 A  
HETATM    4  O   UNL     1      -7.006   9.340  64.888  1.00  0.00    -0.087 OA 
HETATM    5  C   UNL     1     -10.855   9.625  67.547  1.00  0.00    -0.265 A  
HETATM    6  C   UNL     1     -10.148   9.685  66.365  1.00  0.00    -0.317 A  
HETATM    7  N   UNL     1      -8.793  10.838  64.961  1.00  0.00    -0.195 NA 
HETATM    8  C   UNL     1      -9.199   8.677  65.789  1.00  0.00    -0.245 C  
HETATM    9  C   UNL     1     -10.649  12.047  66.062  1.00  0.00    -0.303 A  
HETATM   10  C   UNL     1      -9.959  10.905  65.721  1.00  0.00    -0.247 A  
HETATM   11  C   UNL     1      -8.166   9.605  65.152  1.00  0.00    -0.134 C  
ENDROOT
BRANCH   3  12
HETATM   12  C   UNL     1     -11.170  11.004  69.583  1.00  0.00    -0.345 C  
BRANCH  12  13
HETATM   13  C   UNL     1     -12.203  10.439  70.566  1.00  0.00    -0.323 C  
BRANCH  13  14
HETATM   14  N   UNL     1     -11.485   9.626  71.574  1.00  0.00    -0.385 NA 
HETATM   15  N   UNL     1     -10.905   6.764  70.895  1.00  0.00    -0.240 NA 
HETATM   16  C   UNL     1     -12.249   8.454  72.041  1.00  0.00    -0.362 C  
HETATM   17  C   UNL     1     -10.126   9.190  71.184  1.00  0.00    -0.314 C  
HETATM   18  C   UNL     1      -9.916   7.789  70.506  1.00  0.00    -0.187 C  
HETATM   19  C   UNL     1     -12.262   7.312  71.016  1.00  0.00    -0.313 C  
BRANCH  15  20
HETATM   20  C   UNL     1     -10.587   5.776  71.809  1.00  0.00    -0.238 A  
HETATM   21  N   UNL     1     -10.915   5.867  73.091  1.00  0.00    -0.262 NA 
HETATM   22  S   UNL     1     -10.625   4.445  73.866  1.00  0.00    -0.281 SA 
HETATM   23  C   UNL     1     -10.057   3.605  72.485  1.00  0.00    -0.168 A  
HETATM   24  C   UNL     1      -9.667   2.262  72.390  1.00  0.00    -0.188 A  
HETATM   25  C   UNL     1      -9.221   1.795  71.151  1.00  0.00    -0.166 A  
HETATM   26  C   UNL     1      -9.165   2.653  70.062  1.00  0.00    -0.202 A  
HETATM   27  C   UNL     1      -9.577   3.983  70.160  1.00  0.00    -0.270 A  
HETATM   28  C   UNL     1     -10.024   4.500  71.416  1.00  0.00    -0.259 A  
ENDBRANCH  15  20
ENDBRANCH  13  14
ENDBRANCH  12  13
ENDBRANCH   3  12
TORSDOF 4
ENDMDL
MODEL       66
REMARK 921   NORMALIZED FREE ENERGY PREDICTED BY IDOCK:   -5.93 KCAL/MOL
REMARK 922        TOTAL FREE ENERGY PREDICTED BY IDOCK:   -7.84 KCAL/MOL
REMARK 923 INTER-LIGAND FREE ENERGY PREDICTED BY IDOCK:   -7.62 KCAL/MOL
REMARK 924 INTRA-LIGAND FREE ENERGY PREDICTED BY IDOCK:   -0.22 KCAL/MOL
REMARK 927      BINDING AFFINITY PREDICTED BY RF-SCORE:    0.00 PKD
ROOT
HETATM    1 CL   UNL     1     -10.543   5.870  66.891  1.00  0.00    -0.347 Cl 
HETATM    2  C   UNL     1     -10.816   6.761  68.347  1.00  0.00    -0.223 A  
HETATM    3  C   UNL     1     -10.497   8.143  68.441  1.00  0.00    -0.205 A  
HETATM    4  O   UNL     1     -10.181   7.205  73.922  1.00  0.00    -0.346 OA 
HETATM    5  C   UNL     1     -10.851   8.871  69.592  1.00  0.00    -0.186 A  
HETATM    6  C   UNL     1     -11.185   8.144  70.715  1.00  0.00    -0.275 A  
HETATM    7  N   UNL     1     -10.975   6.252  71.945  1.00  0.00    -0.245 NA 
HETATM    8  C   UNL     1     -11.189   8.583  72.148  1.00  0.00    -0.432 C  
HETATM    9  C   UNL     1     -11.166   6.042  69.489  1.00  0.00    -0.416 A  
HETATM   10  C   UNL     1     -11.213   6.752  70.667  1.00  0.00    -0.312 A  
HETATM   11  C   UNL     1     -10.715   7.300  72.830  1.00  0.00    -0.322 C  
ENDROOT
BRANCH   3  12
HETATM   12  C   UNL     1      -9.309   8.682  67.660  1.00  0.00    -0.157 C  
BRANCH  12  13
HETATM   13  C   UNL     1      -9.430   9.127  66.198  1.00  0.00    -0.245 C  
BRANCH  13  14
HETATM   14  N   UNL     1      -8.897  10.504  66.088  1.00  0.00    -0.154 NA 
HETATM   15  N   UNL     1     -10.756  12.769  66.723  1.00  0.00    -0.258 NA 
HETATM   16  C   UNL     1      -9.612  11.338  65.104  1.00  0.00    -0.235 C  
HETATM   17  C   UNL     1      -8.795  11.246  67.364  1.00  0.00    -0.145 C  
HETATM   18  C   UNL     1      -9.971  12.178  67.826  1.00  0.00    -0.198 C  
HETATM   19  C   UNL     1     -10.973  11.823  65.621  1.00  0.00    -0.295 C  
BRANCH  15  20
HETATM   20  C   UNL     1     -10.570  14.085  66.341  1.00  0.00    -0.280 A  
HETATM   21  N   UNL     1     -10.703  14.480  65.082  1.00  0.00    -0.378 NA 
HETATM   22  S   UNL     1     -10.666  16.121  64.981  1.00  0.00    -0.215 SA 
HETATM   23  C   UNL     1     -10.493  16.395  66.664  1.00  0.00    -0.274 A  
HETATM   24  C   UNL     1     -10.451  17.623  67.339  1.00  0.00    -0.356 A  
HETATM   25  C   UNL     1     -10.289  17.603  68.727  1.00  0.00    -0.348 A  
HETATM   26  C   UNL     1     -10.168  16.393  69.397  1.00  0.00    -0.273 A  
HETATM   27  C   UNL     1     -10.234  15.175  68.718  1.00  0.00    -0.235 A  
HETATM   28  C   UNL     1     -10.382  15.158  67.296  1.00  0.00    -0.261 A  
ENDBRANCH  15  20
ENDBRANCH  13  14
ENDBRANCH  12  13
ENDBRANCH   3  12
TORSDOF 4
ENDMDL
MODEL       67
REMARK 921   NORMALIZED FREE ENERGY PREDICTED BY IDOCK:   -5.91 KCAL/MOL
REMARK 922        TOTAL FREE ENERGY PREDICTED BY IDOCK:   -7.82 KCAL/MOL
REMARK 923 INTER-LIGAND FREE ENERGY PREDICTED BY IDOCK:   -7.41 KCAL/MOL
REMARK 924 INTRA-LIGAND FREE ENERGY PREDICTED BY IDOCK:   -0.41 KCAL/MOL
REMARK 927      BINDING AFFINITY PREDICTED BY RF-SCORE:    0.00 PKD
ROOT
HETATM    1 CL   UNL     1     -12.408  12.829  63.305  1.00  0.00    -0.546 Cl 
HETATM    2  C   UNL     1     -11.609  13.198  64.792  1.00  0.00    -0.333 A  
HETATM    3  C   UNL     1     -10.372  12.592  65.139  1.00  0.00    -0.312 A  
HETATM    4  O   UNL     1     -11.836  13.725  70.392  1.00  0.00    -0.302 OA 
HETATM    5  C   UNL     1      -9.680  13.008  66.292  1.00  0.00    -0.265 A  
HETATM    6  C   UNL     1     -10.391  13.744  67.216  1.00  0.00    -0.253 A  
HETATM    7  N   UNL     1     -12.373  14.264  68.185  1.00  0.00    -0.112 NA 
HETATM    8  C   UNL     1     -10.093  13.962  68.669  1.00  0.00    -0.203 C  
HETATM    9  C   UNL     1     -12.309  13.952  65.733  1.00  0.00    -0.518 A  
HETATM   10  C   UNL     1     -11.717  14.089  66.968  1.00  0.00    -0.398 A  
HETATM   11  C   UNL     1     -11.510  13.966  69.242  1.00  0.00    -0.297 C  
ENDROOT
BRANCH   3  12
HETATM   12  C   UNL     1     -10.094  11.167  64.684  1.00  0.00    -0.358 C  
BRANCH  12  13
HETATM   13  C   UNL     1      -9.177  10.225  65.474  1.00  0.00    -0.190 C  
BRANCH  13  14
HETATM   14  N   UNL     1     -10.018   9.177  66.097  1.00  0.00    -0.294 NA 
HETATM   15  N   UNL     1      -9.221   8.187  68.812  1.00  0.00    -0.144 NA 
HETATM   16  C   UNL     1      -9.289   7.927  66.382  1.00  0.00    -0.189 C  
HETATM   17  C   UNL     1     -10.752   9.595  67.311  1.00  0.00    -0.214 C  
HETATM   18  C   UNL     1     -10.123   9.354  68.730  1.00  0.00    -0.193 C  
HETATM   19  C   UNL     1      -8.383   8.041  67.615  1.00  0.00    -0.128 C  
BRANCH  15  20
HETATM   20  C   UNL     1      -9.641   7.000  69.384  1.00  0.00    -0.155 A  
HETATM   21  N   UNL     1      -9.475   5.829  68.784  1.00  0.00    -0.121 NA 
HETATM   22  S   UNL     1      -9.845   4.595  69.806  1.00  0.00    -0.222 SA 
HETATM   23  C   UNL     1     -10.231   5.589  71.147  1.00  0.00    -0.222 A  
HETATM   24  C   UNL     1     -10.595   5.191  72.441  1.00  0.00    -0.278 A  
HETATM   25  C   UNL     1     -10.880   6.188  73.378  1.00  0.00    -0.243 A  
HETATM   26  C   UNL     1     -10.808   7.526  73.015  1.00  0.00    -0.445 A  
HETATM   27  C   UNL     1     -10.423   7.913  71.731  1.00  0.00    -0.272 A  
HETATM   28  C   UNL     1     -10.140   6.920  70.742  1.00  0.00    -0.208 A  
ENDBRANCH  15  20
ENDBRANCH  13  14
ENDBRANCH  12  13
ENDBRANCH   3  12
TORSDOF 4
ENDMDL
MODEL       68
REMARK 921   NORMALIZED FREE ENERGY PREDICTED BY IDOCK:   -5.89 KCAL/MOL
REMARK 922        TOTAL FREE ENERGY PREDICTED BY IDOCK:   -7.79 KCAL/MOL
REMARK 923 INTER-LIGAND FREE ENERGY PREDICTED BY IDOCK:   -7.14 KCAL/MOL
REMARK 924 INTRA-LIGAND FREE ENERGY PREDICTED BY IDOCK:   -0.65 KCAL/MOL
REMARK 927      BINDING AFFINITY PREDICTED BY RF-SCORE:    0.00 PKD
ROOT
HETATM    1 CL   UNL     1      -8.558   4.634  71.779  1.00  0.00    -0.123 Cl 
HETATM    2  C   UNL     1      -8.603   5.069  70.107  1.00  0.00    -0.098 A  
HETATM    3  C   UNL     1      -8.641   6.429  69.696  1.00  0.00    -0.134 A  
HETATM    4  O   UNL     1     -10.932   4.452  65.020  1.00  0.00    -0.247 OA 
HETATM    5  C   UNL     1      -8.544   6.757  68.331  1.00  0.00    -0.125 A  
HETATM    6  C   UNL     1      -8.757   5.738  67.427  1.00  0.00    -0.107 A  
HETATM    7  N   UNL     1      -9.746   3.765  66.910  1.00  0.00    -0.180 NA 
HETATM    8  C   UNL     1      -9.134   5.834  65.979  1.00  0.00    -0.163 C  
HETATM    9  C   UNL     1      -8.805   4.050  69.179  1.00  0.00    -0.147 A  
HETATM   10  C   UNL     1      -9.002   4.442  67.874  1.00  0.00    -0.119 A  
HETATM   11  C   UNL     1     -10.061   4.625  65.855  1.00  0.00    -0.258 C  
ENDROOT
BRANCH   3  12
HETATM   12  C   UNL     1      -9.368   7.444  70.566  1.00  0.00    -0.157 C  
BRANCH  12  13
HETATM   13  C   UNL     1     -10.638   8.160  70.092  1.00  0.00    -0.237 C  
BRANCH  13  14
HETATM   14  N   UNL     1     -10.420   9.619  70.220  1.00  0.00    -0.262 NA 
HETATM   15  N   UNL     1     -12.097  11.430  68.517  1.00  0.00    -0.567 NA 
HETATM   16  C   UNL     1      -9.995  10.265  68.964  1.00  0.00    -0.213 C  
HETATM   17  C   UNL     1     -11.552  10.380  70.792  1.00  0.00    -0.358 C  
HETATM   18  C   UNL     1     -12.616  11.038  69.843  1.00  0.00    -0.136 C  
HETATM   19  C   UNL     1     -11.152  10.446  67.972  1.00  0.00    -0.298 C  
BRANCH  15  20
HETATM   20  C   UNL     1     -11.804  12.749  68.227  1.00  0.00    -0.312 A  
HETATM   21  N   UNL     1     -11.296  13.575  69.131  1.00  0.00    -0.271 NA 
HETATM   22  S   UNL     1     -10.829  14.988  68.430  1.00  0.00    -0.267 SA 
HETATM   23  C   UNL     1     -11.271  14.546  66.835  1.00  0.00    -0.336 A  
HETATM   24  C   UNL     1     -11.098  15.282  65.654  1.00  0.00    -0.308 A  
HETATM   25  C   UNL     1     -11.551  14.720  64.458  1.00  0.00    -0.366 A  
HETATM   26  C   UNL     1     -12.161  13.473  64.462  1.00  0.00    -0.460 A  
HETATM   27  C   UNL     1     -12.309  12.737  65.639  1.00  0.00    -0.444 A  
HETATM   28  C   UNL     1     -11.871  13.288  66.883  1.00  0.00    -0.446 A  
ENDBRANCH  15  20
ENDBRANCH  13  14
ENDBRANCH  12  13
ENDBRANCH   3  12
TORSDOF 4
ENDMDL
MODEL       69
REMARK 921   NORMALIZED FREE ENERGY PREDICTED BY IDOCK:   -5.86 KCAL/MOL
REMARK 922        TOTAL FREE ENERGY PREDICTED BY IDOCK:   -7.75 KCAL/MOL
REMARK 923 INTER-LIGAND FREE ENERGY PREDICTED BY IDOCK:   -7.42 KCAL/MOL
REMARK 924 INTRA-LIGAND FREE ENERGY PREDICTED BY IDOCK:   -0.33 KCAL/MOL
REMARK 927      BINDING AFFINITY PREDICTED BY RF-SCORE:    0.00 PKD
ROOT
HETATM    1 CL   UNL     1     -12.863  14.182  65.383  1.00  0.00    -0.480 Cl 
HETATM    2  C   UNL     1     -11.878  12.803  65.047  1.00  0.00    -0.382 A  
HETATM    3  C   UNL     1     -11.466  11.916  66.079  1.00  0.00    -0.344 A  
HETATM    4  O   UNL     1      -7.273  10.632  62.646  1.00  0.00    -0.129 OA 
HETATM    5  C   UNL     1     -10.777  10.732  65.758  1.00  0.00    -0.141 A  
HETATM    6  C   UNL     1     -10.232  10.648  64.494  1.00  0.00    -0.399 A  
HETATM    7  N   UNL     1      -9.358  11.680  62.676  1.00  0.00    -0.256 NA 
HETATM    8  C   UNL     1      -9.129   9.757  64.007  1.00  0.00    -0.280 C  
HETATM    9  C   UNL     1     -11.329  12.696  63.770  1.00  0.00    -0.529 A  
HETATM   10  C   UNL     1     -10.418  11.681  63.580  1.00  0.00    -0.443 A  
HETATM   11  C   UNL     1      -8.429  10.698  63.027  1.00  0.00    -0.157 C  
ENDROOT
BRANCH   3  12
HETATM   12  C   UNL     1     -11.208  12.471  67.471  1.00  0.00    -0.342 C  
BRANCH  12  13
HETATM   13  C   UNL     1     -12.019  12.018  68.691  1.00  0.00    -0.235 C  
BRANCH  13  14
HETATM   14  N   UNL     1     -11.081  11.449  69.684  1.00  0.00    -0.214 NA 
HETATM   15  N   UNL     1     -11.143   8.482  70.113  1.00  0.00    -0.227 NA 
HETATM   16  C   UNL     1     -11.750  10.750  70.797  1.00  0.00    -0.298 C  
HETATM   17  C   UNL     1     -10.028  10.570  69.128  1.00  0.00    -0.220 C  
HETATM   18  C   UNL     1     -10.255   9.018  69.062  1.00  0.00    -0.205 C  
HETATM   19  C   UNL     1     -12.281   9.368  70.391  1.00  0.00     0.114 C  
BRANCH  15  20
HETATM   20  C   UNL     1     -10.628   7.824  71.215  1.00  0.00    -0.218 A  
HETATM   21  N   UNL     1     -10.599   8.379  72.419  1.00  0.00    -0.337 NA 
HETATM   22  S   UNL     1     -10.164   7.274  73.557  1.00  0.00    -0.354 SA 
HETATM   23  C   UNL     1     -10.015   5.956  72.473  1.00  0.00    -0.177 A  
HETATM   24  C   UNL     1      -9.713   4.620  72.773  1.00  0.00    -0.176 A  
HETATM   25  C   UNL     1      -9.631   3.713  71.714  1.00  0.00    -0.221 A  
HETATM   26  C   UNL     1      -9.837   4.143  70.410  1.00  0.00    -0.237 A  
HETATM   27  C   UNL     1     -10.160   5.470  70.123  1.00  0.00    -0.308 A  
HETATM   28  C   UNL     1     -10.237   6.430  71.181  1.00  0.00    -0.224 A  
ENDBRANCH  15  20
ENDBRANCH  13  14
ENDBRANCH  12  13
ENDBRANCH   3  12
TORSDOF 4
ENDMDL
MODEL       70
REMARK 921   NORMALIZED FREE ENERGY PREDICTED BY IDOCK:   -5.84 KCAL/MOL
REMARK 922        TOTAL FREE ENERGY PREDICTED BY IDOCK:   -7.72 KCAL/MOL
REMARK 923 INTER-LIGAND FREE ENERGY PREDICTED BY IDOCK:   -7.43 KCAL/MOL
REMARK 924 INTRA-LIGAND FREE ENERGY PREDICTED BY IDOCK:   -0.29 KCAL/MOL
REMARK 927      BINDING AFFINITY PREDICTED BY RF-SCORE:    0.00 PKD
ROOT
HETATM    1 CL   UNL     1      -9.046   9.403  65.254  1.00  0.00    -0.268 Cl 
HETATM    2  C   UNL     1      -9.922   9.827  66.682  1.00  0.00    -0.229 A  
HETATM    3  C   UNL     1     -10.042  11.178  67.105  1.00  0.00    -0.223 A  
HETATM    4  O   UNL     1     -10.891   9.019  72.168  1.00  0.00    -0.337 OA 
HETATM    5  C   UNL     1     -10.870  11.506  68.194  1.00  0.00    -0.259 A  
HETATM    6  C   UNL     1     -11.261  10.470  69.016  1.00  0.00    -0.316 A  
HETATM    7  N   UNL     1     -10.849   8.429  69.910  1.00  0.00    -0.233 NA 
HETATM    8  C   UNL     1     -11.757  10.532  70.430  1.00  0.00    -0.434 C  
HETATM    9  C   UNL     1     -10.336   8.791  67.518  1.00  0.00    -0.334 A  
HETATM   10  C   UNL     1     -10.882   9.162  68.726  1.00  0.00    -0.060 A  
HETATM   11  C   UNL     1     -11.131   9.259  70.997  1.00  0.00    -0.326 C  
ENDROOT
BRANCH   3  12
HETATM   12  C   UNL     1      -8.896  12.141  66.836  1.00  0.00    -0.202 C  
BRANCH  12  13
HETATM   13  C   UNL     1      -7.840  12.466  67.901  1.00  0.00    -0.145 C  
BRANCH  13  14
HETATM   14  N   UNL     1      -7.124  13.692  67.481  1.00  0.00    -0.171 NA 
HETATM   15  N   UNL     1      -7.544  16.174  69.109  1.00  0.00    -0.223 NA 
HETATM   16  C   UNL     1      -8.020  14.811  67.136  1.00  0.00    -0.174 C  
HETATM   17  C   UNL     1      -6.091  14.175  68.423  1.00  0.00    -0.101 C  
HETATM   18  C   UNL     1      -6.458  15.254  69.504  1.00  0.00    -0.152 C  
HETATM   19  C   UNL     1      -8.617  15.492  68.375  1.00  0.00    -0.168 C  
BRANCH  15  20
HETATM   20  C   UNL     1      -7.269  17.462  68.686  1.00  0.00    -0.237 A  
HETATM   21  N   UNL     1      -6.033  17.878  68.446  1.00  0.00    -0.171 NA 
HETATM   22  S   UNL     1      -6.048  19.358  67.728  1.00  0.00    -0.205 SA 
HETATM   23  C   UNL     1      -7.754  19.510  67.676  1.00  0.00    -0.273 A  
HETATM   24  C   UNL     1      -8.512  20.548  67.117  1.00  0.00    -0.357 A  
HETATM   25  C   UNL     1      -9.904  20.464  67.204  1.00  0.00    -0.601 A  
HETATM   26  C   UNL     1     -10.498  19.380  67.837  1.00  0.00    -0.536 A  
HETATM   27  C   UNL     1      -9.735  18.340  68.370  1.00  0.00    -0.373 A  
HETATM   28  C   UNL     1      -8.308  18.401  68.313  1.00  0.00    -0.321 A  
ENDBRANCH  15  20
ENDBRANCH  13  14
ENDBRANCH  12  13
ENDBRANCH   3  12
TORSDOF 4
ENDMDL
MODEL       71
REMARK 921   NORMALIZED FREE ENERGY PREDICTED BY IDOCK:   -5.83 KCAL/MOL
REMARK 922        TOTAL FREE ENERGY PREDICTED BY IDOCK:   -7.72 KCAL/MOL
REMARK 923 INTER-LIGAND FREE ENERGY PREDICTED BY IDOCK:   -7.16 KCAL/MOL
REMARK 924 INTRA-LIGAND FREE ENERGY PREDICTED BY IDOCK:   -0.56 KCAL/MOL
REMARK 927      BINDING AFFINITY PREDICTED BY RF-SCORE:    0.00 PKD
ROOT
HETATM    1 CL   UNL     1     -10.209  11.253  63.081  1.00  0.00    -0.380 Cl 
HETATM    2  C   UNL     1      -9.788  10.414  64.531  1.00  0.00    -0.339 A  
HETATM    3  C   UNL     1     -10.510  10.613  65.739  1.00  0.00    -0.235 A  
HETATM    4  O   UNL     1      -5.849   8.884  68.249  1.00  0.00    -0.041 OA 
HETATM    5  C   UNL     1     -10.229   9.821  66.868  1.00  0.00    -0.310 A  
HETATM    6  C   UNL     1      -9.041   9.121  66.861  1.00  0.00    -0.163 A  
HETATM    7  N   UNL     1      -6.893   8.935  66.163  1.00  0.00    -0.073 NA 
HETATM    8  C   UNL     1      -8.278   8.558  68.022  1.00  0.00    -0.120 C  
HETATM    9  C   UNL     1      -8.596   9.692  64.537  1.00  0.00    -0.205 A  
HETATM   10  C   UNL     1      -8.202   9.174  65.750  1.00  0.00    -0.115 A  
HETATM   11  C   UNL     1      -6.844   8.796  67.551  1.00  0.00    -0.071 C  
ENDROOT
BRANCH   3  12
HETATM   12  C   UNL     1     -11.103  11.984  66.028  1.00  0.00    -0.364 C  
BRANCH  12  13
HETATM   13  C   UNL     1     -11.066  12.608  67.429  1.00  0.00    -0.273 C  
BRANCH  13  14
HETATM   14  N   UNL     1     -11.448  14.032  67.310  1.00  0.00    -0.330 NA 
HETATM   15  N   UNL     1      -9.479  15.898  66.034  1.00  0.00    -0.336 NA 
HETATM   16  C   UNL     1     -10.539  14.950  68.022  1.00  0.00    -0.248 C  
HETATM   17  C   UNL     1     -11.640  14.523  65.927  1.00  0.00    -0.349 C  
HETATM   18  C   UNL     1     -10.449  15.204  65.163  1.00  0.00    -0.410 C  
HETATM   19  C   UNL     1      -9.214  15.163  67.277  1.00  0.00    -0.198 C  
BRANCH  15  20
HETATM   20  C   UNL     1      -9.489  17.276  66.156  1.00  0.00    -0.179 A  
HETATM   21  N   UNL     1     -10.614  17.965  66.289  1.00  0.00    -0.298 NA 
HETATM   22  S   UNL     1     -10.294  19.535  66.659  1.00  0.00    -0.503 SA 
HETATM   23  C   UNL     1      -8.589  19.363  66.686  1.00  0.00    -0.329 A  
HETATM   24  C   UNL     1      -7.628  20.334  67.004  1.00  0.00    -0.351 A  
HETATM   25  C   UNL     1      -6.282  19.965  66.947  1.00  0.00    -0.197 A  
HETATM   26  C   UNL     1      -5.927  18.676  66.576  1.00  0.00    -0.181 A  
HETATM   27  C   UNL     1      -6.891  17.710  66.284  1.00  0.00    -0.322 A  
HETATM   28  C   UNL     1      -8.278  18.056  66.316  1.00  0.00    -0.242 A  
ENDBRANCH  15  20
ENDBRANCH  13  14
ENDBRANCH  12  13
ENDBRANCH   3  12
TORSDOF 4
ENDMDL
MODEL       72
REMARK 921   NORMALIZED FREE ENERGY PREDICTED BY IDOCK:   -5.83 KCAL/MOL
REMARK 922        TOTAL FREE ENERGY PREDICTED BY IDOCK:   -7.71 KCAL/MOL
REMARK 923 INTER-LIGAND FREE ENERGY PREDICTED BY IDOCK:   -7.63 KCAL/MOL
REMARK 924 INTRA-LIGAND FREE ENERGY PREDICTED BY IDOCK:   -0.09 KCAL/MOL
REMARK 927      BINDING AFFINITY PREDICTED BY RF-SCORE:    0.00 PKD
ROOT
HETATM    1 CL   UNL     1     -11.512  11.118  69.570  1.00  0.00    -0.338 Cl 
HETATM    2  C   UNL     1     -11.583  11.873  68.018  1.00  0.00    -0.332 A  
HETATM    3  C   UNL     1     -11.142  11.202  66.846  1.00  0.00    -0.313 A  
HETATM    4  O   UNL     1     -10.443  16.317  64.757  1.00  0.00    -0.607 OA 
HETATM    5  C   UNL     1     -11.334  11.789  65.582  1.00  0.00    -0.293 A  
HETATM    6  C   UNL     1     -11.631  13.135  65.556  1.00  0.00    -0.365 A  
HETATM    7  N   UNL     1     -11.479  15.184  66.514  1.00  0.00    -0.239 NA 
HETATM    8  C   UNL     1     -11.477  14.108  64.426  1.00  0.00    -0.344 C  
HETATM    9  C   UNL     1     -11.895  13.231  67.974  1.00  0.00    -0.392 A  
HETATM   10  C   UNL     1     -11.782  13.844  66.746  1.00  0.00    -0.399 A  
HETATM   11  C   UNL     1     -11.057  15.360  65.195  1.00  0.00    -0.394 C  
ENDROOT
BRANCH   3  12
HETATM   12  C   UNL     1      -9.983  10.223  66.947  1.00  0.00    -0.259 C  
BRANCH  12  13
HETATM   13  C   UNL     1     -10.141   8.735  66.607  1.00  0.00    -0.288 C  
BRANCH  13  14
HETATM   14  N   UNL     1     -10.520   8.017  67.845  1.00  0.00    -0.216 NA 
HETATM   15  N   UNL     1      -8.852   5.661  68.652  1.00  0.00    -0.109 NA 
HETATM   16  C   UNL     1     -10.861   6.599  67.624  1.00  0.00    -0.315 C  
HETATM   17  C   UNL     1      -9.546   8.110  68.954  1.00  0.00    -0.153 C  
HETATM   18  C   UNL     1      -8.452   6.999  69.134  1.00  0.00    -0.129 C  
HETATM   19  C   UNL     1      -9.622   5.722  67.403  1.00  0.00    -0.115 C  
BRANCH  15  20
HETATM   20  C   UNL     1      -9.242   4.671  69.535  1.00  0.00    -0.122 A  
HETATM   21  N   UNL     1      -8.809   3.422  69.432  1.00  0.00    -0.086 NA 
HETATM   22  S   UNL     1      -9.245   2.546  70.755  1.00  0.00    -0.142 SA 
HETATM   23  C   UNL     1     -10.031   3.834  71.566  1.00  0.00    -0.124 A  
HETATM   24  C   UNL     1     -10.620   3.822  72.839  1.00  0.00    -0.229 A  
HETATM   25  C   UNL     1     -11.220   4.999  73.294  1.00  0.00    -0.411 A  
HETATM   26  C   UNL     1     -11.231   6.131  72.491  1.00  0.00    -0.327 A  
HETATM   27  C   UNL     1     -10.623   6.140  71.235  1.00  0.00    -0.295 A  
HETATM   28  C   UNL     1     -10.013   4.949  70.730  1.00  0.00    -0.292 A  
ENDBRANCH  15  20
ENDBRANCH  13  14
ENDBRANCH  12  13
ENDBRANCH   3  12
TORSDOF 4
ENDMDL
MODEL       73
REMARK 921   NORMALIZED FREE ENERGY PREDICTED BY IDOCK:   -5.80 KCAL/MOL
REMARK 922        TOTAL FREE ENERGY PREDICTED BY IDOCK:   -7.68 KCAL/MOL
REMARK 923 INTER-LIGAND FREE ENERGY PREDICTED BY IDOCK:   -7.51 KCAL/MOL
REMARK 924 INTRA-LIGAND FREE ENERGY PREDICTED BY IDOCK:   -0.17 KCAL/MOL
REMARK 927      BINDING AFFINITY PREDICTED BY RF-SCORE:    0.00 PKD
ROOT
HETATM    1 CL   UNL     1     -12.991   9.706  71.652  1.00  0.00    -0.461 Cl 
HETATM    2  C   UNL     1     -12.870  11.385  71.264  1.00  0.00    -0.379 A  
HETATM    3  C   UNL     1     -12.073  11.840  70.178  1.00  0.00    -0.398 A  
HETATM    4  O   UNL     1     -11.909  16.670  72.946  1.00  0.00    -0.507 OA 
HETATM    5  C   UNL     1     -12.098  13.196  69.804  1.00  0.00    -0.336 A  
HETATM    6  C   UNL     1     -12.628  14.086  70.714  1.00  0.00    -0.431 A  
HETATM    7  N   UNL     1     -13.066  14.645  72.867  1.00  0.00    -0.485 NA 
HETATM    8  C   UNL     1     -12.421  15.568  70.805  1.00  0.00    -0.491 C  
HETATM    9  C   UNL     1     -13.412  12.298  72.167  1.00  0.00    -0.431 A  
HETATM   10  C   UNL     1     -13.156  13.628  71.919  1.00  0.00    -0.387 A  
HETATM   11  C   UNL     1     -12.414  15.753  72.322  1.00  0.00    -0.450 C  
ENDROOT
BRANCH   3  12
HETATM   12  C   UNL     1     -10.801  11.084  69.829  1.00  0.00    -0.205 C  
BRANCH  12  13
HETATM   13  C   UNL     1     -10.323  10.922  68.380  1.00  0.00    -0.178 C  
BRANCH  13  14
HETATM   14  N   UNL     1     -10.830   9.628  67.869  1.00  0.00    -0.247 NA 
HETATM   15  N   UNL     1      -8.992   7.263  68.004  1.00  0.00    -0.132 NA 
HETATM   16  C   UNL     1     -10.037   9.083  66.751  1.00  0.00    -0.274 C  
HETATM   17  C   UNL     1     -11.011   8.572  68.889  1.00  0.00     0.142 C  
HETATM   18  C   UNL     1      -9.859   7.542  69.167  1.00  0.00    -0.170 C  
HETATM   19  C   UNL     1      -8.710   8.468  67.213  1.00  0.00    -0.130 C  
BRANCH  15  20
HETATM   20  C   UNL     1      -9.134   6.099  67.271  1.00  0.00    -0.115 A  
HETATM   21  N   UNL     1      -9.020   6.078  65.950  1.00  0.00    -0.153 NA 
HETATM   22  S   UNL     1      -8.992   4.530  65.395  1.00  0.00    -0.148 SA 
HETATM   23  C   UNL     1      -9.107   3.789  66.935  1.00  0.00    -0.161 A  
HETATM   24  C   UNL     1      -9.081   2.421  67.241  1.00  0.00    -0.180 A  
HETATM   25  C   UNL     1      -9.205   2.046  68.581  1.00  0.00    -0.223 A  
HETATM   26  C   UNL     1      -9.358   3.014  69.564  1.00  0.00    -0.213 A  
HETATM   27  C   UNL     1      -9.359   4.375  69.253  1.00  0.00    -0.223 A  
HETATM   28  C   UNL     1      -9.251   4.794  67.890  1.00  0.00    -0.146 A  
ENDBRANCH  15  20
ENDBRANCH  13  14
ENDBRANCH  12  13
ENDBRANCH   3  12
TORSDOF 4
ENDMDL
MODEL       74
REMARK 921   NORMALIZED FREE ENERGY PREDICTED BY IDOCK:   -5.78 KCAL/MOL
REMARK 922        TOTAL FREE ENERGY PREDICTED BY IDOCK:   -7.65 KCAL/MOL
REMARK 923 INTER-LIGAND FREE ENERGY PREDICTED BY IDOCK:   -6.87 KCAL/MOL
REMARK 924 INTRA-LIGAND FREE ENERGY PREDICTED BY IDOCK:   -0.78 KCAL/MOL
REMARK 927      BINDING AFFINITY PREDICTED BY RF-SCORE:    0.00 PKD
ROOT
HETATM    1 CL   UNL     1      -8.467  17.082  65.978  1.00  0.00    -0.248 Cl 
HETATM    2  C   UNL     1      -9.706  15.878  66.007  1.00  0.00    -0.343 A  
HETATM    3  C   UNL     1      -9.627  14.754  66.874  1.00  0.00    -0.251 A  
HETATM    4  O   UNL     1     -13.017  12.289  63.206  1.00  0.00    -0.707 OA 
HETATM    5  C   UNL     1     -10.710  13.860  66.972  1.00  0.00    -0.283 A  
HETATM    6  C   UNL     1     -11.662  13.921  65.977  1.00  0.00    -0.381 A  
HETATM    7  N   UNL     1     -12.209  14.389  63.828  1.00  0.00    -0.638 NA 
HETATM    8  C   UNL     1     -12.659  12.878  65.569  1.00  0.00    -0.359 C  
HETATM    9  C   UNL     1     -10.684  15.931  65.016  1.00  0.00    -0.426 A  
HETATM   10  C   UNL     1     -11.559  14.869  64.962  1.00  0.00    -0.357 A  
HETATM   11  C   UNL     1     -12.683  13.095  64.057  1.00  0.00    -0.048 C  
ENDROOT
BRANCH   3  12
HETATM   12  C   UNL     1      -8.262  14.171  67.205  1.00  0.00    -0.200 C  
BRANCH  12  13
HETATM   13  C   UNL     1      -8.017  13.339  68.470  1.00  0.00    -0.097 C  
BRANCH  13  14
HETATM   14  N   UNL     1      -7.428  12.044  68.063  1.00  0.00    -0.104 NA 
HETATM   15  N   UNL     1      -9.263   9.680  67.869  1.00  0.00    -0.125 NA 
HETATM   16  C   UNL     1      -7.580  10.981  69.075  1.00  0.00    -0.134 C  
HETATM   17  C   UNL     1      -7.878  11.527  66.752  1.00  0.00    -0.146 C  
HETATM   18  C   UNL     1      -9.090  10.532  66.675  1.00  0.00    -0.155 C  
HETATM   19  C   UNL     1      -9.003  10.408  69.118  1.00  0.00    -0.179 C  
BRANCH  15  20
HETATM   20  C   UNL     1      -8.862   8.357  67.865  1.00  0.00    -0.138 A  
HETATM   21  N   UNL     1      -7.761   7.954  67.246  1.00  0.00    -0.103 NA 
HETATM   22  S   UNL     1      -7.421   6.390  67.625  1.00  0.00    -0.094 SA 
HETATM   23  C   UNL     1      -8.750   6.174  68.684  1.00  0.00    -0.112 A  
HETATM   24  C   UNL     1      -9.071   5.043  69.448  1.00  0.00    -0.143 A  
HETATM   25  C   UNL     1     -10.222   5.092  70.239  1.00  0.00    -0.328 A  
HETATM   26  C   UNL     1     -11.015   6.231  70.246  1.00  0.00    -0.400 A  
HETATM   27  C   UNL     1     -10.675   7.360  69.500  1.00  0.00    -0.233 A  
HETATM   28  C   UNL     1      -9.513   7.340  68.667  1.00  0.00    -0.137 A  
ENDBRANCH  15  20
ENDBRANCH  13  14
ENDBRANCH  12  13
ENDBRANCH   3  12
TORSDOF 4
ENDMDL
MODEL       75
REMARK 921   NORMALIZED FREE ENERGY PREDICTED BY IDOCK:   -5.77 KCAL/MOL
REMARK 922        TOTAL FREE ENERGY PREDICTED BY IDOCK:   -7.64 KCAL/MOL
REMARK 923 INTER-LIGAND FREE ENERGY PREDICTED BY IDOCK:   -6.95 KCAL/MOL
REMARK 924 INTRA-LIGAND FREE ENERGY PREDICTED BY IDOCK:   -0.69 KCAL/MOL
REMARK 927      BINDING AFFINITY PREDICTED BY RF-SCORE:    0.00 PKD
ROOT
HETATM    1 CL   UNL     1      -8.034   6.009  65.486  1.00  0.00    -0.109 Cl 
HETATM    2  C   UNL     1      -9.190   6.094  66.767  1.00  0.00    -0.135 A  
HETATM    3  C   UNL     1     -10.137   7.152  66.843  1.00  0.00    -0.308 A  
HETATM    4  O   UNL     1     -10.294   5.982  72.286  1.00  0.00    -0.185 OA 
HETATM    5  C   UNL     1     -11.148   7.125  67.820  1.00  0.00    -0.095 A  
HETATM    6  C   UNL     1     -10.976   6.253  68.875  1.00  0.00    -0.435 A  
HETATM    7  N   UNL     1      -9.586   5.101  70.244  1.00  0.00    -0.170 NA 
HETATM    8  C   UNL     1     -11.615   6.284  70.230  1.00  0.00    -0.379 C  
HETATM    9  C   UNL     1      -9.038   5.211  67.835  1.00  0.00    -0.121 A  
HETATM   10  C   UNL     1      -9.868   5.411  68.915  1.00  0.00    -0.166 A  
HETATM   11  C   UNL     1     -10.455   5.789  71.093  1.00  0.00    -0.239 C  
ENDROOT
BRANCH   3  12
HETATM   12  C   UNL     1      -9.744   8.532  66.341  1.00  0.00    -0.328 C  
BRANCH  12  13
HETATM   13  C   UNL     1      -8.874   9.484  67.172  1.00  0.00    -0.131 C  
BRANCH  13  14
HETATM   14  N   UNL     1      -9.766  10.444  67.858  1.00  0.00    -0.148 NA 
HETATM   15  N   UNL     1     -10.113  13.151  66.617  1.00  0.00    -0.258 NA 
HETATM   16  C   UNL     1      -9.087  11.683  68.282  1.00  0.00    -0.187 C  
HETATM   17  C   UNL     1     -11.000  10.799  67.122  1.00  0.00    -0.260 C  
HETATM   18  C   UNL     1     -11.024  12.068  66.197  1.00  0.00    -0.302 C  
HETATM   19  C   UNL     1      -8.827  12.642  67.112  1.00  0.00    -0.204 C  
BRANCH  15  20
HETATM   20  C   UNL     1     -10.591  14.273  67.269  1.00  0.00    -0.278 A  
HETATM   21  N   UNL     1     -11.537  14.202  68.196  1.00  0.00    -0.311 NA 
HETATM   22  S   UNL     1     -11.716  15.650  68.956  1.00  0.00    -0.371 SA 
HETATM   23  C   UNL     1     -10.486  16.460  68.080  1.00  0.00    -0.302 A  
HETATM   24  C   UNL     1     -10.028  17.774  68.248  1.00  0.00    -0.355 A  
HETATM   25  C   UNL     1      -9.013  18.228  67.402  1.00  0.00    -0.257 A  
HETATM   26  C   UNL     1      -8.494  17.390  66.424  1.00  0.00    -0.292 A  
HETATM   27  C   UNL     1      -8.940  16.076  66.280  1.00  0.00    -0.380 A  
HETATM   28  C   UNL     1      -9.989  15.582  67.118  1.00  0.00    -0.242 A  
ENDBRANCH  15  20
ENDBRANCH  13  14
ENDBRANCH  12  13
ENDBRANCH   3  12
TORSDOF 4
ENDMDL
MODEL       76
REMARK 921   NORMALIZED FREE ENERGY PREDICTED BY IDOCK:   -5.77 KCAL/MOL
REMARK 922        TOTAL FREE ENERGY PREDICTED BY IDOCK:   -7.63 KCAL/MOL
REMARK 923 INTER-LIGAND FREE ENERGY PREDICTED BY IDOCK:   -7.20 KCAL/MOL
REMARK 924 INTRA-LIGAND FREE ENERGY PREDICTED BY IDOCK:   -0.44 KCAL/MOL
REMARK 927      BINDING AFFINITY PREDICTED BY RF-SCORE:    0.00 PKD
ROOT
HETATM    1 CL   UNL     1     -12.018  14.340  67.638  1.00  0.00    -0.420 Cl 
HETATM    2  C   UNL     1     -10.842  15.567  67.325  1.00  0.00    -0.313 A  
HETATM    3  C   UNL     1      -9.635  15.278  66.633  1.00  0.00    -0.276 A  
HETATM    4  O   UNL     1      -7.624  19.767  69.245  1.00  0.00    -0.297 OA 
HETATM    5  C   UNL     1      -8.758  16.319  66.278  1.00  0.00    -0.370 A  
HETATM    6  C   UNL     1      -8.938  17.531  66.911  1.00  0.00    -0.264 A  
HETATM    7  N   UNL     1      -9.633  18.699  68.725  1.00  0.00    -0.355 NA 
HETATM    8  C   UNL     1      -7.962  18.657  67.073  1.00  0.00    -0.254 C  
HETATM    9  C   UNL     1     -11.016  16.802  67.947  1.00  0.00    -0.260 A  
HETATM   10  C   UNL     1      -9.982  17.702  67.816  1.00  0.00    -0.315 A  
HETATM   11  C   UNL     1      -8.332  19.142  68.475  1.00  0.00    -0.364 C  
ENDROOT
BRANCH   3  12
HETATM   12  C   UNL     1      -8.995  13.909  66.805  1.00  0.00    -0.206 C  
BRANCH  12  13
HETATM   13  C   UNL     1      -9.465  12.685  66.009  1.00  0.00    -0.135 C  
BRANCH  13  14
HETATM   14  N   UNL     1      -8.828  11.483  66.591  1.00  0.00    -0.183 NA 
HETATM   15  N   UNL     1     -10.616   9.431  67.849  1.00  0.00    -0.245 NA 
HETATM   16  C   UNL     1      -9.078  11.322  68.036  1.00  0.00    -0.156 C  
HETATM   17  C   UNL     1      -9.135  10.209  65.905  1.00  0.00    -0.156 C  
HETATM   18  C   UNL     1     -10.325   9.315  66.405  1.00  0.00    -0.168 C  
HETATM   19  C   UNL     1     -10.493  10.811  68.336  1.00  0.00    -0.183 C  
BRANCH  15  20
HETATM   20  C   UNL     1     -10.208   8.455  68.739  1.00  0.00    -0.207 A  
HETATM   21  N   UNL     1      -9.169   7.667  68.496  1.00  0.00    -0.144 NA 
HETATM   22  S   UNL     1      -8.783   6.788  69.832  1.00  0.00    -0.141 SA 
HETATM   23  C   UNL     1     -10.001   7.452  70.837  1.00  0.00    -0.184 A  
HETATM   24  C   UNL     1     -10.238   7.193  72.194  1.00  0.00    -0.207 A  
HETATM   25  C   UNL     1     -11.307   7.849  72.810  1.00  0.00    -0.453 A  
HETATM   26  C   UNL     1     -12.104   8.720  72.080  1.00  0.00    -0.447 A  
HETATM   27  C   UNL     1     -11.846   8.990  70.735  1.00  0.00    -0.251 A  
HETATM   28  C   UNL     1     -10.770   8.324  70.068  1.00  0.00    -0.239 A  
ENDBRANCH  15  20
ENDBRANCH  13  14
ENDBRANCH  12  13
ENDBRANCH   3  12
TORSDOF 4
ENDMDL
MODEL       77
REMARK 921   NORMALIZED FREE ENERGY PREDICTED BY IDOCK:   -5.71 KCAL/MOL
REMARK 922        TOTAL FREE ENERGY PREDICTED BY IDOCK:   -7.56 KCAL/MOL
REMARK 923 INTER-LIGAND FREE ENERGY PREDICTED BY IDOCK:   -7.28 KCAL/MOL
REMARK 924 INTRA-LIGAND FREE ENERGY PREDICTED BY IDOCK:   -0.28 KCAL/MOL
REMARK 927      BINDING AFFINITY PREDICTED BY RF-SCORE:    0.00 PKD
ROOT
HETATM    1 CL   UNL     1     -11.372  16.156  65.010  1.00  0.00    -0.180 Cl 
HETATM    2  C   UNL     1      -9.932  16.773  65.738  1.00  0.00    -0.215 A  
HETATM    3  C   UNL     1      -8.857  15.915  66.099  1.00  0.00    -0.363 A  
HETATM    4  O   UNL     1      -7.505  19.920  69.724  1.00  0.00    -0.105 OA 
HETATM    5  C   UNL     1      -7.647  16.458  66.567  1.00  0.00    -0.258 A  
HETATM    6  C   UNL     1      -7.670  17.774  66.978  1.00  0.00    -0.233 A  
HETATM    7  N   UNL     1      -8.819  19.529  67.836  1.00  0.00    -0.316 NA 
HETATM    8  C   UNL     1      -6.713  18.489  67.884  1.00  0.00    -0.218 C  
HETATM    9  C   UNL     1      -9.933  18.105  66.149  1.00  0.00    -0.301 A  
HETATM   10  C   UNL     1      -8.839  18.522  66.873  1.00  0.00    -0.283 A  
HETATM   11  C   UNL     1      -7.677  19.410  68.631  1.00  0.00    -0.359 C  
ENDROOT
BRANCH   3  12
HETATM   12  C   UNL     1      -9.166  14.499  66.561  1.00  0.00    -0.282 C  
BRANCH  12  13
HETATM   13  C   UNL     1     -10.204  14.208  67.652  1.00  0.00    -0.241 C  
BRANCH  13  14
HETATM   14  N   UNL     1     -10.869  12.926  67.326  1.00  0.00    -0.252 NA 
HETATM   15  N   UNL     1     -10.382  10.602  69.156  1.00  0.00    -0.212 NA 
HETATM   16  C   UNL     1      -9.927  11.817  67.084  1.00  0.00    -0.203 C  
HETATM   17  C   UNL     1     -11.897  12.483  68.293  1.00  0.00    -0.309 C  
HETATM   18  C   UNL     1     -11.507  11.510  69.462  1.00  0.00    -0.311 C  
HETATM   19  C   UNL     1      -9.324  11.262  68.382  1.00  0.00    -0.181 C  
BRANCH  15  20
HETATM   20  C   UNL     1     -10.603   9.275  68.837  1.00  0.00    -0.199 A  
HETATM   21  N   UNL     1     -10.506   8.821  67.595  1.00  0.00    -0.251 NA 
HETATM   22  S   UNL     1     -10.579   7.178  67.569  1.00  0.00    -0.285 SA 
HETATM   23  C   UNL     1     -10.721   6.983  69.266  1.00  0.00    -0.225 A  
HETATM   24  C   UNL     1     -10.775   5.788  69.996  1.00  0.00    -0.400 A  
HETATM   25  C   UNL     1     -10.905   5.874  71.385  1.00  0.00    -0.332 A  
HETATM   26  C   UNL     1     -10.987   7.114  72.002  1.00  0.00    -0.267 A  
HETATM   27  C   UNL     1     -10.910   8.299  71.268  1.00  0.00    -0.285 A  
HETATM   28  C   UNL     1     -10.792   8.249  69.844  1.00  0.00    -0.213 A  
ENDBRANCH  15  20
ENDBRANCH  13  14
ENDBRANCH  12  13
ENDBRANCH   3  12
TORSDOF 4
ENDMDL
MODEL       78
REMARK 921   NORMALIZED FREE ENERGY PREDICTED BY IDOCK:   -5.70 KCAL/MOL
REMARK 922        TOTAL FREE ENERGY PREDICTED BY IDOCK:   -7.55 KCAL/MOL
REMARK 923 INTER-LIGAND FREE ENERGY PREDICTED BY IDOCK:   -6.97 KCAL/MOL
REMARK 924 INTRA-LIGAND FREE ENERGY PREDICTED BY IDOCK:   -0.59 KCAL/MOL
REMARK 927      BINDING AFFINITY PREDICTED BY RF-SCORE:    0.00 PKD
ROOT
HETATM    1 CL   UNL     1     -10.462   9.108  71.235  1.00  0.00    -0.372 Cl 
HETATM    2  C   UNL     1     -10.045   7.600  71.967  1.00  0.00    -0.188 A  
HETATM    3  C   UNL     1      -8.881   6.883  71.579  1.00  0.00    -0.132 A  
HETATM    4  O   UNL     1     -11.564   2.408  73.526  1.00  0.00    -0.215 OA 
HETATM    5  C   UNL     1      -8.496   5.727  72.281  1.00  0.00    -0.122 A  
HETATM    6  C   UNL     1      -9.444   5.146  73.097  1.00  0.00    -0.145 A  
HETATM    7  N   UNL     1     -11.623   4.741  73.572  1.00  0.00    -0.191 NA 
HETATM    8  C   UNL     1      -9.497   3.742  73.620  1.00  0.00    -0.120 C  
HETATM    9  C   UNL     1     -10.987   7.005  72.805  1.00  0.00    -0.329 A  
HETATM   10  C   UNL     1     -10.700   5.731  73.240  1.00  0.00    -0.267 A  
HETATM   11  C   UNL     1     -11.003   3.490  73.578  1.00  0.00    -0.236 C  
ENDROOT
BRANCH   3  12
HETATM   12  C   UNL     1      -8.415   6.960  70.133  1.00  0.00    -0.140 C  
BRANCH  12  13
HETATM   13  C   UNL     1      -9.221   6.341  68.984  1.00  0.00    -0.127 C  
BRANCH  13  14
HETATM   14  N   UNL     1      -8.758   6.948  67.716  1.00  0.00    -0.121 NA 
HETATM   15  N   UNL     1      -9.694   9.724  67.080  1.00  0.00    -0.175 NA 
HETATM   16  C   UNL     1      -9.854   7.302  66.795  1.00  0.00    -0.212 C  
HETATM   17  C   UNL     1      -7.859   8.114  67.863  1.00  0.00    -0.122 C  
HETATM   18  C   UNL     1      -8.452   9.567  67.865  1.00  0.00    -0.119 C  
HETATM   19  C   UNL     1     -10.596   8.575  67.223  1.00  0.00    -0.245 C  
BRANCH  15  20
HETATM   20  C   UNL     1      -9.676  10.305  65.825  1.00  0.00    -0.238 A  
HETATM   21  N   UNL     1      -8.953   9.811  64.828  1.00  0.00    -0.209 NA 
HETATM   22  S   UNL     1      -9.327  10.561  63.413  1.00  0.00    -0.332 SA 
HETATM   23  C   UNL     1     -10.524  11.593  64.073  1.00  0.00    -0.367 A  
HETATM   24  C   UNL     1     -11.341  12.511  63.398  1.00  0.00    -0.489 A  
HETATM   25  C   UNL     1     -12.247  13.261  64.153  1.00  0.00    -0.465 A  
HETATM   26  C   UNL     1     -12.314  13.094  65.529  1.00  0.00    -0.529 A  
HETATM   27  C   UNL     1     -11.512  12.161  66.190  1.00  0.00    -0.429 A  
HETATM   28  C   UNL     1     -10.563  11.388  65.451  1.00  0.00    -0.333 A  
ENDBRANCH  15  20
ENDBRANCH  13  14
ENDBRANCH  12  13
ENDBRANCH   3  12
TORSDOF 4
ENDMDL
MODEL       79
REMARK 921   NORMALIZED FREE ENERGY PREDICTED BY IDOCK:   -5.69 KCAL/MOL
REMARK 922        TOTAL FREE ENERGY PREDICTED BY IDOCK:   -7.55 KCAL/MOL
REMARK 923 INTER-LIGAND FREE ENERGY PREDICTED BY IDOCK:   -6.95 KCAL/MOL
REMARK 924 INTRA-LIGAND FREE ENERGY PREDICTED BY IDOCK:   -0.59 KCAL/MOL
REMARK 927      BINDING AFFINITY PREDICTED BY RF-SCORE:    0.00 PKD
ROOT
HETATM    1 CL   UNL     1     -12.722  12.621  64.542  1.00  0.00    -0.485 Cl 
HETATM    2  C   UNL     1     -11.731  13.349  65.755  1.00  0.00    -0.349 A  
HETATM    3  C   UNL     1     -10.520  12.741  66.186  1.00  0.00    -0.284 A  
HETATM    4  O   UNL     1     -11.274  15.671  70.862  1.00  0.00    -0.323 OA 
HETATM    5  C   UNL     1      -9.668  13.419  67.077  1.00  0.00    -0.239 A  
HETATM    6  C   UNL     1     -10.202  14.493  67.758  1.00  0.00    -0.226 A  
HETATM    7  N   UNL     1     -12.007  15.533  68.650  1.00  0.00    -0.290 NA 
HETATM    8  C   UNL     1      -9.723  15.129  69.028  1.00  0.00    -0.234 C  
HETATM    9  C   UNL     1     -12.250  14.444  66.444  1.00  0.00    -0.363 A  
HETATM   10  C   UNL     1     -11.512  14.898  67.513  1.00  0.00    -0.348 A  
HETATM   11  C   UNL     1     -11.060  15.489  69.676  1.00  0.00    -0.279 C  
ENDROOT
BRANCH   3  12
HETATM   12  C   UNL     1     -10.424  11.223  66.210  1.00  0.00    -0.308 C  
BRANCH  12  13
HETATM   13  C   UNL     1     -11.002  10.388  67.359  1.00  0.00    -0.270 C  
BRANCH  13  14
HETATM   14  N   UNL     1      -9.952  10.233  68.390  1.00  0.00    -0.153 NA 
HETATM   15  N   UNL     1      -9.911   7.677  69.958  1.00  0.00    -0.188 NA 
HETATM   16  C   UNL     1     -10.485  10.045  69.753  1.00  0.00    -0.256 C  
HETATM   17  C   UNL     1      -8.948   9.181  68.117  1.00  0.00    -0.129 C  
HETATM   18  C   UNL     1      -9.151   7.734  68.693  1.00  0.00    -0.136 C  
HETATM   19  C   UNL     1     -11.030   8.629  69.983  1.00  0.00    -0.203 C  
BRANCH  15  20
HETATM   20  C   UNL     1      -9.269   7.494  71.169  1.00  0.00    -0.147 A  
HETATM   21  N   UNL     1      -8.271   8.273  71.564  1.00  0.00    -0.120 NA 
HETATM   22  S   UNL     1      -7.883   7.968  73.133  1.00  0.00    -0.162 SA 
HETATM   23  C   UNL     1      -9.078   6.764  73.378  1.00  0.00    -0.131 A  
HETATM   24  C   UNL     1      -9.377   6.071  74.559  1.00  0.00    -0.173 A  
HETATM   25  C   UNL     1     -10.395   5.115  74.518  1.00  0.00    -0.301 A  
HETATM   26  C   UNL     1     -11.071   4.867  73.332  1.00  0.00    -0.415 A  
HETATM   27  C   UNL     1     -10.781   5.578  72.166  1.00  0.00    -0.288 A  
HETATM   28  C   UNL     1      -9.735   6.552  72.167  1.00  0.00    -0.157 A  
ENDBRANCH  15  20
ENDBRANCH  13  14
ENDBRANCH  12  13
ENDBRANCH   3  12
TORSDOF 4
ENDMDL
MODEL       80
REMARK 921   NORMALIZED FREE ENERGY PREDICTED BY IDOCK:   -5.69 KCAL/MOL
REMARK 922        TOTAL FREE ENERGY PREDICTED BY IDOCK:   -7.54 KCAL/MOL
REMARK 923 INTER-LIGAND FREE ENERGY PREDICTED BY IDOCK:   -7.05 KCAL/MOL
REMARK 924 INTRA-LIGAND FREE ENERGY PREDICTED BY IDOCK:   -0.49 KCAL/MOL
REMARK 927      BINDING AFFINITY PREDICTED BY RF-SCORE:    0.00 PKD
ROOT
HETATM    1 CL   UNL     1     -13.193   9.589  72.066  1.00  0.00    -0.498 Cl 
HETATM    2  C   UNL     1     -12.953  11.205  71.505  1.00  0.00    -0.437 A  
HETATM    3  C   UNL     1     -12.066  11.493  70.432  1.00  0.00    -0.471 A  
HETATM    4  O   UNL     1     -11.795  16.591  72.657  1.00  0.00    -0.541 OA 
HETATM    5  C   UNL     1     -11.989  12.797  69.910  1.00  0.00    -0.368 A  
HETATM    6  C   UNL     1     -12.523  13.811  70.679  1.00  0.00    -0.429 A  
HETATM    7  N   UNL     1     -13.060  14.631  72.722  1.00  0.00    -0.453 NA 
HETATM    8  C   UNL     1     -12.237  15.281  70.620  1.00  0.00    -0.412 C  
HETATM    9  C   UNL     1     -13.496  12.240  72.263  1.00  0.00    -0.365 A  
HETATM   10  C   UNL     1     -13.150  13.519  71.888  1.00  0.00    -0.384 A  
HETATM   11  C   UNL     1     -12.312  15.636  72.104  1.00  0.00    -0.430 C  
ENDROOT
BRANCH   3  12
HETATM   12  C   UNL     1     -10.820  10.639  70.255  1.00  0.00    -0.157 C  
BRANCH  12  13
HETATM   13  C   UNL     1     -10.704   9.589  69.143  1.00  0.00    -0.210 C  
BRANCH  13  14
HETATM   14  N   UNL     1     -10.597   8.256  69.777  1.00  0.00    -0.228 NA 
HETATM   15  N   UNL     1      -8.699   6.283  68.554  1.00  0.00    -0.113 NA 
HETATM   16  C   UNL     1     -10.964   7.143  68.881  1.00  0.00    -0.070 C  
HETATM   17  C   UNL     1      -9.291   7.957  70.404  1.00  0.00    -0.159 C  
HETATM   18  C   UNL     1      -8.182   7.203  69.587  1.00  0.00    -0.131 C  
HETATM   19  C   UNL     1      -9.869   6.828  67.853  1.00  0.00    -0.129 C  
BRANCH  15  20
HETATM   20  C   UNL     1      -8.724   4.916  68.763  1.00  0.00    -0.093 A  
HETATM   21  N   UNL     1      -8.951   4.389  69.959  1.00  0.00    -0.086 NA 
HETATM   22  S   UNL     1      -9.164   2.762  69.845  1.00  0.00    -0.131 SA 
HETATM   23  C   UNL     1      -8.985   2.681  68.143  1.00  0.00    -0.155 A  
HETATM   24  C   UNL     1      -9.107   1.557  67.313  1.00  0.00    -0.131 A  
HETATM   25  C   UNL     1      -8.904   1.730  65.942  1.00  0.00    -0.122 A  
HETATM   26  C   UNL     1      -8.583   2.982  65.437  1.00  0.00    -0.112 A  
HETATM   27  C   UNL     1      -8.487   4.100  66.267  1.00  0.00    -0.109 A  
HETATM   28  C   UNL     1      -8.672   3.957  67.678  1.00  0.00    -0.121 A  
ENDBRANCH  15  20
ENDBRANCH  13  14
ENDBRANCH  12  13
ENDBRANCH   3  12
TORSDOF 4
ENDMDL
MODEL       81
REMARK 921   NORMALIZED FREE ENERGY PREDICTED BY IDOCK:   -5.64 KCAL/MOL
REMARK 922        TOTAL FREE ENERGY PREDICTED BY IDOCK:   -7.48 KCAL/MOL
REMARK 923 INTER-LIGAND FREE ENERGY PREDICTED BY IDOCK:   -6.87 KCAL/MOL
REMARK 924 INTRA-LIGAND FREE ENERGY PREDICTED BY IDOCK:   -0.61 KCAL/MOL
REMARK 927      BINDING AFFINITY PREDICTED BY RF-SCORE:    0.00 PKD
ROOT
HETATM    1 CL   UNL     1     -12.092   6.753  70.760  1.00  0.00    -0.438 Cl 
HETATM    2  C   UNL     1     -10.702   6.464  69.775  1.00  0.00    -0.283 A  
HETATM    3  C   UNL     1      -9.461   7.105  70.038  1.00  0.00    -0.164 A  
HETATM    4  O   UNL     1      -8.392   6.191  64.649  1.00  0.00    -0.123 OA 
HETATM    5  C   UNL     1      -8.314   6.753  69.303  1.00  0.00    -0.125 A  
HETATM    6  C   UNL     1      -8.514   6.049  68.133  1.00  0.00    -0.115 A  
HETATM    7  N   UNL     1      -9.836   5.543  66.364  1.00  0.00    -0.163 NA 
HETATM    8  C   UNL     1      -7.592   5.903  66.960  1.00  0.00    -0.099 C  
HETATM    9  C   UNL     1     -10.883   5.744  68.596  1.00  0.00    -0.270 A  
HETATM   10  C   UNL     1      -9.799   5.673  67.751  1.00  0.00    -0.132 A  
HETATM   11  C   UNL     1      -8.604   5.902  65.814  1.00  0.00    -0.154 C  
ENDROOT
BRANCH   3  12
HETATM   12  C   UNL     1      -9.464   8.512  70.617  1.00  0.00    -0.203 C  
BRANCH  12  13
HETATM   13  C   UNL     1      -8.437   9.569  70.193  1.00  0.00    -0.205 C  
BRANCH  13  14
HETATM   14  N   UNL     1      -9.093  10.494  69.242  1.00  0.00    -0.177 NA 
HETATM   15  N   UNL     1      -9.443   9.565  66.413  1.00  0.00    -0.180 NA 
HETATM   16  C   UNL     1      -8.241  10.867  68.097  1.00  0.00    -0.121 C  
HETATM   17  C   UNL     1     -10.412  10.053  68.737  1.00  0.00    -0.208 C  
HETATM   18  C   UNL     1     -10.508   9.254  67.389  1.00  0.00    -0.273 C  
HETATM   19  C   UNL     1      -8.134   9.748  67.053  1.00  0.00    -0.113 C  
BRANCH  15  20
HETATM   20  C   UNL     1      -9.687  10.385  65.328  1.00  0.00    -0.278 A  
HETATM   21  N   UNL     1      -9.296  10.069  64.101  1.00  0.00    -0.278 NA 
HETATM   22  S   UNL     1      -9.941  11.107  63.000  1.00  0.00    -0.263 SA 
HETATM   23  C   UNL     1     -10.820  12.042  64.135  1.00  0.00    -0.352 A  
HETATM   24  C   UNL     1     -11.685  13.116  63.885  1.00  0.00    -0.515 A  
HETATM   25  C   UNL     1     -12.288  13.741  64.979  1.00  0.00    -0.456 A  
HETATM   26  C   UNL     1     -12.018  13.302  66.268  1.00  0.00    -0.471 A  
HETATM   27  C   UNL     1     -11.173  12.217  66.506  1.00  0.00    -0.373 A  
HETATM   28  C   UNL     1     -10.526  11.564  65.411  1.00  0.00    -0.333 A  
ENDBRANCH  15  20
ENDBRANCH  13  14
ENDBRANCH  12  13
ENDBRANCH   3  12
TORSDOF 4
ENDMDL
MODEL       82
REMARK 921   NORMALIZED FREE ENERGY PREDICTED BY IDOCK:   -5.64 KCAL/MOL
REMARK 922        TOTAL FREE ENERGY PREDICTED BY IDOCK:   -7.47 KCAL/MOL
REMARK 923 INTER-LIGAND FREE ENERGY PREDICTED BY IDOCK:   -7.22 KCAL/MOL
REMARK 924 INTRA-LIGAND FREE ENERGY PREDICTED BY IDOCK:   -0.25 KCAL/MOL
REMARK 927      BINDING AFFINITY PREDICTED BY RF-SCORE:    0.00 PKD
ROOT
HETATM    1 CL   UNL     1      -8.600   7.260  69.612  1.00  0.00    -0.137 Cl 
HETATM    2  C   UNL     1      -8.499   6.649  67.999  1.00  0.00    -0.116 A  
HETATM    3  C   UNL     1      -8.806   7.464  66.876  1.00  0.00    -0.140 A  
HETATM    4  O   UNL     1      -9.822   2.652  64.262  1.00  0.00    -0.150 OA 
HETATM    5  C   UNL     1      -8.589   6.981  65.573  1.00  0.00    -0.091 A  
HETATM    6  C   UNL     1      -8.410   5.621  65.432  1.00  0.00    -0.144 A  
HETATM    7  N   UNL     1      -8.801   3.516  66.175  1.00  0.00    -0.124 NA 
HETATM    8  C   UNL     1      -8.578   4.776  64.205  1.00  0.00    -0.137 C  
HETATM    9  C   UNL     1      -8.306   5.278  67.838  1.00  0.00    -0.098 A  
HETATM   10  C   UNL     1      -8.397   4.795  66.552  1.00  0.00    -0.107 A  
HETATM   11  C   UNL     1      -9.154   3.503  64.824  1.00  0.00    -0.135 C  
ENDROOT
BRANCH   3  12
HETATM   12  C   UNL     1      -9.879   8.534  67.011  1.00  0.00    -0.289 C  
BRANCH  12  13
HETATM   13  C   UNL     1      -9.920   9.765  66.098  1.00  0.00    -0.268 C  
BRANCH  13  14
HETATM   14  N   UNL     1      -9.551  10.950  66.904  1.00  0.00    -0.176 NA 
HETATM   15  N   UNL     1     -11.671  12.166  68.641  1.00  0.00    -0.315 NA 
HETATM   16  C   UNL     1     -10.346  12.152  66.586  1.00  0.00    -0.208 C  
HETATM   17  C   UNL     1      -9.554  10.745  68.369  1.00  0.00    -0.176 C  
HETATM   18  C   UNL     1     -10.837  11.086  69.207  1.00  0.00    -0.238 C  
HETATM   19  C   UNL     1     -11.761  12.095  67.177  1.00  0.00    -0.302 C  
BRANCH  15  20
HETATM   20  C   UNL     1     -11.636  13.445  69.166  1.00  0.00    -0.315 A  
HETATM   21  N   UNL     1     -11.161  14.477  68.482  1.00  0.00    -0.253 NA 
HETATM   22  S   UNL     1     -11.477  15.888  69.266  1.00  0.00    -0.369 SA 
HETATM   23  C   UNL     1     -12.310  15.174  70.582  1.00  0.00    -0.368 A  
HETATM   24  C   UNL     1     -12.938  15.816  71.658  1.00  0.00    -0.509 A  
HETATM   25  C   UNL     1     -13.550  15.020  72.630  1.00  0.00    -0.566 A  
HETATM   26  C   UNL     1     -13.518  13.637  72.520  1.00  0.00    -0.675 A  
HETATM   27  C   UNL     1     -12.910  13.007  71.433  1.00  0.00    -0.385 A  
HETATM   28  C   UNL     1     -12.260  13.789  70.428  1.00  0.00    -0.433 A  
ENDBRANCH  15  20
ENDBRANCH  13  14
ENDBRANCH  12  13
ENDBRANCH   3  12
TORSDOF 4
ENDMDL
MODEL       83
REMARK 921   NORMALIZED FREE ENERGY PREDICTED BY IDOCK:   -5.63 KCAL/MOL
REMARK 922        TOTAL FREE ENERGY PREDICTED BY IDOCK:   -7.46 KCAL/MOL
REMARK 923 INTER-LIGAND FREE ENERGY PREDICTED BY IDOCK:   -7.50 KCAL/MOL
REMARK 924 INTRA-LIGAND FREE ENERGY PREDICTED BY IDOCK:    0.04 KCAL/MOL
REMARK 927      BINDING AFFINITY PREDICTED BY RF-SCORE:    0.00 PKD
ROOT
HETATM    1 CL   UNL     1     -13.014  11.440  70.964  1.00  0.00    -0.351 Cl 
HETATM    2  C   UNL     1     -11.595  10.471  70.777  1.00  0.00    -0.338 A  
HETATM    3  C   UNL     1     -10.739  10.620  69.652  1.00  0.00    -0.290 A  
HETATM    4  O   UNL     1      -9.203   5.377  70.730  1.00  0.00    -0.144 OA 
HETATM    5  C   UNL     1      -9.524   9.913  69.591  1.00  0.00    -0.252 A  
HETATM    6  C   UNL     1      -9.375   8.851  70.459  1.00  0.00    -0.240 A  
HETATM    7  N   UNL     1     -10.310   7.193  71.689  1.00  0.00    -0.198 NA 
HETATM    8  C   UNL     1      -8.436   7.687  70.361  1.00  0.00    -0.136 C  
HETATM    9  C   UNL     1     -11.423   9.401  71.653  1.00  0.00    -0.463 A  
HETATM   10  C   UNL     1     -10.376   8.550  71.378  1.00  0.00    -0.239 A  
HETATM   11  C   UNL     1      -9.317   6.574  70.927  1.00  0.00    -0.161 C  
ENDROOT
BRANCH   3  12
HETATM   12  C   UNL     1     -11.342  11.009  68.311  1.00  0.00    -0.366 C  
BRANCH  12  13
HETATM   13  C   UNL     1     -11.864  12.424  68.033  1.00  0.00    -0.316 C  
BRANCH  13  14
HETATM   14  N   UNL     1     -10.756  13.378  68.259  1.00  0.00    -0.250 NA 
HETATM   15  N   UNL     1     -11.106  16.181  67.253  1.00  0.00    -0.168 NA 
HETATM   16  C   UNL     1     -10.186  13.928  67.014  1.00  0.00    -0.254 C  
HETATM   17  C   UNL     1     -11.059  14.493  69.183  1.00  0.00    -0.263 C  
HETATM   18  C   UNL     1     -11.575  15.863  68.617  1.00  0.00    -0.380 C  
HETATM   19  C   UNL     1     -11.082  15.000  66.380  1.00  0.00    -0.329 C  
BRANCH  15  20
HETATM   20  C   UNL     1     -10.083  17.087  67.044  1.00  0.00    -0.295 A  
HETATM   21  N   UNL     1     -10.198  18.099  66.194  1.00  0.00    -0.489 NA 
HETATM   22  S   UNL     1      -8.928  19.133  66.346  1.00  0.00    -0.322 SA 
HETATM   23  C   UNL     1      -8.152  18.272  67.608  1.00  0.00    -0.245 A  
HETATM   24  C   UNL     1      -6.986  18.622  68.302  1.00  0.00    -0.262 A  
HETATM   25  C   UNL     1      -6.527  17.751  69.294  1.00  0.00    -0.244 A  
HETATM   26  C   UNL     1      -7.215  16.576  69.562  1.00  0.00    -0.049 A  
HETATM   27  C   UNL     1      -8.388  16.247  68.881  1.00  0.00    -0.231 A  
HETATM   28  C   UNL     1      -8.878  17.106  67.848  1.00  0.00    -0.226 A  
ENDBRANCH  15  20
ENDBRANCH  13  14
ENDBRANCH  12  13
ENDBRANCH   3  12
TORSDOF 4
ENDMDL
MODEL       84
REMARK 921   NORMALIZED FREE ENERGY PREDICTED BY IDOCK:   -5.62 KCAL/MOL
REMARK 922        TOTAL FREE ENERGY PREDICTED BY IDOCK:   -7.46 KCAL/MOL
REMARK 923 INTER-LIGAND FREE ENERGY PREDICTED BY IDOCK:   -7.52 KCAL/MOL
REMARK 924 INTRA-LIGAND FREE ENERGY PREDICTED BY IDOCK:    0.06 KCAL/MOL
REMARK 927      BINDING AFFINITY PREDICTED BY RF-SCORE:    0.00 PKD
ROOT
HETATM    1 CL   UNL     1     -12.334   7.852  71.997  1.00  0.00    -0.334 Cl 
HETATM    2  C   UNL     1     -12.387   9.516  71.535  1.00  0.00    -0.380 A  
HETATM    3  C   UNL     1     -11.339  10.111  70.781  1.00  0.00    -0.436 A  
HETATM    4  O   UNL     1     -13.116  14.906  72.985  1.00  0.00    -0.444 OA 
HETATM    5  C   UNL     1     -11.470  11.429  70.307  1.00  0.00    -0.244 A  
HETATM    6  C   UNL     1     -12.457  12.204  70.879  1.00  0.00    -0.374 A  
HETATM    7  N   UNL     1     -13.766  12.688  72.665  1.00  0.00    -0.362 NA 
HETATM    8  C   UNL     1     -12.575  13.698  70.909  1.00  0.00    -0.421 C  
HETATM    9  C   UNL     1     -13.386  10.311  72.094  1.00  0.00    -0.404 A  
HETATM   10  C   UNL     1     -13.305  11.662  71.842  1.00  0.00    -0.298 A  
HETATM   11  C   UNL     1     -13.172  13.898  72.302  1.00  0.00    -0.473 C  
ENDROOT
BRANCH   3  12
HETATM   12  C   UNL     1      -9.913   9.624  70.988  1.00  0.00    -0.151 C  
BRANCH  12  13
HETATM   13  C   UNL     1      -9.213   8.702  69.982  1.00  0.00    -0.157 C  
BRANCH  13  14
HETATM   14  N   UNL     1      -9.323   9.315  68.640  1.00  0.00    -0.138 NA 
HETATM   15  N   UNL     1      -8.436   7.682  66.287  1.00  0.00    -0.131 NA 
HETATM   16  C   UNL     1      -8.032   9.439  67.938  1.00  0.00    -0.092 C  
HETATM   17  C   UNL     1     -10.304   8.680  67.733  1.00  0.00    -0.242 C  
HETATM   18  C   UNL     1      -9.840   7.563  66.732  1.00  0.00    -0.225 C  
HETATM   19  C   UNL     1      -7.538   8.101  67.371  1.00  0.00    -0.101 C  
BRANCH  15  20
HETATM   20  C   UNL     1      -8.125   8.186  65.038  1.00  0.00    -0.155 A  
HETATM   21  N   UNL     1      -7.414   7.497  64.155  1.00  0.00    -0.091 NA 
HETATM   22  S   UNL     1      -7.421   8.247  62.691  1.00  0.00    -0.110 SA 
HETATM   23  C   UNL     1      -8.422   9.552  63.168  1.00  0.00    -0.199 A  
HETATM   24  C   UNL     1      -8.913  10.599  62.376  1.00  0.00    -0.329 A  
HETATM   25  C   UNL     1      -9.710  11.568  62.990  1.00  0.00    -0.382 A  
HETATM   26  C   UNL     1      -9.989  11.484  64.347  1.00  0.00    -0.311 A  
HETATM   27  C   UNL     1      -9.515  10.425  65.124  1.00  0.00    -0.303 A  
HETATM   28  C   UNL     1      -8.683   9.424  64.532  1.00  0.00    -0.233 A  
ENDBRANCH  15  20
ENDBRANCH  13  14
ENDBRANCH  12  13
ENDBRANCH   3  12
TORSDOF 4
ENDMDL
MODEL       85
REMARK 921   NORMALIZED FREE ENERGY PREDICTED BY IDOCK:   -5.62 KCAL/MOL
REMARK 922        TOTAL FREE ENERGY PREDICTED BY IDOCK:   -7.46 KCAL/MOL
REMARK 923 INTER-LIGAND FREE ENERGY PREDICTED BY IDOCK:   -6.96 KCAL/MOL
REMARK 924 INTRA-LIGAND FREE ENERGY PREDICTED BY IDOCK:   -0.49 KCAL/MOL
REMARK 927      BINDING AFFINITY PREDICTED BY RF-SCORE:    0.00 PKD
ROOT
HETATM    1 CL   UNL     1     -12.491  15.720  70.578  1.00  0.00    -0.423 Cl 
HETATM    2  C   UNL     1     -12.242  14.011  70.531  1.00  0.00    -0.365 A  
HETATM    3  C   UNL     1     -11.632  13.382  69.412  1.00  0.00    -0.365 A  
HETATM    4  O   UNL     1     -14.319   8.813  71.122  1.00  0.00    -0.257 OA 
HETATM    5  C   UNL     1     -11.323  12.010  69.455  1.00  0.00    -0.298 A  
HETATM    6  C   UNL     1     -11.929  11.263  70.444  1.00  0.00    -0.471 A  
HETATM    7  N   UNL     1     -13.682  10.940  71.843  1.00  0.00    -0.030 NA 
HETATM    8  C   UNL     1     -12.142   9.781  70.499  1.00  0.00    -0.244 C  
HETATM    9  C   UNL     1     -12.838  13.243  71.529  1.00  0.00    -0.419 A  
HETATM   10  C   UNL     1     -12.764  11.877  71.374  1.00  0.00    -0.290 A  
HETATM   11  C   UNL     1     -13.511   9.725  71.176  1.00  0.00    -0.237 C  
ENDROOT
BRANCH   3  12
HETATM   12  C   UNL     1     -11.859  13.961  68.024  1.00  0.00    -0.411 C  
BRANCH  12  13
HETATM   13  C   UNL     1     -12.242  13.081  66.827  1.00  0.00    -0.194 C  
BRANCH  13  14
HETATM   14  N   UNL     1     -11.131  13.122  65.851  1.00  0.00    -0.277 NA 
HETATM   15  N   UNL     1     -10.498  10.600  64.357  1.00  0.00    -0.291 NA 
HETATM   16  C   UNL     1     -10.036  12.184  66.161  1.00  0.00    -0.233 C  
HETATM   17  C   UNL     1     -11.525  12.949  64.435  1.00  0.00    -0.357 C  
HETATM   18  C   UNL     1     -11.501  11.521  63.783  1.00  0.00    -0.286 C  
HETATM   19  C   UNL     1     -10.388  10.731  65.816  1.00  0.00    -0.230 C  
BRANCH  15  20
HETATM   20  C   UNL     1      -9.310  10.339  63.699  1.00  0.00    -0.296 A  
HETATM   21  N   UNL     1      -8.836  11.139  62.754  1.00  0.00    -0.265 NA 
HETATM   22  S   UNL     1      -7.304  10.703  62.340  1.00  0.00    -0.081 SA 
HETATM   23  C   UNL     1      -7.185   9.406  63.452  1.00  0.00    -0.102 A  
HETATM   24  C   UNL     1      -6.080   8.580  63.701  1.00  0.00    -0.073 A  
HETATM   25  C   UNL     1      -6.219   7.568  64.654  1.00  0.00    -0.038 A  
HETATM   26  C   UNL     1      -7.427   7.396  65.317  1.00  0.00    -0.085 A  
HETATM   27  C   UNL     1      -8.514   8.238  65.079  1.00  0.00    -0.141 A  
HETATM   28  C   UNL     1      -8.413   9.274  64.099  1.00  0.00    -0.203 A  
ENDBRANCH  15  20
ENDBRANCH  13  14
ENDBRANCH  12  13
ENDBRANCH   3  12
TORSDOF 4
ENDMDL
MODEL       86
REMARK 921   NORMALIZED FREE ENERGY PREDICTED BY IDOCK:   -5.62 KCAL/MOL
REMARK 922        TOTAL FREE ENERGY PREDICTED BY IDOCK:   -7.45 KCAL/MOL
REMARK 923 INTER-LIGAND FREE ENERGY PREDICTED BY IDOCK:   -6.89 KCAL/MOL
REMARK 924 INTRA-LIGAND FREE ENERGY PREDICTED BY IDOCK:   -0.56 KCAL/MOL
REMARK 927      BINDING AFFINITY PREDICTED BY RF-SCORE:    0.00 PKD
ROOT
HETATM    1 CL   UNL     1     -13.018   9.315  71.747  1.00  0.00    -0.431 Cl 
HETATM    2  C   UNL     1     -12.830  10.961  71.257  1.00  0.00    -0.433 A  
HETATM    3  C   UNL     1     -11.970  11.322  70.184  1.00  0.00    -0.452 A  
HETATM    4  O   UNL     1     -11.792  16.318  72.638  1.00  0.00    -0.519 OA 
HETATM    5  C   UNL     1     -11.937  12.650  69.722  1.00  0.00    -0.365 A  
HETATM    6  C   UNL     1     -12.483  13.613  70.546  1.00  0.00    -0.394 A  
HETATM    7  N   UNL     1     -13.004  14.324  72.634  1.00  0.00    -0.436 NA 
HETATM    8  C   UNL     1     -12.237  15.091  70.550  1.00  0.00    -0.391 C  
HETATM    9  C   UNL     1     -13.386  11.946  72.072  1.00  0.00    -0.425 A  
HETATM   10  C   UNL     1     -13.080  13.249  71.750  1.00  0.00    -0.379 A  
HETATM   11  C   UNL     1     -12.295  15.375  72.050  1.00  0.00    -0.373 C  
ENDROOT
BRANCH   3  12
HETATM   12  C   UNL     1     -10.706  10.511  69.946  1.00  0.00    -0.301 C  
BRANCH  12  13
HETATM   13  C   UNL     1     -10.113  10.319  68.544  1.00  0.00    -0.165 C  
BRANCH  13  14
HETATM   14  N   UNL     1     -10.750   9.131  67.933  1.00  0.00    -0.205 NA 
HETATM   15  N   UNL     1      -8.983   6.811  67.237  1.00  0.00    -0.116 NA 
HETATM   16  C   UNL     1     -10.233   8.810  66.589  1.00  0.00    -0.270 C  
HETATM   17  C   UNL     1     -10.730   7.906  68.762  1.00  0.00    -0.051 C  
HETATM   18  C   UNL     1      -9.569   6.862  68.591  1.00  0.00    -0.133 C  
HETATM   19  C   UNL     1      -8.851   8.143  66.633  1.00  0.00    -0.143 C  
BRANCH  15  20
HETATM   20  C   UNL     1      -9.308   5.796  66.356  1.00  0.00    -0.156 A  
HETATM   21  N   UNL     1     -10.531   5.289  66.284  1.00  0.00    -0.265 NA 
HETATM   22  S   UNL     1     -10.668   4.284  64.989  1.00  0.00     0.022 SA 
HETATM   23  C   UNL     1      -9.064   4.503  64.428  1.00  0.00    -0.143 A  
HETATM   24  C   UNL     1      -8.470   3.966  63.277  1.00  0.00    -0.093 A  
HETATM   25  C   UNL     1      -7.131   4.275  63.026  1.00  0.00    -0.044 A  
HETATM   26  C   UNL     1      -6.424   5.082  63.907  1.00  0.00    -0.033 A  
HETATM   27  C   UNL     1      -7.030   5.631  65.038  1.00  0.00    -0.059 A  
HETATM   28  C   UNL     1      -8.395   5.323  65.335  1.00  0.00    -0.136 A  
ENDBRANCH  15  20
ENDBRANCH  13  14
ENDBRANCH  12  13
ENDBRANCH   3  12
TORSDOF 4
ENDMDL
MODEL       87
REMARK 921   NORMALIZED FREE ENERGY PREDICTED BY IDOCK:   -5.59 KCAL/MOL
REMARK 922        TOTAL FREE ENERGY PREDICTED BY IDOCK:   -7.42 KCAL/MOL
REMARK 923 INTER-LIGAND FREE ENERGY PREDICTED BY IDOCK:   -7.10 KCAL/MOL
REMARK 924 INTRA-LIGAND FREE ENERGY PREDICTED BY IDOCK:   -0.32 KCAL/MOL
REMARK 927      BINDING AFFINITY PREDICTED BY RF-SCORE:    0.00 PKD
ROOT
HETATM    1 CL   UNL     1      -6.853   8.640  71.327  1.00  0.00    -0.068 Cl 
HETATM    2  C   UNL     1      -8.434   7.953  71.450  1.00  0.00    -0.119 A  
HETATM    3  C   UNL     1      -8.791   6.780  70.730  1.00  0.00    -0.150 A  
HETATM    4  O   UNL     1     -14.018   8.630  71.248  1.00  0.00    -0.302 OA 
HETATM    5  C   UNL     1     -10.039   6.170  70.950  1.00  0.00    -0.237 A  
HETATM    6  C   UNL     1     -10.997   6.921  71.599  1.00  0.00    -0.262 A  
HETATM    7  N   UNL     1     -11.870   8.950  72.103  1.00  0.00    -0.363 NA 
HETATM    8  C   UNL     1     -12.484   6.738  71.606  1.00  0.00    -0.398 C  
HETATM    9  C   UNL     1      -9.411   8.693  72.113  1.00  0.00    -0.343 A  
HETATM   10  C   UNL     1     -10.696   8.203  72.051  1.00  0.00    -0.278 A  
HETATM   11  C   UNL     1     -12.941   8.196  71.619  1.00  0.00    -0.331 C  
ENDROOT
BRANCH   3  12
HETATM   12  C   UNL     1      -8.169   6.534  69.364  1.00  0.00    -0.119 C  
BRANCH  12  13
HETATM   13  C   UNL     1      -8.955   5.886  68.217  1.00  0.00    -0.112 C  
BRANCH  13  14
HETATM   14  N   UNL     1      -9.135   6.897  67.152  1.00  0.00    -0.128 NA 
HETATM   15  N   UNL     1     -10.087   9.621  67.965  1.00  0.00    -0.169 NA 
HETATM   16  C   UNL     1     -10.517   7.400  67.041  1.00  0.00    -0.333 C  
HETATM   17  C   UNL     1      -8.208   8.048  67.209  1.00  0.00    -0.122 C  
HETATM   18  C   UNL     1      -8.632   9.362  67.957  1.00  0.00    -0.120 C  
HETATM   19  C   UNL     1     -10.874   8.396  68.152  1.00  0.00     0.073 C  
BRANCH  15  20
HETATM   20  C   UNL     1     -10.649  10.557  67.116  1.00  0.00    -0.264 A  
HETATM   21  N   UNL     1     -11.466  11.506  67.553  1.00  0.00    -0.463 NA 
HETATM   22  S   UNL     1     -11.769  12.603  66.365  1.00  0.00    -0.399 SA 
HETATM   23  C   UNL     1     -10.775  11.860  65.184  1.00  0.00    -0.291 A  
HETATM   24  C   UNL     1     -10.499  12.305  63.883  1.00  0.00    -0.458 A  
HETATM   25  C   UNL     1      -9.662  11.521  63.086  1.00  0.00    -0.412 A  
HETATM   26  C   UNL     1      -9.137  10.335  63.582  1.00  0.00    -0.284 A  
HETATM   27  C   UNL     1      -9.399   9.912  64.886  1.00  0.00    -0.329 A  
HETATM   28  C   UNL     1     -10.265  10.681  65.725  1.00  0.00    -0.317 A  
ENDBRANCH  15  20
ENDBRANCH  13  14
ENDBRANCH  12  13
ENDBRANCH   3  12
TORSDOF 4
ENDMDL
MODEL       88
REMARK 921   NORMALIZED FREE ENERGY PREDICTED BY IDOCK:   -5.59 KCAL/MOL
REMARK 922        TOTAL FREE ENERGY PREDICTED BY IDOCK:   -7.41 KCAL/MOL
REMARK 923 INTER-LIGAND FREE ENERGY PREDICTED BY IDOCK:   -7.00 KCAL/MOL
REMARK 924 INTRA-LIGAND FREE ENERGY PREDICTED BY IDOCK:   -0.41 KCAL/MOL
REMARK 927      BINDING AFFINITY PREDICTED BY RF-SCORE:    0.00 PKD
ROOT
HETATM    1 CL   UNL     1     -12.047  10.220  69.978  1.00  0.00    -0.264 Cl 
HETATM    2  C   UNL     1     -12.454  11.848  70.390  1.00  0.00    -0.170 A  
HETATM    3  C   UNL     1     -12.016  12.945  69.600  1.00  0.00    -0.358 A  
HETATM    4  O   UNL     1     -12.668  15.939  74.250  1.00  0.00    -0.598 OA 
HETATM    5  C   UNL     1     -12.471  14.246  69.883  1.00  0.00    -0.315 A  
HETATM    6  C   UNL     1     -13.050  14.450  71.118  1.00  0.00    -0.419 A  
HETATM    7  N   UNL     1     -13.232  13.882  73.304  1.00  0.00    -0.413 NA 
HETATM    8  C   UNL     1     -13.237  15.737  71.863  1.00  0.00    -0.477 C  
HETATM    9  C   UNL     1     -13.052  12.071  71.629  1.00  0.00    -0.422 A  
HETATM   10  C   UNL     1     -13.212  13.387  72.002  1.00  0.00    -0.438 A  
HETATM   11  C   UNL     1     -13.010  15.260  73.297  1.00  0.00    -0.527 C  
ENDROOT
BRANCH   3  12
HETATM   12  C   UNL     1     -10.670  12.857  68.896  1.00  0.00    -0.195 C  
BRANCH  12  13
HETATM   13  C   UNL     1     -10.526  12.279  67.483  1.00  0.00    -0.213 C  
BRANCH  13  14
HETATM   14  N   UNL     1      -9.264  11.508  67.426  1.00  0.00    -0.164 NA 
HETATM   15  N   UNL     1      -9.259   8.965  65.839  1.00  0.00    -0.217 NA 
HETATM   16  C   UNL     1      -9.379  10.144  67.976  1.00  0.00    -0.141 C  
HETATM   17  C   UNL     1      -8.626  11.436  66.093  1.00  0.00    -0.128 C  
HETATM   18  C   UNL     1      -8.929  10.225  65.142  1.00  0.00    -0.191 C  
HETATM   19  C   UNL     1     -10.100   9.182  67.022  1.00  0.00    -0.249 C  
BRANCH  15  20
HETATM   20  C   UNL     1      -8.326   7.951  65.959  1.00  0.00    -0.128 A  
HETATM   21  N   UNL     1      -7.021   8.185  65.932  1.00  0.00    -0.060 NA 
HETATM   22  S   UNL     1      -6.180   6.832  66.343  1.00  0.00    -0.046 SA 
HETATM   23  C   UNL     1      -7.556   5.846  66.611  1.00  0.00    -0.095 A  
HETATM   24  C   UNL     1      -7.593   4.518  67.060  1.00  0.00    -0.086 A  
HETATM   25  C   UNL     1      -8.842   3.906  67.194  1.00  0.00    -0.133 A  
HETATM   26  C   UNL     1      -9.998   4.606  66.876  1.00  0.00    -0.239 A  
HETATM   27  C   UNL     1      -9.952   5.934  66.451  1.00  0.00    -0.162 A  
HETATM   28  C   UNL     1      -8.691   6.587  66.288  1.00  0.00    -0.148 A  
ENDBRANCH  15  20
ENDBRANCH  13  14
ENDBRANCH  12  13
ENDBRANCH   3  12
TORSDOF 4
ENDMDL
MODEL       89
REMARK 921   NORMALIZED FREE ENERGY PREDICTED BY IDOCK:   -5.55 KCAL/MOL
REMARK 922        TOTAL FREE ENERGY PREDICTED BY IDOCK:   -7.37 KCAL/MOL
REMARK 923 INTER-LIGAND FREE ENERGY PREDICTED BY IDOCK:   -6.80 KCAL/MOL
REMARK 924 INTRA-LIGAND FREE ENERGY PREDICTED BY IDOCK:   -0.56 KCAL/MOL
REMARK 927      BINDING AFFINITY PREDICTED BY RF-SCORE:    0.00 PKD
ROOT
HETATM    1 CL   UNL     1     -13.878  14.277  72.554  1.00  0.00    -0.588 Cl 
HETATM    2  C   UNL     1     -12.894  13.971  71.168  1.00  0.00    -0.357 A  
HETATM    3  C   UNL     1     -12.766  12.665  70.622  1.00  0.00    -0.141 A  
HETATM    4  O   UNL     1      -7.942  14.520  68.548  1.00  0.00    -0.129 OA 
HETATM    5  C   UNL     1     -12.066  12.468  69.418  1.00  0.00    -0.237 A  
HETATM    6  C   UNL     1     -11.247  13.494  68.996  1.00  0.00    -0.314 A  
HETATM    7  N   UNL     1      -9.936  15.274  69.498  1.00  0.00    -0.249 NA 
HETATM    8  C   UNL     1     -10.095  13.439  68.038  1.00  0.00    -0.241 C  
HETATM    9  C   UNL     1     -12.069  15.002  70.720  1.00  0.00    -0.377 A  
HETATM   10  C   UNL     1     -11.177  14.680  69.722  1.00  0.00    -0.259 A  
HETATM   11  C   UNL     1      -9.152  14.454  68.684  1.00  0.00    -0.178 C  
ENDROOT
BRANCH   3  12
HETATM   12  C   UNL     1     -12.818  11.466  71.557  1.00  0.00    -0.508 C  
BRANCH  12  13
HETATM   13  C   UNL     1     -12.806  10.025  71.033  1.00  0.00    -0.365 C  
BRANCH  13  14
HETATM   14  N   UNL     1     -11.430   9.495  71.170  1.00  0.00    -0.329 NA 
HETATM   15  N   UNL     1     -11.091   6.519  71.296  1.00  0.00    -0.261 NA 
HETATM   16  C   UNL     1     -11.222   8.700  72.394  1.00  0.00    -0.269 C  
HETATM   17  C   UNL     1     -10.928   8.730  70.007  1.00  0.00    -0.209 C  
HETATM   18  C   UNL     1     -11.084   7.168  69.970  1.00  0.00    -0.258 C  
HETATM   19  C   UNL     1     -11.835   7.296  72.296  1.00  0.00    -0.248 C  
BRANCH  15  20
HETATM   20  C   UNL     1      -9.972   5.863  71.775  1.00  0.00    -0.166 A  
HETATM   21  N   UNL     1      -8.761   6.399  71.718  1.00  0.00    -0.132 NA 
HETATM   22  S   UNL     1      -7.686   5.499  72.579  1.00  0.00    -0.103 SA 
HETATM   23  C   UNL     1      -8.823   4.331  73.109  1.00  0.00    -0.099 A  
HETATM   24  C   UNL     1      -8.608   3.244  73.969  1.00  0.00    -0.076 A  
HETATM   25  C   UNL     1      -9.691   2.410  74.254  1.00  0.00    -0.124 A  
HETATM   26  C   UNL     1     -10.932   2.660  73.684  1.00  0.00    -0.312 A  
HETATM   27  C   UNL     1     -11.142   3.757  72.848  1.00  0.00    -0.047 A  
HETATM   28  C   UNL     1     -10.052   4.623  72.522  1.00  0.00    -0.229 A  
ENDBRANCH  15  20
ENDBRANCH  13  14
ENDBRANCH  12  13
ENDBRANCH   3  12
TORSDOF 4
ENDMDL
MODEL       90
REMARK 921   NORMALIZED FREE ENERGY PREDICTED BY IDOCK:   -5.55 KCAL/MOL
REMARK 922        TOTAL FREE ENERGY PREDICTED BY IDOCK:   -7.37 KCAL/MOL
REMARK 923 INTER-LIGAND FREE ENERGY PREDICTED BY IDOCK:   -6.62 KCAL/MOL
REMARK 924 INTRA-LIGAND FREE ENERGY PREDICTED BY IDOCK:   -0.74 KCAL/MOL
REMARK 927      BINDING AFFINITY PREDICTED BY RF-SCORE:    0.00 PKD
ROOT
HETATM    1 CL   UNL     1     -11.820  11.159  69.871  1.00  0.00    -0.401 Cl 
HETATM    2  C   UNL     1     -10.754  10.405  68.740  1.00  0.00    -0.225 A  
HETATM    3  C   UNL     1     -10.450  11.011  67.490  1.00  0.00    -0.244 A  
HETATM    4  O   UNL     1      -9.283   5.833  65.804  1.00  0.00    -0.148 OA 
HETATM    5  C   UNL     1      -9.479  10.440  66.647  1.00  0.00    -0.199 A  
HETATM    6  C   UNL     1      -9.110   9.138  66.910  1.00  0.00    -0.163 A  
HETATM    7  N   UNL     1      -9.632   7.093  67.737  1.00  0.00    -0.128 NA 
HETATM    8  C   UNL     1      -8.460   8.146  65.994  1.00  0.00    -0.150 C  
HETATM    9  C   UNL     1     -10.362   9.092  68.996  1.00  0.00    -0.229 A  
HETATM   10  C   UNL     1      -9.652   8.461  68.000  1.00  0.00    -0.149 A  
HETATM   11  C   UNL     1      -9.148   6.859  66.448  1.00  0.00    -0.159 C  
ENDROOT
BRANCH   3  12
HETATM   12  C   UNL     1     -11.514  11.849  66.797  1.00  0.00    -0.384 C  
BRANCH  12  13
HETATM   13  C   UNL     1     -11.583  13.372  66.960  1.00  0.00    -0.356 C  
BRANCH  13  14
HETATM   14  N   UNL     1     -10.396  13.809  67.727  1.00  0.00    -0.238 NA 
HETATM   15  N   UNL     1      -9.805  16.747  67.823  1.00  0.00    -0.252 NA 
HETATM   16  C   UNL     1      -9.392  14.517  66.910  1.00  0.00    -0.245 C  
HETATM   17  C   UNL     1     -10.684  14.611  68.937  1.00  0.00    -0.248 C  
HETATM   18  C   UNL     1     -10.697  16.179  68.854  1.00  0.00    -0.280 C  
HETATM   19  C   UNL     1      -9.807  15.958  66.584  1.00  0.00    -0.254 C  
BRANCH  15  20
HETATM   20  C   UNL     1      -8.587  17.306  68.162  1.00  0.00    -0.242 A  
HETATM   21  N   UNL     1      -7.792  16.766  69.077  1.00  0.00    -0.231 NA 
HETATM   22  S   UNL     1      -6.324  17.508  69.081  1.00  0.00    -0.244 SA 
HETATM   23  C   UNL     1      -6.677  18.600  67.809  1.00  0.00    -0.213 A  
HETATM   24  C   UNL     1      -5.822  19.541  67.216  1.00  0.00    -0.183 A  
HETATM   25  C   UNL     1      -6.337  20.340  66.193  1.00  0.00    -0.237 A  
HETATM   26  C   UNL     1      -7.660  20.199  65.796  1.00  0.00    -0.240 A  
HETATM   27  C   UNL     1      -8.496  19.244  66.376  1.00  0.00    -0.342 A  
HETATM   28  C   UNL     1      -8.008  18.419  67.438  1.00  0.00    -0.241 A  
ENDBRANCH  15  20
ENDBRANCH  13  14
ENDBRANCH  12  13
ENDBRANCH   3  12
TORSDOF 4
ENDMDL
MODEL       91
REMARK 921   NORMALIZED FREE ENERGY PREDICTED BY IDOCK:   -5.54 KCAL/MOL
REMARK 922        TOTAL FREE ENERGY PREDICTED BY IDOCK:   -7.36 KCAL/MOL
REMARK 923 INTER-LIGAND FREE ENERGY PREDICTED BY IDOCK:   -6.77 KCAL/MOL
REMARK 924 INTRA-LIGAND FREE ENERGY PREDICTED BY IDOCK:   -0.59 KCAL/MOL
REMARK 927      BINDING AFFINITY PREDICTED BY RF-SCORE:    0.00 PKD
ROOT
HETATM    1 CL   UNL     1      -6.715   8.231  71.989  1.00  0.00    -0.073 Cl 
HETATM    2  C   UNL     1      -7.617   6.776  71.758  1.00  0.00    -0.095 A  
HETATM    3  C   UNL     1      -8.386   6.559  70.583  1.00  0.00    -0.133 A  
HETATM    4  O   UNL     1     -11.326   3.031  73.735  1.00  0.00    -0.213 OA 
HETATM    5  C   UNL     1      -9.002   5.313  70.363  1.00  0.00    -0.154 A  
HETATM    6  C   UNL     1      -9.117   4.472  71.449  1.00  0.00    -0.177 A  
HETATM    7  N   UNL     1      -9.305   4.197  73.691  1.00  0.00    -0.103 NA 
HETATM    8  C   UNL     1     -10.055   3.318  71.645  1.00  0.00    -0.088 C  
HETATM    9  C   UNL     1      -7.733   5.908  72.842  1.00  0.00    -0.100 A  
HETATM   10  C   UNL     1      -8.591   4.843  72.683  1.00  0.00    -0.119 A  
HETATM   11  C   UNL     1     -10.351   3.455  73.138  1.00  0.00    -0.162 C  
ENDROOT
BRANCH   3  12
HETATM   12  C   UNL     1      -9.044   7.748  69.901  1.00  0.00    -0.147 C  
BRANCH  12  13
HETATM   13  C   UNL     1     -10.425   8.267  70.323  1.00  0.00    -0.218 C  
BRANCH  13  14
HETATM   14  N   UNL     1     -10.355   9.743  70.411  1.00  0.00    -0.283 NA 
HETATM   15  N   UNL     1     -11.960  11.331  68.439  1.00  0.00    -0.603 NA 
HETATM   16  C   UNL     1      -9.835  10.385  69.190  1.00  0.00    -0.223 C  
HETATM   17  C   UNL     1     -11.614  10.412  70.808  1.00  0.00    -0.358 C  
HETATM   18  C   UNL     1     -12.605  10.936  69.708  1.00  0.00    -0.083 C  
HETATM   19  C   UNL     1     -10.870  10.424  68.058  1.00  0.00    -0.270 C  
BRANCH  15  20
HETATM   20  C   UNL     1     -11.753  12.662  68.129  1.00  0.00    -0.347 A  
HETATM   21  N   UNL     1     -11.285  13.530  69.017  1.00  0.00    -0.261 NA 
HETATM   22  S   UNL     1     -10.915  14.960  68.292  1.00  0.00    -0.276 SA 
HETATM   23  C   UNL     1     -11.348  14.470  66.708  1.00  0.00    -0.352 A  
HETATM   24  C   UNL     1     -11.234  15.200  65.517  1.00  0.00    -0.320 A  
HETATM   25  C   UNL     1     -11.666  14.595  64.334  1.00  0.00    -0.358 A  
HETATM   26  C   UNL     1     -12.198  13.313  64.360  1.00  0.00    -0.449 A  
HETATM   27  C   UNL     1     -12.286  12.585  65.548  1.00  0.00    -0.364 A  
HETATM   28  C   UNL     1     -11.868  13.179  66.780  1.00  0.00    -0.444 A  
ENDBRANCH  15  20
ENDBRANCH  13  14
ENDBRANCH  12  13
ENDBRANCH   3  12
TORSDOF 4
ENDMDL
MODEL       92
REMARK 921   NORMALIZED FREE ENERGY PREDICTED BY IDOCK:   -5.51 KCAL/MOL
REMARK 922        TOTAL FREE ENERGY PREDICTED BY IDOCK:   -7.31 KCAL/MOL
REMARK 923 INTER-LIGAND FREE ENERGY PREDICTED BY IDOCK:   -7.03 KCAL/MOL
REMARK 924 INTRA-LIGAND FREE ENERGY PREDICTED BY IDOCK:   -0.28 KCAL/MOL
REMARK 927      BINDING AFFINITY PREDICTED BY RF-SCORE:    0.00 PKD
ROOT
HETATM    1 CL   UNL     1     -12.619  15.447  70.278  1.00  0.00    -0.402 Cl 
HETATM    2  C   UNL     1     -11.493  15.933  69.061  1.00  0.00    -0.380 A  
HETATM    3  C   UNL     1     -11.433  15.276  67.802  1.00  0.00    -0.312 A  
HETATM    4  O   UNL     1      -6.200  17.170  67.601  1.00  0.00    -0.133 OA 
HETATM    5  C   UNL     1     -10.600  15.776  66.784  1.00  0.00    -0.309 A  
HETATM    6  C   UNL     1      -9.625  16.676  67.159  1.00  0.00    -0.244 A  
HETATM    7  N   UNL     1      -8.212  17.472  68.743  1.00  0.00    -0.257 NA 
HETATM    8  C   UNL     1      -8.366  17.048  66.437  1.00  0.00    -0.319 C  
HETATM    9  C   UNL     1     -10.508  16.852  69.420  1.00  0.00    -0.283 A  
HETATM   10  C   UNL     1      -9.528  17.094  68.484  1.00  0.00    -0.282 A  
HETATM   11  C   UNL     1      -7.417  17.239  67.619  1.00  0.00    -0.174 C  
ENDROOT
BRANCH   3  12
HETATM   12  C   UNL     1     -11.740  13.788  67.730  1.00  0.00    -0.393 C  
BRANCH  12  13
HETATM   13  C   UNL     1     -10.652  12.745  67.447  1.00  0.00    -0.229 C  
BRANCH  13  14
HETATM   14  N   UNL     1     -11.302  11.421  67.325  1.00  0.00    -0.425 NA 
HETATM   15  N   UNL     1      -9.998   9.100  68.703  1.00  0.00    -0.165 NA 
HETATM   16  C   UNL     1     -10.450  10.402  66.684  1.00  0.00    -0.215 C  
HETATM   17  C   UNL     1     -11.851  10.868  68.582  1.00  0.00    -0.199 C  
HETATM   18  C   UNL     1     -10.980   9.901  69.461  1.00  0.00    -0.242 C  
HETATM   19  C   UNL     1      -9.362   9.867  67.624  1.00  0.00    -0.140 C  
BRANCH  15  20
HETATM   20  C   UNL     1     -10.233   7.767  68.418  1.00  0.00    -0.200 A  
HETATM   21  N   UNL     1     -10.575   7.354  67.205  1.00  0.00    -0.326 NA 
HETATM   22  S   UNL     1     -10.543   5.712  67.119  1.00  0.00    -0.240 SA 
HETATM   23  C   UNL     1     -10.030   5.464  68.735  1.00  0.00    -0.170 A  
HETATM   24  C   UNL     1      -9.728   4.250  69.369  1.00  0.00    -0.257 A  
HETATM   25  C   UNL     1      -9.338   4.290  70.710  1.00  0.00    -0.222 A  
HETATM   26  C   UNL     1      -9.268   5.504  71.379  1.00  0.00    -0.167 A  
HETATM   27  C   UNL     1      -9.548   6.709  70.734  1.00  0.00    -0.183 A  
HETATM   28  C   UNL     1      -9.965   6.705  69.366  1.00  0.00    -0.169 A  
ENDBRANCH  15  20
ENDBRANCH  13  14
ENDBRANCH  12  13
ENDBRANCH   3  12
TORSDOF 4
ENDMDL
MODEL       93
REMARK 921   NORMALIZED FREE ENERGY PREDICTED BY IDOCK:   -5.49 KCAL/MOL
REMARK 922        TOTAL FREE ENERGY PREDICTED BY IDOCK:   -7.30 KCAL/MOL
REMARK 923 INTER-LIGAND FREE ENERGY PREDICTED BY IDOCK:   -6.98 KCAL/MOL
REMARK 924 INTRA-LIGAND FREE ENERGY PREDICTED BY IDOCK:   -0.32 KCAL/MOL
REMARK 927      BINDING AFFINITY PREDICTED BY RF-SCORE:    0.00 PKD
ROOT
HETATM    1 CL   UNL     1     -12.456  11.963  63.389  1.00  0.00    -0.669 Cl 
HETATM    2  C   UNL     1     -11.686  12.710  64.743  1.00  0.00    -0.352 A  
HETATM    3  C   UNL     1     -10.325  12.449  65.059  1.00  0.00    -0.319 A  
HETATM    4  O   UNL     1     -11.730  13.972  70.229  1.00  0.00    -0.277 OA 
HETATM    5  C   UNL     1      -9.688  13.169  66.086  1.00  0.00    -0.254 A  
HETATM    6  C   UNL     1     -10.500  13.854  66.966  1.00  0.00    -0.278 A  
HETATM    7  N   UNL     1     -12.493  14.056  68.025  1.00  0.00     0.051 NA 
HETATM    8  C   UNL     1     -10.183  14.339  68.349  1.00  0.00    -0.245 C  
HETATM    9  C   UNL     1     -12.490  13.416  65.636  1.00  0.00    -0.519 A  
HETATM   10  C   UNL     1     -11.881  13.857  66.789  1.00  0.00    -0.424 A  
HETATM   11  C   UNL     1     -11.530  14.112  69.034  1.00  0.00    -0.285 C  
ENDROOT
BRANCH   3  12
HETATM   12  C   UNL     1      -9.751  11.071  64.768  1.00  0.00    -0.311 C  
BRANCH  12  13
HETATM   13  C   UNL     1      -8.423  10.598  65.374  1.00  0.00    -0.160 C  
BRANCH  13  14
HETATM   14  N   UNL     1      -8.695   9.407  66.209  1.00  0.00    -0.137 NA 
HETATM   15  N   UNL     1     -10.115   9.830  68.815  1.00  0.00    -0.167 NA 
HETATM   16  C   UNL     1      -8.062   9.461  67.540  1.00  0.00    -0.110 C  
HETATM   17  C   UNL     1     -10.124   9.059  66.369  1.00  0.00    -0.281 C  
HETATM   18  C   UNL     1     -10.929   9.599  67.604  1.00  0.00    -0.124 C  
HETATM   19  C   UNL     1      -8.798  10.401  68.505  1.00  0.00    -0.142 C  
BRANCH  15  20
HETATM   20  C   UNL     1     -10.134   8.934  69.868  1.00  0.00    -0.195 A  
HETATM   21  N   UNL     1     -10.400   9.311  71.112  1.00  0.00    -0.308 NA 
HETATM   22  S   UNL     1     -10.592   8.001  72.087  1.00  0.00    -0.297 SA 
HETATM   23  C   UNL     1     -10.350   6.831  70.859  1.00  0.00    -0.199 A  
HETATM   24  C   UNL     1     -10.430   5.436  70.967  1.00  0.00    -0.302 A  
HETATM   25  C   UNL     1     -10.178   4.674  69.823  1.00  0.00    -0.139 A  
HETATM   26  C   UNL     1      -9.851   5.300  68.627  1.00  0.00    -0.216 A  
HETATM   27  C   UNL     1      -9.796   6.691  68.524  1.00  0.00    -0.139 A  
HETATM   28  C   UNL     1     -10.032   7.501  69.679  1.00  0.00    -0.184 A  
ENDBRANCH  15  20
ENDBRANCH  13  14
ENDBRANCH  12  13
ENDBRANCH   3  12
TORSDOF 4
ENDMDL
MODEL       94
REMARK 921   NORMALIZED FREE ENERGY PREDICTED BY IDOCK:   -5.48 KCAL/MOL
REMARK 922        TOTAL FREE ENERGY PREDICTED BY IDOCK:   -7.28 KCAL/MOL
REMARK 923 INTER-LIGAND FREE ENERGY PREDICTED BY IDOCK:   -6.75 KCAL/MOL
REMARK 924 INTRA-LIGAND FREE ENERGY PREDICTED BY IDOCK:   -0.53 KCAL/MOL
REMARK 927      BINDING AFFINITY PREDICTED BY RF-SCORE:    0.00 PKD
ROOT
HETATM    1 CL   UNL     1     -11.936   8.895  70.520  1.00  0.00    -0.090 Cl 
HETATM    2  C   UNL     1     -10.454   9.243  69.703  1.00  0.00    -0.224 A  
HETATM    3  C   UNL     1     -10.164  10.547  69.216  1.00  0.00    -0.245 A  
HETATM    4  O   UNL     1      -6.744   7.945  65.674  1.00  0.00    -0.045 OA 
HETATM    5  C   UNL     1      -8.898  10.832  68.674  1.00  0.00    -0.152 A  
HETATM    6  C   UNL     1      -8.110   9.755  68.325  1.00  0.00    -0.104 A  
HETATM    7  N   UNL     1      -7.945   7.600  67.645  1.00  0.00    -0.119 NA 
HETATM    8  C   UNL     1      -6.950   9.711  67.376  1.00  0.00    -0.084 C  
HETATM    9  C   UNL     1      -9.640   8.167  69.354  1.00  0.00    -0.167 A  
HETATM   10  C   UNL     1      -8.552   8.456  68.561  1.00  0.00    -0.136 A  
HETATM   11  C   UNL     1      -7.156   8.331  66.754  1.00  0.00    -0.077 C  
ENDROOT
BRANCH   3  12
HETATM   12  C   UNL     1     -11.305  11.420  68.718  1.00  0.00    -0.334 C  
BRANCH  12  13
HETATM   13  C   UNL     1     -11.468  11.780  67.236  1.00  0.00    -0.303 C  
BRANCH  13  14
HETATM   14  N   UNL     1     -11.784  13.223  67.143  1.00  0.00    -0.356 NA 
HETATM   15  N   UNL     1      -9.825  14.988  65.716  1.00  0.00    -0.336 NA 
HETATM   16  C   UNL     1     -10.778  14.091  67.782  1.00  0.00    -0.243 C  
HETATM   17  C   UNL     1     -12.056  13.724  65.778  1.00  0.00    -0.429 C  
HETATM   18  C   UNL     1     -10.893  14.345  64.924  1.00  0.00    -0.416 C  
HETATM   19  C   UNL     1      -9.505  14.237  66.937  1.00  0.00    -0.263 C  
BRANCH  15  20
HETATM   20  C   UNL     1      -9.756  16.363  65.836  1.00  0.00    -0.294 A  
HETATM   21  N   UNL     1     -10.761  17.155  65.485  1.00  0.00    -0.498 NA 
HETATM   22  S   UNL     1     -10.479  18.701  65.971  1.00  0.00    -0.301 SA 
HETATM   23  C   UNL     1      -8.971  18.377  66.718  1.00  0.00    -0.288 A  
HETATM   24  C   UNL     1      -8.148  19.266  67.423  1.00  0.00    -0.306 A  
HETATM   25  C   UNL     1      -6.946  18.777  67.940  1.00  0.00    -0.236 A  
HETATM   26  C   UNL     1      -6.591  17.450  67.742  1.00  0.00    -0.164 A  
HETATM   27  C   UNL     1      -7.428  16.566  67.059  1.00  0.00    -0.239 A  
HETATM   28  C   UNL     1      -8.659  17.036  66.503  1.00  0.00    -0.305 A  
ENDBRANCH  15  20
ENDBRANCH  13  14
ENDBRANCH  12  13
ENDBRANCH   3  12
TORSDOF 4
ENDMDL
MODEL       95
REMARK 921   NORMALIZED FREE ENERGY PREDICTED BY IDOCK:   -5.44 KCAL/MOL
REMARK 922        TOTAL FREE ENERGY PREDICTED BY IDOCK:   -7.23 KCAL/MOL
REMARK 923 INTER-LIGAND FREE ENERGY PREDICTED BY IDOCK:   -6.48 KCAL/MOL
REMARK 924 INTRA-LIGAND FREE ENERGY PREDICTED BY IDOCK:   -0.74 KCAL/MOL
REMARK 927      BINDING AFFINITY PREDICTED BY RF-SCORE:    0.00 PKD
ROOT
HETATM    1 CL   UNL     1     -12.644  13.583  69.975  1.00  0.00    -0.207 Cl 
HETATM    2  C   UNL     1     -11.899  14.620  68.812  1.00  0.00    -0.313 A  
HETATM    3  C   UNL     1     -11.776  14.237  67.448  1.00  0.00    -0.422 A  
HETATM    4  O   UNL     1      -7.535  17.844  67.315  1.00  0.00    -0.193 OA 
HETATM    5  C   UNL     1     -11.286  15.153  66.500  1.00  0.00    -0.283 A  
HETATM    6  C   UNL     1     -10.628  16.264  66.985  1.00  0.00    -0.284 A  
HETATM    7  N   UNL     1      -9.380  17.237  68.607  1.00  0.00    -0.267 NA 
HETATM    8  C   UNL     1      -9.661  17.164  66.276  1.00  0.00    -0.273 C  
HETATM    9  C   UNL     1     -11.240  15.754  69.284  1.00  0.00    -0.324 A  
HETATM   10  C   UNL     1     -10.517  16.470  68.357  1.00  0.00    -0.307 A  
HETATM   11  C   UNL     1      -8.694  17.480  67.416  1.00  0.00    -0.228 C  
ENDROOT
BRANCH   3  12
HETATM   12  C   UNL     1     -11.578  12.768  67.109  1.00  0.00    -0.426 C  
BRANCH  12  13
HETATM   13  C   UNL     1     -10.183  12.141  66.995  1.00  0.00    -0.207 C  
BRANCH  13  14
HETATM   14  N   UNL     1      -9.694  11.852  68.362  1.00  0.00    -0.206 NA 
HETATM   15  N   UNL     1      -8.897   9.030  68.988  1.00  0.00    -0.135 NA 
HETATM   16  C   UNL     1     -10.513  10.862  69.086  1.00  0.00    -0.221 C  
HETATM   17  C   UNL     1      -8.270  11.459  68.455  1.00  0.00    -0.153 C  
HETATM   18  C   UNL     1      -7.873   9.941  68.436  1.00  0.00    -0.085 C  
HETATM   19  C   UNL     1     -10.260   9.426  68.610  1.00  0.00    -0.201 C  
BRANCH  15  20
HETATM   20  C   UNL     1      -8.770   8.500  70.258  1.00  0.00    -0.142 A  
HETATM   21  N   UNL     1      -8.240   9.187  71.261  1.00  0.00    -0.329 NA 
HETATM   22  S   UNL     1      -8.451   8.392  72.686  1.00  0.00    -0.110 SA 
HETATM   23  C   UNL     1      -9.308   7.066  72.020  1.00  0.00    -0.139 A  
HETATM   24  C   UNL     1      -9.876   5.977  72.697  1.00  0.00    -0.180 A  
HETATM   25  C   UNL     1     -10.523   4.999  71.938  1.00  0.00    -0.255 A  
HETATM   26  C   UNL     1     -10.583   5.116  70.556  1.00  0.00    -0.221 A  
HETATM   27  C   UNL     1     -10.035   6.215  69.893  1.00  0.00    -0.215 A  
HETATM   28  C   UNL     1      -9.351   7.227  70.636  1.00  0.00    -0.157 A  
ENDBRANCH  15  20
ENDBRANCH  13  14
ENDBRANCH  12  13
ENDBRANCH   3  12
TORSDOF 4
ENDMDL
MODEL       96
REMARK 921   NORMALIZED FREE ENERGY PREDICTED BY IDOCK:   -5.43 KCAL/MOL
REMARK 922        TOTAL FREE ENERGY PREDICTED BY IDOCK:   -7.23 KCAL/MOL
REMARK 923 INTER-LIGAND FREE ENERGY PREDICTED BY IDOCK:   -6.66 KCAL/MOL
REMARK 924 INTRA-LIGAND FREE ENERGY PREDICTED BY IDOCK:   -0.57 KCAL/MOL
REMARK 927      BINDING AFFINITY PREDICTED BY RF-SCORE:    0.00 PKD
ROOT
HETATM    1 CL   UNL     1     -11.688   9.919  69.929  1.00  0.00    -0.181 Cl 
HETATM    2  C   UNL     1     -12.094  11.590  70.092  1.00  0.00    -0.351 A  
HETATM    3  C   UNL     1     -11.683  12.551  69.127  1.00  0.00    -0.375 A  
HETATM    4  O   UNL     1     -12.228  16.236  73.267  1.00  0.00    -0.486 OA 
HETATM    5  C   UNL     1     -12.138  13.879  69.216  1.00  0.00    -0.383 A  
HETATM    6  C   UNL     1     -12.686  14.273  70.419  1.00  0.00    -0.355 A  
HETATM    7  N   UNL     1     -12.805  14.054  72.671  1.00  0.00    -0.345 NA 
HETATM    8  C   UNL     1     -12.861  15.661  70.958  1.00  0.00    -0.521 C  
HETATM    9  C   UNL     1     -12.659  12.004  71.297  1.00  0.00    -0.357 A  
HETATM   10  C   UNL     1     -12.818  13.361  71.463  1.00  0.00    -0.337 A  
HETATM   11  C   UNL     1     -12.592  15.415  72.442  1.00  0.00    -0.376 C  
ENDROOT
BRANCH   3  12
HETATM   12  C   UNL     1     -10.356  12.356  68.410  1.00  0.00    -0.236 C  
BRANCH  12  13
HETATM   13  C   UNL     1      -9.019  12.738  69.055  1.00  0.00     0.523 C  
BRANCH  13  14
HETATM   14  N   UNL     1      -8.353  13.733  68.184  1.00  0.00    -0.156 NA 
HETATM   15  N   UNL     1      -7.219  16.184  69.486  1.00  0.00    -0.195 NA 
HETATM   16  C   UNL     1      -8.985  15.065  68.219  1.00  0.00    -0.174 C  
HETATM   17  C   UNL     1      -6.897  13.886  68.395  1.00  0.00    -0.101 C  
HETATM   18  C   UNL     1      -6.357  14.990  69.373  1.00  0.00    -0.124 C  
HETATM   19  C   UNL     1      -8.648  15.845  69.497  1.00  0.00    -0.095 C  
BRANCH  15  20
HETATM   20  C   UNL     1      -6.899  17.360  68.832  1.00  0.00    -0.241 A  
HETATM   21  N   UNL     1      -7.278  17.600  67.584  1.00  0.00    -0.176 NA 
HETATM   22  S   UNL     1      -6.966  19.161  67.173  1.00  0.00    -0.198 SA 
HETATM   23  C   UNL     1      -6.315  19.615  68.692  1.00  0.00    -0.269 A  
HETATM   24  C   UNL     1      -5.872  20.882  69.098  1.00  0.00    -0.305 A  
HETATM   25  C   UNL     1      -5.363  21.014  70.392  1.00  0.00    -0.160 A  
HETATM   26  C   UNL     1      -5.298  19.910  71.232  1.00  0.00    -0.342 A  
HETATM   27  C   UNL     1      -5.763  18.658  70.826  1.00  0.00    -0.075 A  
HETATM   28  C   UNL     1      -6.275  18.482  69.503  1.00  0.00    -0.269 A  
ENDBRANCH  15  20
ENDBRANCH  13  14
ENDBRANCH  12  13
ENDBRANCH   3  12
TORSDOF 4
ENDMDL
MODEL       97
REMARK 921   NORMALIZED FREE ENERGY PREDICTED BY IDOCK:   -5.43 KCAL/MOL
REMARK 922        TOTAL FREE ENERGY PREDICTED BY IDOCK:   -7.22 KCAL/MOL
REMARK 923 INTER-LIGAND FREE ENERGY PREDICTED BY IDOCK:   -7.70 KCAL/MOL
REMARK 924 INTRA-LIGAND FREE ENERGY PREDICTED BY IDOCK:    0.49 KCAL/MOL
REMARK 927      BINDING AFFINITY PREDICTED BY RF-SCORE:    0.00 PKD
ROOT
HETATM    1 CL   UNL     1      -7.391  14.458  68.958  1.00  0.00    -0.128 Cl 
HETATM    2  C   UNL     1      -8.512  15.711  68.561  1.00  0.00    -0.175 A  
HETATM    3  C   UNL     1      -9.803  15.414  68.044  1.00  0.00    -0.216 A  
HETATM    4  O   UNL     1      -9.598  20.549  65.898  1.00  0.00    -0.170 OA 
HETATM    5  C   UNL     1     -10.741  16.446  67.855  1.00  0.00    -0.332 A  
HETATM    6  C   UNL     1     -10.259  17.738  67.856  1.00  0.00    -0.362 A  
HETATM    7  N   UNL     1      -8.555  19.182  67.475  1.00  0.00    -0.285 NA 
HETATM    8  C   UNL     1     -10.887  18.972  67.281  1.00  0.00    -0.494 C  
HETATM    9  C   UNL     1      -8.044  17.024  68.569  1.00  0.00    -0.251 A  
HETATM   10  C   UNL     1      -8.908  17.983  68.089  1.00  0.00    -0.273 A  
HETATM   11  C   UNL     1      -9.644  19.701  66.772  1.00  0.00    -0.371 C  
ENDROOT
BRANCH   3  12
HETATM   12  C   UNL     1      -9.981  14.192  67.157  1.00  0.00    -0.255 C  
BRANCH  12  13
HETATM   13  C   UNL     1     -11.243  13.975  66.314  1.00  0.00    -0.320 C  
BRANCH  13  14
HETATM   14  N   UNL     1     -11.851  12.686  66.715  1.00  0.00    -0.473 NA 
HETATM   15  N   UNL     1     -10.014  10.527  67.692  1.00  0.00    -0.169 NA 
HETATM   16  C   UNL     1     -11.371  11.536  65.926  1.00  0.00    -0.108 C  
HETATM   17  C   UNL     1     -11.748  12.359  68.154  1.00  0.00    -0.353 C  
HETATM   18  C   UNL     1     -10.551  11.488  68.677  1.00  0.00    -0.208 C  
HETATM   19  C   UNL     1      -9.962  11.087  66.335  1.00  0.00    -0.222 C  
BRANCH  15  20
HETATM   20  C   UNL     1     -10.329   9.183  67.762  1.00  0.00    -0.245 A  
HETATM   21  N   UNL     1     -10.205   8.373  66.718  1.00  0.00    -0.303 NA 
HETATM   22  S   UNL     1     -10.414   6.806  67.171  1.00  0.00    -0.331 SA 
HETATM   23  C   UNL     1     -10.661   7.136  68.834  1.00  0.00    -0.201 A  
HETATM   24  C   UNL     1     -10.853   6.220  69.878  1.00  0.00    -0.399 A  
HETATM   25  C   UNL     1     -11.049   6.725  71.166  1.00  0.00    -0.313 A  
HETATM   26  C   UNL     1     -11.059   8.096  71.383  1.00  0.00    -0.291 A  
HETATM   27  C   UNL     1     -10.844   9.000  70.341  1.00  0.00    -0.284 A  
HETATM   28  C   UNL     1     -10.656   8.519  69.008  1.00  0.00    -0.173 A  
ENDBRANCH  15  20
ENDBRANCH  13  14
ENDBRANCH  12  13
ENDBRANCH   3  12
TORSDOF 4
ENDMDL
MODEL       98
REMARK 921   NORMALIZED FREE ENERGY PREDICTED BY IDOCK:   -5.42 KCAL/MOL
REMARK 922        TOTAL FREE ENERGY PREDICTED BY IDOCK:   -7.21 KCAL/MOL
REMARK 923 INTER-LIGAND FREE ENERGY PREDICTED BY IDOCK:   -5.97 KCAL/MOL
REMARK 924 INTRA-LIGAND FREE ENERGY PREDICTED BY IDOCK:   -1.24 KCAL/MOL
REMARK 927      BINDING AFFINITY PREDICTED BY RF-SCORE:    0.00 PKD
ROOT
HETATM    1 CL   UNL     1      -5.588   3.270  68.271  1.00  0.00    -0.017 Cl 
HETATM    2  C   UNL     1      -6.992   3.518  69.248  1.00  0.00    -0.045 A  
HETATM    3  C   UNL     1      -8.300   3.439  68.698  1.00  0.00    -0.090 A  
HETATM    4  O   UNL     1      -9.777   6.678  72.981  1.00  0.00    -0.155 OA 
HETATM    5  C   UNL     1      -9.425   3.515  69.540  1.00  0.00    -0.236 A  
HETATM    6  C   UNL     1      -9.221   4.001  70.814  1.00  0.00    -0.197 A  
HETATM    7  N   UNL     1      -8.038   5.313  72.234  1.00  0.00    -0.109 NA 
HETATM    8  C   UNL     1     -10.222   4.584  71.766  1.00  0.00    -0.226 C  
HETATM    9  C   UNL     1      -6.803   3.997  70.543  1.00  0.00    -0.033 A  
HETATM   10  C   UNL     1      -7.940   4.343  71.238  1.00  0.00    -0.082 A  
HETATM   11  C   UNL     1      -9.374   5.671  72.424  1.00  0.00    -0.143 C  
ENDROOT
BRANCH   3  12
HETATM   12  C   UNL     1      -8.525   3.879  67.259  1.00  0.00    -0.102 C  
BRANCH  12  13
HETATM   13  C   UNL     1      -9.863   4.456  66.784  1.00  0.00    -0.218 C  
BRANCH  13  14
HETATM   14  N   UNL     1      -9.728   5.928  66.703  1.00  0.00    -0.152 NA 
HETATM   15  N   UNL     1      -9.932   7.486  69.257  1.00  0.00    -0.175 NA 
HETATM   16  C   UNL     1     -10.919   6.658  67.179  1.00  0.00    -0.408 C  
HETATM   17  C   UNL     1      -8.526   6.490  67.357  1.00  0.00    -0.119 C  
HETATM   18  C   UNL     1      -8.603   6.991  68.843  1.00  0.00    -0.128 C  
HETATM   19  C   UNL     1     -11.027   6.674  68.710  1.00  0.00    -0.260 C  
BRANCH  15  20
HETATM   20  C   UNL     1     -10.192   8.841  69.347  1.00  0.00    -0.210 A  
HETATM   21  N   UNL     1      -9.716   9.711  68.466  1.00  0.00    -0.148 NA 
HETATM   22  S   UNL     1     -10.393  11.194  68.692  1.00  0.00    -0.209 SA 
HETATM   23  C   UNL     1     -11.402  10.728  69.996  1.00  0.00    -0.319 A  
HETATM   24  C   UNL     1     -12.343  11.509  70.682  1.00  0.00    -0.457 A  
HETATM   25  C   UNL     1     -13.049  10.915  71.730  1.00  0.00    -0.564 A  
HETATM   26  C   UNL     1     -12.806   9.592  72.073  1.00  0.00    -0.499 A  
HETATM   27  C   UNL     1     -11.884   8.815  71.369  1.00  0.00    -0.369 A  
HETATM   28  C   UNL     1     -11.131   9.395  70.300  1.00  0.00    -0.299 A  
ENDBRANCH  15  20
ENDBRANCH  13  14
ENDBRANCH  12  13
ENDBRANCH   3  12
TORSDOF 4
ENDMDL
MODEL       99
REMARK 921   NORMALIZED FREE ENERGY PREDICTED BY IDOCK:   -5.42 KCAL/MOL
REMARK 922        TOTAL FREE ENERGY PREDICTED BY IDOCK:   -7.21 KCAL/MOL
REMARK 923 INTER-LIGAND FREE ENERGY PREDICTED BY IDOCK:   -6.79 KCAL/MOL
REMARK 924 INTRA-LIGAND FREE ENERGY PREDICTED BY IDOCK:   -0.41 KCAL/MOL
REMARK 927      BINDING AFFINITY PREDICTED BY RF-SCORE:    0.00 PKD
ROOT
HETATM    1 CL   UNL     1     -12.364   8.215  72.238  1.00  0.00    -0.376 Cl 
HETATM    2  C   UNL     1     -12.344   9.792  71.532  1.00  0.00    -0.405 A  
HETATM    3  C   UNL     1     -11.358  10.164  70.578  1.00  0.00    -0.416 A  
HETATM    4  O   UNL     1     -12.449  15.380  72.197  1.00  0.00    -0.320 OA 
HETATM    5  C   UNL     1     -11.443  11.406  69.923  1.00  0.00    -0.353 A  
HETATM    6  C   UNL     1     -12.284  12.349  70.477  1.00  0.00    -0.382 A  
HETATM    7  N   UNL     1     -13.308  13.213  72.304  1.00  0.00    -0.531 NA 
HETATM    8  C   UNL     1     -12.278  13.836  70.287  1.00  0.00    -0.429 C  
HETATM    9  C   UNL     1     -13.196  10.753  72.072  1.00  0.00    -0.466 A  
HETATM   10  C   UNL     1     -13.041  12.039  71.604  1.00  0.00    -0.318 A  
HETATM   11  C   UNL     1     -12.672  14.294  71.691  1.00  0.00    -0.352 C  
ENDROOT
BRANCH   3  12
HETATM   12  C   UNL     1      -9.960   9.576  70.692  1.00  0.00    -0.342 C  
BRANCH  12  13
HETATM   13  C   UNL     1      -9.655   8.122  70.310  1.00  0.00    -0.171 C  
BRANCH  13  14
HETATM   14  N   UNL     1      -8.750   8.132  69.139  1.00  0.00    -0.139 NA 
HETATM   15  N   UNL     1      -9.560   6.525  66.741  1.00  0.00    -0.156 NA 
HETATM   16  C   UNL     1      -8.236   6.798  68.777  1.00  0.00    -0.121 C  
HETATM   17  C   UNL     1      -9.293   8.783  67.926  1.00  0.00    -0.142 C  
HETATM   18  C   UNL     1     -10.025   7.924  66.835  1.00  0.00    -0.262 C  
HETATM   19  C   UNL     1      -9.283   5.937  68.058  1.00  0.00    -0.112 C  
BRANCH  15  20
HETATM   20  C   UNL     1      -8.711   6.122  65.726  1.00  0.00    -0.145 A  
HETATM   21  N   UNL     1      -7.557   6.731  65.487  1.00  0.00    -0.083 NA 
HETATM   22  S   UNL     1      -6.668   5.880  64.396  1.00  0.00    -0.047 SA 
HETATM   23  C   UNL     1      -7.798   4.607  64.203  1.00  0.00    -0.087 A  
HETATM   24  C   UNL     1      -7.669   3.447  63.427  1.00  0.00    -0.068 A  
HETATM   25  C   UNL     1      -8.737   2.546  63.412  1.00  0.00    -0.085 A  
HETATM   26  C   UNL     1      -9.885   2.814  64.143  1.00  0.00    -0.140 A  
HETATM   27  C   UNL     1      -9.996   3.961  64.932  1.00  0.00    -0.198 A  
HETATM   28  C   UNL     1      -8.929   4.913  64.958  1.00  0.00    -0.147 A  
ENDBRANCH  15  20
ENDBRANCH  13  14
ENDBRANCH  12  13
ENDBRANCH   3  12
TORSDOF 4
ENDMDL
MODEL      100
REMARK 921   NORMALIZED FREE ENERGY PREDICTED BY IDOCK:   -5.40 KCAL/MOL
REMARK 922        TOTAL FREE ENERGY PREDICTED BY IDOCK:   -7.18 KCAL/MOL
REMARK 923 INTER-LIGAND FREE ENERGY PREDICTED BY IDOCK:   -7.12 KCAL/MOL
REMARK 924 INTRA-LIGAND FREE ENERGY PREDICTED BY IDOCK:   -0.07 KCAL/MOL
REMARK 927      BINDING AFFINITY PREDICTED BY RF-SCORE:    0.00 PKD
ROOT
HETATM    1 CL   UNL     1     -12.252  14.233  68.438  1.00  0.00    -0.283 Cl 
HETATM    2  C   UNL     1     -11.102  15.323  67.750  1.00  0.00    -0.318 A  
HETATM    3  C   UNL     1     -10.596  15.135  66.435  1.00  0.00    -0.305 A  
HETATM    4  O   UNL     1      -6.240  18.124  68.198  1.00  0.00    -0.174 OA 
HETATM    5  C   UNL     1      -9.763  16.109  65.853  1.00  0.00    -0.374 A  
HETATM    6  C   UNL     1      -9.199  17.037  66.702  1.00  0.00    -0.277 A  
HETATM    7  N   UNL     1      -8.437  17.582  68.767  1.00  0.00    -0.252 NA 
HETATM    8  C   UNL     1      -7.989  17.895  66.482  1.00  0.00    -0.303 C  
HETATM    9  C   UNL     1     -10.530  16.276  68.592  1.00  0.00    -0.282 A  
HETATM   10  C   UNL     1      -9.500  17.019  68.062  1.00  0.00    -0.256 A  
HETATM   11  C   UNL     1      -7.399  17.907  67.891  1.00  0.00    -0.222 C  
ENDROOT
BRANCH   3  12
HETATM   12  C   UNL     1     -10.423  13.720  65.906  1.00  0.00    -0.300 C  
BRANCH  12  13
HETATM   13  C   UNL     1      -9.357  12.768  66.461  1.00  0.00    -0.221 C  
BRANCH  13  14
HETATM   14  N   UNL     1      -9.994  11.907  67.483  1.00  0.00    -0.186 NA 
HETATM   15  N   UNL     1      -9.120   9.043  67.629  1.00  0.00    -0.133 NA 
HETATM   16  C   UNL     1     -10.715  10.752  66.916  1.00  0.00    -0.252 C  
HETATM   17  C   UNL     1      -9.097  11.432  68.559  1.00  0.00    -0.169 C  
HETATM   18  C   UNL     1      -8.380  10.041  68.428  1.00  0.00    -0.111 C  
HETATM   19  C   UNL     1      -9.770   9.635  66.453  1.00  0.00    -0.224 C  
BRANCH  15  20
HETATM   20  C   UNL     1      -9.826   8.023  68.240  1.00  0.00    -0.170 A  
HETATM   21  N   UNL     1      -9.896   6.803  67.723  1.00  0.00    -0.123 NA 
HETATM   22  S   UNL     1     -10.589   5.759  68.788  1.00  0.00    -0.236 SA 
HETATM   23  C   UNL     1     -10.813   6.909  70.039  1.00  0.00    -0.262 A  
HETATM   24  C   UNL     1     -11.326   6.696  71.326  1.00  0.00    -0.346 A  
HETATM   25  C   UNL     1     -11.429   7.797  72.181  1.00  0.00    -0.361 A  
HETATM   26  C   UNL     1     -11.039   9.056  71.745  1.00  0.00    -0.444 A  
HETATM   27  C   UNL     1     -10.508   9.254  70.470  1.00  0.00    -0.312 A  
HETATM   28  C   UNL     1     -10.403   8.153  69.563  1.00  0.00    -0.222 A  
ENDBRANCH  15  20
ENDBRANCH  13  14
ENDBRANCH  12  13
ENDBRANCH   3  12
TORSDOF 4
ENDMDL
MODEL      101
REMARK 921   NORMALIZED FREE ENERGY PREDICTED BY IDOCK:   -5.39 KCAL/MOL
REMARK 922        TOTAL FREE ENERGY PREDICTED BY IDOCK:   -7.17 KCAL/MOL
REMARK 923 INTER-LIGAND FREE ENERGY PREDICTED BY IDOCK:   -7.24 KCAL/MOL
REMARK 924 INTRA-LIGAND FREE ENERGY PREDICTED BY IDOCK:    0.07 KCAL/MOL
REMARK 927      BINDING AFFINITY PREDICTED BY RF-SCORE:    0.00 PKD
ROOT
HETATM    1 CL   UNL     1     -13.698  13.100  72.348  1.00  0.00    -0.683 Cl 
HETATM    2  C   UNL     1     -12.868  13.649  70.936  1.00  0.00    -0.251 A  
HETATM    3  C   UNL     1     -12.283  12.736  70.017  1.00  0.00    -0.279 A  
HETATM    4  O   UNL     1      -8.981  16.996  68.618  1.00  0.00    -0.257 OA 
HETATM    5  C   UNL     1     -11.730  13.204  68.811  1.00  0.00    -0.363 A  
HETATM    6  C   UNL     1     -11.473  14.556  68.725  1.00  0.00    -0.322 A  
HETATM    7  N   UNL     1     -10.964  16.513  69.749  1.00  0.00    -0.338 NA 
HETATM    8  C   UNL     1     -10.538  15.275  67.799  1.00  0.00    -0.266 C  
HETATM    9  C   UNL     1     -12.610  15.015  70.827  1.00  0.00    -0.429 A  
HETATM   10  C   UNL     1     -11.805  15.403  69.779  1.00  0.00    -0.347 A  
HETATM   11  C   UNL     1     -10.024  16.376  68.725  1.00  0.00    -0.246 C  
ENDROOT
BRANCH   3  12
HETATM   12  C   UNL     1     -11.710  11.428  70.540  1.00  0.00    -0.296 C  
BRANCH  12  13
HETATM   13  C   UNL     1     -11.242  10.310  69.599  1.00  0.00    -0.269 C  
BRANCH  13  14
HETATM   14  N   UNL     1     -11.255   9.037  70.353  1.00  0.00    -0.255 NA 
HETATM   15  N   UNL     1      -8.613   7.885  71.181  1.00  0.00    -0.125 NA 
HETATM   16  C   UNL     1     -10.537   7.941  69.674  1.00  0.00    -0.234 C  
HETATM   17  C   UNL     1     -10.784   9.125  71.752  1.00  0.00    -0.335 C  
HETATM   18  C   UNL     1      -9.279   8.837  72.094  1.00  0.00    -0.178 C  
HETATM   19  C   UNL     1      -9.013   8.079  69.781  1.00  0.00    -0.145 C  
BRANCH  15  20
HETATM   20  C   UNL     1      -8.397   6.571  71.554  1.00  0.00    -0.121 A  
HETATM   21  N   UNL     1      -7.188   6.026  71.552  1.00  0.00    -0.081 NA 
HETATM   22  S   UNL     1      -7.216   4.548  72.273  1.00  0.00    -0.073 SA 
HETATM   23  C   UNL     1      -8.885   4.574  72.660  1.00  0.00    -0.113 A  
HETATM   24  C   UNL     1      -9.624   3.614  73.366  1.00  0.00    -0.138 A  
HETATM   25  C   UNL     1     -10.989   3.844  73.553  1.00  0.00    -0.343 A  
HETATM   26  C   UNL     1     -11.579   4.990  73.038  1.00  0.00    -0.299 A  
HETATM   27  C   UNL     1     -10.832   5.951  72.356  1.00  0.00    -0.288 A  
HETATM   28  C   UNL     1      -9.435   5.741  72.132  1.00  0.00    -0.164 A  
ENDBRANCH  15  20
ENDBRANCH  13  14
ENDBRANCH  12  13
ENDBRANCH   3  12
TORSDOF 4
ENDMDL
MODEL      102
REMARK 921   NORMALIZED FREE ENERGY PREDICTED BY IDOCK:   -5.37 KCAL/MOL
REMARK 922        TOTAL FREE ENERGY PREDICTED BY IDOCK:   -7.15 KCAL/MOL
REMARK 923 INTER-LIGAND FREE ENERGY PREDICTED BY IDOCK:   -7.14 KCAL/MOL
REMARK 924 INTRA-LIGAND FREE ENERGY PREDICTED BY IDOCK:   -0.01 KCAL/MOL
REMARK 927      BINDING AFFINITY PREDICTED BY RF-SCORE:    0.00 PKD
ROOT
HETATM    1 CL   UNL     1      -7.405   6.133  67.252  1.00  0.00    -0.076 Cl 
HETATM    2  C   UNL     1      -8.137   5.108  68.435  1.00  0.00    -0.086 A  
HETATM    3  C   UNL     1      -9.348   5.473  69.085  1.00  0.00    -0.158 A  
HETATM    4  O   UNL     1      -7.652   2.041  73.130  1.00  0.00    -0.039 OA 
HETATM    5  C   UNL     1      -9.990   4.562  69.944  1.00  0.00    -0.273 A  
HETATM    6  C   UNL     1      -9.247   3.488  70.384  1.00  0.00    -0.219 A  
HETATM    7  N   UNL     1      -7.230   2.594  70.902  1.00  0.00    -0.033 NA 
HETATM    8  C   UNL     1      -9.478   2.617  71.583  1.00  0.00    -0.207 C  
HETATM    9  C   UNL     1      -7.405   4.010  68.882  1.00  0.00    -0.055 A  
HETATM   10  C   UNL     1      -7.939   3.309  69.940  1.00  0.00    -0.045 A  
HETATM   11  C   UNL     1      -8.036   2.359  72.017  1.00  0.00    -0.053 C  
ENDROOT
BRANCH   3  12
HETATM   12  C   UNL     1      -9.625   6.943  69.358  1.00  0.00    -0.147 C  
BRANCH  12  13
HETATM   13  C   UNL     1     -10.822   7.403  70.199  1.00  0.00    -0.256 C  
BRANCH  13  14
HETATM   14  N   UNL     1     -10.515   8.744  70.745  1.00  0.00    -0.208 NA 
HETATM   15  N   UNL     1     -12.142  11.057  69.752  1.00  0.00    -0.341 NA 
HETATM   16  C   UNL     1     -10.097   9.718  69.720  1.00  0.00    -0.239 C  
HETATM   17  C   UNL     1     -11.579   9.347  71.577  1.00  0.00    -0.397 C  
HETATM   18  C   UNL     1     -12.636  10.308  70.925  1.00  0.00    -0.371 C  
HETATM   19  C   UNL     1     -11.277  10.243  68.890  1.00  0.00    -0.207 C  
BRANCH  15  20
HETATM   20  C   UNL     1     -11.783  12.389  69.856  1.00  0.00    -0.266 A  
HETATM   21  N   UNL     1     -10.982  12.975  68.976  1.00  0.00    -0.228 NA 
HETATM   22  S   UNL     1     -10.940  14.601  69.222  1.00  0.00    -0.261 SA 
HETATM   23  C   UNL     1     -12.042  14.607  70.534  1.00  0.00    -0.321 A  
HETATM   24  C   UNL     1     -12.542  15.712  71.238  1.00  0.00    -0.523 A  
HETATM   25  C   UNL     1     -13.429  15.473  72.290  1.00  0.00    -0.596 A  
HETATM   26  C   UNL     1     -13.786  14.173  72.619  1.00  0.00    -0.568 A  
HETATM   27  C   UNL     1     -13.301  13.080  71.898  1.00  0.00    -0.539 A  
HETATM   28  C   UNL     1     -12.379  13.286  70.825  1.00  0.00    -0.425 A  
ENDBRANCH  15  20
ENDBRANCH  13  14
ENDBRANCH  12  13
ENDBRANCH   3  12
TORSDOF 4
ENDMDL
MODEL      103
REMARK 921   NORMALIZED FREE ENERGY PREDICTED BY IDOCK:   -5.36 KCAL/MOL
REMARK 922        TOTAL FREE ENERGY PREDICTED BY IDOCK:   -7.13 KCAL/MOL
REMARK 923 INTER-LIGAND FREE ENERGY PREDICTED BY IDOCK:   -7.02 KCAL/MOL
REMARK 924 INTRA-LIGAND FREE ENERGY PREDICTED BY IDOCK:   -0.11 KCAL/MOL
REMARK 927      BINDING AFFINITY PREDICTED BY RF-SCORE:    0.00 PKD
ROOT
HETATM    1 CL   UNL     1     -12.139  13.599  68.335  1.00  0.00    -0.379 Cl 
HETATM    2  C   UNL     1     -11.258  14.963  67.745  1.00  0.00    -0.321 A  
HETATM    3  C   UNL     1     -10.311  14.836  66.692  1.00  0.00    -0.273 A  
HETATM    4  O   UNL     1      -8.047  19.462  68.811  1.00  0.00    -0.359 OA 
HETATM    5  C   UNL     1      -9.706  15.982  66.144  1.00  0.00    -0.353 A  
HETATM    6  C   UNL     1      -9.800  17.148  66.875  1.00  0.00    -0.285 A  
HETATM    7  N   UNL     1      -9.995  18.179  68.883  1.00  0.00    -0.366 NA 
HETATM    8  C   UNL     1      -8.944  18.376  66.791  1.00  0.00    -0.291 C  
HETATM    9  C   UNL     1     -11.350  16.153  68.465  1.00  0.00    -0.359 A  
HETATM   10  C   UNL     1     -10.512  17.172  68.071  1.00  0.00    -0.369 A  
HETATM   11  C   UNL     1      -8.896  18.778  68.265  1.00  0.00    -0.333 C  
ENDROOT
BRANCH   3  12
HETATM   12  C   UNL     1      -9.512  13.547  66.570  1.00  0.00    -0.265 C  
BRANCH  12  13
HETATM   13  C   UNL     1      -8.833  12.893  67.779  1.00  0.00    -0.188 C  
BRANCH  13  14
HETATM   14  N   UNL     1      -8.733  11.439  67.521  1.00  0.00    -0.137 NA 
HETATM   15  N   UNL     1     -10.748   9.651  68.835  1.00  0.00    -0.219 NA 
HETATM   16  C   UNL     1      -8.513  10.636  68.739  1.00  0.00    -0.149 C  
HETATM   17  C   UNL     1      -9.854  10.853  66.754  1.00  0.00    -0.195 C  
HETATM   18  C   UNL     1     -11.075  10.218  67.511  1.00  0.00    -0.232 C  
HETATM   19  C   UNL     1      -9.788  10.477  69.578  1.00  0.00    -0.142 C  
BRANCH  15  20
HETATM   20  C   UNL     1     -10.610   8.286  69.012  1.00  0.00    -0.150 A  
HETATM   21  N   UNL     1     -11.162   7.647  70.035  1.00  0.00    -0.191 NA 
HETATM   22  S   UNL     1     -11.032   6.019  69.840  1.00  0.00    -0.389 SA 
HETATM   23  C   UNL     1     -10.233   6.087  68.326  1.00  0.00    -0.181 A  
HETATM   24  C   UNL     1      -9.847   5.019  67.504  1.00  0.00    -0.201 A  
HETATM   25  C   UNL     1      -9.191   5.317  66.307  1.00  0.00    -0.152 A  
HETATM   26  C   UNL     1      -8.931   6.637  65.965  1.00  0.00    -0.131 A  
HETATM   27  C   UNL     1      -9.340   7.695  66.778  1.00  0.00    -0.218 A  
HETATM   28  C   UNL     1      -9.999   7.426  68.018  1.00  0.00    -0.195 A  
ENDBRANCH  15  20
ENDBRANCH  13  14
ENDBRANCH  12  13
ENDBRANCH   3  12
TORSDOF 4
ENDMDL
MODEL      104
REMARK 921   NORMALIZED FREE ENERGY PREDICTED BY IDOCK:   -5.34 KCAL/MOL
REMARK 922        TOTAL FREE ENERGY PREDICTED BY IDOCK:   -7.11 KCAL/MOL
REMARK 923 INTER-LIGAND FREE ENERGY PREDICTED BY IDOCK:   -6.49 KCAL/MOL
REMARK 924 INTRA-LIGAND FREE ENERGY PREDICTED BY IDOCK:   -0.62 KCAL/MOL
REMARK 927      BINDING AFFINITY PREDICTED BY RF-SCORE:    0.00 PKD
ROOT
HETATM    1 CL   UNL     1      -7.118   3.116  69.116  1.00  0.00    -0.045 Cl 
HETATM    2  C   UNL     1      -8.460   3.960  69.805  1.00  0.00    -0.060 A  
HETATM    3  C   UNL     1      -9.169   4.949  69.071  1.00  0.00    -0.165 A  
HETATM    4  O   UNL     1     -10.616   6.934  74.069  1.00  0.00    -0.349 OA 
HETATM    5  C   UNL     1     -10.335   5.525  69.607  1.00  0.00    -0.359 A  
HETATM    6  C   UNL     1     -10.552   5.355  70.959  1.00  0.00    -0.275 A  
HETATM    7  N   UNL     1      -9.718   5.040  73.042  1.00  0.00    -0.145 NA 
HETATM    8  C   UNL     1     -11.423   6.160  71.876  1.00  0.00    -0.355 C  
HETATM    9  C   UNL     1      -8.701   3.790  71.167  1.00  0.00    -0.123 A  
HETATM   10  C   UNL     1      -9.667   4.598  71.722  1.00  0.00    -0.169 A  
HETATM   11  C   UNL     1     -10.578   6.136  73.149  1.00  0.00    -0.248 C  
ENDROOT
BRANCH   3  12
HETATM   12  C   UNL     1      -8.413   5.807  68.067  1.00  0.00    -0.106 C  
BRANCH  12  13
HETATM   13  C   UNL     1      -9.130   6.796  67.140  1.00  0.00    -0.126 C  
BRANCH  13  14
HETATM   14  N   UNL     1      -8.605   8.152  67.416  1.00  0.00    -0.125 NA 
HETATM   15  N   UNL     1     -10.547  10.435  67.357  1.00  0.00    -0.250 NA 
HETATM   16  C   UNL     1      -8.795   9.098  66.300  1.00  0.00    -0.148 C  
HETATM   17  C   UNL     1      -9.092   8.777  68.665  1.00  0.00    -0.141 C  
HETATM   18  C   UNL     1     -10.349   9.718  68.633  1.00  0.00    -0.201 C  
HETATM   19  C   UNL     1     -10.241   9.597  66.190  1.00  0.00    -0.205 C  
BRANCH  15  20
HETATM   20  C   UNL     1     -10.207  11.769  67.229  1.00  0.00    -0.203 A  
HETATM   21  N   UNL     1      -9.131  12.283  67.809  1.00  0.00    -0.183 NA 
HETATM   22  S   UNL     1      -8.859  13.815  67.275  1.00  0.00    -0.227 SA 
HETATM   23  C   UNL     1     -10.186  13.861  66.193  1.00  0.00    -0.301 A  
HETATM   24  C   UNL     1     -10.552  14.892  65.316  1.00  0.00    -0.421 A  
HETATM   25  C   UNL     1     -11.692  14.711  64.530  1.00  0.00    -0.410 A  
HETATM   26  C   UNL     1     -12.432  13.542  64.634  1.00  0.00    -0.372 A  
HETATM   27  C   UNL     1     -12.048  12.511  65.493  1.00  0.00    -0.481 A  
HETATM   28  C   UNL     1     -10.896  12.668  66.325  1.00  0.00    -0.300 A  
ENDBRANCH  15  20
ENDBRANCH  13  14
ENDBRANCH  12  13
ENDBRANCH   3  12
TORSDOF 4
ENDMDL
MODEL      105
REMARK 921   NORMALIZED FREE ENERGY PREDICTED BY IDOCK:   -5.33 KCAL/MOL
REMARK 922        TOTAL FREE ENERGY PREDICTED BY IDOCK:   -7.09 KCAL/MOL
REMARK 923 INTER-LIGAND FREE ENERGY PREDICTED BY IDOCK:   -6.50 KCAL/MOL
REMARK 924 INTRA-LIGAND FREE ENERGY PREDICTED BY IDOCK:   -0.59 KCAL/MOL
REMARK 927      BINDING AFFINITY PREDICTED BY RF-SCORE:    0.00 PKD
ROOT
HETATM    1 CL   UNL     1      -8.095   7.318  68.299  1.00  0.00    -0.123 Cl 
HETATM    2  C   UNL     1      -8.591   5.913  69.174  1.00  0.00    -0.115 A  
HETATM    3  C   UNL     1      -9.670   5.958  70.099  1.00  0.00    -0.211 A  
HETATM    4  O   UNL     1      -7.234   1.522  72.424  1.00  0.00    -0.028 OA 
HETATM    5  C   UNL     1     -10.136   4.773  70.697  1.00  0.00    -0.288 A  
HETATM    6  C   UNL     1      -9.313   3.669  70.623  1.00  0.00    -0.228 A  
HETATM    7  N   UNL     1      -7.225   2.801  70.472  1.00  0.00    -0.033 NA 
HETATM    8  C   UNL     1      -9.315   2.440  71.482  1.00  0.00    -0.193 C  
HETATM    9  C   UNL     1      -7.777   4.784  69.101  1.00  0.00    -0.071 A  
HETATM   10  C   UNL     1      -8.104   3.740  69.936  1.00  0.00    -0.053 A  
HETATM   11  C   UNL     1      -7.816   2.158  71.561  1.00  0.00    -0.040 C  
ENDROOT
BRANCH   3  12
HETATM   12  C   UNL     1      -9.911   7.234  70.890  1.00  0.00    -0.186 C  
BRANCH  12  13
HETATM   13  C   UNL     1     -11.222   8.023  70.782  1.00  0.00    -0.265 C  
BRANCH  13  14
HETATM   14  N   UNL     1     -10.897   9.466  70.825  1.00  0.00    -0.277 NA 
HETATM   15  N   UNL     1     -12.145  11.236  68.752  1.00  0.00    -0.545 NA 
HETATM   16  C   UNL     1     -10.240   9.962  69.601  1.00  0.00    -0.237 C  
HETATM   17  C   UNL     1     -12.028  10.360  71.159  1.00  0.00    -0.362 C  
HETATM   18  C   UNL     1     -12.882  11.007  70.011  1.00  0.00     0.013 C  
HETATM   19  C   UNL     1     -11.221  10.139  68.435  1.00  0.00    -0.177 C  
BRANCH  15  20
HETATM   20  C   UNL     1     -11.698  12.499  68.407  1.00  0.00    -0.328 A  
HETATM   21  N   UNL     1     -11.264  13.366  69.311  1.00  0.00    -0.246 NA 
HETATM   22  S   UNL     1     -10.576  14.670  68.581  1.00  0.00    -0.259 SA 
HETATM   23  C   UNL     1     -10.806  14.114  66.977  1.00  0.00    -0.295 A  
HETATM   24  C   UNL     1     -10.392  14.723  65.784  1.00  0.00    -0.358 A  
HETATM   25  C   UNL     1     -10.705  14.086  64.580  1.00  0.00    -0.416 A  
HETATM   26  C   UNL     1     -11.414  12.893  64.587  1.00  0.00    -0.369 A  
HETATM   27  C   UNL     1     -11.802  12.282  65.781  1.00  0.00    -0.417 A  
HETATM   28  C   UNL     1     -11.513  12.914  67.031  1.00  0.00    -0.390 A  
ENDBRANCH  15  20
ENDBRANCH  13  14
ENDBRANCH  12  13
ENDBRANCH   3  12
TORSDOF 4
ENDMDL
MODEL      106
REMARK 921   NORMALIZED FREE ENERGY PREDICTED BY IDOCK:   -5.33 KCAL/MOL
REMARK 922        TOTAL FREE ENERGY PREDICTED BY IDOCK:   -7.09 KCAL/MOL
REMARK 923 INTER-LIGAND FREE ENERGY PREDICTED BY IDOCK:   -6.61 KCAL/MOL
REMARK 924 INTRA-LIGAND FREE ENERGY PREDICTED BY IDOCK:   -0.49 KCAL/MOL
REMARK 927      BINDING AFFINITY PREDICTED BY RF-SCORE:    0.00 PKD
ROOT
HETATM    1 CL   UNL     1      -8.575   8.239  69.266  1.00  0.00    -0.136 Cl 
HETATM    2  C   UNL     1      -8.440   7.382  67.772  1.00  0.00    -0.118 A  
HETATM    3  C   UNL     1      -8.757   8.000  66.532  1.00  0.00    -0.161 A  
HETATM    4  O   UNL     1      -9.614   2.808  64.709  1.00  0.00    -0.148 OA 
HETATM    5  C   UNL     1      -8.513   7.323  65.323  1.00  0.00    -0.067 A  
HETATM    6  C   UNL     1      -8.295   5.963  65.401  1.00  0.00    -0.149 A  
HETATM    7  N   UNL     1      -8.637   3.992  66.466  1.00  0.00    -0.108 NA 
HETATM    8  C   UNL     1      -8.428   4.930  64.322  1.00  0.00    -0.137 C  
HETATM    9  C   UNL     1      -8.208   6.009  67.832  1.00  0.00    -0.112 A  
HETATM   10  C   UNL     1      -8.272   5.326  66.639  1.00  0.00    -0.108 A  
HETATM   11  C   UNL     1      -8.975   3.756  65.132  1.00  0.00    -0.132 C  
ENDROOT
BRANCH   3  12
HETATM   12  C   UNL     1      -9.860   9.047  66.489  1.00  0.00    -0.338 C  
BRANCH  12  13
HETATM   13  C   UNL     1      -9.575  10.515  66.149  1.00  0.00    -0.190 C  
BRANCH  13  14
HETATM   14  N   UNL     1      -9.951  11.340  67.319  1.00  0.00    -0.182 NA 
HETATM   15  N   UNL     1     -10.891  14.140  66.802  1.00  0.00    -0.293 NA 
HETATM   16  C   UNL     1      -9.142  12.565  67.463  1.00  0.00    -0.187 C  
HETATM   17  C   UNL     1     -11.384  11.697  67.408  1.00  0.00    -0.300 C  
HETATM   18  C   UNL     1     -11.893  13.055  66.805  1.00  0.00    -0.388 C  
HETATM   19  C   UNL     1      -9.545  13.659  66.465  1.00  0.00    -0.286 C  
BRANCH  15  20
HETATM   20  C   UNL     1     -10.935  15.153  67.742  1.00  0.00    -0.306 A  
HETATM   21  N   UNL     1     -11.050  14.909  69.040  1.00  0.00    -0.238 NA 
HETATM   22  S   UNL     1     -10.826  16.285  69.912  1.00  0.00    -0.324 SA 
HETATM   23  C   UNL     1     -10.530  17.300  68.564  1.00  0.00    -0.375 A  
HETATM   24  C   UNL     1     -10.192  18.661  68.565  1.00  0.00    -0.398 A  
HETATM   25  C   UNL     1     -10.008  19.291  67.331  1.00  0.00    -0.462 A  
HETATM   26  C   UNL     1     -10.169  18.576  66.152  1.00  0.00    -0.424 A  
HETATM   27  C   UNL     1     -10.482  17.216  66.162  1.00  0.00    -0.277 A  
HETATM   28  C   UNL     1     -10.694  16.542  67.406  1.00  0.00    -0.260 A  
ENDBRANCH  15  20
ENDBRANCH  13  14
ENDBRANCH  12  13
ENDBRANCH   3  12
TORSDOF 4
ENDMDL
MODEL      107
REMARK 921   NORMALIZED FREE ENERGY PREDICTED BY IDOCK:   -5.32 KCAL/MOL
REMARK 922        TOTAL FREE ENERGY PREDICTED BY IDOCK:   -7.08 KCAL/MOL
REMARK 923 INTER-LIGAND FREE ENERGY PREDICTED BY IDOCK:   -6.75 KCAL/MOL
REMARK 924 INTRA-LIGAND FREE ENERGY PREDICTED BY IDOCK:   -0.34 KCAL/MOL
REMARK 927      BINDING AFFINITY PREDICTED BY RF-SCORE:    0.00 PKD
ROOT
HETATM    1 CL   UNL     1     -10.735  15.418  66.217  1.00  0.00    -0.309 Cl 
HETATM    2  C   UNL     1      -9.374  14.639  66.941  1.00  0.00    -0.243 A  
HETATM    3  C   UNL     1      -9.252  13.223  66.959  1.00  0.00    -0.237 A  
HETATM    4  O   UNL     1      -5.948  14.040  71.367  1.00  0.00    -0.227 OA 
HETATM    5  C   UNL     1      -8.073  12.622  67.437  1.00  0.00    -0.182 A  
HETATM    6  C   UNL     1      -7.224  13.414  68.180  1.00  0.00    -0.113 A  
HETATM    7  N   UNL     1      -6.923  15.174  69.576  1.00  0.00    -0.176 NA 
HETATM    8  C   UNL     1      -6.159  12.994  69.147  1.00  0.00    -0.095 C  
HETATM    9  C   UNL     1      -8.499  15.427  67.686  1.00  0.00    -0.173 A  
HETATM   10  C   UNL     1      -7.521  14.759  68.388  1.00  0.00    -0.114 A  
HETATM   11  C   UNL     1      -6.292  14.096  70.199  1.00  0.00    -0.125 C  
ENDROOT
BRANCH   3  12
HETATM   12  C   UNL     1     -10.511  12.375  67.059  1.00  0.00    -0.238 C  
BRANCH  12  13
HETATM   13  C   UNL     1     -11.430  12.425  68.285  1.00  0.00    -0.310 C  
BRANCH  13  14
HETATM   14  N   UNL     1     -11.935  11.057  68.539  1.00  0.00    -0.563 NA 
HETATM   15  N   UNL     1     -10.393   9.338  70.451  1.00  0.00    -0.221 NA 
HETATM   16  C   UNL     1     -10.979   9.996  68.171  1.00  0.00    -0.235 C  
HETATM   17  C   UNL     1     -12.424  10.808  69.913  1.00  0.00    -0.209 C  
HETATM   18  C   UNL     1     -11.456  10.208  70.994  1.00  0.00    -0.354 C  
HETATM   19  C   UNL     1      -9.841   9.848  69.190  1.00  0.00    -0.198 C  
BRANCH  15  20
HETATM   20  C   UNL     1     -10.484   7.961  70.539  1.00  0.00    -0.214 A  
HETATM   21  N   UNL     1     -10.426   7.180  69.468  1.00  0.00    -0.219 NA 
HETATM   22  S   UNL     1     -10.313   5.599  69.909  1.00  0.00    -0.302 SA 
HETATM   23  C   UNL     1     -10.309   5.888  71.598  1.00  0.00    -0.219 A  
HETATM   24  C   UNL     1     -10.174   4.953  72.634  1.00  0.00    -0.238 A  
HETATM   25  C   UNL     1     -10.213   5.423  73.949  1.00  0.00    -0.260 A  
HETATM   26  C   UNL     1     -10.391   6.776  74.201  1.00  0.00    -0.322 A  
HETATM   27  C   UNL     1     -10.502   7.702  73.163  1.00  0.00    -0.433 A  
HETATM   28  C   UNL     1     -10.482   7.255  71.804  1.00  0.00    -0.218 A  
ENDBRANCH  15  20
ENDBRANCH  13  14
ENDBRANCH  12  13
ENDBRANCH   3  12
TORSDOF 4
ENDMDL
MODEL      108
REMARK 921   NORMALIZED FREE ENERGY PREDICTED BY IDOCK:   -5.32 KCAL/MOL
REMARK 922        TOTAL FREE ENERGY PREDICTED BY IDOCK:   -7.08 KCAL/MOL
REMARK 923 INTER-LIGAND FREE ENERGY PREDICTED BY IDOCK:   -6.00 KCAL/MOL
REMARK 924 INTRA-LIGAND FREE ENERGY PREDICTED BY IDOCK:   -1.08 KCAL/MOL
REMARK 927      BINDING AFFINITY PREDICTED BY RF-SCORE:    0.00 PKD
ROOT
HETATM    1 CL   UNL     1      -9.518   3.069  68.299  1.00  0.00    -0.246 Cl 
HETATM    2  C   UNL     1      -8.930   4.689  68.177  1.00  0.00    -0.114 A  
HETATM    3  C   UNL     1      -8.480   5.403  69.321  1.00  0.00    -0.099 A  
HETATM    4  O   UNL     1      -9.659   9.962  66.348  1.00  0.00    -0.177 OA 
HETATM    5  C   UNL     1      -7.885   6.669  69.173  1.00  0.00    -0.111 A  
HETATM    6  C   UNL     1      -8.070   7.311  67.967  1.00  0.00    -0.120 A  
HETATM    7  N   UNL     1      -9.337   7.662  66.120  1.00  0.00    -0.127 NA 
HETATM    8  C   UNL     1      -7.944   8.771  67.653  1.00  0.00    -0.106 C  
HETATM    9  C   UNL     1      -9.099   5.348  66.960  1.00  0.00    -0.112 A  
HETATM   10  C   UNL     1      -8.775   6.686  66.940  1.00  0.00    -0.116 A  
HETATM   11  C   UNL     1      -9.073   8.932  66.636  1.00  0.00    -0.156 C  
ENDROOT
BRANCH   3  12
HETATM   12  C   UNL     1      -9.143   5.140  70.664  1.00  0.00    -0.178 C  
BRANCH  12  13
HETATM   13  C   UNL     1      -8.887   6.030  71.886  1.00  0.00    -0.138 C  
BRANCH  13  14
HETATM   14  N   UNL     1     -10.115   6.812  72.152  1.00  0.00    -0.181 NA 
HETATM   15  N   UNL     1     -10.758   9.069  70.287  1.00  0.00    -0.221 NA 
HETATM   16  C   UNL     1      -9.861   8.243  72.405  1.00  0.00    -0.304 C  
HETATM   17  C   UNL     1     -11.180   6.685  71.133  1.00  0.00    -0.292 C  
HETATM   18  C   UNL     1     -11.268   7.722  69.957  1.00  0.00    -0.117 C  
HETATM   19  C   UNL     1      -9.550   9.023  71.120  1.00  0.00    -0.286 C  
BRANCH  15  20
HETATM   20  C   UNL     1     -11.624  10.111  70.563  1.00  0.00    -0.329 A  
HETATM   21  N   UNL     1     -12.507  10.053  71.551  1.00  0.00    -0.389 NA 
HETATM   22  S   UNL     1     -13.213  11.520  71.786  1.00  0.00    -0.212 SA 
HETATM   23  C   UNL     1     -12.330  12.336  70.565  1.00  0.00    -0.264 A  
HETATM   24  C   UNL     1     -12.378  13.696  70.227  1.00  0.00    -0.392 A  
HETATM   25  C   UNL     1     -11.570  14.139  69.177  1.00  0.00    -0.349 A  
HETATM   26  C   UNL     1     -10.759  13.242  68.495  1.00  0.00    -0.280 A  
HETATM   27  C   UNL     1     -10.701  11.894  68.854  1.00  0.00    -0.236 A  
HETATM   28  C   UNL     1     -11.526  11.403  69.913  1.00  0.00    -0.353 A  
ENDBRANCH  15  20
ENDBRANCH  13  14
ENDBRANCH  12  13
ENDBRANCH   3  12
TORSDOF 4
ENDMDL
MODEL      109
REMARK 921   NORMALIZED FREE ENERGY PREDICTED BY IDOCK:   -5.31 KCAL/MOL
REMARK 922        TOTAL FREE ENERGY PREDICTED BY IDOCK:   -7.08 KCAL/MOL
REMARK 923 INTER-LIGAND FREE ENERGY PREDICTED BY IDOCK:   -6.48 KCAL/MOL
REMARK 924 INTRA-LIGAND FREE ENERGY PREDICTED BY IDOCK:   -0.60 KCAL/MOL
REMARK 927      BINDING AFFINITY PREDICTED BY RF-SCORE:    0.00 PKD
ROOT
HETATM    1 CL   UNL     1     -11.834  15.834  70.538  1.00  0.00    -0.373 Cl 
HETATM    2  C   UNL     1     -10.838  16.230  69.183  1.00  0.00    -0.314 A  
HETATM    3  C   UNL     1     -11.174  15.810  67.867  1.00  0.00    -0.313 A  
HETATM    4  O   UNL     1      -5.731  16.346  66.819  1.00  0.00    -0.340 OA 
HETATM    5  C   UNL     1     -10.417  16.257  66.768  1.00  0.00    -0.287 A  
HETATM    6  C   UNL     1      -9.182  16.806  67.042  1.00  0.00    -0.238 A  
HETATM    7  N   UNL     1      -7.360  16.935  68.383  1.00  0.00    -0.192 NA 
HETATM    8  C   UNL     1      -8.008  16.974  66.125  1.00  0.00    -0.299 C  
HETATM    9  C   UNL     1      -9.591  16.797  69.441  1.00  0.00    -0.010 A  
HETATM   10  C   UNL     1      -8.753  16.947  68.359  1.00  0.00    -0.244 A  
HETATM   11  C   UNL     1      -6.859  16.712  67.098  1.00  0.00    -0.188 C  
ENDROOT
BRANCH   3  12
HETATM   12  C   UNL     1     -11.890  14.482  67.676  1.00  0.00    -0.395 C  
BRANCH  12  13
HETATM   13  C   UNL     1     -12.119  13.873  66.287  1.00  0.00    -0.451 C  
BRANCH  13  14
HETATM   14  N   UNL     1     -12.091  12.399  66.418  1.00  0.00    -0.614 NA 
HETATM   15  N   UNL     1      -9.438  11.098  66.924  1.00  0.00    -0.183 NA 
HETATM   16  C   UNL     1     -11.248  11.732  65.408  1.00  0.00    -0.251 C  
HETATM   17  C   UNL     1     -11.729  11.890  67.759  1.00  0.00    -0.292 C  
HETATM   18  C   UNL     1     -10.235  11.537  68.088  1.00  0.00    -0.194 C  
HETATM   19  C   UNL     1      -9.750  11.864  65.710  1.00  0.00    -0.237 C  
BRANCH  15  20
HETATM   20  C   UNL     1      -9.152   9.761  66.718  1.00  0.00    -0.146 A  
HETATM   21  N   UNL     1      -9.983   8.796  67.089  1.00  0.00    -0.208 NA 
HETATM   22  S   UNL     1      -9.489   7.344  66.494  1.00  0.00    -0.145 SA 
HETATM   23  C   UNL     1      -8.118   7.953  65.666  1.00  0.00    -0.130 A  
HETATM   24  C   UNL     1      -7.216   7.249  64.854  1.00  0.00    -0.071 A  
HETATM   25  C   UNL     1      -6.155   7.958  64.287  1.00  0.00    -0.053 A  
HETATM   26  C   UNL     1      -6.009   9.316  64.538  1.00  0.00    -0.071 A  
HETATM   27  C   UNL     1      -6.925  10.012  65.329  1.00  0.00    -0.132 A  
HETATM   28  C   UNL     1      -8.014   9.315  65.939  1.00  0.00    -0.106 A  
ENDBRANCH  15  20
ENDBRANCH  13  14
ENDBRANCH  12  13
ENDBRANCH   3  12
TORSDOF 4
ENDMDL
MODEL      110
REMARK 921   NORMALIZED FREE ENERGY PREDICTED BY IDOCK:   -5.29 KCAL/MOL
REMARK 922        TOTAL FREE ENERGY PREDICTED BY IDOCK:   -7.04 KCAL/MOL
REMARK 923 INTER-LIGAND FREE ENERGY PREDICTED BY IDOCK:   -7.12 KCAL/MOL
REMARK 924 INTRA-LIGAND FREE ENERGY PREDICTED BY IDOCK:    0.08 KCAL/MOL
REMARK 927      BINDING AFFINITY PREDICTED BY RF-SCORE:    0.00 PKD
ROOT
HETATM    1 CL   UNL     1      -7.754  13.784  68.609  1.00  0.00    -0.135 Cl 
HETATM    2  C   UNL     1      -9.295  13.716  67.832  1.00  0.00    -0.206 A  
HETATM    3  C   UNL     1     -10.301  12.806  68.258  1.00  0.00    -0.248 A  
HETATM    4  O   UNL     1     -12.294  13.331  63.084  1.00  0.00    -0.682 OA 
HETATM    5  C   UNL     1     -11.589  12.864  67.695  1.00  0.00    -0.406 A  
HETATM    6  C   UNL     1     -11.726  13.570  66.518  1.00  0.00    -0.408 A  
HETATM    7  N   UNL     1     -10.819  14.336  64.588  1.00  0.00    -0.395 NA 
HETATM    8  C   UNL     1     -12.810  13.471  65.487  1.00  0.00    -0.406 C  
HETATM    9  C   UNL     1      -9.455  14.434  66.648  1.00  0.00    -0.300 A  
HETATM   10  C   UNL     1     -10.632  14.230  65.965  1.00  0.00    -0.300 A  
HETATM   11  C   UNL     1     -11.996  13.685  64.212  1.00  0.00    -0.445 C  
ENDROOT
BRANCH   3  12
HETATM   12  C   UNL     1      -9.885  11.453  68.813  1.00  0.00    -0.175 C  
BRANCH  12  13
HETATM   13  C   UNL     1     -10.262  10.138  68.119  1.00  0.00    -0.171 C  
BRANCH  13  14
HETATM   14  N   UNL     1      -9.591   9.030  68.834  1.00  0.00    -0.155 NA 
HETATM   15  N   UNL     1     -11.315   7.126  70.380  1.00  0.00    -0.290 NA 
HETATM   16  C   UNL     1      -9.809   9.049  70.293  1.00  0.00    -0.194 C  
HETATM   17  C   UNL     1      -9.888   7.674  68.321  1.00  0.00    -0.166 C  
HETATM   18  C   UNL     1     -11.051   6.832  68.956  1.00  0.00    -0.197 C  
HETATM   19  C   UNL     1     -11.209   8.558  70.686  1.00  0.00    -0.252 C  
BRANCH  15  20
HETATM   20  C   UNL     1     -10.872   6.277  71.377  1.00  0.00    -0.261 A  
HETATM   21  N   UNL     1     -11.557   6.083  72.496  1.00  0.00    -0.291 NA 
HETATM   22  S   UNL     1     -10.910   4.847  73.367  1.00  0.00    -0.319 SA 
HETATM   23  C   UNL     1      -9.664   4.481  72.250  1.00  0.00    -0.163 A  
HETATM   24  C   UNL     1      -8.716   3.450  72.320  1.00  0.00    -0.107 A  
HETATM   25  C   UNL     1      -7.778   3.350  71.289  1.00  0.00    -0.051 A  
HETATM   26  C   UNL     1      -7.795   4.260  70.241  1.00  0.00    -0.052 A  
HETATM   27  C   UNL     1      -8.757   5.269  70.168  1.00  0.00    -0.133 A  
HETATM   28  C   UNL     1      -9.722   5.411  71.214  1.00  0.00    -0.215 A  
ENDBRANCH  15  20
ENDBRANCH  13  14
ENDBRANCH  12  13
ENDBRANCH   3  12
TORSDOF 4
ENDMDL
MODEL      111
REMARK 921   NORMALIZED FREE ENERGY PREDICTED BY IDOCK:   -5.27 KCAL/MOL
REMARK 922        TOTAL FREE ENERGY PREDICTED BY IDOCK:   -7.02 KCAL/MOL
REMARK 923 INTER-LIGAND FREE ENERGY PREDICTED BY IDOCK:   -6.37 KCAL/MOL
REMARK 924 INTRA-LIGAND FREE ENERGY PREDICTED BY IDOCK:   -0.65 KCAL/MOL
REMARK 927      BINDING AFFINITY PREDICTED BY RF-SCORE:    0.00 PKD
ROOT
HETATM    1 CL   UNL     1      -8.672   4.024  67.639  1.00  0.00    -0.111 Cl 
HETATM    2  C   UNL     1      -9.638   4.985  68.701  1.00  0.00    -0.148 A  
HETATM    3  C   UNL     1     -10.050   6.298  68.344  1.00  0.00    -0.179 A  
HETATM    4  O   UNL     1     -10.485   7.138  73.833  1.00  0.00    -0.370 OA 
HETATM    5  C   UNL     1     -10.943   7.006  69.169  1.00  0.00    -0.193 A  
HETATM    6  C   UNL     1     -11.115   6.535  70.454  1.00  0.00    -0.389 A  
HETATM    7  N   UNL     1     -10.287   5.432  72.252  1.00  0.00    -0.202 NA 
HETATM    8  C   UNL     1     -11.632   7.264  71.657  1.00  0.00    -0.306 C  
HETATM    9  C   UNL     1      -9.831   4.518  70.000  1.00  0.00    -0.296 A  
HETATM   10  C   UNL     1     -10.461   5.378  70.871  1.00  0.00    -0.237 A  
HETATM   11  C   UNL     1     -10.756   6.650  72.749  1.00  0.00    -0.243 C  
ENDROOT
BRANCH   3  12
HETATM   12  C   UNL     1      -9.132   7.151  67.483  1.00  0.00    -0.123 C  
BRANCH  12  13
HETATM   13  C   UNL     1      -9.636   7.878  66.229  1.00  0.00    -0.130 C  
BRANCH  13  14
HETATM   14  N   UNL     1      -8.979   9.203  66.168  1.00  0.00    -0.162 NA 
HETATM   15  N   UNL     1      -9.882  11.294  68.117  1.00  0.00    -0.177 NA 
HETATM   16  C   UNL     1      -9.909  10.311  65.880  1.00  0.00    -0.237 C  
HETATM   17  C   UNL     1      -8.160   9.557  67.348  1.00  0.00    -0.110 C  
HETATM   18  C   UNL     1      -8.793  10.383  68.524  1.00  0.00    -0.142 C  
HETATM   19  C   UNL     1     -10.757  10.702  67.097  1.00  0.00    -0.272 C  
BRANCH  15  20
HETATM   20  C   UNL     1      -9.664  12.653  67.988  1.00  0.00    -0.215 A  
HETATM   21  N   UNL     1      -8.725  13.145  67.191  1.00  0.00    -0.213 NA 
HETATM   22  S   UNL     1      -8.872  14.779  67.060  1.00  0.00    -0.246 SA 
HETATM   23  C   UNL     1     -10.252  14.911  68.067  1.00  0.00    -0.228 A  
HETATM   24  C   UNL     1     -10.990  16.063  68.374  1.00  0.00    -0.331 A  
HETATM   25  C   UNL     1     -12.081  15.932  69.237  1.00  0.00    -0.166 A  
HETATM   26  C   UNL     1     -12.402  14.691  69.771  1.00  0.00    -0.306 A  
HETATM   27  C   UNL     1     -11.675  13.546  69.441  1.00  0.00    -0.381 A  
HETATM   28  C   UNL     1     -10.542  13.646  68.574  1.00  0.00    -0.259 A  
ENDBRANCH  15  20
ENDBRANCH  13  14
ENDBRANCH  12  13
ENDBRANCH   3  12
TORSDOF 4
ENDMDL
MODEL      112
REMARK 921   NORMALIZED FREE ENERGY PREDICTED BY IDOCK:   -5.26 KCAL/MOL
REMARK 922        TOTAL FREE ENERGY PREDICTED BY IDOCK:   -7.01 KCAL/MOL
REMARK 923 INTER-LIGAND FREE ENERGY PREDICTED BY IDOCK:   -6.46 KCAL/MOL
REMARK 924 INTRA-LIGAND FREE ENERGY PREDICTED BY IDOCK:   -0.55 KCAL/MOL
REMARK 927      BINDING AFFINITY PREDICTED BY RF-SCORE:    0.00 PKD
ROOT
HETATM    1 CL   UNL     1     -11.953  14.533  68.832  1.00  0.00    -0.346 Cl 
HETATM    2  C   UNL     1     -11.137  15.832  68.036  1.00  0.00    -0.337 A  
HETATM    3  C   UNL     1     -10.781  15.754  66.662  1.00  0.00    -0.287 A  
HETATM    4  O   UNL     1      -6.897  19.534  67.946  1.00  0.00    -0.233 OA 
HETATM    5  C   UNL     1     -10.237  16.875  66.009  1.00  0.00    -0.350 A  
HETATM    6  C   UNL     1      -9.758  17.893  66.807  1.00  0.00    -0.314 A  
HETATM    7  N   UNL     1      -8.854  18.567  68.773  1.00  0.00    -0.285 NA 
HETATM    8  C   UNL     1      -8.779  18.973  66.460  1.00  0.00    -0.327 C  
HETATM    9  C   UNL     1     -10.657  16.875  68.827  1.00  0.00    -0.355 A  
HETATM   10  C   UNL     1      -9.869  17.809  68.193  1.00  0.00    -0.326 A  
HETATM   11  C   UNL     1      -8.023  19.094  67.782  1.00  0.00    -0.273 C  
ENDROOT
BRANCH   3  12
HETATM   12  C   UNL     1     -10.407  14.403  66.072  1.00  0.00    -0.319 C  
BRANCH  12  13
HETATM   13  C   UNL     1      -9.387  13.475  66.746  1.00  0.00    -0.257 C  
BRANCH  13  14
HETATM   14  N   UNL     1     -10.095  12.249  67.177  1.00  0.00    -0.207 NA 
HETATM   15  N   UNL     1      -8.617   9.648  66.977  1.00  0.00    -0.127 NA 
HETATM   16  C   UNL     1     -10.248  11.247  66.106  1.00  0.00    -0.245 C  
HETATM   17  C   UNL     1      -9.539  11.588  68.379  1.00  0.00    -0.195 C  
HETATM   18  C   UNL     1      -8.487  10.432  68.222  1.00  0.00    -0.123 C  
HETATM   19  C   UNL     1      -8.946  10.487  65.818  1.00  0.00    -0.180 C  
BRANCH  15  20
HETATM   20  C   UNL     1      -9.202   8.395  66.981  1.00  0.00    -0.151 A  
HETATM   21  N   UNL     1     -10.396   8.175  67.514  1.00  0.00    -0.243 NA 
HETATM   22  S   UNL     1     -10.925   6.660  67.149  1.00  0.00    -0.350 SA 
HETATM   23  C   UNL     1      -9.559   6.220  66.212  1.00  0.00    -0.075 A  
HETATM   24  C   UNL     1      -9.342   5.027  65.508  1.00  0.00    -0.149 A  
HETATM   25  C   UNL     1      -8.136   4.883  64.818  1.00  0.00    -0.109 A  
HETATM   26  C   UNL     1      -7.190   5.899  64.849  1.00  0.00    -0.066 A  
HETATM   27  C   UNL     1      -7.424   7.092  65.534  1.00  0.00    -0.083 A  
HETATM   28  C   UNL     1      -8.641   7.267  66.264  1.00  0.00    -0.147 A  
ENDBRANCH  15  20
ENDBRANCH  13  14
ENDBRANCH  12  13
ENDBRANCH   3  12
TORSDOF 4
ENDMDL
MODEL      113
REMARK 921   NORMALIZED FREE ENERGY PREDICTED BY IDOCK:   -5.24 KCAL/MOL
REMARK 922        TOTAL FREE ENERGY PREDICTED BY IDOCK:   -6.99 KCAL/MOL
REMARK 923 INTER-LIGAND FREE ENERGY PREDICTED BY IDOCK:   -7.15 KCAL/MOL
REMARK 924 INTRA-LIGAND FREE ENERGY PREDICTED BY IDOCK:    0.16 KCAL/MOL
REMARK 927      BINDING AFFINITY PREDICTED BY RF-SCORE:    0.00 PKD
ROOT
HETATM    1 CL   UNL     1     -12.600  14.153  71.675  1.00  0.00    -0.419 Cl 
HETATM    2  C   UNL     1     -12.247  14.217  69.985  1.00  0.00    -0.359 A  
HETATM    3  C   UNL     1     -12.060  13.033  69.222  1.00  0.00    -0.251 A  
HETATM    4  O   UNL     1      -9.128  16.288  65.782  1.00  0.00    -0.434 OA 
HETATM    5  C   UNL     1     -11.904  13.111  67.825  1.00  0.00    -0.392 A  
HETATM    6  C   UNL     1     -11.601  14.349  67.298  1.00  0.00    -0.401 A  
HETATM    7  N   UNL     1     -10.656  16.393  67.543  1.00  0.00    -0.312 NA 
HETATM    8  C   UNL     1     -10.979  14.675  65.974  1.00  0.00    -0.325 C  
HETATM    9  C   UNL     1     -11.950  15.462  69.433  1.00  0.00    -0.351 A  
HETATM   10  C   UNL     1     -11.511  15.463  68.128  1.00  0.00    -0.343 A  
HETATM   11  C   UNL     1     -10.117  15.876  66.364  1.00  0.00    -0.292 C  
ENDROOT
BRANCH   3  12
HETATM   12  C   UNL     1     -11.433  11.817  69.886  1.00  0.00    -0.285 C  
BRANCH  12  13
HETATM   13  C   UNL     1     -12.277  10.638  70.387  1.00  0.00    -0.345 C  
BRANCH  13  14
HETATM   14  N   UNL     1     -11.479   9.889  71.383  1.00  0.00    -0.361 NA 
HETATM   15  N   UNL     1     -11.045   6.962  70.899  1.00  0.00    -0.259 NA 
HETATM   16  C   UNL     1     -12.219   8.787  72.025  1.00  0.00    -0.377 C  
HETATM   17  C   UNL     1     -10.180   9.376  70.896  1.00  0.00    -0.303 C  
HETATM   18  C   UNL     1     -10.077   7.917  70.324  1.00  0.00    -0.196 C  
HETATM   19  C   UNL     1     -12.368   7.564  71.110  1.00  0.00    -0.291 C  
BRANCH  15  20
HETATM   20  C   UNL     1     -10.658   6.043  71.858  1.00  0.00    -0.226 A  
HETATM   21  N   UNL     1     -11.294   4.892  72.031  1.00  0.00     0.212 NA 
HETATM   22  S   UNL     1     -10.459   3.917  73.060  1.00  0.00    -0.171 SA 
HETATM   23  C   UNL     1      -9.158   5.003  73.312  1.00  0.00    -0.125 A  
HETATM   24  C   UNL     1      -7.997   4.798  74.072  1.00  0.00    -0.101 A  
HETATM   25  C   UNL     1      -7.070   5.841  74.145  1.00  0.00    -0.082 A  
HETATM   26  C   UNL     1      -7.314   7.038  73.487  1.00  0.00    -0.081 A  
HETATM   27  C   UNL     1      -8.461   7.224  72.714  1.00  0.00    -0.132 A  
HETATM   28  C   UNL     1      -9.440   6.185  72.630  1.00  0.00    -0.147 A  
ENDBRANCH  15  20
ENDBRANCH  13  14
ENDBRANCH  12  13
ENDBRANCH   3  12
TORSDOF 4
ENDMDL
MODEL      114
REMARK 921   NORMALIZED FREE ENERGY PREDICTED BY IDOCK:   -5.19 KCAL/MOL
REMARK 922        TOTAL FREE ENERGY PREDICTED BY IDOCK:   -6.93 KCAL/MOL
REMARK 923 INTER-LIGAND FREE ENERGY PREDICTED BY IDOCK:   -6.40 KCAL/MOL
REMARK 924 INTRA-LIGAND FREE ENERGY PREDICTED BY IDOCK:   -0.53 KCAL/MOL
REMARK 927      BINDING AFFINITY PREDICTED BY RF-SCORE:    0.00 PKD
ROOT
HETATM    1 CL   UNL     1     -10.908  14.766  69.006  1.00  0.00    -0.238 Cl 
HETATM    2  C   UNL     1     -10.673  16.207  68.083  1.00  0.00    -0.315 A  
HETATM    3  C   UNL     1     -10.553  16.169  66.667  1.00  0.00    -0.274 A  
HETATM    4  O   UNL     1      -7.828  20.992  67.246  1.00  0.00    -0.289 OA 
HETATM    5  C   UNL     1     -10.494  17.367  65.931  1.00  0.00    -0.256 A  
HETATM    6  C   UNL     1     -10.213  18.520  66.634  1.00  0.00    -0.429 A  
HETATM    7  N   UNL     1      -9.228  19.530  68.408  1.00  0.00    -0.346 NA 
HETATM    8  C   UNL     1      -9.680  19.824  66.121  1.00  0.00    -0.510 C  
HETATM    9  C   UNL     1     -10.400  17.384  68.778  1.00  0.00    -0.357 A  
HETATM   10  C   UNL     1     -10.052  18.477  68.017  1.00  0.00    -0.371 A  
HETATM   11  C   UNL     1      -8.779  20.230  67.286  1.00  0.00    -0.352 C  
ENDROOT
BRANCH   3  12
HETATM   12  C   UNL     1      -9.897  14.963  66.013  1.00  0.00    -0.345 C  
BRANCH  12  13
HETATM   13  C   UNL     1     -10.637  13.631  65.835  1.00  0.00    -0.289 C  
BRANCH  13  14
HETATM   14  N   UNL     1      -9.628  12.562  65.665  1.00  0.00    -0.154 NA 
HETATM   15  N   UNL     1      -9.902  10.109  67.369  1.00  0.00    -0.180 NA 
HETATM   16  C   UNL     1      -8.863  12.271  66.893  1.00  0.00    -0.207 C  
HETATM   17  C   UNL     1     -10.140  11.291  65.106  1.00  0.00    -0.275 C  
HETATM   18  C   UNL     1     -10.600  10.139  66.068  1.00  0.00    -0.001 C  
HETATM   19  C   UNL     1      -9.670  11.454  67.911  1.00  0.00    -0.180 C  
BRANCH  15  20
HETATM   20  C   UNL     1      -8.895   9.194  67.618  1.00  0.00    -0.120 A  
HETATM   21  N   UNL     1      -8.004   8.856  66.696  1.00  0.00    -0.103 NA 
HETATM   22  S   UNL     1      -6.801   7.949  67.356  1.00  0.00    -0.071 SA 
HETATM   23  C   UNL     1      -7.414   7.985  68.956  1.00  0.00    -0.093 A  
HETATM   24  C   UNL     1      -6.842   7.437  70.113  1.00  0.00    -0.055 A  
HETATM   25  C   UNL     1      -7.534   7.580  71.318  1.00  0.00    -0.079 A  
HETATM   26  C   UNL     1      -8.755   8.240  71.346  1.00  0.00    -0.197 A  
HETATM   27  C   UNL     1      -9.306   8.802  70.193  1.00  0.00    -0.181 A  
HETATM   28  C   UNL     1      -8.633   8.661  68.939  1.00  0.00    -0.130 A  
ENDBRANCH  15  20
ENDBRANCH  13  14
ENDBRANCH  12  13
ENDBRANCH   3  12
TORSDOF 4
ENDMDL
MODEL      115
REMARK 921   NORMALIZED FREE ENERGY PREDICTED BY IDOCK:   -5.19 KCAL/MOL
REMARK 922        TOTAL FREE ENERGY PREDICTED BY IDOCK:   -6.92 KCAL/MOL
REMARK 923 INTER-LIGAND FREE ENERGY PREDICTED BY IDOCK:   -6.55 KCAL/MOL
REMARK 924 INTRA-LIGAND FREE ENERGY PREDICTED BY IDOCK:   -0.37 KCAL/MOL
REMARK 927      BINDING AFFINITY PREDICTED BY RF-SCORE:    0.00 PKD
ROOT
HETATM    1 CL   UNL     1     -13.170  10.880  72.102  1.00  0.00    -0.498 Cl 
HETATM    2  C   UNL     1     -12.577  11.772  70.746  1.00  0.00    -0.253 A  
HETATM    3  C   UNL     1     -11.735  11.168  69.773  1.00  0.00    -0.419 A  
HETATM    4  O   UNL     1     -10.011  16.362  68.739  1.00  0.00    -0.224 OA 
HETATM    5  C   UNL     1     -11.374  11.879  68.613  1.00  0.00    -0.331 A  
HETATM    6  C   UNL     1     -11.572  13.244  68.629  1.00  0.00    -0.362 A  
HETATM    7  N   UNL     1     -11.719  15.178  69.801  1.00  0.00    -0.297 NA 
HETATM    8  C   UNL     1     -10.930  14.293  67.772  1.00  0.00    -0.275 C  
HETATM    9  C   UNL     1     -12.778  13.151  70.740  1.00  0.00    -0.260 A  
HETATM   10  C   UNL     1     -12.153  13.856  69.737  1.00  0.00    -0.345 A  
HETATM   11  C   UNL     1     -10.795  15.430  68.784  1.00  0.00    -0.252 C  
ENDROOT
BRANCH   3  12
HETATM   12  C   UNL     1     -10.762  10.083  70.209  1.00  0.00    -0.367 C  
BRANCH  12  13
HETATM   13  C   UNL     1     -10.553   8.802  69.392  1.00  0.00    -0.209 C  
BRANCH  13  14
HETATM   14  N   UNL     1     -11.137   7.672  70.150  1.00  0.00    -0.247 NA 
HETATM   15  N   UNL     1      -9.686   6.747  72.605  1.00  0.00    -0.149 NA 
HETATM   16  C   UNL     1     -10.247   6.498  70.239  1.00  0.00    -0.192 C  
HETATM   17  C   UNL     1     -11.630   8.006  71.504  1.00  0.00    -0.275 C  
HETATM   18  C   UNL     1     -10.692   7.819  72.749  1.00  0.00    -0.356 C  
HETATM   19  C   UNL     1      -9.113   6.694  71.254  1.00  0.00    -0.151 C  
BRANCH  15  20
HETATM   20  C   UNL     1      -9.858   5.520  73.220  1.00  0.00    -0.164 A  
HETATM   21  N   UNL     1     -11.041   4.925  73.288  1.00  0.00    -0.314 NA 
HETATM   22  S   UNL     1     -10.885   3.386  73.849  1.00  0.00    -0.193 SA 
HETATM   23  C   UNL     1      -9.179   3.431  74.008  1.00  0.00    -0.088 A  
HETATM   24  C   UNL     1      -8.321   2.395  74.401  1.00  0.00    -0.066 A  
HETATM   25  C   UNL     1      -6.953   2.668  74.472  1.00  0.00    -0.035 A  
HETATM   26  C   UNL     1      -6.479   3.936  74.166  1.00  0.00    -0.039 A  
HETATM   27  C   UNL     1      -7.339   4.955  73.753  1.00  0.00    -0.083 A  
HETATM   28  C   UNL     1      -8.747   4.716  73.686  1.00  0.00    -0.106 A  
ENDBRANCH  15  20
ENDBRANCH  13  14
ENDBRANCH  12  13
ENDBRANCH   3  12
TORSDOF 4
ENDMDL
MODEL      116
REMARK 921   NORMALIZED FREE ENERGY PREDICTED BY IDOCK:   -5.19 KCAL/MOL
REMARK 922        TOTAL FREE ENERGY PREDICTED BY IDOCK:   -6.92 KCAL/MOL
REMARK 923 INTER-LIGAND FREE ENERGY PREDICTED BY IDOCK:   -7.02 KCAL/MOL
REMARK 924 INTRA-LIGAND FREE ENERGY PREDICTED BY IDOCK:    0.10 KCAL/MOL
REMARK 927      BINDING AFFINITY PREDICTED BY RF-SCORE:    0.00 PKD
ROOT
HETATM    1 CL   UNL     1     -11.775  10.910  69.002  1.00  0.00    -0.379 Cl 
HETATM    2  C   UNL     1     -10.598  10.093  68.036  1.00  0.00    -0.231 A  
HETATM    3  C   UNL     1     -10.122  10.651  66.818  1.00  0.00    -0.272 A  
HETATM    4  O   UNL     1      -8.905   5.394  65.441  1.00  0.00    -0.153 OA 
HETATM    5  C   UNL     1      -9.070  10.029  66.120  1.00  0.00    -0.188 A  
HETATM    6  C   UNL     1      -8.775   8.727  66.465  1.00  0.00    -0.137 A  
HETATM    7  N   UNL     1      -9.456   6.724  67.278  1.00  0.00    -0.131 NA 
HETATM    8  C   UNL     1      -8.044   7.690  65.667  1.00  0.00    -0.127 C  
HETATM    9  C   UNL     1     -10.279   8.780  68.377  1.00  0.00    -0.228 A  
HETATM   10  C   UNL     1      -9.469   8.100  67.497  1.00  0.00    -0.152 A  
HETATM   11  C   UNL     1      -8.821   6.436  66.067  1.00  0.00    -0.150 C  
ENDROOT
BRANCH   3  12
HETATM   12  C   UNL     1     -11.065  11.493  65.973  1.00  0.00    -0.289 C  
BRANCH  12  13
HETATM   13  C   UNL     1     -11.632  12.828  66.471  1.00  0.00    -0.376 C  
BRANCH  13  14
HETATM   14  N   UNL     1     -10.499  13.683  66.891  1.00  0.00    -0.270 NA 
HETATM   15  N   UNL     1     -10.866  16.655  66.735  1.00  0.00    -0.122 NA 
HETATM   16  C   UNL     1      -9.993  14.562  65.820  1.00  0.00    -0.334 C  
HETATM   17  C   UNL     1     -10.733  14.492  68.107  1.00  0.00    -0.239 C  
HETATM   18  C   UNL     1     -11.262  15.965  67.980  1.00  0.00    -0.319 C  
HETATM   19  C   UNL     1     -10.908  15.768  65.566  1.00  0.00    -0.332 C  
BRANCH  15  20
HETATM   20  C   UNL     1      -9.843  17.586  66.730  1.00  0.00    -0.306 A  
HETATM   21  N   UNL     1      -9.928  18.724  66.055  1.00  0.00    -0.523 NA 
HETATM   22  S   UNL     1      -8.678  19.722  66.439  1.00  0.00    -0.360 SA 
HETATM   23  C   UNL     1      -7.955  18.665  67.578  1.00  0.00    -0.244 A  
HETATM   24  C   UNL     1      -6.828  18.898  68.379  1.00  0.00    -0.276 A  
HETATM   25  C   UNL     1      -6.409  17.876  69.235  1.00  0.00    -0.244 A  
HETATM   26  C   UNL     1      -7.097  16.671  69.269  1.00  0.00    -0.212 A  
HETATM   27  C   UNL     1      -8.232  16.456  68.485  1.00  0.00    -0.201 A  
HETATM   28  C   UNL     1      -8.679  17.474  67.586  1.00  0.00    -0.223 A  
ENDBRANCH  15  20
ENDBRANCH  13  14
ENDBRANCH  12  13
ENDBRANCH   3  12
TORSDOF 4
ENDMDL
MODEL      117
REMARK 921   NORMALIZED FREE ENERGY PREDICTED BY IDOCK:   -5.18 KCAL/MOL
REMARK 922        TOTAL FREE ENERGY PREDICTED BY IDOCK:   -6.92 KCAL/MOL
REMARK 923 INTER-LIGAND FREE ENERGY PREDICTED BY IDOCK:   -6.68 KCAL/MOL
REMARK 924 INTRA-LIGAND FREE ENERGY PREDICTED BY IDOCK:   -0.24 KCAL/MOL
REMARK 927      BINDING AFFINITY PREDICTED BY RF-SCORE:    0.00 PKD
ROOT
HETATM    1 CL   UNL     1      -7.491   8.140  66.456  1.00  0.00    -0.087 Cl 
HETATM    2  C   UNL     1      -8.646   7.439  67.533  1.00  0.00    -0.122 A  
HETATM    3  C   UNL     1     -10.013   7.826  67.508  1.00  0.00    -0.242 A  
HETATM    4  O   UNL     1     -10.120   6.037  72.781  1.00  0.00    -0.178 OA 
HETATM    5  C   UNL     1     -10.954   7.146  68.303  1.00  0.00    -0.092 A  
HETATM    6  C   UNL     1     -10.459   6.361  69.324  1.00  0.00    -0.277 A  
HETATM    7  N   UNL     1      -8.829   5.934  70.840  1.00  0.00    -0.137 NA 
HETATM    8  C   UNL     1     -11.161   5.874  70.556  1.00  0.00    -0.347 C  
HETATM    9  C   UNL     1      -8.164   6.633  68.563  1.00  0.00    -0.119 A  
HETATM   10  C   UNL     1      -9.084   6.225  69.501  1.00  0.00    -0.137 A  
HETATM   11  C   UNL     1     -10.020   5.948  71.569  1.00  0.00    -0.180 C  
ENDROOT
BRANCH   3  12
HETATM   12  C   UNL     1     -10.368   9.261  67.151  1.00  0.00    -0.330 C  
BRANCH  12  13
HETATM   13  C   UNL     1     -10.034  10.436  68.078  1.00  0.00    -0.155 C  
BRANCH  13  14
HETATM   14  N   UNL     1      -9.531  11.552  67.246  1.00  0.00    -0.168 NA 
HETATM   15  N   UNL     1     -10.682  14.278  67.729  1.00  0.00    -0.249 NA 
HETATM   16  C   UNL     1     -10.577  12.205  66.437  1.00  0.00    -0.241 C  
HETATM   17  C   UNL     1      -8.767  12.589  67.974  1.00  0.00    -0.186 C  
HETATM   18  C   UNL     1      -9.500  13.868  68.515  1.00  0.00    -0.174 C  
HETATM   19  C   UNL     1     -11.474  13.130  67.270  1.00  0.00    -0.331 C  
BRANCH  15  20
HETATM   20  C   UNL     1     -10.618  15.339  66.846  1.00  0.00    -0.304 A  
HETATM   21  N   UNL     1     -10.981  15.224  65.575  1.00  0.00    -0.350 NA 
HETATM   22  S   UNL     1     -11.028  16.699  64.849  1.00  0.00     0.038 SA 
HETATM   23  C   UNL     1     -10.579  17.593  66.240  1.00  0.00    -0.215 A  
HETATM   24  C   UNL     1     -10.470  18.984  66.374  1.00  0.00    -0.524 A  
HETATM   25  C   UNL     1     -10.071  19.494  67.613  1.00  0.00    -0.526 A  
HETATM   26  C   UNL     1      -9.788  18.631  68.662  1.00  0.00    -0.427 A  
HETATM   27  C   UNL     1      -9.921  17.248  68.526  1.00  0.00    -0.320 A  
HETATM   28  C   UNL     1     -10.312  16.691  67.268  1.00  0.00    -0.298 A  
ENDBRANCH  15  20
ENDBRANCH  13  14
ENDBRANCH  12  13
ENDBRANCH   3  12
TORSDOF 4
ENDMDL
MODEL      118
REMARK 921   NORMALIZED FREE ENERGY PREDICTED BY IDOCK:   -5.18 KCAL/MOL
REMARK 922        TOTAL FREE ENERGY PREDICTED BY IDOCK:   -6.91 KCAL/MOL
REMARK 923 INTER-LIGAND FREE ENERGY PREDICTED BY IDOCK:   -6.69 KCAL/MOL
REMARK 924 INTRA-LIGAND FREE ENERGY PREDICTED BY IDOCK:   -0.22 KCAL/MOL
REMARK 927      BINDING AFFINITY PREDICTED BY RF-SCORE:    0.00 PKD
ROOT
HETATM    1 CL   UNL     1     -12.493  13.531  70.765  1.00  0.00    -0.433 Cl 
HETATM    2  C   UNL     1     -12.071  14.025  69.165  1.00  0.00    -0.337 A  
HETATM    3  C   UNL     1     -12.004  13.093  68.094  1.00  0.00    -0.333 A  
HETATM    4  O   UNL     1      -8.559  16.777  65.733  1.00  0.00    -0.485 OA 
HETATM    5  C   UNL     1     -11.787  13.543  66.778  1.00  0.00    -0.450 A  
HETATM    6  C   UNL     1     -11.312  14.829  66.628  1.00  0.00    -0.347 A  
HETATM    7  N   UNL     1     -10.127  16.577  67.450  1.00  0.00    -0.272 NA 
HETATM    8  C   UNL     1     -10.603  15.434  65.453  1.00  0.00    -0.430 C  
HETATM    9  C   UNL     1     -11.600  15.326  68.992  1.00  0.00    -0.360 A  
HETATM   10  C   UNL     1     -11.115  15.639  67.743  1.00  0.00    -0.311 A  
HETATM   11  C   UNL     1      -9.613  16.350  66.171  1.00  0.00    -0.325 C  
ENDROOT
BRANCH   3  12
HETATM   12  C   UNL     1     -11.561  11.667  68.382  1.00  0.00    -0.376 C  
BRANCH  12  13
HETATM   13  C   UNL     1     -10.084  11.293  68.556  1.00  0.00    -0.204 C  
BRANCH  13  14
HETATM   14  N   UNL     1      -9.837  10.035  67.817  1.00  0.00    -0.153 NA 
HETATM   15  N   UNL     1      -7.855  10.108  65.568  1.00  0.00    -0.141 NA 
HETATM   16  C   UNL     1     -10.161  10.119  66.381  1.00  0.00    -0.236 C  
HETATM   17  C   UNL     1      -8.479   9.467  67.971  1.00  0.00    -0.120 C  
HETATM   18  C   UNL     1      -7.359   9.817  66.928  1.00  0.00    -0.091 C  
HETATM   19  C   UNL     1      -9.100  10.887  65.581  1.00  0.00    -0.204 C  
BRANCH  15  20
HETATM   20  C   UNL     1      -7.759   9.169  64.558  1.00  0.00    -0.114 A  
HETATM   21  N   UNL     1      -7.191   9.443  63.391  1.00  0.00    -0.100 NA 
HETATM   22  S   UNL     1      -7.007   8.072  62.500  1.00  0.00    -0.087 SA 
HETATM   23  C   UNL     1      -7.672   7.012  63.670  1.00  0.00    -0.111 A  
HETATM   24  C   UNL     1      -7.787   5.616  63.605  1.00  0.00    -0.105 A  
HETATM   25  C   UNL     1      -8.380   4.957  64.684  1.00  0.00    -0.134 A  
HETATM   26  C   UNL     1      -8.845   5.681  65.774  1.00  0.00    -0.156 A  
HETATM   27  C   UNL     1      -8.705   7.068  65.840  1.00  0.00    -0.140 A  
HETATM   28  C   UNL     1      -8.117   7.778  64.746  1.00  0.00    -0.131 A  
ENDBRANCH  15  20
ENDBRANCH  13  14
ENDBRANCH  12  13
ENDBRANCH   3  12
TORSDOF 4
ENDMDL
MODEL      119
REMARK 921   NORMALIZED FREE ENERGY PREDICTED BY IDOCK:   -5.16 KCAL/MOL
REMARK 922        TOTAL FREE ENERGY PREDICTED BY IDOCK:   -6.89 KCAL/MOL
REMARK 923 INTER-LIGAND FREE ENERGY PREDICTED BY IDOCK:   -6.60 KCAL/MOL
REMARK 924 INTRA-LIGAND FREE ENERGY PREDICTED BY IDOCK:   -0.29 KCAL/MOL
REMARK 927      BINDING AFFINITY PREDICTED BY RF-SCORE:    0.00 PKD
ROOT
HETATM    1 CL   UNL     1     -12.255  15.625  70.315  1.00  0.00    -0.415 Cl 
HETATM    2  C   UNL     1     -11.066  15.940  69.101  1.00  0.00    -0.302 A  
HETATM    3  C   UNL     1     -11.296  15.616  67.736  1.00  0.00    -0.261 A  
HETATM    4  O   UNL     1      -5.743  15.492  67.327  1.00  0.00    -0.336 OA 
HETATM    5  C   UNL     1     -10.368  16.003  66.753  1.00  0.00    -0.300 A  
HETATM    6  C   UNL     1      -9.115  16.380  67.189  1.00  0.00    -0.220 A  
HETATM    7  N   UNL     1      -7.459  16.225  68.729  1.00  0.00    -0.182 NA 
HETATM    8  C   UNL     1      -7.830  16.430  66.418  1.00  0.00    -0.297 C  
HETATM    9  C   UNL     1      -9.798  16.334  69.524  1.00  0.00    -0.159 A  
HETATM   10  C   UNL     1      -8.828  16.416  68.551  1.00  0.00    -0.224 A  
HETATM   11  C   UNL     1      -6.844  15.988  67.498  1.00  0.00    -0.176 C  
ENDROOT
BRANCH   3  12
HETATM   12  C   UNL     1     -12.143  14.398  67.399  1.00  0.00    -0.348 C  
BRANCH  12  13
HETATM   13  C   UNL     1     -11.537  12.994  67.280  1.00  0.00    -0.356 C  
BRANCH  13  14
HETATM   14  N   UNL     1     -10.796  12.703  68.528  1.00  0.00    -0.244 NA 
HETATM   15  N   UNL     1     -10.420   9.826  69.284  1.00  0.00    -0.208 NA 
HETATM   16  C   UNL     1     -11.588  11.960  69.526  1.00  0.00    -0.327 C  
HETATM   17  C   UNL     1      -9.493  12.026  68.347  1.00  0.00    -0.181 C  
HETATM   18  C   UNL     1      -9.406  10.460  68.417  1.00  0.00    -0.150 C  
HETATM   19  C   UNL     1     -11.734  10.474  69.175  1.00  0.00    -0.189 C  
BRANCH  15  20
HETATM   20  C   UNL     1     -10.093   9.369  70.548  1.00  0.00    -0.275 A  
HETATM   21  N   UNL     1     -10.996   8.844  71.365  1.00  0.00    -0.282 NA 
HETATM   22  S   UNL     1     -10.269   8.173  72.679  1.00  0.00    -0.305 SA 
HETATM   23  C   UNL     1      -8.666   8.537  72.197  1.00  0.00    -0.197 A  
HETATM   24  C   UNL     1      -7.470   8.194  72.843  1.00  0.00    -0.165 A  
HETATM   25  C   UNL     1      -6.269   8.614  72.266  1.00  0.00    -0.076 A  
HETATM   26  C   UNL     1      -6.281   9.355  71.092  1.00  0.00    -0.077 A  
HETATM   27  C   UNL     1      -7.476   9.672  70.444  1.00  0.00    -0.168 A  
HETATM   28  C   UNL     1      -8.725   9.273  71.014  1.00  0.00    -0.182 A  
ENDBRANCH  15  20
ENDBRANCH  13  14
ENDBRANCH  12  13
ENDBRANCH   3  12
TORSDOF 4
ENDMDL
MODEL      120
REMARK 921   NORMALIZED FREE ENERGY PREDICTED BY IDOCK:   -5.15 KCAL/MOL
REMARK 922        TOTAL FREE ENERGY PREDICTED BY IDOCK:   -6.88 KCAL/MOL
REMARK 923 INTER-LIGAND FREE ENERGY PREDICTED BY IDOCK:   -6.80 KCAL/MOL
REMARK 924 INTRA-LIGAND FREE ENERGY PREDICTED BY IDOCK:   -0.07 KCAL/MOL
REMARK 927      BINDING AFFINITY PREDICTED BY RF-SCORE:    0.00 PKD
ROOT
HETATM    1 CL   UNL     1     -13.126  14.094  72.766  1.00  0.00    -0.570 Cl 
HETATM    2  C   UNL     1     -12.566  14.496  71.181  1.00  0.00    -0.335 A  
HETATM    3  C   UNL     1     -12.462  13.512  70.160  1.00  0.00    -0.276 A  
HETATM    4  O   UNL     1      -8.696  16.939  67.906  1.00  0.00    -0.206 OA 
HETATM    5  C   UNL     1     -12.130  13.891  68.847  1.00  0.00    -0.355 A  
HETATM    6  C   UNL     1     -11.589  15.148  68.676  1.00  0.00    -0.358 A  
HETATM    7  N   UNL     1     -10.392  16.884  69.507  1.00  0.00    -0.241 NA 
HETATM    8  C   UNL     1     -10.771  15.668  67.533  1.00  0.00    -0.303 C  
HETATM    9  C   UNL     1     -12.027  15.766  70.989  1.00  0.00    -0.462 A  
HETATM   10  C   UNL     1     -11.439  16.001  69.766  1.00  0.00    -0.318 A  
HETATM   11  C   UNL     1      -9.797  16.576  68.282  1.00  0.00    -0.243 C  
ENDROOT
BRANCH   3  12
HETATM   12  C   UNL     1     -12.105  12.084  70.544  1.00  0.00    -0.402 C  
BRANCH  12  13
HETATM   13  C   UNL     1     -10.916  11.347  69.916  1.00  0.00     0.041 C  
BRANCH  13  14
HETATM   14  N   UNL     1     -11.382  10.016  69.468  1.00  0.00    -0.206 NA 
HETATM   15  N   UNL     1      -9.337   7.839  69.210  1.00  0.00    -0.149 NA 
HETATM   16  C   UNL     1     -10.756   9.561  68.212  1.00  0.00    -0.194 C  
HETATM   17  C   UNL     1     -11.278   8.937  70.476  1.00  0.00    -0.252 C  
HETATM   18  C   UNL     1     -10.003   8.021  70.516  1.00  0.00    -0.190 C  
HETATM   19  C   UNL     1      -9.315   9.073  68.415  1.00  0.00    -0.139 C  
BRANCH  15  20
HETATM   20  C   UNL     1      -9.498   6.674  68.483  1.00  0.00    -0.123 A  
HETATM   21  N   UNL     1      -9.481   6.660  67.157  1.00  0.00    -0.132 NA 
HETATM   22  S   UNL     1      -9.449   5.116  66.593  1.00  0.00    -0.157 SA 
HETATM   23  C   UNL     1      -9.429   4.367  68.134  1.00  0.00    -0.152 A  
HETATM   24  C   UNL     1      -9.340   2.999  68.429  1.00  0.00    -0.248 A  
HETATM   25  C   UNL     1      -9.354   2.616  69.772  1.00  0.00    -0.185 A  
HETATM   26  C   UNL     1      -9.462   3.575  70.769  1.00  0.00    -0.240 A  
HETATM   27  C   UNL     1      -9.527   4.937  70.467  1.00  0.00    -0.232 A  
HETATM   28  C   UNL     1      -9.531   5.364  69.102  1.00  0.00    -0.177 A  
ENDBRANCH  15  20
ENDBRANCH  13  14
ENDBRANCH  12  13
ENDBRANCH   3  12
TORSDOF 4
ENDMDL
MODEL      121
REMARK 921   NORMALIZED FREE ENERGY PREDICTED BY IDOCK:   -5.14 KCAL/MOL
REMARK 922        TOTAL FREE ENERGY PREDICTED BY IDOCK:   -6.86 KCAL/MOL
REMARK 923 INTER-LIGAND FREE ENERGY PREDICTED BY IDOCK:   -6.34 KCAL/MOL
REMARK 924 INTRA-LIGAND FREE ENERGY PREDICTED BY IDOCK:   -0.52 KCAL/MOL
REMARK 927      BINDING AFFINITY PREDICTED BY RF-SCORE:    0.00 PKD
ROOT
HETATM    1 CL   UNL     1      -8.394  10.009  69.663  1.00  0.00    -0.178 Cl 
HETATM    2  C   UNL     1      -7.869   9.993  68.017  1.00  0.00    -0.089 A  
HETATM    3  C   UNL     1      -7.616  11.198  67.307  1.00  0.00    -0.126 A  
HETATM    4  O   UNL     1      -8.576   8.154  62.744  1.00  0.00    -0.067 OA 
HETATM    5  C   UNL     1      -7.065  11.154  66.014  1.00  0.00     0.061 A  
HETATM    6  C   UNL     1      -7.109   9.942  65.356  1.00  0.00    -0.121 A  
HETATM    7  N   UNL     1      -8.121   7.942  65.023  1.00  0.00    -0.140 NA 
HETATM    8  C   UNL     1      -7.008   9.670  63.886  1.00  0.00    -0.112 C  
HETATM    9  C   UNL     1      -7.897   8.774  67.341  1.00  0.00    -0.098 A  
HETATM   10  C   UNL     1      -7.635   8.819  65.990  1.00  0.00    -0.093 A  
HETATM   11  C   UNL     1      -7.990   8.506  63.753  1.00  0.00    -0.161 C  
ENDROOT
BRANCH   3  12
HETATM   12  C   UNL     1      -8.448  12.432  67.626  1.00  0.00    -0.169 C  
BRANCH  12  13
HETATM   13  C   UNL     1      -9.575  12.913  66.704  1.00  0.00    -0.257 C  
BRANCH  13  14
HETATM   14  N   UNL     1     -10.123  14.170  67.262  1.00  0.00    -0.253 NA 
HETATM   15  N   UNL     1      -9.393  16.734  65.891  1.00  0.00    -0.519 NA 
HETATM   16  C   UNL     1      -9.086  15.122  67.703  1.00  0.00    -0.180 C  
HETATM   17  C   UNL     1     -11.090  14.879  66.396  1.00  0.00    -0.342 C  
HETATM   18  C   UNL     1     -10.593  16.009  65.426  1.00  0.00    -0.408 C  
HETATM   19  C   UNL     1      -8.413  15.846  66.529  1.00  0.00    -0.313 C  
BRANCH  15  20
HETATM   20  C   UNL     1      -9.495  17.995  66.450  1.00  0.00    -0.271 A  
HETATM   21  N   UNL     1     -10.539  18.362  67.181  1.00  0.00    -0.402 NA 
HETATM   22  S   UNL     1     -10.260  19.812  67.905  1.00  0.00    -0.441 SA 
HETATM   23  C   UNL     1      -8.677  20.017  67.282  1.00  0.00    -0.343 A  
HETATM   24  C   UNL     1      -7.773  21.056  67.543  1.00  0.00    -0.136 A  
HETATM   25  C   UNL     1      -6.530  21.020  66.907  1.00  0.00    -0.393 A  
HETATM   26  C   UNL     1      -6.222  19.982  66.038  1.00  0.00    -0.208 A  
HETATM   27  C   UNL     1      -7.119  18.939  65.802  1.00  0.00    -0.274 A  
HETATM   28  C   UNL     1      -8.407  18.952  66.424  1.00  0.00    -0.306 A  
ENDBRANCH  15  20
ENDBRANCH  13  14
ENDBRANCH  12  13
ENDBRANCH   3  12
TORSDOF 4
ENDMDL
MODEL      122
REMARK 921   NORMALIZED FREE ENERGY PREDICTED BY IDOCK:   -5.14 KCAL/MOL
REMARK 922        TOTAL FREE ENERGY PREDICTED BY IDOCK:   -6.86 KCAL/MOL
REMARK 923 INTER-LIGAND FREE ENERGY PREDICTED BY IDOCK:   -6.05 KCAL/MOL
REMARK 924 INTRA-LIGAND FREE ENERGY PREDICTED BY IDOCK:   -0.81 KCAL/MOL
REMARK 927      BINDING AFFINITY PREDICTED BY RF-SCORE:    0.00 PKD
ROOT
HETATM    1 CL   UNL     1      -9.468  15.318  68.579  1.00  0.00    -0.194 Cl 
HETATM    2  C   UNL     1     -10.385  14.511  67.358  1.00  0.00    -0.252 A  
HETATM    3  C   UNL     1     -11.476  13.661  67.689  1.00  0.00    -0.357 A  
HETATM    4  O   UNL     1     -10.496  11.275  62.753  1.00  0.00    -0.098 OA 
HETATM    5  C   UNL     1     -12.285  13.122  66.673  1.00  0.00    -0.331 A  
HETATM    6  C   UNL     1     -11.786  13.165  65.388  1.00  0.00    -0.410 A  
HETATM    7  N   UNL     1     -10.004  13.193  63.989  1.00  0.00    -0.177 NA 
HETATM    8  C   UNL     1     -12.181  12.336  64.202  1.00  0.00    -0.539 C  
HETATM    9  C   UNL     1      -9.902  14.554  66.051  1.00  0.00    -0.342 A  
HETATM   10  C   UNL     1     -10.557  13.767  65.131  1.00  0.00    -0.374 A  
HETATM   11  C   UNL     1     -10.822  12.161  63.525  1.00  0.00    -0.458 C  
ENDROOT
BRANCH   3  12
HETATM   12  C   UNL     1     -11.421  12.860  68.981  1.00  0.00    -0.358 C  
BRANCH  12  13
HETATM   13  C   UNL     1     -11.752  11.363  69.025  1.00  0.00    -0.343 C  
BRANCH  13  14
HETATM   14  N   UNL     1     -10.585  10.648  69.588  1.00  0.00    -0.238 NA 
HETATM   15  N   UNL     1      -9.056   8.827  67.762  1.00  0.00    -0.135 NA 
HETATM   16  C   UNL     1     -10.707   9.179  69.530  1.00  0.00    -0.215 C  
HETATM   17  C   UNL     1      -9.272  11.044  69.032  1.00  0.00    -0.064 C  
HETATM   18  C   UNL     1      -8.658  10.248  67.826  1.00  0.00    -0.118 C  
HETATM   19  C   UNL     1     -10.465   8.623  68.121  1.00  0.00    -0.187 C  
BRANCH  15  20
HETATM   20  C   UNL     1      -8.194   7.826  68.172  1.00  0.00    -0.124 A  
HETATM   21  N   UNL     1      -7.500   7.909  69.299  1.00  0.00    -0.090 NA 
HETATM   22  S   UNL     1      -6.764   6.476  69.634  1.00  0.00    -0.051 SA 
HETATM   23  C   UNL     1      -7.375   5.642  68.268  1.00  0.00    -0.076 A  
HETATM   24  C   UNL     1      -7.194   4.295  67.926  1.00  0.00    -0.064 A  
HETATM   25  C   UNL     1      -7.782   3.833  66.746  1.00  0.00    -0.084 A  
HETATM   26  C   UNL     1      -8.512   4.700  65.945  1.00  0.00    -0.116 A  
HETATM   27  C   UNL     1      -8.706   6.035  66.305  1.00  0.00    -0.138 A  
HETATM   28  C   UNL     1      -8.106   6.546  67.498  1.00  0.00    -0.121 A  
ENDBRANCH  15  20
ENDBRANCH  13  14
ENDBRANCH  12  13
ENDBRANCH   3  12
TORSDOF 4
ENDMDL
MODEL      123
REMARK 921   NORMALIZED FREE ENERGY PREDICTED BY IDOCK:   -5.11 KCAL/MOL
REMARK 922        TOTAL FREE ENERGY PREDICTED BY IDOCK:   -6.83 KCAL/MOL
REMARK 923 INTER-LIGAND FREE ENERGY PREDICTED BY IDOCK:   -6.75 KCAL/MOL
REMARK 924 INTRA-LIGAND FREE ENERGY PREDICTED BY IDOCK:   -0.08 KCAL/MOL
REMARK 927      BINDING AFFINITY PREDICTED BY RF-SCORE:    0.00 PKD
ROOT
HETATM    1 CL   UNL     1      -6.005   8.475  66.655  1.00  0.00    -0.052 Cl 
HETATM    2  C   UNL     1      -7.553   7.830  67.069  1.00  0.00    -0.100 A  
HETATM    3  C   UNL     1      -8.714   8.142  66.309  1.00  0.00    -0.172 A  
HETATM    4  O   UNL     1     -11.510   6.903  70.964  1.00  0.00    -0.279 OA 
HETATM    5  C   UNL     1      -9.934   7.500  66.589  1.00  0.00    -0.270 A  
HETATM    6  C   UNL     1     -10.035   6.851  67.802  1.00  0.00    -0.180 A  
HETATM    7  N   UNL     1      -9.410   6.667  69.973  1.00  0.00    -0.157 NA 
HETATM    8  C   UNL     1     -11.271   6.458  68.554  1.00  0.00    -0.321 C  
HETATM    9  C   UNL     1      -7.671   7.161  68.286  1.00  0.00    -0.120 A  
HETATM   10  C   UNL     1      -8.945   6.805  68.667  1.00  0.00    -0.125 A  
HETATM   11  C   UNL     1     -10.806   6.695  69.990  1.00  0.00    -0.280 C  
ENDROOT
BRANCH   3  12
HETATM   12  C   UNL     1      -8.825   9.513  65.660  1.00  0.00    -0.194 C  
BRANCH  12  13
HETATM   13  C   UNL     1     -10.174  10.101  65.228  1.00  0.00    -0.191 C  
BRANCH  13  14
HETATM   14  N   UNL     1     -10.150  11.556  65.498  1.00  0.00    -0.232 NA 
HETATM   15  N   UNL     1     -10.827  12.467  68.273  1.00  0.00    -0.224 NA 
HETATM   16  C   UNL     1     -11.450  12.097  65.938  1.00  0.00    -0.363 C  
HETATM   17  C   UNL     1      -9.099  12.009  66.436  1.00  0.00    -0.193 C  
HETATM   18  C   UNL     1      -9.419  12.147  67.967  1.00  0.00    -0.201 C  
HETATM   19  C   UNL     1     -11.767  11.753  67.400  1.00  0.00    -0.230 C  
BRANCH  15  20
HETATM   20  C   UNL     1     -11.207  13.751  68.622  1.00  0.00    -0.278 A  
HETATM   21  N   UNL     1     -11.810  14.021  69.772  1.00  0.00    -0.305 NA 
HETATM   22  S   UNL     1     -11.910  15.646  70.006  1.00  0.00    -0.366 SA 
HETATM   23  C   UNL     1     -11.109  16.082  68.556  1.00  0.00    -0.347 A  
HETATM   24  C   UNL     1     -10.775  17.367  68.106  1.00  0.00    -0.343 A  
HETATM   25  C   UNL     1     -10.127  17.482  66.873  1.00  0.00    -0.324 A  
HETATM   26  C   UNL     1      -9.841  16.347  66.128  1.00  0.00    -0.362 A  
HETATM   27  C   UNL     1     -10.157  15.070  66.595  1.00  0.00    -0.267 A  
HETATM   28  C   UNL     1     -10.834  14.915  67.844  1.00  0.00    -0.276 A  
ENDBRANCH  15  20
ENDBRANCH  13  14
ENDBRANCH  12  13
ENDBRANCH   3  12
TORSDOF 4
ENDMDL
MODEL      124
REMARK 921   NORMALIZED FREE ENERGY PREDICTED BY IDOCK:   -5.10 KCAL/MOL
REMARK 922        TOTAL FREE ENERGY PREDICTED BY IDOCK:   -6.81 KCAL/MOL
REMARK 923 INTER-LIGAND FREE ENERGY PREDICTED BY IDOCK:   -7.09 KCAL/MOL
REMARK 924 INTRA-LIGAND FREE ENERGY PREDICTED BY IDOCK:    0.29 KCAL/MOL
REMARK 927      BINDING AFFINITY PREDICTED BY RF-SCORE:    0.00 PKD
ROOT
HETATM    1 CL   UNL     1     -10.153   5.937  66.903  1.00  0.00    -0.201 Cl 
HETATM    2  C   UNL     1     -10.661   6.730  68.351  1.00  0.00    -0.232 A  
HETATM    3  C   UNL     1     -10.615   8.145  68.477  1.00  0.00    -0.142 A  
HETATM    4  O   UNL     1     -10.403   7.171  73.957  1.00  0.00    -0.349 OA 
HETATM    5  C   UNL     1     -11.157   8.770  69.615  1.00  0.00    -0.038 A  
HETATM    6  C   UNL     1     -11.403   7.970  70.711  1.00  0.00    -0.282 A  
HETATM    7  N   UNL     1     -10.902   6.127  71.930  1.00  0.00    -0.239 NA 
HETATM    8  C   UNL     1     -11.563   8.371  72.147  1.00  0.00    -0.442 C  
HETATM    9  C   UNL     1     -10.926   5.935  69.465  1.00  0.00    -0.438 A  
HETATM   10  C   UNL     1     -11.166   6.599  70.647  1.00  0.00    -0.317 A  
HETATM   11  C   UNL     1     -10.890   7.187  72.839  1.00  0.00    -0.323 C  
ENDROOT
BRANCH   3  12
HETATM   12  C   UNL     1      -9.511   8.914  67.767  1.00  0.00    -0.163 C  
BRANCH  12  13
HETATM   13  C   UNL     1      -9.681   9.446  66.338  1.00  0.00    -0.250 C  
BRANCH  13  14
HETATM   14  N   UNL     1      -9.531  10.918  66.374  1.00  0.00    -0.182 NA 
HETATM   15  N   UNL     1     -10.859  12.398  68.618  1.00  0.00    -0.234 NA 
HETATM   16  C   UNL     1     -10.812  11.645  66.292  1.00  0.00    -0.286 C  
HETATM   17  C   UNL     1      -8.749  11.448  67.513  1.00  0.00    -0.140 C  
HETATM   18  C   UNL     1      -9.483  11.903  68.824  1.00  0.00     0.009 C  
HETATM   19  C   UNL     1     -11.592  11.615  67.614  1.00  0.00    -0.279 C  
BRANCH  15  20
HETATM   20  C   UNL     1     -11.139  13.752  68.626  1.00  0.00    -0.267 A  
HETATM   21  N   UNL     1     -11.966  14.297  69.507  1.00  0.00    -0.318 NA 
HETATM   22  S   UNL     1     -11.904  15.939  69.424  1.00  0.00    -0.244 SA 
HETATM   23  C   UNL     1     -10.716  16.006  68.191  1.00  0.00    -0.311 A  
HETATM   24  C   UNL     1     -10.112  17.142  67.634  1.00  0.00    -0.305 A  
HETATM   25  C   UNL     1      -9.168  16.953  66.621  1.00  0.00    -0.278 A  
HETATM   26  C   UNL     1      -8.860  15.672  66.186  1.00  0.00    -0.311 A  
HETATM   27  C   UNL     1      -9.450  14.545  66.762  1.00  0.00    -0.284 A  
HETATM   28  C   UNL     1     -10.432  14.702  67.790  1.00  0.00    -0.246 A  
ENDBRANCH  15  20
ENDBRANCH  13  14
ENDBRANCH  12  13
ENDBRANCH   3  12
TORSDOF 4
ENDMDL
MODEL      125
REMARK 921   NORMALIZED FREE ENERGY PREDICTED BY IDOCK:   -5.06 KCAL/MOL
REMARK 922        TOTAL FREE ENERGY PREDICTED BY IDOCK:   -6.76 KCAL/MOL
REMARK 923 INTER-LIGAND FREE ENERGY PREDICTED BY IDOCK:   -6.48 KCAL/MOL
REMARK 924 INTRA-LIGAND FREE ENERGY PREDICTED BY IDOCK:   -0.28 KCAL/MOL
REMARK 927      BINDING AFFINITY PREDICTED BY RF-SCORE:    0.00 PKD
ROOT
HETATM    1 CL   UNL     1      -6.797   9.899  65.062  1.00  0.00    -0.119 Cl 
HETATM    2  C   UNL     1      -8.145   9.068  65.751  1.00  0.00    -0.109 A  
HETATM    3  C   UNL     1      -9.309   9.766  66.175  1.00  0.00    -0.243 A  
HETATM    4  O   UNL     1     -10.135   5.391  69.520  1.00  0.00    -0.196 OA 
HETATM    5  C   UNL     1     -10.441   9.053  66.610  1.00  0.00    -0.235 A  
HETATM    6  C   UNL     1     -10.258   7.723  66.928  1.00  0.00    -0.373 A  
HETATM    7  N   UNL     1      -8.899   6.063  67.658  1.00  0.00    -0.107 NA 
HETATM    8  C   UNL     1     -11.112   6.840  67.786  1.00  0.00    -0.285 C  
HETATM    9  C   UNL     1      -7.982   7.721  66.068  1.00  0.00    -0.108 A  
HETATM   10  C   UNL     1      -9.010   7.128  66.766  1.00  0.00    -0.137 A  
HETATM   11  C   UNL     1     -10.037   5.991  68.463  1.00  0.00    -0.161 C  
ENDROOT
BRANCH   3  12
HETATM   12  C   UNL     1      -9.164  11.173  66.733  1.00  0.00    -0.183 C  
BRANCH  12  13
HETATM   13  C   UNL     1      -9.728  11.567  68.104  1.00  0.00    -0.192 C  
BRANCH  13  14
HETATM   14  N   UNL     1     -10.447  12.852  67.955  1.00  0.00    -0.219 NA 
HETATM   15  N   UNL     1      -9.054  15.065  66.488  1.00  0.00    -0.279 NA 
HETATM   16  C   UNL     1      -9.751  13.995  68.573  1.00  0.00    -0.215 C  
HETATM   17  C   UNL     1     -10.823  13.210  66.569  1.00  0.00    -0.280 C  
HETATM   18  C   UNL     1      -9.872  14.115  65.707  1.00  0.00    -0.271 C  
HETATM   19  C   UNL     1      -8.557  14.479  67.740  1.00  0.00    -0.175 C  
BRANCH  15  20
HETATM   20  C   UNL     1      -9.390  16.405  66.559  1.00  0.00    -0.273 A  
HETATM   21  N   UNL     1     -10.601  16.812  66.914  1.00  0.00    -0.266 NA 
HETATM   22  S   UNL     1     -10.622  18.440  67.144  1.00  0.00    -0.341 SA 
HETATM   23  C   UNL     1      -8.963  18.687  66.797  1.00  0.00    -0.297 A  
HETATM   24  C   UNL     1      -8.237  19.885  66.856  1.00  0.00    -0.358 A  
HETATM   25  C   UNL     1      -6.883  19.848  66.514  1.00  0.00    -0.235 A  
HETATM   26  C   UNL     1      -6.295  18.654  66.121  1.00  0.00    -0.234 A  
HETATM   27  C   UNL     1      -7.020  17.461  66.088  1.00  0.00    -0.298 A  
HETATM   28  C   UNL     1      -8.412  17.465  66.416  1.00  0.00    -0.292 A  
ENDBRANCH  15  20
ENDBRANCH  13  14
ENDBRANCH  12  13
ENDBRANCH   3  12
TORSDOF 4
ENDMDL
MODEL      126
REMARK 921   NORMALIZED FREE ENERGY PREDICTED BY IDOCK:   -5.03 KCAL/MOL
REMARK 922        TOTAL FREE ENERGY PREDICTED BY IDOCK:   -6.73 KCAL/MOL
REMARK 923 INTER-LIGAND FREE ENERGY PREDICTED BY IDOCK:   -6.98 KCAL/MOL
REMARK 924 INTRA-LIGAND FREE ENERGY PREDICTED BY IDOCK:    0.25 KCAL/MOL
REMARK 927      BINDING AFFINITY PREDICTED BY RF-SCORE:    0.00 PKD
ROOT
HETATM    1 CL   UNL     1      -8.544   8.306  68.046  1.00  0.00    -0.131 Cl 
HETATM    2  C   UNL     1      -8.269   7.643  66.475  1.00  0.00    -0.125 A  
HETATM    3  C   UNL     1      -8.284   8.461  65.312  1.00  0.00    -0.151 A  
HETATM    4  O   UNL     1      -9.496   3.751  62.597  1.00  0.00    -0.099 OA 
HETATM    5  C   UNL     1      -7.928   7.918  64.063  1.00  0.00    -0.124 A  
HETATM    6  C   UNL     1      -7.909   6.543  63.961  1.00  0.00    -0.108 A  
HETATM    7  N   UNL     1      -8.687   4.527  64.644  1.00  0.00    -0.141 NA 
HETATM    8  C   UNL     1      -7.990   5.695  62.728  1.00  0.00    -0.098 C  
HETATM    9  C   UNL     1      -8.235   6.255  66.355  1.00  0.00    -0.114 A  
HETATM   10  C   UNL     1      -8.183   5.753  65.074  1.00  0.00    -0.137 A  
HETATM   11  C   UNL     1      -8.819   4.524  63.254  1.00  0.00    -0.132 C  
ENDROOT
BRANCH   3  12
HETATM   12  C   UNL     1      -9.214   9.663  65.266  1.00  0.00    -0.295 C  
BRANCH  12  13
HETATM   13  C   UNL     1      -8.880  10.978  65.981  1.00  0.00    -0.191 C  
BRANCH  13  14
HETATM   14  N   UNL     1      -9.686  11.049  67.220  1.00  0.00    -0.165 NA 
HETATM   15  N   UNL     1     -11.025  13.653  67.862  1.00  0.00    -0.254 NA 
HETATM   16  C   UNL     1      -9.203  12.055  68.183  1.00  0.00    -0.195 C  
HETATM   17  C   UNL     1     -11.140  11.234  67.019  1.00  0.00    -0.293 C  
HETATM   18  C   UNL     1     -11.755  12.679  67.026  1.00  0.00    -0.369 C  
HETATM   19  C   UNL     1      -9.569  13.488  67.772  1.00  0.00    -0.219 C  
BRANCH  15  20
HETATM   20  C   UNL     1     -11.500  14.021  69.107  1.00  0.00    -0.296 A  
HETATM   21  N   UNL     1     -11.660  15.290  69.456  1.00  0.00    -0.300 NA 
HETATM   22  S   UNL     1     -12.464  15.403  70.886  1.00  0.00    -0.449 SA 
HETATM   23  C   UNL     1     -12.668  13.716  71.105  1.00  0.00    -0.353 A  
HETATM   24  C   UNL     1     -13.349  13.055  72.137  1.00  0.00    -0.622 A  
HETATM   25  C   UNL     1     -13.374  11.658  72.116  1.00  0.00    -0.310 A  
HETATM   26  C   UNL     1     -12.729  10.965  71.101  1.00  0.00    -0.530 A  
HETATM   27  C   UNL     1     -12.073  11.632  70.066  1.00  0.00    -0.395 A  
HETATM   28  C   UNL     1     -12.013  13.061  70.064  1.00  0.00    -0.383 A  
ENDBRANCH  15  20
ENDBRANCH  13  14
ENDBRANCH  12  13
ENDBRANCH   3  12
TORSDOF 4
ENDMDL
MODEL      127
REMARK 921   NORMALIZED FREE ENERGY PREDICTED BY IDOCK:   -5.00 KCAL/MOL
REMARK 922        TOTAL FREE ENERGY PREDICTED BY IDOCK:   -6.69 KCAL/MOL
REMARK 923 INTER-LIGAND FREE ENERGY PREDICTED BY IDOCK:   -6.17 KCAL/MOL
REMARK 924 INTRA-LIGAND FREE ENERGY PREDICTED BY IDOCK:   -0.52 KCAL/MOL
REMARK 927      BINDING AFFINITY PREDICTED BY RF-SCORE:    0.00 PKD
ROOT
HETATM    1 CL   UNL     1     -12.316  13.949  71.076  1.00  0.00    -0.437 Cl 
HETATM    2  C   UNL     1     -11.877  14.573  69.525  1.00  0.00    -0.329 A  
HETATM    3  C   UNL     1     -11.995  13.785  68.348  1.00  0.00    -0.395 A  
HETATM    4  O   UNL     1      -8.097  17.173  66.264  1.00  0.00    -0.276 OA 
HETATM    5  C   UNL     1     -11.756  14.360  67.087  1.00  0.00    -0.424 A  
HETATM    6  C   UNL     1     -11.089  15.567  67.066  1.00  0.00    -0.238 A  
HETATM    7  N   UNL     1      -9.616  16.997  68.027  1.00  0.00    -0.254 NA 
HETATM    8  C   UNL     1     -10.336  16.202  65.936  1.00  0.00    -0.384 C  
HETATM    9  C   UNL     1     -11.213  15.798  69.485  1.00  0.00    -0.317 A  
HETATM   10  C   UNL     1     -10.728  16.190  68.258  1.00  0.00    -0.307 A  
HETATM   11  C   UNL     1      -9.189  16.858  66.704  1.00  0.00    -0.256 C  
ENDROOT
BRANCH   3  12
HETATM   12  C   UNL     1     -11.772  12.283  68.440  1.00  0.00    -0.390 C  
BRANCH  12  13
HETATM   13  C   UNL     1     -10.369  11.674  68.555  1.00  0.00    -0.212 C  
BRANCH  13  14
HETATM   14  N   UNL     1     -10.509  10.201  68.609  1.00  0.00    -0.192 NA 
HETATM   15  N   UNL     1      -8.621   8.564  66.953  1.00  0.00    -0.115 NA 
HETATM   16  C   UNL     1     -10.813   9.588  67.303  1.00  0.00    -0.118 C  
HETATM   17  C   UNL     1      -9.373   9.481  69.227  1.00  0.00    -0.169 C  
HETATM   18  C   UNL     1      -8.213   8.926  68.326  1.00  0.00    -0.121 C  
HETATM   19  C   UNL     1      -9.585   9.515  66.386  1.00  0.00    -0.213 C  
BRANCH  15  20
HETATM   20  C   UNL     1      -8.816   7.243  66.592  1.00  0.00    -0.139 A  
HETATM   21  N   UNL     1      -9.747   6.486  67.157  1.00  0.00    -0.136 NA 
HETATM   22  S   UNL     1      -9.900   5.058  66.355  1.00  0.00    -0.224 SA 
HETATM   23  C   UNL     1      -8.716   5.399  65.164  1.00  0.00    -0.133 A  
HETATM   24  C   UNL     1      -8.341   4.610  64.068  1.00  0.00    -0.120 A  
HETATM   25  C   UNL     1      -7.333   5.090  63.229  1.00  0.00    -0.049 A  
HETATM   26  C   UNL     1      -6.727   6.311  63.495  1.00  0.00    -0.040 A  
HETATM   27  C   UNL     1      -7.123   7.100  64.576  1.00  0.00    -0.058 A  
HETATM   28  C   UNL     1      -8.140   6.632  65.465  1.00  0.00    -0.124 A  
ENDBRANCH  15  20
ENDBRANCH  13  14
ENDBRANCH  12  13
ENDBRANCH   3  12
TORSDOF 4
ENDMDL
MODEL      128
REMARK 921   NORMALIZED FREE ENERGY PREDICTED BY IDOCK:   -4.99 KCAL/MOL
REMARK 922        TOTAL FREE ENERGY PREDICTED BY IDOCK:   -6.68 KCAL/MOL
REMARK 923 INTER-LIGAND FREE ENERGY PREDICTED BY IDOCK:   -6.50 KCAL/MOL
REMARK 924 INTRA-LIGAND FREE ENERGY PREDICTED BY IDOCK:   -0.18 KCAL/MOL
REMARK 927      BINDING AFFINITY PREDICTED BY RF-SCORE:    0.00 PKD
ROOT
HETATM    1 CL   UNL     1     -11.832  15.832  70.540  1.00  0.00    -0.373 Cl 
HETATM    2  C   UNL     1     -10.811  16.207  69.198  1.00  0.00    -0.298 A  
HETATM    3  C   UNL     1     -11.123  15.767  67.883  1.00  0.00    -0.326 A  
HETATM    4  O   UNL     1      -5.661  16.287  66.927  1.00  0.00    -0.347 OA 
HETATM    5  C   UNL     1     -10.346  16.197  66.791  1.00  0.00    -0.291 A  
HETATM    6  C   UNL     1      -9.116  16.750  67.079  1.00  0.00    -0.239 A  
HETATM    7  N   UNL     1      -7.318  16.900  68.451  1.00  0.00    -0.192 NA 
HETATM    8  C   UNL     1      -7.925  16.904  66.181  1.00  0.00    -0.290 C  
HETATM    9  C   UNL     1      -9.569  16.778  69.469  1.00  0.00     0.107 A  
HETATM   10  C   UNL     1      -8.711  16.912  68.401  1.00  0.00    -0.244 A  
HETATM   11  C   UNL     1      -6.795  16.657  67.180  1.00  0.00    -0.188 C  
ENDROOT
BRANCH   3  12
HETATM   12  C   UNL     1     -11.836  14.436  67.699  1.00  0.00    -0.412 C  
BRANCH  12  13
HETATM   13  C   UNL     1     -12.033  13.802  66.316  1.00  0.00    -0.429 C  
BRANCH  13  14
HETATM   14  N   UNL     1     -12.012  12.331  66.475  1.00  0.00    -0.626 NA 
HETATM   15  N   UNL     1      -9.375  11.036  67.076  1.00  0.00    -0.170 NA 
HETATM   16  C   UNL     1     -11.143  11.644  65.501  1.00  0.00    -0.237 C  
HETATM   17  C   UNL     1     -11.687  11.846  67.835  1.00  0.00    -0.298 C  
HETATM   18  C   UNL     1     -10.203  11.497  68.210  1.00  0.00    -0.196 C  
HETATM   19  C   UNL     1      -9.653  11.780  65.841  1.00  0.00    -0.230 C  
BRANCH  15  20
HETATM   20  C   UNL     1      -9.087   9.695  66.902  1.00  0.00    -0.138 A  
HETATM   21  N   UNL     1      -8.932   9.155  65.701  1.00  0.00    -0.190 NA 
HETATM   22  S   UNL     1      -8.358   7.619  65.823  1.00  0.00    -0.145 SA 
HETATM   23  C   UNL     1      -8.258   7.606  67.534  1.00  0.00    -0.121 A  
HETATM   24  C   UNL     1      -7.773   6.585  68.363  1.00  0.00    -0.105 A  
HETATM   25  C   UNL     1      -7.801   6.793  69.744  1.00  0.00    -0.115 A  
HETATM   26  C   UNL     1      -8.307   7.979  70.260  1.00  0.00    -0.125 A  
HETATM   27  C   UNL     1      -8.766   8.999  69.426  1.00  0.00    -0.142 A  
HETATM   28  C   UNL     1      -8.767   8.814  68.008  1.00  0.00    -0.141 A  
ENDBRANCH  15  20
ENDBRANCH  13  14
ENDBRANCH  12  13
ENDBRANCH   3  12
TORSDOF 4
ENDMDL
MODEL      129
REMARK 921   NORMALIZED FREE ENERGY PREDICTED BY IDOCK:   -4.99 KCAL/MOL
REMARK 922        TOTAL FREE ENERGY PREDICTED BY IDOCK:   -6.68 KCAL/MOL
REMARK 923 INTER-LIGAND FREE ENERGY PREDICTED BY IDOCK:   -6.68 KCAL/MOL
REMARK 924 INTRA-LIGAND FREE ENERGY PREDICTED BY IDOCK:    0.00 KCAL/MOL
REMARK 927      BINDING AFFINITY PREDICTED BY RF-SCORE:    0.00 PKD
ROOT
HETATM    1 CL   UNL     1     -12.214  13.746  68.277  1.00  0.00    -0.299 Cl 
HETATM    2  C   UNL     1     -11.528  15.190  67.621  1.00  0.00    -0.309 A  
HETATM    3  C   UNL     1     -10.927  15.206  66.333  1.00  0.00    -0.329 A  
HETATM    4  O   UNL     1      -8.106  19.617  68.231  1.00  0.00    -0.320 OA 
HETATM    5  C   UNL     1     -10.496  16.422  65.771  1.00  0.00    -0.369 A  
HETATM    6  C   UNL     1     -10.363  17.495  66.627  1.00  0.00    -0.319 A  
HETATM    7  N   UNL     1      -9.962  18.286  68.712  1.00  0.00    -0.376 NA 
HETATM    8  C   UNL     1      -9.557  18.745  66.444  1.00  0.00    -0.354 C  
HETATM    9  C   UNL     1     -11.398  16.288  68.469  1.00  0.00    -0.330 A  
HETATM   10  C   UNL     1     -10.700  17.365  67.972  1.00  0.00    -0.359 A  
HETATM   11  C   UNL     1      -9.082  18.979  67.878  1.00  0.00    -0.299 C  
ENDROOT
BRANCH   3  12
HETATM   12  C   UNL     1     -10.209  13.961  65.837  1.00  0.00    -0.326 C  
BRANCH  12  13
HETATM   13  C   UNL     1      -9.118  13.268  66.662  1.00  0.00    -0.171 C  
BRANCH  13  14
HETATM   14  N   UNL     1      -9.453  11.829  66.754  1.00  0.00    -0.188 NA 
HETATM   15  N   UNL     1      -7.436  10.010  68.025  1.00  0.00    -0.087 NA 
HETATM   16  C   UNL     1      -8.504  10.954  66.039  1.00  0.00    -0.167 C  
HETATM   17  C   UNL     1      -9.644  11.310  68.126  1.00  0.00    -0.186 C  
HETATM   18  C   UNL     1      -8.440  10.658  68.894  1.00  0.00    -0.154 C  
HETATM   19  C   UNL     1      -7.182  10.774  66.797  1.00  0.00    -0.128 C  
BRANCH  15  20
HETATM   20  C   UNL     1      -7.398   8.636  67.881  1.00  0.00    -0.092 A  
HETATM   21  N   UNL     1      -6.306   7.929  68.137  1.00  0.00    -0.049 NA 
HETATM   22  S   UNL     1      -6.638   6.318  68.115  1.00  0.00    -0.068 SA 
HETATM   23  C   UNL     1      -8.309   6.489  67.779  1.00  0.00    -0.119 A  
HETATM   24  C   UNL     1      -9.278   5.480  67.674  1.00  0.00    -0.112 A  
HETATM   25  C   UNL     1     -10.589   5.859  67.378  1.00  0.00    -0.356 A  
HETATM   26  C   UNL     1     -10.902   7.198  67.189  1.00  0.00    -0.403 A  
HETATM   27  C   UNL     1      -9.937   8.197  67.318  1.00  0.00    -0.283 A  
HETATM   28  C   UNL     1      -8.580   7.845  67.604  1.00  0.00    -0.127 A  
ENDBRANCH  15  20
ENDBRANCH  13  14
ENDBRANCH  12  13
ENDBRANCH   3  12
TORSDOF 4
ENDMDL
MODEL      130
REMARK 921   NORMALIZED FREE ENERGY PREDICTED BY IDOCK:   -4.97 KCAL/MOL
REMARK 922        TOTAL FREE ENERGY PREDICTED BY IDOCK:   -6.65 KCAL/MOL
REMARK 923 INTER-LIGAND FREE ENERGY PREDICTED BY IDOCK:   -6.35 KCAL/MOL
REMARK 924 INTRA-LIGAND FREE ENERGY PREDICTED BY IDOCK:   -0.30 KCAL/MOL
REMARK 927      BINDING AFFINITY PREDICTED BY RF-SCORE:    0.00 PKD
ROOT
HETATM    1 CL   UNL     1      -6.547   7.815  66.364  1.00  0.00    -0.049 Cl 
HETATM    2  C   UNL     1      -7.482   6.482  66.942  1.00  0.00    -0.084 A  
HETATM    3  C   UNL     1      -8.649   6.680  67.728  1.00  0.00    -0.121 A  
HETATM    4  O   UNL     1      -7.688   1.523  69.599  1.00  0.00    -0.042 OA 
HETATM    5  C   UNL     1      -9.463   5.585  68.073  1.00  0.00    -0.129 A  
HETATM    6  C   UNL     1      -8.915   4.328  67.925  1.00  0.00    -0.144 A  
HETATM    7  N   UNL     1      -7.085   2.991  67.888  1.00  0.00    -0.049 NA 
HETATM    8  C   UNL     1      -9.332   3.043  68.573  1.00  0.00    -0.243 C  
HETATM    9  C   UNL     1      -6.948   5.203  66.790  1.00  0.00    -0.064 A  
HETATM   10  C   UNL     1      -7.632   4.178  67.405  1.00  0.00    -0.076 A  
HETATM   11  C   UNL     1      -7.968   2.386  68.784  1.00  0.00    -0.052 C  
ENDROOT
BRANCH   3  12
HETATM   12  C   UNL     1      -8.708   7.868  68.676  1.00  0.00    -0.128 C  
BRANCH  12  13
HETATM   13  C   UNL     1      -9.973   8.212  69.472  1.00  0.00    -0.187 C  
BRANCH  13  14
HETATM   14  N   UNL     1      -9.942   9.658  69.787  1.00  0.00    -0.212 NA 
HETATM   15  N   UNL     1     -11.946  11.422  68.425  1.00  0.00    -0.590 NA 
HETATM   16  C   UNL     1      -9.685  10.513  68.613  1.00  0.00    -0.173 C  
HETATM   17  C   UNL     1     -11.126  10.174  70.509  1.00  0.00    -0.327 C  
HETATM   18  C   UNL     1     -12.325  10.795  69.707  1.00  0.00    -0.236 C  
HETATM   19  C   UNL     1     -10.916  10.658  67.709  1.00  0.00    -0.306 C  
BRANCH  15  20
HETATM   20  C   UNL     1     -11.849  12.797  68.304  1.00  0.00    -0.312 A  
HETATM   21  N   UNL     1     -11.790  13.596  69.361  1.00  0.00    -0.319 NA 
HETATM   22  S   UNL     1     -11.431  15.135  68.906  1.00  0.00    -0.340 SA 
HETATM   23  C   UNL     1     -11.307  14.797  67.231  1.00  0.00    -0.357 A  
HETATM   24  C   UNL     1     -10.955  15.675  66.196  1.00  0.00    -0.206 A  
HETATM   25  C   UNL     1     -10.932  15.175  64.892  1.00  0.00    -0.434 A  
HETATM   26  C   UNL     1     -11.260  13.849  64.648  1.00  0.00    -0.380 A  
HETATM   27  C   UNL     1     -11.587  12.976  65.687  1.00  0.00    -0.391 A  
HETATM   28  C   UNL     1     -11.637  13.458  67.032  1.00  0.00    -0.396 A  
ENDBRANCH  15  20
ENDBRANCH  13  14
ENDBRANCH  12  13
ENDBRANCH   3  12
TORSDOF 4
ENDMDL
MODEL      131
REMARK 921   NORMALIZED FREE ENERGY PREDICTED BY IDOCK:   -4.94 KCAL/MOL
REMARK 922        TOTAL FREE ENERGY PREDICTED BY IDOCK:   -6.62 KCAL/MOL
REMARK 923 INTER-LIGAND FREE ENERGY PREDICTED BY IDOCK:   -6.62 KCAL/MOL
REMARK 924 INTRA-LIGAND FREE ENERGY PREDICTED BY IDOCK:   -0.01 KCAL/MOL
REMARK 927      BINDING AFFINITY PREDICTED BY RF-SCORE:    0.00 PKD
ROOT
HETATM    1 CL   UNL     1     -11.843   6.516  70.097  1.00  0.00    -0.437 Cl 
HETATM    2  C   UNL     1     -10.352   6.135  69.312  1.00  0.00    -0.221 A  
HETATM    3  C   UNL     1      -9.723   7.054  68.427  1.00  0.00    -0.139 A  
HETATM    4  O   UNL     1      -7.298   2.546  66.234  1.00  0.00    -0.064 OA 
HETATM    5  C   UNL     1      -8.447   6.771  67.906  1.00  0.00    -0.119 A  
HETATM    6  C   UNL     1      -8.007   5.468  68.003  1.00  0.00    -0.096 A  
HETATM    7  N   UNL     1      -8.478   3.255  68.119  1.00  0.00    -0.082 NA 
HETATM    8  C   UNL     1      -6.940   4.779  67.207  1.00  0.00    -0.061 C  
HETATM    9  C   UNL     1      -9.885   4.826  69.410  1.00  0.00    -0.282 A  
HETATM   10  C   UNL     1      -8.788   4.509  68.641  1.00  0.00    -0.102 A  
HETATM   11  C   UNL     1      -7.547   3.382  67.086  1.00  0.00    -0.078 C  
ENDROOT
BRANCH   3  12
HETATM   12  C   UNL     1     -10.590   7.977  67.584  1.00  0.00    -0.264 C  
BRANCH  12  13
HETATM   13  C   UNL     1     -10.035   8.722  66.364  1.00  0.00    -0.275 C  
BRANCH  13  14
HETATM   14  N   UNL     1      -9.592  10.064  66.805  1.00  0.00    -0.174 NA 
HETATM   15  N   UNL     1     -11.381  12.391  66.192  1.00  0.00    -0.333 NA 
HETATM   16  C   UNL     1      -9.416  11.022  65.697  1.00  0.00    -0.217 C  
HETATM   17  C   UNL     1     -10.424  10.691  67.856  1.00  0.00    -0.208 C  
HETATM   18  C   UNL     1     -11.593  11.660  67.458  1.00  0.00    -0.272 C  
HETATM   19  C   UNL     1     -10.752  11.555  65.161  1.00  0.00    -0.289 C  
BRANCH  15  20
HETATM   20  C   UNL     1     -10.993  13.718  66.191  1.00  0.00    -0.292 A  
HETATM   21  N   UNL     1     -10.860  14.414  65.070  1.00  0.00    -0.382 NA 
HETATM   22  S   UNL     1     -10.632  16.009  65.400  1.00  0.00    -0.368 SA 
HETATM   23  C   UNL     1     -10.729  15.850  67.103  1.00  0.00    -0.301 A  
HETATM   24  C   UNL     1     -10.675  16.863  68.071  1.00  0.00    -0.364 A  
HETATM   25  C   UNL     1     -10.763  16.493  69.415  1.00  0.00    -0.330 A  
HETATM   26  C   UNL     1     -10.890  15.155  69.761  1.00  0.00    -0.298 A  
HETATM   27  C   UNL     1     -10.965  14.154  68.791  1.00  0.00    -0.275 A  
HETATM   28  C   UNL     1     -10.863  14.496  67.406  1.00  0.00    -0.291 A  
ENDBRANCH  15  20
ENDBRANCH  13  14
ENDBRANCH  12  13
ENDBRANCH   3  12
TORSDOF 4
ENDMDL
MODEL      132
REMARK 921   NORMALIZED FREE ENERGY PREDICTED BY IDOCK:   -4.91 KCAL/MOL
REMARK 922        TOTAL FREE ENERGY PREDICTED BY IDOCK:   -6.58 KCAL/MOL
REMARK 923 INTER-LIGAND FREE ENERGY PREDICTED BY IDOCK:   -6.26 KCAL/MOL
REMARK 924 INTRA-LIGAND FREE ENERGY PREDICTED BY IDOCK:   -0.33 KCAL/MOL
REMARK 927      BINDING AFFINITY PREDICTED BY RF-SCORE:    0.00 PKD
ROOT
HETATM    1 CL   UNL     1      -7.280   7.663  73.194  1.00  0.00    -0.092 Cl 
HETATM    2  C   UNL     1      -8.827   7.357  72.489  1.00  0.00    -0.128 A  
HETATM    3  C   UNL     1      -8.953   6.841  71.170  1.00  0.00    -0.147 A  
HETATM    4  O   UNL     1     -14.010   9.172  71.251  1.00  0.00    -0.302 OA 
HETATM    5  C   UNL     1     -10.218   6.478  70.671  1.00  0.00    -0.220 A  
HETATM    6  C   UNL     1     -11.318   6.954  71.353  1.00  0.00    -0.308 A  
HETATM    7  N   UNL     1     -12.262   8.544  72.664  1.00  0.00    -0.326 NA 
HETATM    8  C   UNL     1     -12.728   7.106  70.865  1.00  0.00    -0.225 C  
HETATM    9  C   UNL     1      -9.952   7.821  73.170  1.00  0.00    -0.374 A  
HETATM   10  C   UNL     1     -11.154   7.713  72.509  1.00  0.00    -0.336 A  
HETATM   11  C   UNL     1     -13.128   8.397  71.579  1.00  0.00    -0.296 C  
ENDROOT
BRANCH   3  12
HETATM   12  C   UNL     1      -7.919   7.228  70.124  1.00  0.00    -0.112 C  
BRANCH  12  13
HETATM   13  C   UNL     1      -8.241   7.233  68.625  1.00  0.00    -0.125 C  
BRANCH  13  14
HETATM   14  N   UNL     1      -8.099   8.620  68.127  1.00  0.00    -0.114 NA 
HETATM   15  N   UNL     1     -10.591  10.266  67.864  1.00  0.00    -0.220 NA 
HETATM   16  C   UNL     1      -8.837   8.878  66.877  1.00  0.00    -0.127 C  
HETATM   17  C   UNL     1      -8.425   9.680  69.106  1.00  0.00    -0.143 C  
HETATM   18  C   UNL     1      -9.874  10.284  69.155  1.00  0.00    -0.216 C  
HETATM   19  C   UNL     1     -10.347   9.033  67.105  1.00  0.00    -0.272 C  
BRANCH  15  20
HETATM   20  C   UNL     1     -10.714  11.412  67.100  1.00  0.00    -0.249 A  
HETATM   21  N   UNL     1     -11.860  11.764  66.532  1.00  0.00    -0.515 NA 
HETATM   22  S   UNL     1     -11.756  13.281  65.906  1.00  0.00    -0.386 SA 
HETATM   23  C   UNL     1     -10.139  13.563  66.398  1.00  0.00    -0.294 A  
HETATM   24  C   UNL     1      -9.380  14.731  66.242  1.00  0.00    -0.310 A  
HETATM   25  C   UNL     1      -8.066  14.727  66.716  1.00  0.00     0.037 A  
HETATM   26  C   UNL     1      -7.543  13.587  67.311  1.00  0.00    -0.074 A  
HETATM   27  C   UNL     1      -8.314  12.436  67.483  1.00  0.00    -0.173 A  
HETATM   28  C   UNL     1      -9.658  12.400  66.996  1.00  0.00    -0.211 A  
ENDBRANCH  15  20
ENDBRANCH  13  14
ENDBRANCH  12  13
ENDBRANCH   3  12
TORSDOF 4
ENDMDL
MODEL      133
REMARK 921   NORMALIZED FREE ENERGY PREDICTED BY IDOCK:   -4.91 KCAL/MOL
REMARK 922        TOTAL FREE ENERGY PREDICTED BY IDOCK:   -6.58 KCAL/MOL
REMARK 923 INTER-LIGAND FREE ENERGY PREDICTED BY IDOCK:   -6.34 KCAL/MOL
REMARK 924 INTRA-LIGAND FREE ENERGY PREDICTED BY IDOCK:   -0.23 KCAL/MOL
REMARK 927      BINDING AFFINITY PREDICTED BY RF-SCORE:    0.00 PKD
ROOT
HETATM    1 CL   UNL     1     -11.295   9.414  71.292  1.00  0.00    -0.405 Cl 
HETATM    2  C   UNL     1     -10.550   7.959  71.852  1.00  0.00    -0.231 A  
HETATM    3  C   UNL     1      -9.312   7.508  71.319  1.00  0.00    -0.157 A  
HETATM    4  O   UNL     1     -10.959   2.470  73.028  1.00  0.00    -0.143 OA 
HETATM    5  C   UNL     1      -8.664   6.394  71.884  1.00  0.00    -0.134 A  
HETATM    6  C   UNL     1      -9.418   5.583  72.707  1.00  0.00    -0.160 A  
HETATM    7  N   UNL     1     -11.438   4.739  73.292  1.00  0.00    -0.330 NA 
HETATM    8  C   UNL     1      -9.169   4.158  73.100  1.00  0.00    -0.123 C  
HETATM    9  C   UNL     1     -11.293   7.134  72.694  1.00  0.00    -0.306 A  
HETATM   10  C   UNL     1     -10.742   5.907  72.990  1.00  0.00    -0.256 A  
HETATM   11  C   UNL     1     -10.603   3.630  73.140  1.00  0.00    -0.180 C  
ENDROOT
BRANCH   3  12
HETATM   12  C   UNL     1      -8.993   7.783  69.857  1.00  0.00    -0.146 C  
BRANCH  12  13
HETATM   13  C   UNL     1     -10.063   7.703  68.762  1.00  0.00    -0.194 C  
BRANCH  13  14
HETATM   14  N   UNL     1      -9.658   8.597  67.654  1.00  0.00    -0.151 NA 
HETATM   15  N   UNL     1     -10.043  11.546  68.034  1.00  0.00    -0.181 NA 
HETATM   16  C   UNL     1     -10.766   9.403  67.108  1.00  0.00    -0.163 C  
HETATM   17  C   UNL     1      -8.514   9.489  67.947  1.00  0.00    -0.119 C  
HETATM   18  C   UNL     1      -8.770  10.944  68.480  1.00  0.00    -0.153 C  
HETATM   19  C   UNL     1     -11.146  10.577  68.019  1.00  0.00    -0.300 C  
BRANCH  15  20
HETATM   20  C   UNL     1     -10.071  12.485  67.020  1.00  0.00    -0.216 A  
HETATM   21  N   UNL     1     -10.219  12.144  65.746  1.00  0.00    -0.247 NA 
HETATM   22  S   UNL     1     -10.461  13.477  64.813  1.00  0.00    -0.399 SA 
HETATM   23  C   UNL     1     -10.406  14.605  66.102  1.00  0.00    -0.300 A  
HETATM   24  C   UNL     1     -10.602  15.992  66.046  1.00  0.00    -0.324 A  
HETATM   25  C   UNL     1     -10.496  16.718  67.234  1.00  0.00    -0.310 A  
HETATM   26  C   UNL     1     -10.195  16.068  68.423  1.00  0.00    -0.236 A  
HETATM   27  C   UNL     1     -10.024  14.684  68.474  1.00  0.00    -0.235 A  
HETATM   28  C   UNL     1     -10.110  13.911  67.274  1.00  0.00    -0.242 A  
ENDBRANCH  15  20
ENDBRANCH  13  14
ENDBRANCH  12  13
ENDBRANCH   3  12
TORSDOF 4
ENDMDL
MODEL      134
REMARK 921   NORMALIZED FREE ENERGY PREDICTED BY IDOCK:   -4.90 KCAL/MOL
REMARK 922        TOTAL FREE ENERGY PREDICTED BY IDOCK:   -6.57 KCAL/MOL
REMARK 923 INTER-LIGAND FREE ENERGY PREDICTED BY IDOCK:   -6.51 KCAL/MOL
REMARK 924 INTRA-LIGAND FREE ENERGY PREDICTED BY IDOCK:   -0.06 KCAL/MOL
REMARK 927      BINDING AFFINITY PREDICTED BY RF-SCORE:    0.00 PKD
ROOT
HETATM    1 CL   UNL     1     -12.423  12.151  63.903  1.00  0.00    -0.590 Cl 
HETATM    2  C   UNL     1     -11.530  12.874  65.193  1.00  0.00    -0.313 A  
HETATM    3  C   UNL     1     -10.329  12.291  65.681  1.00  0.00    -0.287 A  
HETATM    4  O   UNL     1     -11.458  15.059  70.380  1.00  0.00    -0.252 OA 
HETATM    5  C   UNL     1      -9.555  12.969  66.640  1.00  0.00    -0.259 A  
HETATM    6  C   UNL     1     -10.163  14.006  67.316  1.00  0.00    -0.260 A  
HETATM    7  N   UNL     1     -12.051  14.963  68.125  1.00  0.00    -0.181 NA 
HETATM    8  C   UNL     1      -9.783  14.619  68.630  1.00  0.00    -0.220 C  
HETATM    9  C   UNL     1     -12.126  13.931  65.879  1.00  0.00    -0.459 A  
HETATM   10  C   UNL     1     -11.469  14.377  67.003  1.00  0.00    -0.361 A  
HETATM   11  C   UNL     1     -11.167  14.918  69.204  1.00  0.00    -0.279 C  
ENDROOT
BRANCH   3  12
HETATM   12  C   UNL     1     -10.184  10.777  65.669  1.00  0.00    -0.320 C  
BRANCH  12  13
HETATM   13  C   UNL     1     -10.814   9.891  66.751  1.00  0.00    -0.015 C  
BRANCH  13  14
HETATM   14  N   UNL     1      -9.822   8.865  67.142  1.00  0.00    -0.189 NA 
HETATM   15  N   UNL     1     -10.677   6.792  69.133  1.00  0.00    -0.237 NA 
HETATM   16  C   UNL     1      -9.507   8.867  68.583  1.00  0.00    -0.151 C  
HETATM   17  C   UNL     1     -10.142   7.483  66.722  1.00  0.00    -0.243 C  
HETATM   18  C   UNL     1     -10.909   6.523  67.699  1.00  0.00    -0.337 C  
HETATM   19  C   UNL     1     -10.616   8.229  69.430  1.00  0.00    -0.196 C  
BRANCH  15  20
HETATM   20  C   UNL     1      -9.822   6.000  69.878  1.00  0.00    -0.170 A  
HETATM   21  N   UNL     1      -9.383   6.367  71.074  1.00  0.00    -0.164 NA 
HETATM   22  S   UNL     1      -8.594   5.124  71.809  1.00  0.00    -0.131 SA 
HETATM   23  C   UNL     1      -8.829   3.995  70.542  1.00  0.00    -0.083 A  
HETATM   24  C   UNL     1      -8.451   2.645  70.506  1.00  0.00    -0.090 A  
HETATM   25  C   UNL     1      -8.738   1.914  69.351  1.00  0.00    -0.114 A  
HETATM   26  C   UNL     1      -9.372   2.527  68.278  1.00  0.00    -0.262 A  
HETATM   27  C   UNL     1      -9.766   3.865  68.332  1.00  0.00    -0.115 A  
HETATM   28  C   UNL     1      -9.473   4.648  69.492  1.00  0.00    -0.236 A  
ENDBRANCH  15  20
ENDBRANCH  13  14
ENDBRANCH  12  13
ENDBRANCH   3  12
TORSDOF 4
ENDMDL
MODEL      135
REMARK 921   NORMALIZED FREE ENERGY PREDICTED BY IDOCK:   -4.87 KCAL/MOL
REMARK 922        TOTAL FREE ENERGY PREDICTED BY IDOCK:   -6.53 KCAL/MOL
REMARK 923 INTER-LIGAND FREE ENERGY PREDICTED BY IDOCK:   -6.36 KCAL/MOL
REMARK 924 INTRA-LIGAND FREE ENERGY PREDICTED BY IDOCK:   -0.18 KCAL/MOL
REMARK 927      BINDING AFFINITY PREDICTED BY RF-SCORE:    0.00 PKD
ROOT
HETATM    1 CL   UNL     1     -11.390  10.892  67.888  1.00  0.00    -0.380 Cl 
HETATM    2  C   UNL     1      -9.849  10.891  68.668  1.00  0.00    -0.190 A  
HETATM    3  C   UNL     1      -8.816  11.784  68.270  1.00  0.00    -0.172 A  
HETATM    4  O   UNL     1      -5.364   8.018  70.489  1.00  0.00    -0.023 OA 
HETATM    5  C   UNL     1      -7.619  11.851  69.007  1.00  0.00     0.029 A  
HETATM    6  C   UNL     1      -7.361  10.813  69.877  1.00  0.00    -0.006 A  
HETATM    7  N   UNL     1      -7.615   8.632  70.440  1.00  0.00    -0.069 NA 
HETATM    8  C   UNL     1      -6.048  10.383  70.459  1.00  0.00    -0.116 C  
HETATM    9  C   UNL     1      -9.576   9.856  69.560  1.00  0.00    -0.242 A  
HETATM   10  C   UNL     1      -8.287   9.785  70.038  1.00  0.00    -0.192 A  
HETATM   11  C   UNL     1      -6.239   8.867  70.478  1.00  0.00    -0.042 C  
ENDROOT
BRANCH   3  12
HETATM   12  C   UNL     1      -8.712  12.188  66.808  1.00  0.00    -0.183 C  
BRANCH  12  13
HETATM   13  C   UNL     1      -9.837  12.946  66.091  1.00  0.00    -0.270 C  
BRANCH  13  14
HETATM   14  N   UNL     1     -10.183  14.134  66.903  1.00  0.00    -0.264 NA 
HETATM   15  N   UNL     1      -9.366  16.821  65.855  1.00  0.00    -0.519 NA 
HETATM   16  C   UNL     1      -9.010  14.913  67.341  1.00  0.00    -0.189 C  
HETATM   17  C   UNL     1     -11.170  15.052  66.292  1.00  0.00    -0.309 C  
HETATM   18  C   UNL     1     -10.680  16.282  65.448  1.00  0.00    -0.327 C  
HETATM   19  C   UNL     1      -8.412  15.763  66.212  1.00  0.00    -0.210 C  
BRANCH  15  20
HETATM   20  C   UNL     1      -9.271  17.977  66.608  1.00  0.00    -0.284 A  
HETATM   21  N   UNL     1     -10.089  18.229  67.621  1.00  0.00    -0.338 NA 
HETATM   22  S   UNL     1      -9.578  19.543  68.468  1.00  0.00    -0.404 SA 
HETATM   23  C   UNL     1      -8.184  19.834  67.514  1.00  0.00    -0.312 A  
HETATM   24  C   UNL     1      -7.198  20.812  67.701  1.00  0.00    -0.332 A  
HETATM   25  C   UNL     1      -6.149  20.870  66.780  1.00  0.00    -0.311 A  
HETATM   26  C   UNL     1      -6.108  19.982  65.714  1.00  0.00    -0.214 A  
HETATM   27  C   UNL     1      -7.082  18.996  65.548  1.00  0.00    -0.182 A  
HETATM   28  C   UNL     1      -8.179  18.918  66.463  1.00  0.00    -0.306 A  
ENDBRANCH  15  20
ENDBRANCH  13  14
ENDBRANCH  12  13
ENDBRANCH   3  12
TORSDOF 4
ENDMDL
MODEL      136
REMARK 921   NORMALIZED FREE ENERGY PREDICTED BY IDOCK:   -4.87 KCAL/MOL
REMARK 922        TOTAL FREE ENERGY PREDICTED BY IDOCK:   -6.52 KCAL/MOL
REMARK 923 INTER-LIGAND FREE ENERGY PREDICTED BY IDOCK:   -5.80 KCAL/MOL
REMARK 924 INTRA-LIGAND FREE ENERGY PREDICTED BY IDOCK:   -0.72 KCAL/MOL
REMARK 927      BINDING AFFINITY PREDICTED BY RF-SCORE:    0.00 PKD
ROOT
HETATM    1 CL   UNL     1     -10.555  12.927  65.049  1.00  0.00    -0.318 Cl 
HETATM    2  C   UNL     1     -10.460  13.787  66.545  1.00  0.00    -0.282 A  
HETATM    3  C   UNL     1      -9.214  14.019  67.189  1.00  0.00    -0.240 A  
HETATM    4  O   UNL     1     -12.246  14.470  71.839  1.00  0.00    -0.337 OA 
HETATM    5  C   UNL     1      -9.153  14.832  68.335  1.00  0.00    -0.188 A  
HETATM    6  C   UNL     1     -10.343  15.093  68.982  1.00  0.00    -0.244 A  
HETATM    7  N   UNL     1     -12.452  14.456  69.515  1.00  0.00    -0.216 NA 
HETATM    8  C   UNL     1     -10.562  15.540  70.396  1.00  0.00    -0.294 C  
HETATM    9  C   UNL     1     -11.654  14.069  67.206  1.00  0.00    -0.396 A  
HETATM   10  C   UNL     1     -11.542  14.603  68.470  1.00  0.00    -0.317 A  
HETATM   11  C   UNL     1     -11.843  14.775  70.730  1.00  0.00    -0.312 C  
ENDROOT
BRANCH   3  12
HETATM   12  C   UNL     1      -8.111  12.979  67.061  1.00  0.00    -0.043 C  
BRANCH  12  13
HETATM   13  C   UNL     1      -7.658  12.122  68.250  1.00  0.00    -0.132 C  
BRANCH  13  14
HETATM   14  N   UNL     1      -7.489  10.730  67.777  1.00  0.00    -0.093 NA 
HETATM   15  N   UNL     1      -9.688   8.782  68.376  1.00  0.00    -0.158 NA 
HETATM   16  C   UNL     1      -7.490   9.733  68.864  1.00  0.00    -0.075 C  
HETATM   17  C   UNL     1      -8.438  10.298  66.728  1.00  0.00    -0.123 C  
HETATM   18  C   UNL     1      -9.769   9.566  67.126  1.00  0.00    -0.171 C  
HETATM   19  C   UNL     1      -8.897   9.458  69.412  1.00  0.00    -0.159 C  
BRANCH  15  20
HETATM   20  C   UNL     1      -9.565   7.405  68.347  1.00  0.00    -0.148 A  
HETATM   21  N   UNL     1      -8.967   6.770  67.347  1.00  0.00    -0.116 NA 
HETATM   22  S   UNL     1      -8.757   5.180  67.712  1.00  0.00    -0.102 SA 
HETATM   23  C   UNL     1      -9.450   5.267  69.277  1.00  0.00    -0.134 A  
HETATM   24  C   UNL     1      -9.560   4.246  70.231  1.00  0.00    -0.269 A  
HETATM   25  C   UNL     1     -10.180   4.548  71.446  1.00  0.00    -0.183 A  
HETATM   26  C   UNL     1     -10.673   5.825  71.679  1.00  0.00    -0.314 A  
HETATM   27  C   UNL     1     -10.538   6.841  70.732  1.00  0.00    -0.254 A  
HETATM   28  C   UNL     1      -9.924   6.564  69.470  1.00  0.00    -0.180 A  
ENDBRANCH  15  20
ENDBRANCH  13  14
ENDBRANCH  12  13
ENDBRANCH   3  12
TORSDOF 4
ENDMDL
MODEL      137
REMARK 921   NORMALIZED FREE ENERGY PREDICTED BY IDOCK:   -4.86 KCAL/MOL
REMARK 922        TOTAL FREE ENERGY PREDICTED BY IDOCK:   -6.52 KCAL/MOL
REMARK 923 INTER-LIGAND FREE ENERGY PREDICTED BY IDOCK:   -6.35 KCAL/MOL
REMARK 924 INTRA-LIGAND FREE ENERGY PREDICTED BY IDOCK:   -0.17 KCAL/MOL
REMARK 927      BINDING AFFINITY PREDICTED BY RF-SCORE:    0.00 PKD
ROOT
HETATM    1 CL   UNL     1     -12.862  10.910  70.468  1.00  0.00    -0.341 Cl 
HETATM    2  C   UNL     1     -11.711   9.765  71.058  1.00  0.00    -0.370 A  
HETATM    3  C   UNL     1     -10.358   9.783  70.623  1.00  0.00    -0.330 A  
HETATM    4  O   UNL     1     -10.321   4.407  72.077  1.00  0.00    -0.181 OA 
HETATM    5  C   UNL     1      -9.414   8.925  71.217  1.00  0.00    -0.343 A  
HETATM    6  C   UNL     1      -9.906   7.869  71.955  1.00  0.00    -0.250 A  
HETATM    7  N   UNL     1     -11.558   6.368  72.348  1.00  0.00    -0.285 NA 
HETATM    8  C   UNL     1      -9.219   6.593  72.338  1.00  0.00    -0.140 C  
HETATM    9  C   UNL     1     -12.190   8.698  71.816  1.00  0.00    -0.403 A  
HETATM   10  C   UNL     1     -11.279   7.715  72.131  1.00  0.00    -0.284 A  
HETATM   11  C   UNL     1     -10.388   5.613  72.244  1.00  0.00    -0.206 C  
ENDROOT
BRANCH   3  12
HETATM   12  C   UNL     1     -10.045  10.220  69.200  1.00  0.00    -0.232 C  
BRANCH  12  13
HETATM   13  C   UNL     1      -8.767  10.991  68.848  1.00  0.00    -0.117 C  
BRANCH  13  14
HETATM   14  N   UNL     1      -9.089  11.950  67.767  1.00  0.00    -0.174 NA 
HETATM   15  N   UNL     1      -8.460  14.843  68.242  1.00  0.00    -0.145 NA 
HETATM   16  C   UNL     1     -10.054  12.991  68.169  1.00  0.00    -0.237 C  
HETATM   17  C   UNL     1      -7.923  12.597  67.127  1.00  0.00    -0.122 C  
HETATM   18  C   UNL     1      -7.412  13.987  67.647  1.00  0.00    -0.174 C  
HETATM   19  C   UNL     1      -9.418  14.076  69.048  1.00  0.00     0.117 C  
BRANCH  15  20
HETATM   20  C   UNL     1      -8.999  15.903  67.537  1.00  0.00    -0.194 A  
HETATM   21  N   UNL     1     -10.308  16.087  67.431  1.00  0.00    -0.288 NA 
HETATM   22  S   UNL     1     -10.636  17.550  66.753  1.00  0.00    -0.131 SA 
HETATM   23  C   UNL     1      -9.001  18.036  66.588  1.00  0.00    -0.273 A  
HETATM   24  C   UNL     1      -8.506  19.258  66.112  1.00  0.00    -0.278 A  
HETATM   25  C   UNL     1      -7.121  19.427  66.054  1.00  0.00    -0.291 A  
HETATM   26  C   UNL     1      -6.276  18.400  66.452  1.00  0.00    -0.216 A  
HETATM   27  C   UNL     1      -6.778  17.195  66.946  1.00  0.00    -0.238 A  
HETATM   28  C   UNL     1      -8.190  16.981  67.004  1.00  0.00    -0.232 A  
ENDBRANCH  15  20
ENDBRANCH  13  14
ENDBRANCH  12  13
ENDBRANCH   3  12
TORSDOF 4
ENDMDL
MODEL      138
REMARK 921   NORMALIZED FREE ENERGY PREDICTED BY IDOCK:   -4.86 KCAL/MOL
REMARK 922        TOTAL FREE ENERGY PREDICTED BY IDOCK:   -6.52 KCAL/MOL
REMARK 923 INTER-LIGAND FREE ENERGY PREDICTED BY IDOCK:   -6.54 KCAL/MOL
REMARK 924 INTRA-LIGAND FREE ENERGY PREDICTED BY IDOCK:    0.02 KCAL/MOL
REMARK 927      BINDING AFFINITY PREDICTED BY RF-SCORE:    0.00 PKD
ROOT
HETATM    1 CL   UNL     1     -11.341   8.678  69.696  1.00  0.00     0.075 Cl 
HETATM    2  C   UNL     1     -10.096   9.187  68.612  1.00  0.00    -0.194 A  
HETATM    3  C   UNL     1      -9.607  10.521  68.619  1.00  0.00    -0.171 A  
HETATM    4  O   UNL     1      -8.099   9.489  63.358  1.00  0.00    -0.131 OA 
HETATM    5  C   UNL     1      -8.505  10.873  67.818  1.00  0.00    -0.124 A  
HETATM    6  C   UNL     1      -8.160   9.998  66.809  1.00  0.00    -0.118 A  
HETATM    7  N   UNL     1      -8.772   8.409  65.314  1.00  0.00    -0.150 NA 
HETATM    8  C   UNL     1      -7.355  10.265  65.573  1.00  0.00    -0.149 C  
HETATM    9  C   UNL     1      -9.727   8.310  67.593  1.00  0.00    -0.201 A  
HETATM   10  C   UNL     1      -8.857   8.803  66.648  1.00  0.00    -0.131 A  
HETATM   11  C   UNL     1      -8.085   9.371  64.571  1.00  0.00    -0.136 C  
ENDROOT
BRANCH   3  12
HETATM   12  C   UNL     1     -10.560  11.656  68.961  1.00  0.00    -0.188 C  
BRANCH  12  13
HETATM   13  C   UNL     1     -11.224  12.516  67.878  1.00  0.00    -0.264 C  
BRANCH  13  14
HETATM   14  N   UNL     1     -10.939  13.937  68.178  1.00  0.00    -0.243 NA 
HETATM   15  N   UNL     1      -9.082  15.401  66.335  1.00  0.00    -0.294 NA 
HETATM   16  C   UNL     1      -9.512  14.213  68.428  1.00  0.00    -0.214 C  
HETATM   17  C   UNL     1     -11.450  14.908  67.186  1.00  0.00    -0.335 C  
HETATM   18  C   UNL     1     -10.524  15.395  66.015  1.00  0.00    -0.321 C  
HETATM   19  C   UNL     1      -8.681  14.239  67.137  1.00  0.00    -0.227 C  
BRANCH  15  20
HETATM   20  C   UNL     1      -8.423  16.579  66.636  1.00  0.00    -0.263 A  
HETATM   21  N   UNL     1      -7.127  16.743  66.405  1.00  0.00    -0.213 NA 
HETATM   22  S   UNL     1      -6.690  18.312  66.633  1.00  0.00    -0.209 SA 
HETATM   23  C   UNL     1      -8.258  18.872  67.038  1.00  0.00    -0.270 A  
HETATM   24  C   UNL     1      -8.661  20.187  67.313  1.00  0.00    -0.429 A  
HETATM   25  C   UNL     1     -10.003  20.407  67.635  1.00  0.00    -0.514 A  
HETATM   26  C   UNL     1     -10.892  19.342  67.683  1.00  0.00    -0.470 A  
HETATM   27  C   UNL     1     -10.486  18.040  67.385  1.00  0.00    -0.399 A  
HETATM   28  C   UNL     1      -9.117  17.775  67.068  1.00  0.00    -0.256 A  
ENDBRANCH  15  20
ENDBRANCH  13  14
ENDBRANCH  12  13
ENDBRANCH   3  12
TORSDOF 4
ENDMDL
MODEL      139
REMARK 921   NORMALIZED FREE ENERGY PREDICTED BY IDOCK:   -4.86 KCAL/MOL
REMARK 922        TOTAL FREE ENERGY PREDICTED BY IDOCK:   -6.51 KCAL/MOL
REMARK 923 INTER-LIGAND FREE ENERGY PREDICTED BY IDOCK:   -6.02 KCAL/MOL
REMARK 924 INTRA-LIGAND FREE ENERGY PREDICTED BY IDOCK:   -0.50 KCAL/MOL
REMARK 927      BINDING AFFINITY PREDICTED BY RF-SCORE:    0.00 PKD
ROOT
HETATM    1 CL   UNL     1     -12.142  13.948  68.044  1.00  0.00    -0.378 Cl 
HETATM    2  C   UNL     1     -10.939  15.111  67.615  1.00  0.00    -0.308 A  
HETATM    3  C   UNL     1      -9.781  14.743  66.876  1.00  0.00    -0.247 A  
HETATM    4  O   UNL     1      -7.465  19.259  69.169  1.00  0.00    -0.346 OA 
HETATM    5  C   UNL     1      -8.886  15.731  66.428  1.00  0.00    -0.371 A  
HETATM    6  C   UNL     1      -8.986  16.977  67.012  1.00  0.00    -0.236 A  
HETATM    7  N   UNL     1      -9.538  18.251  68.802  1.00  0.00    -0.321 NA 
HETATM    8  C   UNL     1      -7.960  18.068  67.071  1.00  0.00    -0.237 C  
HETATM    9  C   UNL     1     -11.031  16.379  68.186  1.00  0.00    -0.339 A  
HETATM   10  C   UNL     1      -9.973  17.230  67.961  1.00  0.00    -0.304 A  
HETATM   11  C   UNL     1      -8.237  18.630  68.465  1.00  0.00    -0.341 C  
ENDROOT
BRANCH   3  12
HETATM   12  C   UNL     1      -9.185  13.358  67.078  1.00  0.00    -0.242 C  
BRANCH  12  13
HETATM   13  C   UNL     1      -9.510  12.188  66.141  1.00  0.00    -0.224 C  
BRANCH  13  14
HETATM   14  N   UNL     1      -8.439  11.176  66.279  1.00  0.00    -0.170 NA 
HETATM   15  N   UNL     1      -9.266   8.313  66.617  1.00  0.00    -0.167 NA 
HETATM   16  C   UNL     1      -8.488  10.433  67.553  1.00  0.00    -0.115 C  
HETATM   17  C   UNL     1      -8.335  10.210  65.163  1.00  0.00    -0.161 C  
HETATM   18  C   UNL     1      -9.082   8.831  65.245  1.00  0.00    -0.096 C  
HETATM   19  C   UNL     1      -9.598   9.374  67.576  1.00  0.00    -0.141 C  
BRANCH  15  20
HETATM   20  C   UNL     1      -8.462   7.303  67.112  1.00  0.00    -0.118 A  
HETATM   21  N   UNL     1      -7.167   7.231  66.833  1.00  0.00    -0.085 NA 
HETATM   22  S   UNL     1      -6.439   6.079  67.755  1.00  0.00    -0.048 SA 
HETATM   23  C   UNL     1      -7.850   5.626  68.615  1.00  0.00    -0.096 A  
HETATM   24  C   UNL     1      -7.966   4.691  69.653  1.00  0.00    -0.065 A  
HETATM   25  C   UNL     1      -9.232   4.474  70.201  1.00  0.00    -0.197 A  
HETATM   26  C   UNL     1     -10.331   5.166  69.712  1.00  0.00    -0.332 A  
HETATM   27  C   UNL     1     -10.203   6.112  68.693  1.00  0.00    -0.220 A  
HETATM   28  C   UNL     1      -8.924   6.348  68.098  1.00  0.00    -0.116 A  
ENDBRANCH  15  20
ENDBRANCH  13  14
ENDBRANCH  12  13
ENDBRANCH   3  12
TORSDOF 4
ENDMDL
MODEL      140
REMARK 921   NORMALIZED FREE ENERGY PREDICTED BY IDOCK:   -4.83 KCAL/MOL
REMARK 922        TOTAL FREE ENERGY PREDICTED BY IDOCK:   -6.48 KCAL/MOL
REMARK 923 INTER-LIGAND FREE ENERGY PREDICTED BY IDOCK:   -6.04 KCAL/MOL
REMARK 924 INTRA-LIGAND FREE ENERGY PREDICTED BY IDOCK:   -0.44 KCAL/MOL
REMARK 927      BINDING AFFINITY PREDICTED BY RF-SCORE:    0.00 PKD
ROOT
HETATM    1 CL   UNL     1      -9.756   8.465  69.643  1.00  0.00    -0.171 Cl 
HETATM    2  C   UNL     1     -10.400   9.883  68.895  1.00  0.00    -0.205 A  
HETATM    3  C   UNL     1      -9.848  10.404  67.694  1.00  0.00    -0.197 A  
HETATM    4  O   UNL     1     -12.053  15.245  69.341  1.00  0.00    -0.313 OA 
HETATM    5  C   UNL     1     -10.473  11.480  67.038  1.00  0.00    -0.263 A  
HETATM    6  C   UNL     1     -11.397  12.203  67.763  1.00  0.00    -0.371 A  
HETATM    7  N   UNL     1     -12.147  12.952  69.766  1.00  0.00    -0.280 NA 
HETATM    8  C   UNL     1     -11.897  13.595  67.520  1.00  0.00    -0.416 C  
HETATM    9  C   UNL     1     -11.344  10.619  69.610  1.00  0.00    -0.360 A  
HETATM   10  C   UNL     1     -11.715  11.828  69.066  1.00  0.00    -0.328 A  
HETATM   11  C   UNL     1     -12.050  14.087  68.959  1.00  0.00    -0.323 C  
ENDROOT
BRANCH   3  12
HETATM   12  C   UNL     1      -8.354  10.258  67.443  1.00  0.00    -0.118 C  
BRANCH  12  13
HETATM   13  C   UNL     1      -7.310  10.955  68.324  1.00  0.00    -0.087 C  
BRANCH  13  14
HETATM   14  N   UNL     1      -6.717  12.066  67.547  1.00  0.00    -0.106 NA 
HETATM   15  N   UNL     1      -6.895  14.825  68.707  1.00  0.00    -0.094 NA 
HETATM   16  C   UNL     1      -7.692  13.105  67.164  1.00  0.00    -0.019 C  
HETATM   17  C   UNL     1      -5.541  12.715  68.166  1.00  0.00    -0.076 C  
HETATM   18  C   UNL     1      -5.730  13.989  69.064  1.00  0.00    -0.088 C  
HETATM   19  C   UNL     1      -8.067  14.022  68.335  1.00  0.00    -0.148 C  
BRANCH  15  20
HETATM   20  C   UNL     1      -6.738  16.001  67.997  1.00  0.00    -0.127 A  
HETATM   21  N   UNL     1      -7.123  16.120  66.734  1.00  0.00    -0.196 NA 
HETATM   22  S   UNL     1      -7.036  17.688  66.245  1.00  0.00    -0.319 SA 
HETATM   23  C   UNL     1      -6.491  18.308  67.747  1.00  0.00    -0.193 A  
HETATM   24  C   UNL     1      -6.248  19.645  68.092  1.00  0.00    -0.261 A  
HETATM   25  C   UNL     1      -5.791  19.916  69.385  1.00  0.00    -0.308 A  
HETATM   26  C   UNL     1      -5.581  18.877  70.281  1.00  0.00    -0.249 A  
HETATM   27  C   UNL     1      -5.847  17.551  69.935  1.00  0.00    -0.249 A  
HETATM   28  C   UNL     1      -6.301  17.236  68.616  1.00  0.00    -0.173 A  
ENDBRANCH  15  20
ENDBRANCH  13  14
ENDBRANCH  12  13
ENDBRANCH   3  12
TORSDOF 4
ENDMDL
MODEL      141
REMARK 921   NORMALIZED FREE ENERGY PREDICTED BY IDOCK:   -4.79 KCAL/MOL
REMARK 922        TOTAL FREE ENERGY PREDICTED BY IDOCK:   -6.43 KCAL/MOL
REMARK 923 INTER-LIGAND FREE ENERGY PREDICTED BY IDOCK:   -6.25 KCAL/MOL
REMARK 924 INTRA-LIGAND FREE ENERGY PREDICTED BY IDOCK:   -0.18 KCAL/MOL
REMARK 927      BINDING AFFINITY PREDICTED BY RF-SCORE:    0.00 PKD
ROOT
HETATM    1 CL   UNL     1      -7.410  13.411  67.915  1.00  0.00    -0.123 Cl 
HETATM    2  C   UNL     1      -9.055  13.506  67.394  1.00  0.00    -0.219 A  
HETATM    3  C   UNL     1     -10.004  12.509  67.749  1.00  0.00    -0.210 A  
HETATM    4  O   UNL     1     -12.759  14.198  63.213  1.00  0.00    -0.714 OA 
HETATM    5  C   UNL     1     -11.362  12.679  67.422  1.00  0.00    -0.367 A  
HETATM    6  C   UNL     1     -11.662  13.638  66.477  1.00  0.00    -0.414 A  
HETATM    7  N   UNL     1     -11.047  14.845  64.660  1.00  0.00    -0.355 NA 
HETATM    8  C   UNL     1     -12.894  13.768  65.633  1.00  0.00    -0.456 C  
HETATM    9  C   UNL     1      -9.378  14.478  66.448  1.00  0.00    -0.300 A  
HETATM   10  C   UNL     1     -10.652  14.424  65.928  1.00  0.00    -0.307 A  
HETATM   11  C   UNL     1     -12.282  14.284  64.331  1.00  0.00    -0.447 C  
ENDROOT
BRANCH   3  12
HETATM   12  C   UNL     1      -9.540  11.069  67.903  1.00  0.00    -0.180 C  
BRANCH  12  13
HETATM   13  C   UNL     1      -9.928  10.214  69.116  1.00  0.00    -0.210 C  
BRANCH  13  14
HETATM   14  N   UNL     1     -10.580   8.981  68.622  1.00  0.00    -0.195 NA 
HETATM   15  N   UNL     1      -8.818   6.822  67.517  1.00  0.00    -0.118 NA 
HETATM   16  C   UNL     1     -10.333   8.713  67.192  1.00  0.00    -0.299 C  
HETATM   17  C   UNL     1     -10.289   7.756  69.398  1.00  0.00    -0.219 C  
HETATM   18  C   UNL     1      -9.110   6.814  68.965  1.00  0.00    -0.137 C  
HETATM   19  C   UNL     1      -8.924   8.165  66.931  1.00  0.00    -0.140 C  
BRANCH  15  20
HETATM   20  C   UNL     1      -9.238   5.789  66.699  1.00  0.00    -0.137 A  
HETATM   21  N   UNL     1     -10.520   5.484  66.548  1.00  0.00    -0.266 NA 
HETATM   22  S   UNL     1     -10.718   4.388  65.338  1.00  0.00     0.063 SA 
HETATM   23  C   UNL     1      -9.059   4.283  64.924  1.00  0.00    -0.148 A  
HETATM   24  C   UNL     1      -8.471   3.542  63.889  1.00  0.00    -0.090 A  
HETATM   25  C   UNL     1      -7.082   3.600  63.748  1.00  0.00    -0.050 A  
HETATM   26  C   UNL     1      -6.324   4.367  64.622  1.00  0.00    -0.034 A  
HETATM   27  C   UNL     1      -6.920   5.120  65.636  1.00  0.00    -0.066 A  
HETATM   28  C   UNL     1      -8.337   5.071  65.820  1.00  0.00    -0.118 A  
ENDBRANCH  15  20
ENDBRANCH  13  14
ENDBRANCH  12  13
ENDBRANCH   3  12
TORSDOF 4
ENDMDL
MODEL      142
REMARK 921   NORMALIZED FREE ENERGY PREDICTED BY IDOCK:   -4.79 KCAL/MOL
REMARK 922        TOTAL FREE ENERGY PREDICTED BY IDOCK:   -6.43 KCAL/MOL
REMARK 923 INTER-LIGAND FREE ENERGY PREDICTED BY IDOCK:   -6.53 KCAL/MOL
REMARK 924 INTRA-LIGAND FREE ENERGY PREDICTED BY IDOCK:    0.10 KCAL/MOL
REMARK 927      BINDING AFFINITY PREDICTED BY RF-SCORE:    0.00 PKD
ROOT
HETATM    1 CL   UNL     1      -7.351  14.057  68.763  1.00  0.00    -0.125 Cl 
HETATM    2  C   UNL     1      -8.298  15.498  68.652  1.00  0.00    -0.172 A  
HETATM    3  C   UNL     1      -9.636  15.471  68.172  1.00  0.00    -0.199 A  
HETATM    4  O   UNL     1      -8.786  20.830  66.916  1.00  0.00    -0.173 OA 
HETATM    5  C   UNL     1     -10.425  16.635  68.216  1.00  0.00    -0.321 A  
HETATM    6  C   UNL     1      -9.766  17.831  68.406  1.00  0.00    -0.333 A  
HETATM    7  N   UNL     1      -7.889  19.081  68.174  1.00  0.00    -0.289 NA 
HETATM    8  C   UNL     1     -10.233  19.219  68.088  1.00  0.00    -0.515 C  
HETATM    9  C   UNL     1      -7.650  16.715  68.854  1.00  0.00    -0.240 A  
HETATM   10  C   UNL     1      -8.386  17.849  68.596  1.00  0.00    -0.270 A  
HETATM   11  C   UNL     1      -8.919  19.855  67.636  1.00  0.00    -0.335 C  
ENDROOT
BRANCH   3  12
HETATM   12  C   UNL     1     -10.016  14.458  67.103  1.00  0.00    -0.253 C  
BRANCH  12  13
HETATM   13  C   UNL     1     -11.473  14.226  66.684  1.00  0.00    -0.364 C  
BRANCH  13  14
HETATM   14  N   UNL     1     -11.807  12.807  66.939  1.00  0.00    -0.401 NA 
HETATM   15  N   UNL     1      -9.532  10.882  67.272  1.00  0.00    -0.159 NA 
HETATM   16  C   UNL     1     -11.295  11.884  65.907  1.00  0.00    -0.308 C  
HETATM   17  C   UNL     1     -11.422  12.296  68.273  1.00  0.00    -0.315 C  
HETATM   18  C   UNL     1     -10.039  11.580  68.471  1.00  0.00    -0.207 C  
HETATM   19  C   UNL     1      -9.787  11.634  66.036  1.00  0.00    -0.230 C  
BRANCH  15  20
HETATM   20  C   UNL     1      -9.626   9.507  67.154  1.00  0.00    -0.160 A  
HETATM   21  N   UNL     1     -10.710   8.839  67.523  1.00  0.00    -0.215 NA 
HETATM   22  S   UNL     1     -10.619   7.270  67.036  1.00  0.00    -0.310 SA 
HETATM   23  C   UNL     1      -9.097   7.416  66.263  1.00  0.00    -0.156 A  
HETATM   24  C   UNL     1      -8.394   6.436  65.546  1.00  0.00    -0.147 A  
HETATM   25  C   UNL     1      -7.152   6.782  65.009  1.00  0.00    -0.064 A  
HETATM   26  C   UNL     1      -6.642   8.059  65.198  1.00  0.00    -0.051 A  
HETATM   27  C   UNL     1      -7.358   9.034  65.893  1.00  0.00    -0.093 A  
HETATM   28  C   UNL     1      -8.626   8.711  66.471  1.00  0.00    -0.124 A  
ENDBRANCH  15  20
ENDBRANCH  13  14
ENDBRANCH  12  13
ENDBRANCH   3  12
TORSDOF 4
ENDMDL
MODEL      143
REMARK 921   NORMALIZED FREE ENERGY PREDICTED BY IDOCK:   -4.78 KCAL/MOL
REMARK 922        TOTAL FREE ENERGY PREDICTED BY IDOCK:   -6.42 KCAL/MOL
REMARK 923 INTER-LIGAND FREE ENERGY PREDICTED BY IDOCK:   -6.85 KCAL/MOL
REMARK 924 INTRA-LIGAND FREE ENERGY PREDICTED BY IDOCK:    0.43 KCAL/MOL
REMARK 927      BINDING AFFINITY PREDICTED BY RF-SCORE:    0.00 PKD
ROOT
HETATM    1 CL   UNL     1      -7.790  14.419  68.839  1.00  0.00    -0.136 Cl 
HETATM    2  C   UNL     1      -8.352  16.017  68.500  1.00  0.00    -0.191 A  
HETATM    3  C   UNL     1      -9.393  16.254  67.562  1.00  0.00    -0.217 A  
HETATM    4  O   UNL     1      -7.188  21.349  67.122  1.00  0.00    -0.506 OA 
HETATM    5  C   UNL     1      -9.919  17.549  67.404  1.00  0.00    -0.315 A  
HETATM    6  C   UNL     1      -9.175  18.593  67.914  1.00  0.00    -0.316 A  
HETATM    7  N   UNL     1      -7.157  19.453  68.482  1.00  0.00    -0.301 NA 
HETATM    8  C   UNL     1      -9.232  20.047  67.554  1.00  0.00    -0.475 C  
HETATM    9  C   UNL     1      -7.619  17.083  69.018  1.00  0.00    -0.194 A  
HETATM   10  C   UNL     1      -7.988  18.341  68.597  1.00  0.00    -0.289 A  
HETATM   11  C   UNL     1      -7.754  20.416  67.665  1.00  0.00    -0.277 C  
ENDROOT
BRANCH   3  12
HETATM   12  C   UNL     1      -9.521  15.339  66.354  1.00  0.00    -0.326 C  
BRANCH  12  13
HETATM   13  C   UNL     1     -10.831  15.209  65.567  1.00  0.00    -0.364 C  
BRANCH  13  14
HETATM   14  N   UNL     1     -11.348  13.835  65.755  1.00  0.00    -0.301 NA 
HETATM   15  N   UNL     1      -9.920  12.068  67.711  1.00  0.00    -0.191 NA 
HETATM   16  C   UNL     1     -10.368  12.784  65.417  1.00  0.00    -0.293 C  
HETATM   17  C   UNL     1     -11.918  13.550  67.089  1.00  0.00    -0.381 C  
HETATM   18  C   UNL     1     -11.016  12.923  68.211  1.00  0.00    -0.256 C  
HETATM   19  C   UNL     1      -9.294  12.611  66.499  1.00  0.00    -0.228 C  
BRANCH  15  20
HETATM   20  C   UNL     1     -10.014  10.689  67.757  1.00  0.00    -0.167 A  
HETATM   21  N   UNL     1     -10.819  10.008  66.953  1.00  0.00    -0.142 NA 
HETATM   22  S   UNL     1     -10.529   8.393  67.072  1.00  0.00    -0.252 SA 
HETATM   23  C   UNL     1      -9.260   8.527  68.215  1.00  0.00    -0.138 A  
HETATM   24  C   UNL     1      -8.470   7.502  68.754  1.00  0.00    -0.129 A  
HETATM   25  C   UNL     1      -7.493   7.850  69.689  1.00  0.00    -0.092 A  
HETATM   26  C   UNL     1      -7.331   9.175  70.068  1.00  0.00    -0.070 A  
HETATM   27  C   UNL     1      -8.107  10.192  69.510  1.00  0.00    -0.176 A  
HETATM   28  C   UNL     1      -9.128   9.871  68.561  1.00  0.00    -0.125 A  
ENDBRANCH  15  20
ENDBRANCH  13  14
ENDBRANCH  12  13
ENDBRANCH   3  12
TORSDOF 4
ENDMDL
MODEL      144
REMARK 921   NORMALIZED FREE ENERGY PREDICTED BY IDOCK:   -4.78 KCAL/MOL
REMARK 922        TOTAL FREE ENERGY PREDICTED BY IDOCK:   -6.42 KCAL/MOL
REMARK 923 INTER-LIGAND FREE ENERGY PREDICTED BY IDOCK:   -6.41 KCAL/MOL
REMARK 924 INTRA-LIGAND FREE ENERGY PREDICTED BY IDOCK:   -0.00 KCAL/MOL
REMARK 927      BINDING AFFINITY PREDICTED BY RF-SCORE:    0.00 PKD
ROOT
HETATM    1 CL   UNL     1      -8.249  14.722  68.890  1.00  0.00    -0.165 Cl 
HETATM    2  C   UNL     1      -9.717  14.420  68.030  1.00  0.00    -0.221 A  
HETATM    3  C   UNL     1     -10.497  13.259  68.279  1.00  0.00    -0.257 A  
HETATM    4  O   UNL     1     -12.442  14.041  63.119  1.00  0.00    -0.733 OA 
HETATM    5  C   UNL     1     -11.752  13.105  67.660  1.00  0.00    -0.414 A  
HETATM    6  C   UNL     1     -12.021  13.920  66.581  1.00  0.00    -0.474 A  
HETATM    7  N   UNL     1     -11.270  15.131  64.818  1.00  0.00    -0.399 NA 
HETATM    8  C   UNL     1     -13.030  13.726  65.490  1.00  0.00    -0.363 C  
HETATM    9  C   UNL     1     -10.010  15.242  66.943  1.00  0.00    -0.243 A  
HETATM   10  C   UNL     1     -11.095  14.878  66.177  1.00  0.00    -0.335 A  
HETATM   11  C   UNL     1     -12.259  14.292  64.298  1.00  0.00    -0.423 C  
ENDROOT
BRANCH   3  12
HETATM   12  C   UNL     1      -9.796  11.968  68.674  1.00  0.00    -0.126 C  
BRANCH  12  13
HETATM   13  C   UNL     1      -9.031  11.113  67.655  1.00  0.00    -0.140 C  
BRANCH  13  14
HETATM   14  N   UNL     1      -9.073   9.706  68.110  1.00  0.00    -0.123 NA 
HETATM   15  N   UNL     1      -8.604   7.567  66.063  1.00  0.00    -0.147 NA 
HETATM   16  C   UNL     1     -10.115   8.900  67.446  1.00  0.00    -0.227 C  
HETATM   17  C   UNL     1      -7.786   8.979  68.040  1.00  0.00    -0.101 C  
HETATM   18  C   UNL     1      -7.434   8.127  66.769  1.00  0.00    -0.090 C  
HETATM   19  C   UNL     1      -9.732   8.506  66.014  1.00  0.00    -0.125 C  
BRANCH  15  20
HETATM   20  C   UNL     1      -8.953   6.236  66.204  1.00  0.00    -0.153 A  
HETATM   21  N   UNL     1      -9.087   5.426  65.162  1.00  0.00    -0.074 NA 
HETATM   22  S   UNL     1      -9.260   3.867  65.657  1.00  0.00    -0.162 SA 
HETATM   23  C   UNL     1      -9.135   4.201  67.332  1.00  0.00    -0.144 A  
HETATM   24  C   UNL     1      -9.140   3.289  68.398  1.00  0.00    -0.210 A  
HETATM   25  C   UNL     1      -9.037   3.797  69.695  1.00  0.00    -0.193 A  
HETATM   26  C   UNL     1      -8.943   5.166  69.903  1.00  0.00    -0.139 A  
HETATM   27  C   UNL     1      -8.916   6.065  68.835  1.00  0.00    -0.123 A  
HETATM   28  C   UNL     1      -9.036   5.582  67.494  1.00  0.00    -0.107 A  
ENDBRANCH  15  20
ENDBRANCH  13  14
ENDBRANCH  12  13
ENDBRANCH   3  12
TORSDOF 4
ENDMDL
MODEL      145
REMARK 921   NORMALIZED FREE ENERGY PREDICTED BY IDOCK:   -4.78 KCAL/MOL
REMARK 922        TOTAL FREE ENERGY PREDICTED BY IDOCK:   -6.42 KCAL/MOL
REMARK 923 INTER-LIGAND FREE ENERGY PREDICTED BY IDOCK:   -5.88 KCAL/MOL
REMARK 924 INTRA-LIGAND FREE ENERGY PREDICTED BY IDOCK:   -0.53 KCAL/MOL
REMARK 927      BINDING AFFINITY PREDICTED BY RF-SCORE:    0.00 PKD
ROOT
HETATM    1 CL   UNL     1     -13.725  12.806  72.381  1.00  0.00    -0.581 Cl 
HETATM    2  C   UNL     1     -12.749  13.165  71.001  1.00  0.00    -0.277 A  
HETATM    3  C   UNL     1     -12.334  12.145  70.101  1.00  0.00    -0.219 A  
HETATM    4  O   UNL     1      -8.173  15.624  68.834  1.00  0.00    -0.170 OA 
HETATM    5  C   UNL     1     -11.652  12.483  68.918  1.00  0.00    -0.364 A  
HETATM    6  C   UNL     1     -11.118  13.753  68.844  1.00  0.00    -0.300 A  
HETATM    7  N   UNL     1     -10.253  15.567  69.891  1.00  0.00    -0.299 NA 
HETATM    8  C   UNL     1     -10.023  14.258  67.954  1.00  0.00    -0.230 C  
HETATM    9  C   UNL     1     -12.211  14.447  70.905  1.00  0.00    -0.413 A  
HETATM   10  C   UNL     1     -11.306  14.655  69.888  1.00  0.00    -0.259 A  
HETATM   11  C   UNL     1      -9.326  15.233  68.902  1.00  0.00    -0.213 C  
ENDROOT
BRANCH   3  12
HETATM   12  C   UNL     1     -12.062  10.750  70.641  1.00  0.00    -0.467 C  
BRANCH  12  13
HETATM   13  C   UNL     1     -10.721  10.039  70.423  1.00  0.00    -0.307 C  
BRANCH  13  14
HETATM   14  N   UNL     1     -10.997   8.624  70.090  1.00  0.00    -0.244 NA 
HETATM   15  N   UNL     1      -8.672   6.732  70.024  1.00  0.00    -0.141 NA 
HETATM   16  C   UNL     1     -10.297   8.154  68.879  1.00  0.00    -0.211 C  
HETATM   17  C   UNL     1     -10.761   7.659  71.186  1.00  0.00    -0.227 C  
HETATM   18  C   UNL     1      -9.375   6.931  71.308  1.00  0.00    -0.164 C  
HETATM   19  C   UNL     1      -8.807   7.886  69.126  1.00  0.00    -0.142 C  
BRANCH  15  20
HETATM   20  C   UNL     1      -8.664   5.498  69.399  1.00  0.00    -0.107 A  
HETATM   21  N   UNL     1      -9.753   4.748  69.303  1.00  0.00    -0.181 NA 
HETATM   22  S   UNL     1      -9.491   3.469  68.303  1.00  0.00    -0.104 SA 
HETATM   23  C   UNL     1      -7.874   3.879  67.916  1.00  0.00    -0.074 A  
HETATM   24  C   UNL     1      -7.006   3.228  67.027  1.00  0.00    -0.054 A  
HETATM   25  C   UNL     1      -5.715   3.739  66.879  1.00  0.00    -0.022 A  
HETATM   26  C   UNL     1      -5.318   4.853  67.606  1.00  0.00    -0.012 A  
HETATM   27  C   UNL     1      -6.196   5.508  68.471  1.00  0.00    -0.030 A  
HETATM   28  C   UNL     1      -7.520   5.003  68.660  1.00  0.00    -0.070 A  
ENDBRANCH  15  20
ENDBRANCH  13  14
ENDBRANCH  12  13
ENDBRANCH   3  12
TORSDOF 4
ENDMDL
MODEL      146
REMARK 921   NORMALIZED FREE ENERGY PREDICTED BY IDOCK:   -4.77 KCAL/MOL
REMARK 922        TOTAL FREE ENERGY PREDICTED BY IDOCK:   -6.41 KCAL/MOL
REMARK 923 INTER-LIGAND FREE ENERGY PREDICTED BY IDOCK:   -5.92 KCAL/MOL
REMARK 924 INTRA-LIGAND FREE ENERGY PREDICTED BY IDOCK:   -0.49 KCAL/MOL
REMARK 927      BINDING AFFINITY PREDICTED BY RF-SCORE:    0.00 PKD
ROOT
HETATM    1 CL   UNL     1     -11.133  11.977  67.429  1.00  0.00    -0.313 Cl 
HETATM    2  C   UNL     1     -10.427  10.799  68.477  1.00  0.00    -0.187 A  
HETATM    3  C   UNL     1      -9.106  10.951  68.980  1.00  0.00    -0.110 A  
HETATM    4  O   UNL     1      -9.200   5.412  69.553  1.00  0.00    -0.113 OA 
HETATM    5  C   UNL     1      -8.605  10.046  69.934  1.00  0.00    -0.171 A  
HETATM    6  C   UNL     1      -9.289   8.859  70.089  1.00  0.00    -0.197 A  
HETATM    7  N   UNL     1     -10.609   7.240  69.208  1.00  0.00    -0.222 NA 
HETATM    8  C   UNL     1      -8.803   7.567  70.674  1.00  0.00    -0.146 C  
HETATM    9  C   UNL     1     -11.111   9.598  68.655  1.00  0.00    -0.085 A  
HETATM   10  C   UNL     1     -10.450   8.616  69.358  1.00  0.00    -0.218 A  
HETATM   11  C   UNL     1      -9.523   6.567  69.771  1.00  0.00    -0.150 C  
ENDROOT
BRANCH   3  12
HETATM   12  C   UNL     1      -8.062  11.640  68.115  1.00  0.00    -0.148 C  
BRANCH  12  13
HETATM   13  C   UNL     1      -6.843  12.349  68.719  1.00  0.00    -0.092 C  
BRANCH  13  14
HETATM   14  N   UNL     1      -6.437  13.435  67.799  1.00  0.00    -0.150 NA 
HETATM   15  N   UNL     1      -7.004  16.256  68.641  1.00  0.00    -0.140 NA 
HETATM   16  C   UNL     1      -7.563  14.267  67.334  1.00  0.00    -0.163 C  
HETATM   17  C   UNL     1      -5.360  14.318  68.298  1.00  0.00    -0.113 C  
HETATM   18  C   UNL     1      -5.721  15.648  69.050  1.00  0.00    -0.104 C  
HETATM   19  C   UNL     1      -8.050  15.252  68.405  1.00  0.00    -0.137 C  
BRANCH  15  20
HETATM   20  C   UNL     1      -7.038  17.350  67.796  1.00  0.00    -0.171 A  
HETATM   21  N   UNL     1      -6.104  17.563  66.879  1.00  0.00    -0.152 NA 
HETATM   22  S   UNL     1      -6.544  18.790  65.876  1.00  0.00    -0.267 SA 
HETATM   23  C   UNL     1      -8.058  19.089  66.621  1.00  0.00    -0.274 A  
HETATM   24  C   UNL     1      -9.043  20.010  66.235  1.00  0.00    -0.402 A  
HETATM   25  C   UNL     1     -10.204  20.089  67.008  1.00  0.00    -0.587 A  
HETATM   26  C   UNL     1     -10.354  19.279  68.126  1.00  0.00    -0.496 A  
HETATM   27  C   UNL     1      -9.378  18.349  68.488  1.00  0.00    -0.354 A  
HETATM   28  C   UNL     1      -8.169  18.252  67.729  1.00  0.00    -0.253 A  
ENDBRANCH  15  20
ENDBRANCH  13  14
ENDBRANCH  12  13
ENDBRANCH   3  12
TORSDOF 4
ENDMDL
MODEL      147
REMARK 921   NORMALIZED FREE ENERGY PREDICTED BY IDOCK:   -4.76 KCAL/MOL
REMARK 922        TOTAL FREE ENERGY PREDICTED BY IDOCK:   -6.39 KCAL/MOL
REMARK 923 INTER-LIGAND FREE ENERGY PREDICTED BY IDOCK:   -6.50 KCAL/MOL
REMARK 924 INTRA-LIGAND FREE ENERGY PREDICTED BY IDOCK:    0.11 KCAL/MOL
REMARK 927      BINDING AFFINITY PREDICTED BY RF-SCORE:    0.00 PKD
ROOT
HETATM    1 CL   UNL     1     -11.652  14.109  64.589  1.00  0.00    -0.394 Cl 
HETATM    2  C   UNL     1     -10.637  15.362  65.209  1.00  0.00    -0.428 A  
HETATM    3  C   UNL     1      -9.428  15.066  65.895  1.00  0.00    -0.313 A  
HETATM    4  O   UNL     1     -10.092  20.074  68.240  1.00  0.00    -0.419 OA 
HETATM    5  C   UNL     1      -8.558  16.105  66.273  1.00  0.00    -0.373 A  
HETATM    6  C   UNL     1      -9.071  17.385  66.265  1.00  0.00    -0.232 A  
HETATM    7  N   UNL     1     -10.854  18.771  66.460  1.00  0.00    -0.230 NA 
HETATM    8  C   UNL     1      -8.570  18.600  66.986  1.00  0.00    -0.280 C  
HETATM    9  C   UNL     1     -11.136  16.664  65.197  1.00  0.00    -0.086 A  
HETATM   10  C   UNL     1     -10.380  17.614  65.846  1.00  0.00    -0.257 A  
HETATM   11  C   UNL     1      -9.894  19.275  67.341  1.00  0.00    -0.336 C  
ENDROOT
BRANCH   3  12
HETATM   12  C   UNL     1      -9.348  13.802  66.737  1.00  0.00    -0.276 C  
BRANCH  12  13
HETATM   13  C   UNL     1     -10.369  13.491  67.839  1.00  0.00    -0.249 C  
BRANCH  13  14
HETATM   14  N   UNL     1      -9.891  12.310  68.592  1.00  0.00    -0.145 NA 
HETATM   15  N   UNL     1     -10.249   9.616  67.326  1.00  0.00    -0.217 NA 
HETATM   16  C   UNL     1     -10.956  11.340  68.908  1.00  0.00    -0.223 C  
HETATM   17  C   UNL     1      -8.751  11.590  67.983  1.00  0.00    -0.151 C  
HETATM   18  C   UNL     1      -9.011  10.367  67.034  1.00  0.00    -0.139 C  
HETATM   19  C   UNL     1     -11.365  10.496  67.694  1.00  0.00    -0.154 C  
BRANCH  15  20
HETATM   20  C   UNL     1     -10.208   8.407  67.997  1.00  0.00    -0.212 A  
HETATM   21  N   UNL     1     -10.716   7.296  67.482  1.00  0.00    -0.262 NA 
HETATM   22  S   UNL     1     -10.300   5.990  68.392  1.00  0.00    -0.233 SA 
HETATM   23  C   UNL     1      -9.372   6.864  69.536  1.00  0.00    -0.147 A  
HETATM   24  C   UNL     1      -8.637   6.360  70.619  1.00  0.00    -0.139 A  
HETATM   25  C   UNL     1      -7.962   7.272  71.434  1.00  0.00    -0.097 A  
HETATM   26  C   UNL     1      -8.036   8.632  71.168  1.00  0.00    -0.164 A  
HETATM   27  C   UNL     1      -8.751   9.123  70.075  1.00  0.00    -0.186 A  
HETATM   28  C   UNL     1      -9.468   8.220  69.229  1.00  0.00    -0.155 A  
ENDBRANCH  15  20
ENDBRANCH  13  14
ENDBRANCH  12  13
ENDBRANCH   3  12
TORSDOF 4
ENDMDL
MODEL      148
REMARK 921   NORMALIZED FREE ENERGY PREDICTED BY IDOCK:   -4.74 KCAL/MOL
REMARK 922        TOTAL FREE ENERGY PREDICTED BY IDOCK:   -6.36 KCAL/MOL
REMARK 923 INTER-LIGAND FREE ENERGY PREDICTED BY IDOCK:   -7.06 KCAL/MOL
REMARK 924 INTRA-LIGAND FREE ENERGY PREDICTED BY IDOCK:    0.70 KCAL/MOL
REMARK 927      BINDING AFFINITY PREDICTED BY RF-SCORE:    0.00 PKD
ROOT
HETATM    1 CL   UNL     1     -10.682  11.313  66.354  1.00  0.00    -0.320 Cl 
HETATM    2  C   UNL     1     -11.196  10.779  67.915  1.00  0.00    -0.318 A  
HETATM    3  C   UNL     1     -11.719  11.688  68.874  1.00  0.00    -0.397 A  
HETATM    4  O   UNL     1     -10.109   7.906  72.631  1.00  0.00    -0.229 OA 
HETATM    5  C   UNL     1     -12.250  11.208  70.085  1.00  0.00    -0.417 A  
HETATM    6  C   UNL     1     -11.934   9.913  70.437  1.00  0.00    -0.271 A  
HETATM    7  N   UNL     1     -10.495   8.164  70.344  1.00  0.00    -0.211 NA 
HETATM    8  C   UNL     1     -11.976   9.273  71.792  1.00  0.00    -0.455 C  
HETATM    9  C   UNL     1     -10.895   9.469  68.282  1.00  0.00    -0.194 A  
HETATM   10  C   UNL     1     -11.165   9.123  69.586  1.00  0.00    -0.009 A  
HETATM   11  C   UNL     1     -10.756   8.358  71.702  1.00  0.00    -0.265 C  
ENDROOT
BRANCH   3  12
HETATM   12  C   UNL     1     -11.189  13.114  68.908  1.00  0.00    -0.324 C  
BRANCH  12  13
HETATM   13  C   UNL     1     -10.927  13.915  67.626  1.00  0.00    -0.264 C  
BRANCH  13  14
HETATM   14  N   UNL     1     -10.748  15.336  67.999  1.00  0.00    -0.261 NA 
HETATM   15  N   UNL     1      -8.343  16.764  66.919  1.00  0.00    -0.191 NA 
HETATM   16  C   UNL     1      -9.496  15.601  68.733  1.00  0.00    -0.214 C  
HETATM   17  C   UNL     1     -10.865  16.302  66.885  1.00  0.00    -0.151 C  
HETATM   18  C   UNL     1      -9.580  16.769  66.112  1.00  0.00    -0.274 C  
HETATM   19  C   UNL     1      -8.265  15.605  67.818  1.00  0.00    -0.145 C  
BRANCH  15  20
HETATM   20  C   UNL     1      -7.817  17.938  67.426  1.00  0.00    -0.208 A  
HETATM   21  N   UNL     1      -8.297  19.129  67.093  1.00  0.00    -0.274 NA 
HETATM   22  S   UNL     1      -7.638  20.304  68.037  1.00  0.00    -0.149 SA 
HETATM   23  C   UNL     1      -6.672  19.250  68.981  1.00  0.00    -0.316 A  
HETATM   24  C   UNL     1      -5.849  19.574  70.068  1.00  0.00    -0.303 A  
HETATM   25  C   UNL     1      -5.138  18.541  70.683  1.00  0.00    -0.249 A  
HETATM   26  C   UNL     1      -5.250  17.240  70.210  1.00  0.00    -0.232 A  
HETATM   27  C   UNL     1      -6.090  16.923  69.142  1.00  0.00    -0.184 A  
HETATM   28  C   UNL     1      -6.821  17.959  68.478  1.00  0.00    -0.236 A  
ENDBRANCH  15  20
ENDBRANCH  13  14
ENDBRANCH  12  13
ENDBRANCH   3  12
TORSDOF 4
ENDMDL
MODEL      149
REMARK 921   NORMALIZED FREE ENERGY PREDICTED BY IDOCK:   -4.73 KCAL/MOL
REMARK 922        TOTAL FREE ENERGY PREDICTED BY IDOCK:   -6.36 KCAL/MOL
REMARK 923 INTER-LIGAND FREE ENERGY PREDICTED BY IDOCK:   -5.82 KCAL/MOL
REMARK 924 INTRA-LIGAND FREE ENERGY PREDICTED BY IDOCK:   -0.54 KCAL/MOL
REMARK 927      BINDING AFFINITY PREDICTED BY RF-SCORE:    0.00 PKD
ROOT
HETATM    1 CL   UNL     1     -12.222  13.150  69.337  1.00  0.00    -0.255 Cl 
HETATM    2  C   UNL     1     -11.588  11.963  68.253  1.00  0.00    -0.327 A  
HETATM    3  C   UNL     1     -11.253  10.655  68.698  1.00  0.00    -0.337 A  
HETATM    4  O   UNL     1      -7.833  10.550  64.305  1.00  0.00    -0.099 OA 
HETATM    5  C   UNL     1     -10.864   9.672  67.771  1.00  0.00    -0.278 A  
HETATM    6  C   UNL     1     -10.496  10.107  66.515  1.00  0.00    -0.236 A  
HETATM    7  N   UNL     1      -9.639  11.733  65.190  1.00  0.00    -0.199 NA 
HETATM    8  C   UNL     1      -9.663   9.403  65.487  1.00  0.00    -0.300 C  
HETATM    9  C   UNL     1     -11.221  12.384  66.975  1.00  0.00    -0.358 A  
HETATM   10  C   UNL     1     -10.567  11.460  66.192  1.00  0.00    -0.265 A  
HETATM   11  C   UNL     1      -8.899  10.587  64.894  1.00  0.00    -0.192 C  
ENDROOT
BRANCH   3  12
HETATM   12  C   UNL     1     -10.730  10.469  70.114  1.00  0.00    -0.232 C  
BRANCH  12  13
HETATM   13  C   UNL     1     -11.317   9.420  71.067  1.00  0.00    -0.337 C  
BRANCH  13  14
HETATM   14  N   UNL     1     -10.230   8.939  71.949  1.00  0.00    -0.343 NA 
HETATM   15  N   UNL     1      -9.140   6.192  71.442  1.00  0.00    -0.143 NA 
HETATM   16  C   UNL     1     -10.576   7.718  72.701  1.00  0.00    -0.317 C  
HETATM   17  C   UNL     1      -8.920   8.743  71.290  1.00  0.00    -0.231 C  
HETATM   18  C   UNL     1      -8.529   7.331  70.726  1.00  0.00    -0.132 C  
HETATM   19  C   UNL     1     -10.532   6.456  71.829  1.00  0.00    -0.214 C  
BRANCH  15  20
HETATM   20  C   UNL     1      -8.409   5.444  72.346  1.00  0.00    -0.118 A  
HETATM   21  N   UNL     1      -7.375   5.946  73.007  1.00  0.00    -0.093 NA 
HETATM   22  S   UNL     1      -6.872   4.905  74.177  1.00  0.00    -0.073 SA 
HETATM   23  C   UNL     1      -8.061   3.710  73.870  1.00  0.00    -0.082 A  
HETATM   24  C   UNL     1      -8.278   2.510  74.562  1.00  0.00    -0.066 A  
HETATM   25  C   UNL     1      -9.309   1.677  74.121  1.00  0.00    -0.077 A  
HETATM   26  C   UNL     1     -10.076   2.039  73.022  1.00  0.00    -0.183 A  
HETATM   27  C   UNL     1      -9.867   3.246  72.354  1.00  0.00    -0.226 A  
HETATM   28  C   UNL     1      -8.811   4.117  72.768  1.00  0.00    -0.111 A  
ENDBRANCH  15  20
ENDBRANCH  13  14
ENDBRANCH  12  13
ENDBRANCH   3  12
TORSDOF 4
ENDMDL
MODEL      150
REMARK 921   NORMALIZED FREE ENERGY PREDICTED BY IDOCK:   -4.71 KCAL/MOL
REMARK 922        TOTAL FREE ENERGY PREDICTED BY IDOCK:   -6.33 KCAL/MOL
REMARK 923 INTER-LIGAND FREE ENERGY PREDICTED BY IDOCK:   -6.42 KCAL/MOL
REMARK 924 INTRA-LIGAND FREE ENERGY PREDICTED BY IDOCK:    0.09 KCAL/MOL
REMARK 927      BINDING AFFINITY PREDICTED BY RF-SCORE:    0.00 PKD
ROOT
HETATM    1 CL   UNL     1     -11.487   8.251  72.732  1.00  0.00    -0.423 Cl 
HETATM    2  C   UNL     1     -10.412   7.469  71.628  1.00  0.00    -0.200 A  
HETATM    3  C   UNL     1      -9.490   8.210  70.841  1.00  0.00    -0.186 A  
HETATM    4  O   UNL     1      -9.645   3.835  67.398  1.00  0.00    -0.198 OA 
HETATM    5  C   UNL     1      -8.539   7.540  70.049  1.00  0.00    -0.139 A  
HETATM    6  C   UNL     1      -8.761   6.200  69.806  1.00  0.00    -0.135 A  
HETATM    7  N   UNL     1     -10.213   4.476  69.569  1.00  0.00    -0.073 NA 
HETATM    8  C   UNL     1      -8.206   5.343  68.708  1.00  0.00    -0.094 C  
HETATM    9  C   UNL     1     -10.615   6.112  71.380  1.00  0.00    -0.294 A  
HETATM   10  C   UNL     1      -9.856   5.555  70.375  1.00  0.00    -0.197 A  
HETATM   11  C   UNL     1      -9.408   4.443  68.428  1.00  0.00    -0.147 C  
ENDROOT
BRANCH   3  12
HETATM   12  C   UNL     1      -9.874   9.604  70.368  1.00  0.00    -0.315 C  
BRANCH  12  13
HETATM   13  C   UNL     1      -9.707  10.043  68.908  1.00  0.00    -0.181 C  
BRANCH  13  14
HETATM   14  N   UNL     1      -9.692  11.522  68.870  1.00  0.00    -0.116 NA 
HETATM   15  N   UNL     1     -10.913  12.864  66.483  1.00  0.00    -0.270 NA 
HETATM   16  C   UNL     1      -8.956  12.077  67.718  1.00  0.00    -0.176 C  
HETATM   17  C   UNL     1     -11.020  12.170  68.949  1.00  0.00    -0.224 C  
HETATM   18  C   UNL     1     -11.786  12.554  67.633  1.00  0.00    -0.361 C  
HETATM   19  C   UNL     1      -9.748  11.974  66.407  1.00  0.00    -0.225 C  
BRANCH  15  20
HETATM   20  C   UNL     1     -10.681  14.171  66.096  1.00  0.00    -0.297 A  
HETATM   21  N   UNL     1     -10.937  14.601  64.868  1.00  0.00    -0.396 NA 
HETATM   22  S   UNL     1     -10.794  16.237  64.783  1.00  0.00    -0.020 SA 
HETATM   23  C   UNL     1     -10.398  16.463  66.434  1.00  0.00    -0.313 A  
HETATM   24  C   UNL     1     -10.184  17.671  67.114  1.00  0.00    -0.342 A  
HETATM   25  C   UNL     1      -9.856  17.610  68.471  1.00  0.00    -0.346 A  
HETATM   26  C   UNL     1      -9.742  16.381  69.106  1.00  0.00    -0.260 A  
HETATM   27  C   UNL     1      -9.979  15.185  68.427  1.00  0.00    -0.222 A  
HETATM   28  C   UNL     1     -10.300  15.209  67.033  1.00  0.00    -0.271 A  
ENDBRANCH  15  20
ENDBRANCH  13  14
ENDBRANCH  12  13
ENDBRANCH   3  12
TORSDOF 4
ENDMDL
MODEL      151
REMARK 921   NORMALIZED FREE ENERGY PREDICTED BY IDOCK:   -4.69 KCAL/MOL
REMARK 922        TOTAL FREE ENERGY PREDICTED BY IDOCK:   -6.30 KCAL/MOL
REMARK 923 INTER-LIGAND FREE ENERGY PREDICTED BY IDOCK:   -6.25 KCAL/MOL
REMARK 924 INTRA-LIGAND FREE ENERGY PREDICTED BY IDOCK:   -0.06 KCAL/MOL
REMARK 927      BINDING AFFINITY PREDICTED BY RF-SCORE:    0.00 PKD
ROOT
HETATM    1 CL   UNL     1      -9.192  15.587  68.505  1.00  0.00    -0.190 Cl 
HETATM    2  C   UNL     1     -10.243  14.819  67.369  1.00  0.00    -0.236 A  
HETATM    3  C   UNL     1     -11.409  14.124  67.791  1.00  0.00    -0.330 A  
HETATM    4  O   UNL     1     -10.908  11.345  62.991  1.00  0.00    -0.202 OA 
HETATM    5  C   UNL     1     -12.315  13.622  66.839  1.00  0.00    -0.309 A  
HETATM    6  C   UNL     1     -11.867  13.528  65.538  1.00  0.00    -0.388 A  
HETATM    7  N   UNL     1     -10.150  13.263  64.083  1.00  0.00    -0.274 NA 
HETATM    8  C   UNL     1     -12.400  12.680  64.423  1.00  0.00    -0.523 C  
HETATM    9  C   UNL     1      -9.811  14.726  66.048  1.00  0.00    -0.350 A  
HETATM   10  C   UNL     1     -10.588  13.966  65.203  1.00  0.00    -0.379 A  
HETATM   11  C   UNL     1     -11.099  12.308  63.714  1.00  0.00    -0.442 C  
ENDROOT
BRANCH   3  12
HETATM   12  C   UNL     1     -11.395  13.401  69.130  1.00  0.00    -0.333 C  
BRANCH  12  13
HETATM   13  C   UNL     1     -11.846  11.942  69.272  1.00  0.00    -0.318 C  
BRANCH  13  14
HETATM   14  N   UNL     1     -10.709  11.157  69.801  1.00  0.00    -0.100 NA 
HETATM   15  N   UNL     1     -10.845   8.172  69.550  1.00  0.00    -0.175 NA 
HETATM   16  C   UNL     1     -11.088  10.215  70.871  1.00  0.00    -0.253 C  
HETATM   17  C   UNL     1      -9.912  10.435  68.785  1.00  0.00    -0.188 C  
HETATM   18  C   UNL     1     -10.250   8.941  68.438  1.00  0.00    -0.199 C  
HETATM   19  C   UNL     1     -11.800   8.967  70.333  1.00  0.00     0.031 C  
BRANCH  15  20
HETATM   20  C   UNL     1     -10.089   7.274  70.282  1.00  0.00    -0.192 A  
HETATM   21  N   UNL     1     -10.582   6.621  71.325  1.00  0.00    -0.220 NA 
HETATM   22  S   UNL     1      -9.535   5.456  71.828  1.00  0.00    -0.148 SA 
HETATM   23  C   UNL     1      -8.350   5.757  70.629  1.00  0.00    -0.120 A  
HETATM   24  C   UNL     1      -7.150   5.065  70.407  1.00  0.00    -0.053 A  
HETATM   25  C   UNL     1      -6.325   5.501  69.367  1.00  0.00    -0.030 A  
HETATM   26  C   UNL     1      -6.696   6.593  68.594  1.00  0.00    -0.064 A  
HETATM   27  C   UNL     1      -7.903   7.261  68.808  1.00  0.00    -0.121 A  
HETATM   28  C   UNL     1      -8.764   6.852  69.874  1.00  0.00    -0.142 A  
ENDBRANCH  15  20
ENDBRANCH  13  14
ENDBRANCH  12  13
ENDBRANCH   3  12
TORSDOF 4
ENDMDL
MODEL      152
REMARK 921   NORMALIZED FREE ENERGY PREDICTED BY IDOCK:   -4.68 KCAL/MOL
REMARK 922        TOTAL FREE ENERGY PREDICTED BY IDOCK:   -6.30 KCAL/MOL
REMARK 923 INTER-LIGAND FREE ENERGY PREDICTED BY IDOCK:   -5.83 KCAL/MOL
REMARK 924 INTRA-LIGAND FREE ENERGY PREDICTED BY IDOCK:   -0.47 KCAL/MOL
REMARK 927      BINDING AFFINITY PREDICTED BY RF-SCORE:    0.00 PKD
ROOT
HETATM    1 CL   UNL     1      -8.477  15.843  67.991  1.00  0.00    -0.161 Cl 
HETATM    2  C   UNL     1      -9.848  15.184  67.172  1.00  0.00    -0.228 A  
HETATM    3  C   UNL     1     -10.948  14.639  67.888  1.00  0.00    -0.283 A  
HETATM    4  O   UNL     1     -11.919  11.729  63.240  1.00  0.00    -0.422 OA 
HETATM    5  C   UNL     1     -12.105  14.230  67.201  1.00  0.00    -0.412 A  
HETATM    6  C   UNL     1     -11.994  14.058  65.837  1.00  0.00    -0.424 A  
HETATM    7  N   UNL     1     -10.715  13.565  64.032  1.00  0.00    -0.193 NA 
HETATM    8  C   UNL     1     -12.869  13.259  64.919  1.00  0.00    -0.321 C  
HETATM    9  C   UNL     1      -9.757  15.015  65.792  1.00  0.00    -0.375 A  
HETATM   10  C   UNL     1     -10.793  14.336  65.190  1.00  0.00    -0.378 A  
HETATM   11  C   UNL     1     -11.824  12.722  63.942  1.00  0.00    -0.468 C  
ENDROOT
BRANCH   3  12
HETATM   12  C   UNL     1     -10.693  13.945  69.218  1.00  0.00    -0.117 C  
BRANCH  12  13
HETATM   13  C   UNL     1     -11.198  12.526  69.505  1.00  0.00    -0.093 C  
BRANCH  13  14
HETATM   14  N   UNL     1     -10.098  11.578  69.217  1.00  0.00     0.031 NA 
HETATM   15  N   UNL     1     -10.629   9.392  67.235  1.00  0.00    -0.265 NA 
HETATM   16  C   UNL     1     -10.425  10.177  69.541  1.00  0.00    -0.241 C  
HETATM   17  C   UNL     1      -9.554  11.640  67.843  1.00  0.00    -0.180 C  
HETATM   18  C   UNL     1     -10.117  10.683  66.732  1.00  0.00    -0.224 C  
HETATM   19  C   UNL     1     -11.354   9.533  68.504  1.00  0.00     0.248 C  
BRANCH  15  20
HETATM   20  C   UNL     1      -9.887   8.232  67.108  1.00  0.00    -0.217 A  
HETATM   21  N   UNL     1     -10.017   7.215  67.948  1.00  0.00    -0.148 NA 
HETATM   22  S   UNL     1      -9.194   5.900  67.400  1.00  0.00    -0.108 SA 
HETATM   23  C   UNL     1      -8.629   6.636  65.959  1.00  0.00    -0.148 A  
HETATM   24  C   UNL     1      -7.874   6.055  64.931  1.00  0.00    -0.106 A  
HETATM   25  C   UNL     1      -7.514   6.860  63.847  1.00  0.00    -0.095 A  
HETATM   26  C   UNL     1      -7.893   8.195  63.814  1.00  0.00    -0.147 A  
HETATM   27  C   UNL     1      -8.664   8.759  64.832  1.00  0.00    -0.161 A  
HETATM   28  C   UNL     1      -9.037   7.969  65.964  1.00  0.00    -0.193 A  
ENDBRANCH  15  20
ENDBRANCH  13  14
ENDBRANCH  12  13
ENDBRANCH   3  12
TORSDOF 4
ENDMDL
MODEL      153
REMARK 921   NORMALIZED FREE ENERGY PREDICTED BY IDOCK:   -4.68 KCAL/MOL
REMARK 922        TOTAL FREE ENERGY PREDICTED BY IDOCK:   -6.30 KCAL/MOL
REMARK 923 INTER-LIGAND FREE ENERGY PREDICTED BY IDOCK:   -6.28 KCAL/MOL
REMARK 924 INTRA-LIGAND FREE ENERGY PREDICTED BY IDOCK:   -0.02 KCAL/MOL
REMARK 927      BINDING AFFINITY PREDICTED BY RF-SCORE:    0.00 PKD
ROOT
HETATM    1 CL   UNL     1      -8.488   2.473  66.658  1.00  0.00    -0.096 Cl 
HETATM    2  C   UNL     1      -9.310   3.550  67.729  1.00  0.00    -0.197 A  
HETATM    3  C   UNL     1      -9.845   4.785  67.272  1.00  0.00    -0.218 A  
HETATM    4  O   UNL     1      -9.390   6.402  72.582  1.00  0.00    -0.143 OA 
HETATM    5  C   UNL     1     -10.622   5.580  68.134  1.00  0.00    -0.207 A  
HETATM    6  C   UNL     1     -10.549   5.297  69.482  1.00  0.00    -0.244 A  
HETATM    7  N   UNL     1      -9.372   4.490  71.243  1.00  0.00    -0.139 NA 
HETATM    8  C   UNL     1     -10.893   6.178  70.644  1.00  0.00    -0.355 C  
HETATM    9  C   UNL     1      -9.256   3.272  69.094  1.00  0.00    -0.225 A  
HETATM   10  C   UNL     1      -9.774   4.232  69.934  1.00  0.00    -0.221 A  
HETATM   11  C   UNL     1      -9.813   5.754  71.640  1.00  0.00    -0.167 C  
ENDROOT
BRANCH   3  12
HETATM   12  C   UNL     1      -9.133   5.530  66.153  1.00  0.00    -0.155 C  
BRANCH  12  13
HETATM   13  C   UNL     1      -8.262   6.763  66.423  1.00  0.00    -0.117 C  
BRANCH  13  14
HETATM   14  N   UNL     1      -8.910   7.934  65.790  1.00  0.00    -0.150 NA 
HETATM   15  N   UNL     1      -8.144  10.656  66.787  1.00  0.00    -0.127 NA 
HETATM   16  C   UNL     1      -9.687   8.761  66.733  1.00  0.00    -0.221 C  
HETATM   17  C   UNL     1      -8.009   8.811  65.010  1.00  0.00    -0.132 C  
HETATM   18  C   UNL     1      -7.350  10.063  65.691  1.00  0.00    -0.127 C  
HETATM   19  C   UNL     1      -8.795   9.638  67.621  1.00  0.00    -0.125 C  
BRANCH  15  20
HETATM   20  C   UNL     1      -8.876  11.812  66.592  1.00  0.00    -0.189 A  
HETATM   21  N   UNL     1      -8.639  12.922  67.278  1.00  0.00    -0.198 NA 
HETATM   22  S   UNL     1      -9.494  14.183  66.657  1.00  0.00    -0.285 SA 
HETATM   23  C   UNL     1     -10.222  13.291  65.388  1.00  0.00    -0.293 A  
HETATM   24  C   UNL     1     -11.073  13.763  64.378  1.00  0.00    -0.356 A  
HETATM   25  C   UNL     1     -11.561  12.841  63.449  1.00  0.00    -0.506 A  
HETATM   26  C   UNL     1     -11.210  11.501  63.545  1.00  0.00    -0.412 A  
HETATM   27  C   UNL     1     -10.344  11.045  64.541  1.00  0.00    -0.420 A  
HETATM   28  C   UNL     1      -9.838  11.958  65.518  1.00  0.00    -0.257 A  
ENDBRANCH  15  20
ENDBRANCH  13  14
ENDBRANCH  12  13
ENDBRANCH   3  12
TORSDOF 4
ENDMDL
MODEL      154
REMARK 921   NORMALIZED FREE ENERGY PREDICTED BY IDOCK:   -4.68 KCAL/MOL
REMARK 922        TOTAL FREE ENERGY PREDICTED BY IDOCK:   -6.29 KCAL/MOL
REMARK 923 INTER-LIGAND FREE ENERGY PREDICTED BY IDOCK:   -6.91 KCAL/MOL
REMARK 924 INTRA-LIGAND FREE ENERGY PREDICTED BY IDOCK:    0.62 KCAL/MOL
REMARK 927      BINDING AFFINITY PREDICTED BY RF-SCORE:    0.00 PKD
ROOT
HETATM    1 CL   UNL     1     -12.398   7.549  72.077  1.00  0.00    -0.318 Cl 
HETATM    2  C   UNL     1     -12.324   9.163  71.466  1.00  0.00    -0.347 A  
HETATM    3  C   UNL     1     -11.218   9.615  70.696  1.00  0.00    -0.385 A  
HETATM    4  O   UNL     1     -12.719  14.699  72.402  1.00  0.00    -0.327 OA 
HETATM    5  C   UNL     1     -11.245  10.890  70.102  1.00  0.00    -0.317 A  
HETATM    6  C   UNL     1     -12.192  11.777  70.570  1.00  0.00    -0.438 A  
HETATM    7  N   UNL     1     -13.511  12.509  72.261  1.00  0.00    -0.509 NA 
HETATM    8  C   UNL     1     -12.207  13.272  70.462  1.00  0.00    -0.416 C  
HETATM    9  C   UNL     1     -13.281  10.070  71.919  1.00  0.00    -0.557 A  
HETATM   10  C   UNL     1     -13.100  11.384  71.549  1.00  0.00    -0.335 A  
HETATM   11  C   UNL     1     -12.826  13.639  71.810  1.00  0.00    -0.315 C  
ENDROOT
BRANCH   3  12
HETATM   12  C   UNL     1      -9.835   9.056  70.993  1.00  0.00    -0.352 C  
BRANCH  12  13
HETATM   13  C   UNL     1      -9.609   7.577  71.329  1.00  0.00    -0.156 C  
BRANCH  13  14
HETATM   14  N   UNL     1      -8.846   6.963  70.219  1.00  0.00    -0.148 NA 
HETATM   15  N   UNL     1     -10.259   6.584  67.602  1.00  0.00    -0.152 NA 
HETATM   16  C   UNL     1      -9.431   5.702  69.726  1.00  0.00    -0.148 C  
HETATM   17  C   UNL     1      -8.579   7.851  69.067  1.00  0.00    -0.135 C  
HETATM   18  C   UNL     1      -9.559   7.863  67.840  1.00  0.00    -0.147 C  
HETATM   19  C   UNL     1     -10.671   5.929  68.851  1.00  0.00    -0.300 C  
BRANCH  15  20
HETATM   20  C   UNL     1      -9.856   5.727  66.594  1.00  0.00    -0.165 A  
HETATM   21  N   UNL     1     -10.687   4.861  66.030  1.00  0.00    -0.287 NA 
HETATM   22  S   UNL     1      -9.992   4.165  64.711  1.00  0.00    -0.163 SA 
HETATM   23  C   UNL     1      -8.516   5.030  64.815  1.00  0.00    -0.148 A  
HETATM   24  C   UNL     1      -7.423   4.982  63.938  1.00  0.00    -0.061 A  
HETATM   25  C   UNL     1      -6.311   5.774  64.233  1.00  0.00    -0.029 A  
HETATM   26  C   UNL     1      -6.304   6.569  65.370  1.00  0.00    -0.038 A  
HETATM   27  C   UNL     1      -7.406   6.628  66.225  1.00  0.00    -0.073 A  
HETATM   28  C   UNL     1      -8.555   5.819  65.963  1.00  0.00    -0.139 A  
ENDBRANCH  15  20
ENDBRANCH  13  14
ENDBRANCH  12  13
ENDBRANCH   3  12
TORSDOF 4
ENDMDL
MODEL      155
REMARK 921   NORMALIZED FREE ENERGY PREDICTED BY IDOCK:   -4.65 KCAL/MOL
REMARK 922        TOTAL FREE ENERGY PREDICTED BY IDOCK:   -6.26 KCAL/MOL
REMARK 923 INTER-LIGAND FREE ENERGY PREDICTED BY IDOCK:   -5.67 KCAL/MOL
REMARK 924 INTRA-LIGAND FREE ENERGY PREDICTED BY IDOCK:   -0.59 KCAL/MOL
REMARK 927      BINDING AFFINITY PREDICTED BY RF-SCORE:    0.00 PKD
ROOT
HETATM    1 CL   UNL     1     -12.739  12.439  64.480  1.00  0.00    -0.496 Cl 
HETATM    2  C   UNL     1     -11.709  13.408  65.472  1.00  0.00    -0.340 A  
HETATM    3  C   UNL     1     -10.295  13.267  65.434  1.00  0.00    -0.316 A  
HETATM    4  O   UNL     1     -10.417  15.423  70.567  1.00  0.00    -0.280 OA 
HETATM    5  C   UNL     1      -9.476  14.157  66.153  1.00  0.00    -0.229 A  
HETATM    6  C   UNL     1     -10.085  14.914  67.131  1.00  0.00    -0.240 A  
HETATM    7  N   UNL     1     -11.739  15.157  68.662  1.00  0.00    -0.347 NA 
HETATM    8  C   UNL     1      -9.460  15.604  68.306  1.00  0.00    -0.200 C  
HETATM    9  C   UNL     1     -12.308  14.189  66.458  1.00  0.00    -0.405 A  
HETATM   10  C   UNL     1     -11.459  14.820  67.339  1.00  0.00    -0.363 A  
HETATM   11  C   UNL     1     -10.553  15.405  69.356  1.00  0.00    -0.251 C  
ENDROOT
BRANCH   3  12
HETATM   12  C   UNL     1      -9.697  11.894  65.165  1.00  0.00    -0.197 C  
BRANCH  12  13
HETATM   13  C   UNL     1      -8.542  11.332  66.003  1.00  0.00    -0.130 C  
BRANCH  13  14
HETATM   14  N   UNL     1      -9.006  10.085  66.651  1.00  0.00    -0.138 NA 
HETATM   15  N   UNL     1      -7.811   7.501  65.710  1.00  0.00    -0.101 NA 
HETATM   16  C   UNL     1      -9.633   9.131  65.717  1.00  0.00    -0.253 C  
HETATM   17  C   UNL     1      -7.988   9.373  67.454  1.00  0.00    -0.106 C  
HETATM   18  C   UNL     1      -7.132   8.229  66.802  1.00  0.00    -0.077 C  
HETATM   19  C   UNL     1      -8.604   8.390  64.852  1.00  0.00    -0.080 C  
BRANCH  15  20
HETATM   20  C   UNL     1      -8.355   6.247  65.920  1.00  0.00    -0.142 A  
HETATM   21  N   UNL     1      -9.107   5.971  66.977  1.00  0.00    -0.116 NA 
HETATM   22  S   UNL     1      -9.804   4.489  66.823  1.00  0.00    -0.216 SA 
HETATM   23  C   UNL     1      -9.140   4.143  65.282  1.00  0.00    -0.140 A  
HETATM   24  C   UNL     1      -9.364   3.017  64.477  1.00  0.00    -0.145 A  
HETATM   25  C   UNL     1      -8.697   2.944  63.252  1.00  0.00    -0.085 A  
HETATM   26  C   UNL     1      -7.835   3.961  62.865  1.00  0.00    -0.066 A  
HETATM   27  C   UNL     1      -7.636   5.089  63.663  1.00  0.00    -0.067 A  
HETATM   28  C   UNL     1      -8.290   5.190  64.931  1.00  0.00    -0.145 A  
ENDBRANCH  15  20
ENDBRANCH  13  14
ENDBRANCH  12  13
ENDBRANCH   3  12
TORSDOF 4
ENDMDL
MODEL      156
REMARK 921   NORMALIZED FREE ENERGY PREDICTED BY IDOCK:   -4.64 KCAL/MOL
REMARK 922        TOTAL FREE ENERGY PREDICTED BY IDOCK:   -6.25 KCAL/MOL
REMARK 923 INTER-LIGAND FREE ENERGY PREDICTED BY IDOCK:   -6.26 KCAL/MOL
REMARK 924 INTRA-LIGAND FREE ENERGY PREDICTED BY IDOCK:    0.01 KCAL/MOL
REMARK 927      BINDING AFFINITY PREDICTED BY RF-SCORE:    0.00 PKD
ROOT
HETATM    1 CL   UNL     1     -12.610  13.165  70.786  1.00  0.00    -0.375 Cl 
HETATM    2  C   UNL     1     -12.155  14.370  69.635  1.00  0.00    -0.334 A  
HETATM    3  C   UNL     1     -12.005  14.060  68.256  1.00  0.00    -0.384 A  
HETATM    4  O   UNL     1      -8.659  18.510  68.108  1.00  0.00    -0.286 OA 
HETATM    5  C   UNL     1     -11.763  15.085  67.324  1.00  0.00    -0.238 A  
HETATM    6  C   UNL     1     -11.345  16.300  67.825  1.00  0.00    -0.081 A  
HETATM    7  N   UNL     1     -10.276  17.479  69.439  1.00  0.00    -0.196 NA 
HETATM    8  C   UNL     1     -10.625  17.408  67.116  1.00  0.00    -0.264 C  
HETATM    9  C   UNL     1     -11.741  15.608  70.124  1.00  0.00    -0.374 A  
HETATM   10  C   UNL     1     -11.227  16.489  69.199  1.00  0.00    -0.221 A  
HETATM   11  C   UNL     1      -9.707  17.899  68.235  1.00  0.00    -0.327 C  
ENDROOT
BRANCH   3  12
HETATM   12  C   UNL     1     -11.504  12.679  67.860  1.00  0.00    -0.360 C  
BRANCH  12  13
HETATM   13  C   UNL     1     -11.043  12.359  66.433  1.00  0.00    -0.301 C  
BRANCH  13  14
HETATM   14  N   UNL     1     -10.985  10.888  66.285  1.00  0.00    -0.130 NA 
HETATM   15  N   UNL     1      -8.440   9.510  67.067  1.00  0.00    -0.127 NA 
HETATM   16  C   UNL     1      -9.931  10.427  65.361  1.00  0.00    -0.295 C  
HETATM   17  C   UNL     1     -10.881  10.128  67.551  1.00  0.00    -0.290 C  
HETATM   18  C   UNL     1      -9.471   9.716  68.105  1.00  0.00    -0.132 C  
HETATM   19  C   UNL     1      -8.530  10.496  65.984  1.00  0.00    -0.156 C  
BRANCH  15  20
HETATM   20  C   UNL     1      -8.068   8.237  66.674  1.00  0.00    -0.102 A  
HETATM   21  N   UNL     1      -6.803   7.909  66.450  1.00  0.00    -0.061 NA 
HETATM   22  S   UNL     1      -6.652   6.284  66.242  1.00  0.00    -0.049 SA 
HETATM   23  C   UNL     1      -8.311   5.924  66.475  1.00  0.00    -0.112 A  
HETATM   24  C   UNL     1      -8.928   4.665  66.494  1.00  0.00    -0.113 A  
HETATM   25  C   UNL     1     -10.310   4.615  66.690  1.00  0.00    -0.205 A  
HETATM   26  C   UNL     1     -11.034   5.789  66.850  1.00  0.00    -0.242 A  
HETATM   27  C   UNL     1     -10.409   7.036  66.852  1.00  0.00    -0.338 A  
HETATM   28  C   UNL     1      -8.998   7.126  66.638  1.00  0.00    -0.164 A  
ENDBRANCH  15  20
ENDBRANCH  13  14
ENDBRANCH  12  13
ENDBRANCH   3  12
TORSDOF 4
ENDMDL
MODEL      157
REMARK 921   NORMALIZED FREE ENERGY PREDICTED BY IDOCK:   -4.61 KCAL/MOL
REMARK 922        TOTAL FREE ENERGY PREDICTED BY IDOCK:   -6.21 KCAL/MOL
REMARK 923 INTER-LIGAND FREE ENERGY PREDICTED BY IDOCK:   -6.19 KCAL/MOL
REMARK 924 INTRA-LIGAND FREE ENERGY PREDICTED BY IDOCK:   -0.02 KCAL/MOL
REMARK 927      BINDING AFFINITY PREDICTED BY RF-SCORE:    0.00 PKD
ROOT
HETATM    1 CL   UNL     1     -10.862  11.452  65.328  1.00  0.00    -0.326 Cl 
HETATM    2  C   UNL     1     -11.103  11.092  67.001  1.00  0.00    -0.273 A  
HETATM    3  C   UNL     1     -11.212  12.123  67.973  1.00  0.00    -0.319 A  
HETATM    4  O   UNL     1      -9.552   8.230  71.592  1.00  0.00    -0.165 OA 
HETATM    5  C   UNL     1     -11.538  11.806  69.304  1.00  0.00    -0.378 A  
HETATM    6  C   UNL     1     -11.405  10.487  69.684  1.00  0.00    -0.345 A  
HETATM    7  N   UNL     1     -10.387   8.479  69.428  1.00  0.00    -0.213 NA 
HETATM    8  C   UNL     1     -11.262   9.920  71.064  1.00  0.00    -0.435 C  
HETATM    9  C   UNL     1     -10.984   9.762  67.400  1.00  0.00    -0.176 A  
HETATM   10  C   UNL     1     -11.014   9.526  68.756  1.00  0.00    -0.080 A  
HETATM   11  C   UNL     1     -10.293   8.771  70.790  1.00  0.00    -0.213 C  
ENDROOT
BRANCH   3  12
HETATM   12  C   UNL     1     -10.424  13.410  67.777  1.00  0.00    -0.246 C  
BRANCH  12  13
HETATM   13  C   UNL     1      -8.894  13.449  67.869  1.00  0.00    -0.194 C  
BRANCH  13  14
HETATM   14  N   UNL     1      -8.424  14.692  67.219  1.00  0.00    -0.203 NA 
HETATM   15  N   UNL     1      -7.122  16.763  68.952  1.00  0.00    -0.203 NA 
HETATM   16  C   UNL     1      -9.067  15.913  67.741  1.00  0.00    -0.196 C  
HETATM   17  C   UNL     1      -6.957  14.887  67.211  1.00  0.00    -0.017 C  
HETATM   18  C   UNL     1      -6.270  15.714  68.356  1.00  0.00    -0.102 C  
HETATM   19  C   UNL     1      -8.516  16.330  69.111  1.00  0.00    -0.218 C  
BRANCH  15  20
HETATM   20  C   UNL     1      -6.954  18.094  68.617  1.00  0.00    -0.257 A  
HETATM   21  N   UNL     1      -6.885  19.050  69.534  1.00  0.00    -0.225 NA 
HETATM   22  S   UNL     1      -6.440  20.479  68.851  1.00  0.00    -0.140 SA 
HETATM   23  C   UNL     1      -6.287  19.869  67.256  1.00  0.00    -0.189 A  
HETATM   24  C   UNL     1      -5.864  20.552  66.107  1.00  0.00    -0.225 A  
HETATM   25  C   UNL     1      -5.829  19.848  64.902  1.00  0.00    -0.256 A  
HETATM   26  C   UNL     1      -6.215  18.515  64.862  1.00  0.00    -0.085 A  
HETATM   27  C   UNL     1      -6.612  17.837  66.015  1.00  0.00    -0.305 A  
HETATM   28  C   UNL     1      -6.675  18.531  67.264  1.00  0.00    -0.208 A  
ENDBRANCH  15  20
ENDBRANCH  13  14
ENDBRANCH  12  13
ENDBRANCH   3  12
TORSDOF 4
ENDMDL
MODEL      158
REMARK 921   NORMALIZED FREE ENERGY PREDICTED BY IDOCK:   -4.61 KCAL/MOL
REMARK 922        TOTAL FREE ENERGY PREDICTED BY IDOCK:   -6.20 KCAL/MOL
REMARK 923 INTER-LIGAND FREE ENERGY PREDICTED BY IDOCK:   -6.24 KCAL/MOL
REMARK 924 INTRA-LIGAND FREE ENERGY PREDICTED BY IDOCK:    0.04 KCAL/MOL
REMARK 927      BINDING AFFINITY PREDICTED BY RF-SCORE:    0.00 PKD
ROOT
HETATM    1 CL   UNL     1     -12.149  12.789  68.432  1.00  0.00    -0.247 Cl 
HETATM    2  C   UNL     1     -11.483  11.844  67.148  1.00  0.00    -0.319 A  
HETATM    3  C   UNL     1     -10.710  10.681  67.408  1.00  0.00    -0.326 A  
HETATM    4  O   UNL     1      -8.507  11.602  62.377  1.00  0.00    -0.216 OA 
HETATM    5  C   UNL     1     -10.292   9.859  66.346  1.00  0.00    -0.246 A  
HETATM    6  C   UNL     1     -10.359  10.395  65.077  1.00  0.00    -0.249 A  
HETATM    7  N   UNL     1     -10.312  12.213  63.724  1.00  0.00    -0.404 NA 
HETATM    8  C   UNL     1      -9.627   9.969  63.840  1.00  0.00    -0.217 C  
HETATM    9  C   UNL     1     -11.553  12.366  65.858  1.00  0.00    -0.449 A  
HETATM   10  C   UNL     1     -10.870  11.675  64.882  1.00  0.00    -0.301 A  
HETATM   11  C   UNL     1      -9.376  11.327  63.187  1.00  0.00    -0.311 C  
ENDROOT
BRANCH   3  12
HETATM   12  C   UNL     1      -9.841  10.635  68.656  1.00  0.00    -0.183 C  
BRANCH  12  13
HETATM   13  C   UNL     1     -10.218   9.789  69.879  1.00  0.00    -0.254 C  
BRANCH  13  14
HETATM   14  N   UNL     1     -10.039   8.363  69.527  1.00  0.00    -0.195 NA 
HETATM   15  N   UNL     1      -9.877   6.385  71.775  1.00  0.00    -0.164 NA 
HETATM   16  C   UNL     1      -8.803   7.771  70.071  1.00  0.00    -0.142 C  
HETATM   17  C   UNL     1     -11.181   7.481  69.858  1.00  0.00    -0.108 C  
HETATM   18  C   UNL     1     -11.209   6.715  71.228  1.00  0.00    -0.282 C  
HETATM   19  C   UNL     1      -8.905   7.467  71.572  1.00  0.00    -0.124 C  
BRANCH  15  20
HETATM   20  C   UNL     1      -9.362   5.106  71.677  1.00  0.00    -0.147 A  
HETATM   21  N   UNL     1      -9.032   4.394  72.746  1.00  0.00    -0.114 NA 
HETATM   22  S   UNL     1      -8.688   2.841  72.325  1.00  0.00    -0.074 SA 
HETATM   23  C   UNL     1      -8.997   3.041  70.652  1.00  0.00    -0.096 A  
HETATM   24  C   UNL     1      -8.956   2.068  69.643  1.00  0.00    -0.149 A  
HETATM   25  C   UNL     1      -9.236   2.468  68.334  1.00  0.00    -0.253 A  
HETATM   26  C   UNL     1      -9.533   3.796  68.060  1.00  0.00    -0.221 A  
HETATM   27  C   UNL     1      -9.594   4.753  69.074  1.00  0.00    -0.233 A  
HETATM   28  C   UNL     1      -9.298   4.382  70.423  1.00  0.00    -0.219 A  
ENDBRANCH  15  20
ENDBRANCH  13  14
ENDBRANCH  12  13
ENDBRANCH   3  12
TORSDOF 4
ENDMDL
MODEL      159
REMARK 921   NORMALIZED FREE ENERGY PREDICTED BY IDOCK:   -4.59 KCAL/MOL
REMARK 922        TOTAL FREE ENERGY PREDICTED BY IDOCK:   -6.19 KCAL/MOL
REMARK 923 INTER-LIGAND FREE ENERGY PREDICTED BY IDOCK:   -5.88 KCAL/MOL
REMARK 924 INTRA-LIGAND FREE ENERGY PREDICTED BY IDOCK:   -0.31 KCAL/MOL
REMARK 927      BINDING AFFINITY PREDICTED BY RF-SCORE:    0.00 PKD
ROOT
HETATM    1 CL   UNL     1     -11.566  12.238  66.839  1.00  0.00    -0.426 Cl 
HETATM    2  C   UNL     1     -11.896  11.744  68.461  1.00  0.00    -0.303 A  
HETATM    3  C   UNL     1     -11.948  12.683  69.527  1.00  0.00    -0.332 A  
HETATM    4  O   UNL     1     -10.767   8.328  72.790  1.00  0.00    -0.343 OA 
HETATM    5  C   UNL     1     -12.348  12.272  70.811  1.00  0.00    -0.383 A  
HETATM    6  C   UNL     1     -12.345  10.916  71.063  1.00  0.00    -0.498 A  
HETATM    7  N   UNL     1     -11.500   8.857  70.639  1.00  0.00    -0.263 NA 
HETATM    8  C   UNL     1     -12.302  10.209  72.384  1.00  0.00     0.514 C  
HETATM    9  C   UNL     1     -11.909  10.376  68.731  1.00  0.00     0.001 A  
HETATM   10  C   UNL     1     -12.008  10.016  70.056  1.00  0.00    -0.074 A  
HETATM   11  C   UNL     1     -11.428   9.008  72.025  1.00  0.00    -0.338 C  
ENDROOT
BRANCH   3  12
HETATM   12  C   UNL     1     -11.044  13.905  69.479  1.00  0.00    -0.178 C  
BRANCH  12  13
HETATM   13  C   UNL     1     -11.426  15.171  68.701  1.00  0.00    -0.325 C  
BRANCH  13  14
HETATM   14  N   UNL     1     -10.746  16.324  69.331  1.00  0.00    -0.296 NA 
HETATM   15  N   UNL     1      -9.111  18.111  67.564  1.00  0.00    -0.253 NA 
HETATM   16  C   UNL     1      -9.278  16.293  69.190  1.00  0.00    -0.235 C  
HETATM   17  C   UNL     1     -11.241  17.655  68.918  1.00  0.00     0.818 C  
HETATM   18  C   UNL     1     -10.546  18.418  67.734  1.00  0.00    -0.391 C  
HETATM   19  C   UNL     1      -8.813  16.690  67.783  1.00  0.00    -0.206 C  
BRANCH  15  20
HETATM   20  C   UNL     1      -8.138  18.991  68.000  1.00  0.00    -0.295 A  
HETATM   21  N   UNL     1      -7.839  19.134  69.285  1.00  0.00    -0.168 NA 
HETATM   22  S   UNL     1      -6.488  20.055  69.467  1.00  0.00    -0.307 SA 
HETATM   23  C   UNL     1      -6.211  20.293  67.793  1.00  0.00    -0.234 A  
HETATM   24  C   UNL     1      -5.147  20.970  67.181  1.00  0.00    -0.252 A  
HETATM   25  C   UNL     1      -5.136  21.049  65.786  1.00  0.00    -0.234 A  
HETATM   26  C   UNL     1      -6.162  20.476  65.048  1.00  0.00    -0.314 A  
HETATM   27  C   UNL     1      -7.206  19.784  65.665  1.00  0.00    -0.322 A  
HETATM   28  C   UNL     1      -7.258  19.697  67.091  1.00  0.00    -0.241 A  
ENDBRANCH  15  20
ENDBRANCH  13  14
ENDBRANCH  12  13
ENDBRANCH   3  12
TORSDOF 4
ENDMDL
MODEL      160
REMARK 921   NORMALIZED FREE ENERGY PREDICTED BY IDOCK:   -4.56 KCAL/MOL
REMARK 922        TOTAL FREE ENERGY PREDICTED BY IDOCK:   -6.15 KCAL/MOL
REMARK 923 INTER-LIGAND FREE ENERGY PREDICTED BY IDOCK:   -5.68 KCAL/MOL
REMARK 924 INTRA-LIGAND FREE ENERGY PREDICTED BY IDOCK:   -0.47 KCAL/MOL
REMARK 927      BINDING AFFINITY PREDICTED BY RF-SCORE:    0.00 PKD
ROOT
HETATM    1 CL   UNL     1      -5.857   8.532  73.668  1.00  0.00    -0.104 Cl 
HETATM    2  C   UNL     1      -7.278   7.607  73.338  1.00  0.00    -0.090 A  
HETATM    3  C   UNL     1      -7.223   6.412  72.570  1.00  0.00    -0.083 A  
HETATM    4  O   UNL     1     -12.595   7.418  71.500  1.00  0.00    -0.336 OA 
HETATM    5  C   UNL     1      -8.371   5.610  72.428  1.00  0.00    -0.115 A  
HETATM    6  C   UNL     1      -9.580   6.187  72.753  1.00  0.00    -0.158 A  
HETATM    7  N   UNL     1     -10.867   8.044  72.939  1.00  0.00    -0.372 NA 
HETATM    8  C   UNL     1     -10.958   5.777  72.329  1.00  0.00    -0.314 C  
HETATM    9  C   UNL     1      -8.509   8.170  73.671  1.00  0.00    -0.308 A  
HETATM   10  C   UNL     1      -9.627   7.489  73.247  1.00  0.00    -0.254 A  
HETATM   11  C   UNL     1     -11.619   7.146  72.178  1.00  0.00    -0.279 C  
ENDROOT
BRANCH   3  12
HETATM   12  C   UNL     1      -6.200   6.300  71.450  1.00  0.00    -0.040 C  
BRANCH  12  13
HETATM   13  C   UNL     1      -6.610   6.026  69.997  1.00  0.00    -0.040 C  
BRANCH  13  14
HETATM   14  N   UNL     1      -6.634   7.316  69.273  1.00  0.00    -0.040 NA 
HETATM   15  N   UNL     1      -9.235   8.183  68.060  1.00  0.00    -0.133 NA 
HETATM   16  C   UNL     1      -7.010   7.191  67.853  1.00  0.00    -0.080 C  
HETATM   17  C   UNL     1      -7.456   8.377  69.897  1.00  0.00    -0.064 C  
HETATM   18  C   UNL     1      -8.951   8.572  69.456  1.00  0.00    -0.149 C  
HETATM   19  C   UNL     1      -8.516   6.966  67.659  1.00  0.00    -0.122 C  
BRANCH  15  20
HETATM   20  C   UNL     1      -9.375   9.136  67.068  1.00  0.00    -0.148 A  
HETATM   21  N   UNL     1      -8.922   8.946  65.836  1.00  0.00    -0.187 NA 
HETATM   22  S   UNL     1      -9.450  10.137  64.832  1.00  0.00    -0.311 SA 
HETATM   23  C   UNL     1     -10.357  10.976  66.020  1.00  0.00    -0.254 A  
HETATM   24  C   UNL     1     -11.158  12.115  65.851  1.00  0.00    -0.360 A  
HETATM   25  C   UNL     1     -11.800  12.637  66.976  1.00  0.00    -0.415 A  
HETATM   26  C   UNL     1     -11.631  12.038  68.216  1.00  0.00    -0.394 A  
HETATM   27  C   UNL     1     -10.850  10.891  68.371  1.00  0.00    -0.266 A  
HETATM   28  C   UNL     1     -10.165  10.338  67.244  1.00  0.00    -0.267 A  
ENDBRANCH  15  20
ENDBRANCH  13  14
ENDBRANCH  12  13
ENDBRANCH   3  12
TORSDOF 4
ENDMDL
MODEL      161
REMARK 921   NORMALIZED FREE ENERGY PREDICTED BY IDOCK:   -4.56 KCAL/MOL
REMARK 922        TOTAL FREE ENERGY PREDICTED BY IDOCK:   -6.15 KCAL/MOL
REMARK 923 INTER-LIGAND FREE ENERGY PREDICTED BY IDOCK:   -6.16 KCAL/MOL
REMARK 924 INTRA-LIGAND FREE ENERGY PREDICTED BY IDOCK:    0.02 KCAL/MOL
REMARK 927      BINDING AFFINITY PREDICTED BY RF-SCORE:    0.00 PKD
ROOT
HETATM    1 CL   UNL     1      -8.872   9.178  64.924  1.00  0.00    -0.226 Cl 
HETATM    2  C   UNL     1      -9.549   9.008  66.504  1.00  0.00    -0.223 A  
HETATM    3  C   UNL     1      -9.323   9.980  67.516  1.00  0.00    -0.162 A  
HETATM    4  O   UNL     1     -10.400   5.832  71.073  1.00  0.00    -0.209 OA 
HETATM    5  C   UNL     1      -9.992   9.883  68.750  1.00  0.00    -0.183 A  
HETATM    6  C   UNL     1     -10.576   8.670  69.051  1.00  0.00    -0.179 A  
HETATM    7  N   UNL     1     -10.614   6.416  68.823  1.00  0.00    -0.223 NA 
HETATM    8  C   UNL     1     -10.970   8.128  70.392  1.00  0.00    -0.248 C  
HETATM    9  C   UNL     1     -10.153   7.793  66.822  1.00  0.00    -0.341 A  
HETATM   10  C   UNL     1     -10.533   7.624  68.134  1.00  0.00    -0.181 A  
HETATM   11  C   UNL     1     -10.636   6.649  70.200  1.00  0.00    -0.221 C  
ENDROOT
BRANCH   3  12
HETATM   12  C   UNL     1      -7.996  10.723  67.544  1.00  0.00    -0.110 C  
BRANCH  12  13
HETATM   13  C   UNL     1      -7.729  11.876  68.520  1.00  0.00    -0.135 C  
BRANCH  13  14
HETATM   14  N   UNL     1      -7.724  13.140  67.750  1.00  0.00    -0.138 NA 
HETATM   15  N   UNL     1      -8.734  15.607  69.122  1.00  0.00    -0.236 NA 
HETATM   16  C   UNL     1      -9.063  13.736  67.584  1.00  0.00    -0.196 C  
HETATM   17  C   UNL     1      -6.794  14.178  68.245  1.00  0.00    -0.107 C  
HETATM   18  C   UNL     1      -7.302  15.272  69.251  1.00  0.00    -0.191 C  
HETATM   19  C   UNL     1      -9.565  14.424  68.860  1.00  0.00    -0.123 C  
BRANCH  15  20
HETATM   20  C   UNL     1      -9.142  16.764  68.485  1.00  0.00    -0.241 A  
HETATM   21  N   UNL     1     -10.421  17.099  68.378  1.00  0.00    -0.356 NA 
HETATM   22  S   UNL     1     -10.574  18.630  67.797  1.00  0.00    -0.340 SA 
HETATM   23  C   UNL     1      -8.893  18.942  67.681  1.00  0.00    -0.288 A  
HETATM   24  C   UNL     1      -8.259  20.131  67.293  1.00  0.00    -0.381 A  
HETATM   25  C   UNL     1      -6.863  20.149  67.260  1.00  0.00    -0.274 A  
HETATM   26  C   UNL     1      -6.143  19.010  67.597  1.00  0.00    -0.214 A  
HETATM   27  C   UNL     1      -6.782  17.838  68.004  1.00  0.00    -0.193 A  
HETATM   28  C   UNL     1      -8.211  17.779  68.034  1.00  0.00    -0.248 A  
ENDBRANCH  15  20
ENDBRANCH  13  14
ENDBRANCH  12  13
ENDBRANCH   3  12
TORSDOF 4
ENDMDL
MODEL      162
REMARK 921   NORMALIZED FREE ENERGY PREDICTED BY IDOCK:   -4.56 KCAL/MOL
REMARK 922        TOTAL FREE ENERGY PREDICTED BY IDOCK:   -6.14 KCAL/MOL
REMARK 923 INTER-LIGAND FREE ENERGY PREDICTED BY IDOCK:   -5.90 KCAL/MOL
REMARK 924 INTRA-LIGAND FREE ENERGY PREDICTED BY IDOCK:   -0.25 KCAL/MOL
REMARK 927      BINDING AFFINITY PREDICTED BY RF-SCORE:    0.00 PKD
ROOT
HETATM    1 CL   UNL     1     -13.475   8.629  71.607  1.00  0.00    -0.380 Cl 
HETATM    2  C   UNL     1     -13.100  10.262  71.187  1.00  0.00    -0.390 A  
HETATM    3  C   UNL     1     -12.104  10.570  70.221  1.00  0.00    -0.402 A  
HETATM    4  O   UNL     1     -11.777  15.483  72.823  1.00  0.00    -0.440 OA 
HETATM    5  C   UNL     1     -11.912  11.900  69.804  1.00  0.00    -0.377 A  
HETATM    6  C   UNL     1     -12.462  12.888  70.593  1.00  0.00    -0.333 A  
HETATM    7  N   UNL     1     -13.142  13.599  72.635  1.00  0.00    -0.417 NA 
HETATM    8  C   UNL     1     -12.096  14.340  70.666  1.00  0.00    -0.417 C  
HETATM    9  C   UNL     1     -13.657  11.274  71.967  1.00  0.00    -0.134 A  
HETATM   10  C   UNL     1     -13.212  12.553  71.718  1.00  0.00    -0.344 A  
HETATM   11  C   UNL     1     -12.290  14.598  72.160  1.00  0.00    -0.298 C  
ENDROOT
BRANCH   3  12
HETATM   12  C   UNL     1     -10.893   9.659  70.094  1.00  0.00    -0.325 C  
BRANCH  12  13
HETATM   13  C   UNL     1     -10.079   9.564  68.798  1.00  0.00    -0.188 C  
BRANCH  13  14
HETATM   14  N   UNL     1     -10.076   8.151  68.357  1.00  0.00    -0.195 NA 
HETATM   15  N   UNL     1      -9.575   6.048  70.434  1.00  0.00    -0.162 NA 
HETATM   16  C   UNL     1      -8.795   7.459  68.597  1.00  0.00    -0.126 C  
HETATM   17  C   UNL     1     -11.178   7.320  68.890  1.00  0.00     0.179 C  
HETATM   18  C   UNL     1     -10.967   6.483  70.201  1.00  0.00    -0.317 C  
HETATM   19  C   UNL     1      -8.597   7.081  70.071  1.00  0.00    -0.141 C  
BRANCH  15  20
HETATM   20  C   UNL     1      -9.181   4.748  70.175  1.00  0.00    -0.135 A  
HETATM   21  N   UNL     1      -9.434   4.150  69.019  1.00  0.00    -0.166 NA 
HETATM   22  S   UNL     1      -8.634   2.716  68.919  1.00  0.00    -0.083 SA 
HETATM   23  C   UNL     1      -7.868   2.837  70.447  1.00  0.00    -0.042 A  
HETATM   24  C   UNL     1      -6.949   1.950  71.025  1.00  0.00    -0.032 A  
HETATM   25  C   UNL     1      -6.461   2.250  72.299  1.00  0.00    -0.014 A  
HETATM   26  C   UNL     1      -6.894   3.392  72.960  1.00  0.00    -0.038 A  
HETATM   27  C   UNL     1      -7.792   4.280  72.367  1.00  0.00    -0.087 A  
HETATM   28  C   UNL     1      -8.324   3.997  71.071  1.00  0.00    -0.090 A  
ENDBRANCH  15  20
ENDBRANCH  13  14
ENDBRANCH  12  13
ENDBRANCH   3  12
TORSDOF 4
ENDMDL
MODEL      163
REMARK 921   NORMALIZED FREE ENERGY PREDICTED BY IDOCK:   -4.55 KCAL/MOL
REMARK 922        TOTAL FREE ENERGY PREDICTED BY IDOCK:   -6.14 KCAL/MOL
REMARK 923 INTER-LIGAND FREE ENERGY PREDICTED BY IDOCK:   -5.61 KCAL/MOL
REMARK 924 INTRA-LIGAND FREE ENERGY PREDICTED BY IDOCK:   -0.53 KCAL/MOL
REMARK 927      BINDING AFFINITY PREDICTED BY RF-SCORE:    0.00 PKD
ROOT
HETATM    1 CL   UNL     1     -12.909  11.781  63.805  1.00  0.00    -0.453 Cl 
HETATM    2  C   UNL     1     -11.953  12.645  64.956  1.00  0.00    -0.419 A  
HETATM    3  C   UNL     1     -10.625  12.243  65.268  1.00  0.00    -0.322 A  
HETATM    4  O   UNL     1     -11.457  14.917  70.082  1.00  0.00    -0.255 OA 
HETATM    5  C   UNL     1      -9.826  13.039  66.109  1.00  0.00    -0.275 A  
HETATM    6  C   UNL     1     -10.472  13.995  66.865  1.00  0.00    -0.276 A  
HETATM    7  N   UNL     1     -12.342  14.698  67.934  1.00  0.00    -0.050 NA 
HETATM    8  C   UNL     1     -10.000  14.679  68.112  1.00  0.00    -0.224 C  
HETATM    9  C   UNL     1     -12.587  13.623  65.720  1.00  0.00    -0.511 A  
HETATM   10  C   UNL     1     -11.847  14.176  66.740  1.00  0.00    -0.425 A  
HETATM   11  C   UNL     1     -11.317  14.796  68.877  1.00  0.00    -0.282 C  
ENDROOT
BRANCH   3  12
HETATM   12  C   UNL     1     -10.275  10.763  65.235  1.00  0.00    -0.351 C  
BRANCH  12  13
HETATM   13  C   UNL     1      -9.503  10.083  66.373  1.00  0.00    -0.186 C  
BRANCH  13  14
HETATM   14  N   UNL     1      -9.663   8.619  66.229  1.00  0.00    -0.258 NA 
HETATM   15  N   UNL     1      -8.735   6.890  68.496  1.00  0.00    -0.125 NA 
HETATM   16  C   UNL     1      -8.390   7.877  66.286  1.00  0.00    -0.126 C  
HETATM   17  C   UNL     1     -10.627   7.993  67.162  1.00  0.00    -0.297 C  
HETATM   18  C   UNL     1     -10.124   7.391  68.522  1.00  0.00    -0.175 C  
HETATM   19  C   UNL     1      -7.842   7.755  67.714  1.00  0.00    -0.123 C  
BRANCH  15  20
HETATM   20  C   UNL     1      -8.467   5.536  68.409  1.00  0.00    -0.101 A  
HETATM   21  N   UNL     1      -9.140   4.733  67.595  1.00  0.00    -0.111 NA 
HETATM   22  S   UNL     1      -8.435   3.248  67.531  1.00  0.00    -0.096 SA 
HETATM   23  C   UNL     1      -7.146   3.621  68.596  1.00  0.00    -0.050 A  
HETATM   24  C   UNL     1      -6.074   2.800  68.975  1.00  0.00    -0.025 A  
HETATM   25  C   UNL     1      -5.138   3.318  69.874  1.00  0.00    -0.004 A  
HETATM   26  C   UNL     1      -5.289   4.604  70.374  1.00  0.00    -0.004 A  
HETATM   27  C   UNL     1      -6.347   5.422  69.973  1.00  0.00    -0.030 A  
HETATM   28  C   UNL     1      -7.332   4.919  69.066  1.00  0.00    -0.054 A  
ENDBRANCH  15  20
ENDBRANCH  13  14
ENDBRANCH  12  13
ENDBRANCH   3  12
TORSDOF 4
ENDMDL
MODEL      164
REMARK 921   NORMALIZED FREE ENERGY PREDICTED BY IDOCK:   -4.54 KCAL/MOL
REMARK 922        TOTAL FREE ENERGY PREDICTED BY IDOCK:   -6.13 KCAL/MOL
REMARK 923 INTER-LIGAND FREE ENERGY PREDICTED BY IDOCK:   -6.41 KCAL/MOL
REMARK 924 INTRA-LIGAND FREE ENERGY PREDICTED BY IDOCK:    0.28 KCAL/MOL
REMARK 927      BINDING AFFINITY PREDICTED BY RF-SCORE:    0.00 PKD
ROOT
HETATM    1 CL   UNL     1     -11.533   6.645  72.772  1.00  0.00    -0.216 Cl 
HETATM    2  C   UNL     1     -11.622   8.136  71.902  1.00  0.00    -0.306 A  
HETATM    3  C   UNL     1     -10.510   8.635  71.171  1.00  0.00    -0.291 A  
HETATM    4  O   UNL     1     -12.919  13.613  71.835  1.00  0.00    -0.344 OA 
HETATM    5  C   UNL     1     -10.651   9.781  70.367  1.00  0.00    -0.365 A  
HETATM    6  C   UNL     1     -11.764  10.566  70.587  1.00  0.00    -0.453 A  
HETATM    7  N   UNL     1     -13.364  11.328  72.000  1.00  0.00    -0.408 NA 
HETATM    8  C   UNL     1     -11.983  12.004  70.223  1.00  0.00    -0.398 C  
HETATM    9  C   UNL     1     -12.746   8.935  72.103  1.00  0.00    -0.470 A  
HETATM   10  C   UNL     1     -12.715  10.187  71.532  1.00  0.00    -0.436 A  
HETATM   11  C   UNL     1     -12.801  12.470  71.427  1.00  0.00    -0.260 C  
ENDROOT
BRANCH   3  12
HETATM   12  C   UNL     1      -9.105   8.361  71.684  1.00  0.00    -0.268 C  
BRANCH  12  13
HETATM   13  C   UNL     1      -8.714   7.014  72.306  1.00  0.00    -0.125 C  
BRANCH  13  14
HETATM   14  N   UNL     1      -7.921   6.259  71.310  1.00  0.00    -0.114 NA 
HETATM   15  N   UNL     1      -9.406   4.907  69.084  1.00  0.00    -0.118 NA 
HETATM   16  C   UNL     1      -8.264   4.826  71.244  1.00  0.00    -0.102 C  
HETATM   17  C   UNL     1      -7.927   6.819  69.940  1.00  0.00    -0.120 C  
HETATM   18  C   UNL     1      -8.972   6.306  68.887  1.00  0.00    -0.126 C  
HETATM   19  C   UNL     1      -9.583   4.570  70.502  1.00  0.00    -0.204 C  
BRANCH  15  20
HETATM   20  C   UNL     1      -8.906   3.888  68.294  1.00  0.00    -0.110 A  
HETATM   21  N   UNL     1      -8.192   2.890  68.798  1.00  0.00    -0.059 NA 
HETATM   22  S   UNL     1      -7.955   1.719  67.668  1.00  0.00    -0.060 SA 
HETATM   23  C   UNL     1      -8.840   2.495  66.423  1.00  0.00    -0.131 A  
HETATM   24  C   UNL     1      -9.116   2.019  65.133  1.00  0.00    -0.116 A  
HETATM   25  C   UNL     1      -9.854   2.838  64.276  1.00  0.00    -0.118 A  
HETATM   26  C   UNL     1     -10.284   4.087  64.704  1.00  0.00    -0.226 A  
HETATM   27  C   UNL     1     -10.023   4.543  65.997  1.00  0.00    -0.265 A  
HETATM   28  C   UNL     1      -9.257   3.737  66.897  1.00  0.00    -0.198 A  
ENDBRANCH  15  20
ENDBRANCH  13  14
ENDBRANCH  12  13
ENDBRANCH   3  12
TORSDOF 4
ENDMDL
MODEL      165
REMARK 921   NORMALIZED FREE ENERGY PREDICTED BY IDOCK:   -4.54 KCAL/MOL
REMARK 922        TOTAL FREE ENERGY PREDICTED BY IDOCK:   -6.12 KCAL/MOL
REMARK 923 INTER-LIGAND FREE ENERGY PREDICTED BY IDOCK:   -6.37 KCAL/MOL
REMARK 924 INTRA-LIGAND FREE ENERGY PREDICTED BY IDOCK:    0.25 KCAL/MOL
REMARK 927      BINDING AFFINITY PREDICTED BY RF-SCORE:    0.00 PKD
ROOT
HETATM    1 CL   UNL     1     -12.967  12.531  72.147  1.00  0.00    -0.395 Cl 
HETATM    2  C   UNL     1     -12.533  12.597  70.476  1.00  0.00    -0.193 A  
HETATM    3  C   UNL     1     -12.125  11.433  69.770  1.00  0.00    -0.388 A  
HETATM    4  O   UNL     1      -9.533  14.994  66.360  1.00  0.00    -0.260 OA 
HETATM    5  C   UNL     1     -11.904  11.492  68.381  1.00  0.00    -0.353 A  
HETATM    6  C   UNL     1     -11.764  12.744  67.822  1.00  0.00    -0.412 A  
HETATM    7  N   UNL     1     -11.155  14.917  68.036  1.00  0.00    -0.283 NA 
HETATM    8  C   UNL     1     -11.125  13.122  66.520  1.00  0.00    -0.317 C  
HETATM    9  C   UNL     1     -12.398  13.856  69.892  1.00  0.00    -0.358 A  
HETATM   10  C   UNL     1     -11.892  13.884  68.612  1.00  0.00    -0.372 A  
HETATM   11  C   UNL     1     -10.479  14.452  66.906  1.00  0.00    -0.269 C  
ENDROOT
BRANCH   3  12
HETATM   12  C   UNL     1     -11.359  10.349  70.512  1.00  0.00    -0.424 C  
BRANCH  12  13
HETATM   13  C   UNL     1     -12.063   9.135  71.132  1.00  0.00    -0.299 C  
BRANCH  13  14
HETATM   14  N   UNL     1     -11.046   8.320  71.833  1.00  0.00    -0.271 NA 
HETATM   15  N   UNL     1      -9.073   6.812  70.153  1.00  0.00    -0.155 NA 
HETATM   16  C   UNL     1     -11.110   6.884  71.503  1.00  0.00    -0.244 C  
HETATM   17  C   UNL     1      -9.650   8.786  71.685  1.00  0.00    -0.293 C  
HETATM   18  C   UNL     1      -8.742   8.197  70.548  1.00  0.00    -0.135 C  
HETATM   19  C   UNL     1     -10.521   6.570  70.122  1.00  0.00    -0.214 C  
BRANCH  15  20
HETATM   20  C   UNL     1      -8.307   5.745  70.586  1.00  0.00    -0.120 A  
HETATM   21  N   UNL     1      -7.606   4.993  69.748  1.00  0.00    -0.060 NA 
HETATM   22  S   UNL     1      -6.615   3.973  70.574  1.00  0.00    -0.033 SA 
HETATM   23  C   UNL     1      -7.065   4.518  72.135  1.00  0.00    -0.061 A  
HETATM   24  C   UNL     1      -6.552   4.109  73.374  1.00  0.00    -0.050 A  
HETATM   25  C   UNL     1      -7.086   4.688  74.528  1.00  0.00    -0.069 A  
HETATM   26  C   UNL     1      -8.099   5.632  74.429  1.00  0.00    -0.103 A  
HETATM   27  C   UNL     1      -8.588   6.050  73.190  1.00  0.00    -0.118 A  
HETATM   28  C   UNL     1      -8.076   5.466  71.989  1.00  0.00    -0.114 A  
ENDBRANCH  15  20
ENDBRANCH  13  14
ENDBRANCH  12  13
ENDBRANCH   3  12
TORSDOF 4
ENDMDL
MODEL      166
REMARK 921   NORMALIZED FREE ENERGY PREDICTED BY IDOCK:   -4.53 KCAL/MOL
REMARK 922        TOTAL FREE ENERGY PREDICTED BY IDOCK:   -6.12 KCAL/MOL
REMARK 923 INTER-LIGAND FREE ENERGY PREDICTED BY IDOCK:   -5.24 KCAL/MOL
REMARK 924 INTRA-LIGAND FREE ENERGY PREDICTED BY IDOCK:   -0.88 KCAL/MOL
REMARK 927      BINDING AFFINITY PREDICTED BY RF-SCORE:    0.00 PKD
ROOT
HETATM    1 CL   UNL     1     -12.218  15.574  70.304  1.00  0.00    -0.411 Cl 
HETATM    2  C   UNL     1     -11.134  16.149  69.088  1.00  0.00    -0.329 A  
HETATM    3  C   UNL     1     -11.363  15.891  67.709  1.00  0.00    -0.199 A  
HETATM    4  O   UNL     1      -5.870  16.628  67.152  1.00  0.00    -0.146 OA 
HETATM    5  C   UNL     1     -10.537  16.481  66.734  1.00  0.00    -0.224 A  
HETATM    6  C   UNL     1      -9.339  17.009  67.166  1.00  0.00    -0.241 A  
HETATM    7  N   UNL     1      -7.624  16.995  68.648  1.00  0.00    -0.228 NA 
HETATM    8  C   UNL     1      -8.104  17.305  66.369  1.00  0.00    -0.328 C  
HETATM    9  C   UNL     1      -9.923  16.697  69.508  1.00  0.00    -0.091 A  
HETATM   10  C   UNL     1      -9.011  16.992  68.520  1.00  0.00    -0.263 A  
HETATM   11  C   UNL     1      -7.025  16.940  67.387  1.00  0.00    -0.154 C  
ENDROOT
BRANCH   3  12
HETATM   12  C   UNL     1     -12.032  14.587  67.303  1.00  0.00    -0.375 C  
BRANCH  12  13
HETATM   13  C   UNL     1     -11.234  13.401  66.747  1.00  0.00    -0.310 C  
BRANCH  13  14
HETATM   14  N   UNL     1     -10.096  13.143  67.657  1.00  0.00    -0.218 NA 
HETATM   15  N   UNL     1      -8.725  10.485  67.452  1.00  0.00    -0.126 NA 
HETATM   16  C   UNL     1     -10.305  11.990  68.553  1.00  0.00    -0.217 C  
HETATM   17  C   UNL     1      -8.777  13.009  67.000  1.00  0.00    -0.193 C  
HETATM   18  C   UNL     1      -8.243  11.589  66.596  1.00  0.00    -0.156 C  
HETATM   19  C   UNL     1     -10.133  10.646  67.833  1.00  0.00    -0.168 C  
BRANCH  15  20
HETATM   20  C   UNL     1      -7.912   9.929  68.422  1.00  0.00    -0.096 A  
HETATM   21  N   UNL     1      -7.316  10.664  69.351  1.00  0.00    -0.122 NA 
HETATM   22  S   UNL     1      -6.628   9.706  70.498  1.00  0.00    -0.116 SA 
HETATM   23  C   UNL     1      -7.129   8.220  69.807  1.00  0.00    -0.056 A  
HETATM   24  C   UNL     1      -6.934   6.925  70.307  1.00  0.00    -0.066 A  
HETATM   25  C   UNL     1      -7.424   5.852  69.559  1.00  0.00    -0.076 A  
HETATM   26  C   UNL     1      -8.073   6.082  68.353  1.00  0.00    -0.107 A  
HETATM   27  C   UNL     1      -8.283   7.376  67.874  1.00  0.00    -0.120 A  
HETATM   28  C   UNL     1      -7.781   8.497  68.606  1.00  0.00    -0.103 A  
ENDBRANCH  15  20
ENDBRANCH  13  14
ENDBRANCH  12  13
ENDBRANCH   3  12
TORSDOF 4
ENDMDL
MODEL      167
REMARK 921   NORMALIZED FREE ENERGY PREDICTED BY IDOCK:   -4.52 KCAL/MOL
REMARK 922        TOTAL FREE ENERGY PREDICTED BY IDOCK:   -6.10 KCAL/MOL
REMARK 923 INTER-LIGAND FREE ENERGY PREDICTED BY IDOCK:   -5.53 KCAL/MOL
REMARK 924 INTRA-LIGAND FREE ENERGY PREDICTED BY IDOCK:   -0.57 KCAL/MOL
REMARK 927      BINDING AFFINITY PREDICTED BY RF-SCORE:    0.00 PKD
ROOT
HETATM    1 CL   UNL     1     -11.781  10.803  68.515  1.00  0.00    -0.327 Cl 
HETATM    2  C   UNL     1     -10.267  10.240  69.128  1.00  0.00    -0.218 A  
HETATM    3  C   UNL     1      -9.045  10.881  68.787  1.00  0.00    -0.174 A  
HETATM    4  O   UNL     1      -6.693   5.978  69.989  1.00  0.00    -0.048 OA 
HETATM    5  C   UNL     1      -7.844  10.484  69.404  1.00  0.00    -0.151 A  
HETATM    6  C   UNL     1      -7.848   9.269  70.057  1.00  0.00    -0.117 A  
HETATM    7  N   UNL     1      -8.679   7.171  70.265  1.00  0.00    -0.143 NA 
HETATM    8  C   UNL     1      -6.684   8.401  70.426  1.00  0.00    -0.036 C  
HETATM    9  C   UNL     1     -10.255   9.020  69.801  1.00  0.00    -0.214 A  
HETATM   10  C   UNL     1      -9.017   8.516  70.131  1.00  0.00    -0.147 A  
HETATM   11  C   UNL     1      -7.293   7.016  70.207  1.00  0.00    -0.084 C  
ENDROOT
BRANCH   3  12
HETATM   12  C   UNL     1      -8.901  11.513  67.411  1.00  0.00    -0.157 C  
BRANCH  12  13
HETATM   13  C   UNL     1      -9.180  13.000  67.165  1.00  0.00    -0.226 C  
BRANCH  13  14
HETATM   14  N   UNL     1      -8.403  13.785  68.150  1.00  0.00    -0.156 NA 
HETATM   15  N   UNL     1      -8.433  16.771  67.885  1.00  0.00    -0.197 NA 
HETATM   16  C   UNL     1      -7.342  14.611  67.543  1.00  0.00    -0.197 C  
HETATM   17  C   UNL     1      -9.205  14.628  69.063  1.00  0.00    -0.108 C  
HETATM   18  C   UNL     1      -9.484  16.131  68.702  1.00  0.00    -0.227 C  
HETATM   19  C   UNL     1      -7.893  15.870  66.860  1.00  0.00    -0.247 C  
BRANCH  15  20
HETATM   20  C   UNL     1      -7.513  17.633  68.454  1.00  0.00    -0.253 A  
HETATM   21  N   UNL     1      -6.760  17.280  69.487  1.00  0.00    -0.191 NA 
HETATM   22  S   UNL     1      -5.604  18.414  69.777  1.00  0.00    -0.234 SA 
HETATM   23  C   UNL     1      -6.048  19.449  68.486  1.00  0.00    -0.230 A  
HETATM   24  C   UNL     1      -5.427  20.639  68.080  1.00  0.00    -0.301 A  
HETATM   25  C   UNL     1      -5.977  21.329  66.997  1.00  0.00    -0.405 A  
HETATM   26  C   UNL     1      -7.110  20.840  66.362  1.00  0.00    -0.197 A  
HETATM   27  C   UNL     1      -7.707  19.642  66.758  1.00  0.00    -0.288 A  
HETATM   28  C   UNL     1      -7.181  18.918  67.873  1.00  0.00    -0.260 A  
ENDBRANCH  15  20
ENDBRANCH  13  14
ENDBRANCH  12  13
ENDBRANCH   3  12
TORSDOF 4
ENDMDL
MODEL      168
REMARK 921   NORMALIZED FREE ENERGY PREDICTED BY IDOCK:   -4.50 KCAL/MOL
REMARK 922        TOTAL FREE ENERGY PREDICTED BY IDOCK:   -6.08 KCAL/MOL
REMARK 923 INTER-LIGAND FREE ENERGY PREDICTED BY IDOCK:   -5.12 KCAL/MOL
REMARK 924 INTRA-LIGAND FREE ENERGY PREDICTED BY IDOCK:   -0.95 KCAL/MOL
REMARK 927      BINDING AFFINITY PREDICTED BY RF-SCORE:    0.00 PKD
ROOT
HETATM    1 CL   UNL     1     -11.669  13.817  70.347  1.00  0.00    -0.297 Cl 
HETATM    2  C   UNL     1     -11.350  12.728  69.044  1.00  0.00    -0.294 A  
HETATM    3  C   UNL     1     -11.686  11.349  69.131  1.00  0.00    -0.410 A  
HETATM    4  O   UNL     1      -7.723  10.632  65.284  1.00  0.00    -0.119 OA 
HETATM    5  C   UNL     1     -11.536  10.514  68.009  1.00  0.00    -0.230 A  
HETATM    6  C   UNL     1     -10.753  10.988  66.977  1.00  0.00    -0.319 A  
HETATM    7  N   UNL     1      -9.038  12.289  66.271  1.00  0.00    -0.174 NA 
HETATM    8  C   UNL     1     -10.074  10.216  65.886  1.00  0.00    -0.325 C  
HETATM    9  C   UNL     1     -10.571  13.194  67.987  1.00  0.00    -0.246 A  
HETATM   10  C   UNL     1     -10.194  12.261  67.048  1.00  0.00    -0.215 A  
HETATM   11  C   UNL     1      -8.784  11.022  65.741  1.00  0.00    -0.174 C  
ENDROOT
BRANCH   3  12
HETATM   12  C   UNL     1     -11.613  10.655  70.482  1.00  0.00    -0.444 C  
BRANCH  12  13
HETATM   13  C   UNL     1     -11.844   9.147  70.636  1.00  0.00    -0.175 C  
BRANCH  13  14
HETATM   14  N   UNL     1     -10.556   8.516  71.000  1.00  0.00    -0.208 NA 
HETATM   15  N   UNL     1      -8.752   7.652  68.766  1.00  0.00    -0.129 NA 
HETATM   16  C   UNL     1     -10.407   7.140  70.491  1.00  0.00    -0.202 C  
HETATM   17  C   UNL     1      -9.348   9.294  70.643  1.00  0.00    -0.270 C  
HETATM   18  C   UNL     1      -8.621   9.032  69.277  1.00  0.00    -0.136 C  
HETATM   19  C   UNL     1     -10.093   7.097  68.990  1.00  0.00    -0.183 C  
BRANCH  15  20
HETATM   20  C   UNL     1      -7.713   6.746  68.884  1.00  0.00    -0.110 A  
HETATM   21  N   UNL     1      -6.999   6.631  69.996  1.00  0.00    -0.061 NA 
HETATM   22  S   UNL     1      -6.014   5.316  69.919  1.00  0.00    -0.018 SA 
HETATM   23  C   UNL     1      -6.524   4.806  68.365  1.00  0.00    -0.037 A  
HETATM   24  C   UNL     1      -6.125   3.664  67.656  1.00  0.00    -0.028 A  
HETATM   25  C   UNL     1      -6.671   3.456  66.387  1.00  0.00    -0.052 A  
HETATM   26  C   UNL     1      -7.572   4.370  65.857  1.00  0.00    -0.089 A  
HETATM   27  C   UNL     1      -7.981   5.492  66.580  1.00  0.00    -0.101 A  
HETATM   28  C   UNL     1      -7.431   5.745  67.876  1.00  0.00    -0.078 A  
ENDBRANCH  15  20
ENDBRANCH  13  14
ENDBRANCH  12  13
ENDBRANCH   3  12
TORSDOF 4
ENDMDL
MODEL      169
REMARK 921   NORMALIZED FREE ENERGY PREDICTED BY IDOCK:   -4.50 KCAL/MOL
REMARK 922        TOTAL FREE ENERGY PREDICTED BY IDOCK:   -6.07 KCAL/MOL
REMARK 923 INTER-LIGAND FREE ENERGY PREDICTED BY IDOCK:   -6.15 KCAL/MOL
REMARK 924 INTRA-LIGAND FREE ENERGY PREDICTED BY IDOCK:    0.08 KCAL/MOL
REMARK 927      BINDING AFFINITY PREDICTED BY RF-SCORE:    0.00 PKD
ROOT
HETATM    1 CL   UNL     1     -10.471   9.360  71.581  1.00  0.00    -0.329 Cl 
HETATM    2  C   UNL     1      -9.542   8.093  72.300  1.00  0.00    -0.251 A  
HETATM    3  C   UNL     1      -8.278   7.710  71.773  1.00  0.00    -0.118 A  
HETATM    4  O   UNL     1      -9.265   2.821  74.253  1.00  0.00    -0.080 OA 
HETATM    5  C   UNL     1      -7.486   6.768  72.455  1.00  0.00    -0.088 A  
HETATM    6  C   UNL     1      -8.110   6.007  73.421  1.00  0.00    -0.111 A  
HETATM    7  N   UNL     1      -9.996   5.037  74.220  1.00  0.00    -0.184 NA 
HETATM    8  C   UNL     1      -7.683   4.691  73.997  1.00  0.00    -0.093 C  
HETATM    9  C   UNL     1     -10.153   7.322  73.287  1.00  0.00    -0.341 A  
HETATM   10  C   UNL     1      -9.453   6.220  73.722  1.00  0.00    -0.154 A  
HETATM   11  C   UNL     1      -9.043   4.018  74.183  1.00  0.00    -0.096 C  
ENDROOT
BRANCH   3  12
HETATM   12  C   UNL     1      -8.045   7.804  70.273  1.00  0.00    -0.113 C  
BRANCH  12  13
HETATM   13  C   UNL     1      -8.928   7.060  69.264  1.00  0.00    -0.138 C  
BRANCH  13  14
HETATM   14  N   UNL     1      -8.956   7.845  68.009  1.00  0.00    -0.127 NA 
HETATM   15  N   UNL     1     -10.563  10.376  67.986  1.00  0.00    -0.203 NA 
HETATM   16  C   UNL     1     -10.308   8.006  67.442  1.00  0.00    -0.284 C  
HETATM   17  C   UNL     1      -8.301   9.170  68.077  1.00  0.00    -0.120 C  
HETATM   18  C   UNL     1      -9.150  10.448  68.411  1.00  0.00    -0.147 C  
HETATM   19  C   UNL     1     -11.145   9.045  68.201  1.00  0.00     0.220 C  
BRANCH  15  20
HETATM   20  C   UNL     1     -11.001  11.033  66.851  1.00  0.00    -0.249 A  
HETATM   21  N   UNL     1     -11.892  12.014  66.902  1.00  0.00    -0.616 NA 
HETATM   22  S   UNL     1     -12.024  12.756  65.440  1.00  0.00    -0.456 SA 
HETATM   23  C   UNL     1     -10.845  11.796  64.650  1.00  0.00    -0.307 A  
HETATM   24  C   UNL     1     -10.376  11.913  63.334  1.00  0.00    -0.481 A  
HETATM   25  C   UNL     1      -9.411  11.001  62.899  1.00  0.00    -0.380 A  
HETATM   26  C   UNL     1      -8.950  10.011  63.756  1.00  0.00    -0.274 A  
HETATM   27  C   UNL     1      -9.406   9.917  65.072  1.00  0.00    -0.323 A  
HETATM   28  C   UNL     1     -10.406  10.823  65.547  1.00  0.00    -0.308 A  
ENDBRANCH  15  20
ENDBRANCH  13  14
ENDBRANCH  12  13
ENDBRANCH   3  12
TORSDOF 4
ENDMDL
MODEL      170
REMARK 921   NORMALIZED FREE ENERGY PREDICTED BY IDOCK:   -4.48 KCAL/MOL
REMARK 922        TOTAL FREE ENERGY PREDICTED BY IDOCK:   -6.05 KCAL/MOL
REMARK 923 INTER-LIGAND FREE ENERGY PREDICTED BY IDOCK:   -6.26 KCAL/MOL
REMARK 924 INTRA-LIGAND FREE ENERGY PREDICTED BY IDOCK:    0.21 KCAL/MOL
REMARK 927      BINDING AFFINITY PREDICTED BY RF-SCORE:    0.00 PKD
ROOT
HETATM    1 CL   UNL     1      -6.877   4.695  68.240  1.00  0.00    -0.054 Cl 
HETATM    2  C   UNL     1      -8.293   4.982  69.188  1.00  0.00    -0.086 A  
HETATM    3  C   UNL     1      -9.124   6.112  68.956  1.00  0.00    -0.124 A  
HETATM    4  O   UNL     1     -10.696   5.445  74.257  1.00  0.00    -0.253 OA 
HETATM    5  C   UNL     1     -10.339   6.250  69.653  1.00  0.00    -0.267 A  
HETATM    6  C   UNL     1     -10.510   5.464  70.773  1.00  0.00    -0.317 A  
HETATM    7  N   UNL     1      -9.607   4.334  72.517  1.00  0.00    -0.133 NA 
HETATM    8  C   UNL     1     -11.450   5.665  71.923  1.00  0.00    -0.163 C  
HETATM    9  C   UNL     1      -8.488   4.188  70.317  1.00  0.00    -0.095 A  
HETATM   10  C   UNL     1      -9.530   4.546  71.143  1.00  0.00    -0.160 A  
HETATM   11  C   UNL     1     -10.584   5.160  73.077  1.00  0.00    -0.230 C  
ENDROOT
BRANCH   3  12
HETATM   12  C   UNL     1      -8.490   7.408  68.475  1.00  0.00    -0.125 C  
BRANCH  12  13
HETATM   13  C   UNL     1      -9.300   8.489  67.747  1.00  0.00    -0.137 C  
BRANCH  13  14
HETATM   14  N   UNL     1      -9.280   9.716  68.574  1.00  0.00    -0.137 NA 
HETATM   15  N   UNL     1     -11.796  11.341  68.712  1.00  0.00    -0.430 NA 
HETATM   16  C   UNL     1      -9.558  10.947  67.811  1.00  0.00    -0.164 C  
HETATM   17  C   UNL     1     -10.148   9.686  69.771  1.00  0.00    -0.233 C  
HETATM   18  C   UNL     1     -11.610  10.255  69.695  1.00  0.00    -0.201 C  
HETATM   19  C   UNL     1     -11.045  11.108  67.471  1.00  0.00    -0.291 C  
BRANCH  15  20
HETATM   20  C   UNL     1     -11.872  12.662  69.113  1.00  0.00    -0.297 A  
HETATM   21  N   UNL     1     -11.994  13.007  70.388  1.00  0.00    -0.307 NA 
HETATM   22  S   UNL     1     -11.810  14.631  70.570  1.00  0.00    -0.313 SA 
HETATM   23  C   UNL     1     -11.523  14.961  68.914  1.00  0.00    -0.299 A  
HETATM   24  C   UNL     1     -11.217  16.193  68.319  1.00  0.00    -0.343 A  
HETATM   25  C   UNL     1     -11.035  16.225  66.934  1.00  0.00    -0.059 A  
HETATM   26  C   UNL     1     -11.167  15.063  66.187  1.00  0.00    -0.307 A  
HETATM   27  C   UNL     1     -11.450  13.837  66.791  1.00  0.00    -0.367 A  
HETATM   28  C   UNL     1     -11.659  13.770  68.204  1.00  0.00    -0.370 A  
ENDBRANCH  15  20
ENDBRANCH  13  14
ENDBRANCH  12  13
ENDBRANCH   3  12
TORSDOF 4
ENDMDL
MODEL      171
REMARK 921   NORMALIZED FREE ENERGY PREDICTED BY IDOCK:   -4.47 KCAL/MOL
REMARK 922        TOTAL FREE ENERGY PREDICTED BY IDOCK:   -6.04 KCAL/MOL
REMARK 923 INTER-LIGAND FREE ENERGY PREDICTED BY IDOCK:   -6.55 KCAL/MOL
REMARK 924 INTRA-LIGAND FREE ENERGY PREDICTED BY IDOCK:    0.51 KCAL/MOL
REMARK 927      BINDING AFFINITY PREDICTED BY RF-SCORE:    0.00 PKD
ROOT
HETATM    1 CL   UNL     1     -12.051  10.218  69.980  1.00  0.00    -0.264 Cl 
HETATM    2  C   UNL     1     -12.436  11.863  70.342  1.00  0.00    -0.170 A  
HETATM    3  C   UNL     1     -12.018  12.926  69.495  1.00  0.00    -0.346 A  
HETATM    4  O   UNL     1     -12.497  16.103  74.044  1.00  0.00    -0.530 OA 
HETATM    5  C   UNL     1     -12.456  14.240  69.743  1.00  0.00    -0.264 A  
HETATM    6  C   UNL     1     -12.993  14.496  70.987  1.00  0.00    -0.423 A  
HETATM    7  N   UNL     1     -13.104  14.014  73.199  1.00  0.00    -0.501 NA 
HETATM    8  C   UNL     1     -13.148  15.812  71.687  1.00  0.00    -0.493 C  
HETATM    9  C   UNL     1     -12.990  12.139  71.591  1.00  0.00    -0.427 A  
HETATM   10  C   UNL     1     -13.131  13.469  71.917  1.00  0.00    -0.384 A  
HETATM   11  C   UNL     1     -12.875  15.390  73.130  1.00  0.00    -0.493 C  
ENDROOT
BRANCH   3  12
HETATM   12  C   UNL     1     -10.697  12.802  68.751  1.00  0.00    -0.246 C  
BRANCH  12  13
HETATM   13  C   UNL     1     -10.612  12.219  67.335  1.00  0.00    -0.222 C  
BRANCH  13  14
HETATM   14  N   UNL     1      -9.354  11.447  67.228  1.00  0.00    -0.166 NA 
HETATM   15  N   UNL     1      -9.332   8.663  68.341  1.00  0.00    -0.138 NA 
HETATM   16  C   UNL     1      -8.797  11.041  68.532  1.00  0.00    -0.159 C  
HETATM   17  C   UNL     1      -9.410  10.265  66.340  1.00  0.00    -0.165 C  
HETATM   18  C   UNL     1      -9.745   8.852  66.935  1.00  0.00    -0.202 C  
HETATM   19  C   UNL     1      -9.558   9.864  69.157  1.00  0.00    -0.199 C  
BRANCH  15  20
HETATM   20  C   UNL     1      -8.197   7.940  68.660  1.00  0.00    -0.127 A  
HETATM   21  N   UNL     1      -7.184   7.806  67.815  1.00  0.00    -0.091 NA 
HETATM   22  S   UNL     1      -5.893   7.112  68.561  1.00  0.00    -0.023 SA 
HETATM   23  C   UNL     1      -6.634   6.976  70.100  1.00  0.00    -0.047 A  
HETATM   24  C   UNL     1      -6.068   6.502  71.292  1.00  0.00    -0.040 A  
HETATM   25  C   UNL     1      -6.874   6.472  72.433  1.00  0.00    -0.068 A  
HETATM   26  C   UNL     1      -8.194   6.894  72.366  1.00  0.00    -0.105 A  
HETATM   27  C   UNL     1      -8.742   7.386  71.180  1.00  0.00    -0.137 A  
HETATM   28  C   UNL     1      -7.951   7.417  69.989  1.00  0.00    -0.119 A  
ENDBRANCH  15  20
ENDBRANCH  13  14
ENDBRANCH  12  13
ENDBRANCH   3  12
TORSDOF 4
ENDMDL
MODEL      172
REMARK 921   NORMALIZED FREE ENERGY PREDICTED BY IDOCK:   -4.47 KCAL/MOL
REMARK 922        TOTAL FREE ENERGY PREDICTED BY IDOCK:   -6.04 KCAL/MOL
REMARK 923 INTER-LIGAND FREE ENERGY PREDICTED BY IDOCK:   -5.97 KCAL/MOL
REMARK 924 INTRA-LIGAND FREE ENERGY PREDICTED BY IDOCK:   -0.07 KCAL/MOL
REMARK 927      BINDING AFFINITY PREDICTED BY RF-SCORE:    0.00 PKD
ROOT
HETATM    1 CL   UNL     1     -11.683  14.106  65.986  1.00  0.00    -0.372 Cl 
HETATM    2  C   UNL     1     -11.020  12.654  65.325  1.00  0.00    -0.286 A  
HETATM    3  C   UNL     1     -10.825  11.496  66.125  1.00  0.00    -0.330 A  
HETATM    4  O   UNL     1      -6.974  10.117  62.345  1.00  0.00    -0.112 OA 
HETATM    5  C   UNL     1     -10.407  10.290  65.533  1.00  0.00    -0.239 A  
HETATM    6  C   UNL     1      -9.880  10.369  64.261  1.00  0.00    -0.388 A  
HETATM    7  N   UNL     1      -8.779  11.559  62.677  1.00  0.00    -0.212 NA 
HETATM    8  C   UNL     1      -8.992   9.389  63.553  1.00  0.00    -0.148 C  
HETATM    9  C   UNL     1     -10.493  12.712  64.036  1.00  0.00    -0.443 A  
HETATM   10  C   UNL     1      -9.824  11.592  63.598  1.00  0.00    -0.353 A  
HETATM   11  C   UNL     1      -8.092  10.347  62.774  1.00  0.00    -0.157 C  
ENDROOT
BRANCH   3  12
HETATM   12  C   UNL     1     -10.467  11.666  67.594  1.00  0.00    -0.219 C  
BRANCH  12  13
HETATM   13  C   UNL     1     -11.334  11.080  68.715  1.00  0.00    -0.283 C  
BRANCH  13  14
HETATM   14  N   UNL     1     -10.438  10.451  69.711  1.00  0.00    -0.254 NA 
HETATM   15  N   UNL     1     -10.637   7.483  70.084  1.00  0.00    -0.230 NA 
HETATM   16  C   UNL     1     -11.155   9.762  70.801  1.00  0.00    -0.345 C  
HETATM   17  C   UNL     1      -9.416   9.537  69.155  1.00  0.00    -0.163 C  
HETATM   18  C   UNL     1      -9.710   7.998  69.057  1.00  0.00    -0.159 C  
HETATM   19  C   UNL     1     -11.740   8.413  70.361  1.00  0.00     0.014 C  
BRANCH  15  20
HETATM   20  C   UNL     1     -10.169   6.783  71.181  1.00  0.00    -0.193 A  
HETATM   21  N   UNL     1     -10.618   5.574  71.492  1.00  0.00    -0.241 NA 
HETATM   22  S   UNL     1      -9.706   4.905  72.686  1.00  0.00    -0.154 SA 
HETATM   23  C   UNL     1      -8.619   6.222  72.834  1.00  0.00    -0.122 A  
HETATM   24  C   UNL     1      -7.494   6.324  73.664  1.00  0.00    -0.090 A  
HETATM   25  C   UNL     1      -6.756   7.510  73.625  1.00  0.00    -0.080 A  
HETATM   26  C   UNL     1      -7.149   8.548  72.790  1.00  0.00    -0.057 A  
HETATM   27  C   UNL     1      -8.257   8.428  71.950  1.00  0.00    -0.210 A  
HETATM   28  C   UNL     1      -9.045   7.234  71.976  1.00  0.00    -0.144 A  
ENDBRANCH  15  20
ENDBRANCH  13  14
ENDBRANCH  12  13
ENDBRANCH   3  12
TORSDOF 4
ENDMDL
MODEL      173
REMARK 921   NORMALIZED FREE ENERGY PREDICTED BY IDOCK:   -4.43 KCAL/MOL
REMARK 922        TOTAL FREE ENERGY PREDICTED BY IDOCK:   -5.98 KCAL/MOL
REMARK 923 INTER-LIGAND FREE ENERGY PREDICTED BY IDOCK:   -5.91 KCAL/MOL
REMARK 924 INTRA-LIGAND FREE ENERGY PREDICTED BY IDOCK:   -0.07 KCAL/MOL
REMARK 927      BINDING AFFINITY PREDICTED BY RF-SCORE:    0.00 PKD
ROOT
HETATM    1 CL   UNL     1      -8.878   3.957  66.719  1.00  0.00    -0.120 Cl 
HETATM    2  C   UNL     1      -9.132   4.028  68.426  1.00  0.00    -0.137 A  
HETATM    3  C   UNL     1      -8.883   5.217  69.164  1.00  0.00    -0.113 A  
HETATM    4  O   UNL     1      -8.276   1.812  73.529  1.00  0.00    -0.048 OA 
HETATM    5  C   UNL     1      -9.223   5.286  70.528  1.00  0.00    -0.187 A  
HETATM    6  C   UNL     1      -9.468   4.092  71.172  1.00  0.00    -0.230 A  
HETATM    7  N   UNL     1      -9.106   1.862  71.348  1.00  0.00    -0.078 NA 
HETATM    8  C   UNL     1      -9.433   3.796  72.641  1.00  0.00    -0.171 C  
HETATM    9  C   UNL     1      -9.393   2.832  69.092  1.00  0.00    -0.206 A  
HETATM   10  C   UNL     1      -9.426   2.892  70.467  1.00  0.00    -0.140 A  
HETATM   11  C   UNL     1      -8.862   2.378  72.622  1.00  0.00    -0.070 C  
ENDROOT
BRANCH   3  12
HETATM   12  C   UNL     1      -7.760   6.141  68.719  1.00  0.00    -0.096 C  
BRANCH  12  13
HETATM   13  C   UNL     1      -7.741   7.632  69.079  1.00  0.00    -0.117 C  
BRANCH  13  14
HETATM   14  N   UNL     1      -9.067   8.203  68.751  1.00  0.00    -0.144 NA 
HETATM   15  N   UNL     1      -9.141  10.956  67.565  1.00  0.00    -0.140 NA 
HETATM   16  C   UNL     1      -9.370   9.450  69.478  1.00  0.00    -0.180 C  
HETATM   17  C   UNL     1      -9.327   8.411  67.309  1.00  0.00    -0.146 C  
HETATM   18  C   UNL     1      -9.021   9.803  66.650  1.00  0.00    -0.142 C  
HETATM   19  C   UNL     1      -8.621  10.662  68.907  1.00  0.00    -0.158 C  
BRANCH  15  20
HETATM   20  C   UNL     1     -10.250  11.781  67.532  1.00  0.00    -0.195 A  
HETATM   21  N   UNL     1     -10.735  12.357  68.624  1.00  0.00    -0.232 NA 
HETATM   22  S   UNL     1     -11.889  13.462  68.234  1.00  0.00    -0.337 SA 
HETATM   23  C   UNL     1     -11.777  13.240  66.539  1.00  0.00    -0.377 A  
HETATM   24  C   UNL     1     -12.465  13.929  65.530  1.00  0.00    -0.541 A  
HETATM   25  C   UNL     1     -12.220  13.566  64.204  1.00  0.00    -0.449 A  
HETATM   26  C   UNL     1     -11.325  12.545  63.915  1.00  0.00    -0.504 A  
HETATM   27  C   UNL     1     -10.628  11.880  64.925  1.00  0.00    -0.333 A  
HETATM   28  C   UNL     1     -10.866  12.215  66.295  1.00  0.00    -0.317 A  
ENDBRANCH  15  20
ENDBRANCH  13  14
ENDBRANCH  12  13
ENDBRANCH   3  12
TORSDOF 4
ENDMDL
MODEL      174
REMARK 921   NORMALIZED FREE ENERGY PREDICTED BY IDOCK:   -4.43 KCAL/MOL
REMARK 922        TOTAL FREE ENERGY PREDICTED BY IDOCK:   -5.98 KCAL/MOL
REMARK 923 INTER-LIGAND FREE ENERGY PREDICTED BY IDOCK:   -5.93 KCAL/MOL
REMARK 924 INTRA-LIGAND FREE ENERGY PREDICTED BY IDOCK:   -0.05 KCAL/MOL
REMARK 927      BINDING AFFINITY PREDICTED BY RF-SCORE:    0.00 PKD
ROOT
HETATM    1 CL   UNL     1     -13.217  11.674  72.082  1.00  0.00    -0.515 Cl 
HETATM    2  C   UNL     1     -12.715  12.505  70.653  1.00  0.00    -0.052 A  
HETATM    3  C   UNL     1     -12.068  11.823  69.587  1.00  0.00    -0.323 A  
HETATM    4  O   UNL     1      -9.984  16.822  68.288  1.00  0.00    -0.252 OA 
HETATM    5  C   UNL     1     -11.789  12.497  68.384  1.00  0.00    -0.353 A  
HETATM    6  C   UNL     1     -11.847  13.874  68.410  1.00  0.00    -0.409 A  
HETATM    7  N   UNL     1     -11.652  15.812  69.570  1.00  0.00    -0.347 NA 
HETATM    8  C   UNL     1     -11.219  14.857  67.468  1.00  0.00    -0.334 C  
HETATM    9  C   UNL     1     -12.779  13.898  70.658  1.00  0.00    -0.351 A  
HETATM   10  C   UNL     1     -12.219  14.539  69.576  1.00  0.00    -0.265 A  
HETATM   11  C   UNL     1     -10.845  15.972  68.443  1.00  0.00    -0.310 C  
ENDROOT
BRANCH   3  12
HETATM   12  C   UNL     1     -11.160  10.646  69.908  1.00  0.00    -0.364 C  
BRANCH  12  13
HETATM   13  C   UNL     1      -9.779  10.482  69.259  1.00  0.00    -0.196 C  
BRANCH  13  14
HETATM   14  N   UNL     1      -9.797   9.249  68.441  1.00  0.00    -0.151 NA 
HETATM   15  N   UNL     1      -8.201   6.908  69.422  1.00  0.00    -0.130 NA 
HETATM   16  C   UNL     1      -8.465   8.844  67.954  1.00  0.00    -0.125 C  
HETATM   17  C   UNL     1     -10.453   8.082  69.070  1.00  0.00    -0.199 C  
HETATM   18  C   UNL     1      -9.599   7.042  69.879  1.00  0.00    -0.159 C  
HETATM   19  C   UNL     1      -7.607   8.198  69.050  1.00  0.00    -0.097 C  
BRANCH  15  20
HETATM   20  C   UNL     1      -7.804   5.832  68.649  1.00  0.00    -0.097 A  
HETATM   21  N   UNL     1      -6.698   5.148  68.906  1.00  0.00    -0.048 NA 
HETATM   22  S   UNL     1      -6.624   3.792  67.978  1.00  0.00    -0.042 SA 
HETATM   23  C   UNL     1      -8.121   4.045  67.182  1.00  0.00    -0.096 A  
HETATM   24  C   UNL     1      -8.755   3.212  66.249  1.00  0.00    -0.131 A  
HETATM   25  C   UNL     1      -9.977   3.633  65.718  1.00  0.00     0.036 A  
HETATM   26  C   UNL     1     -10.525   4.847  66.109  1.00  0.00    -0.346 A  
HETATM   27  C   UNL     1      -9.898   5.658  67.056  1.00  0.00    -0.172 A  
HETATM   28  C   UNL     1      -8.638   5.267  67.608  1.00  0.00    -0.104 A  
ENDBRANCH  15  20
ENDBRANCH  13  14
ENDBRANCH  12  13
ENDBRANCH   3  12
TORSDOF 4
ENDMDL
MODEL      175
REMARK 921   NORMALIZED FREE ENERGY PREDICTED BY IDOCK:   -4.42 KCAL/MOL
REMARK 922        TOTAL FREE ENERGY PREDICTED BY IDOCK:   -5.98 KCAL/MOL
REMARK 923 INTER-LIGAND FREE ENERGY PREDICTED BY IDOCK:   -5.43 KCAL/MOL
REMARK 924 INTRA-LIGAND FREE ENERGY PREDICTED BY IDOCK:   -0.55 KCAL/MOL
REMARK 927      BINDING AFFINITY PREDICTED BY RF-SCORE:    0.00 PKD
ROOT
HETATM    1 CL   UNL     1     -10.955   5.807  69.298  1.00  0.00    -0.388 Cl 
HETATM    2  C   UNL     1     -10.081   5.672  67.814  1.00  0.00    -0.171 A  
HETATM    3  C   UNL     1      -9.449   6.799  67.221  1.00  0.00    -0.156 A  
HETATM    4  O   UNL     1      -9.899   3.944  62.460  1.00  0.00    -0.129 OA 
HETATM    5  C   UNL     1      -8.635   6.634  66.085  1.00  0.00    -0.148 A  
HETATM    6  C   UNL     1      -8.757   5.447  65.395  1.00  0.00    -0.154 A  
HETATM    7  N   UNL     1     -10.026   3.674  64.775  1.00  0.00    -0.178 NA 
HETATM    8  C   UNL     1      -8.375   5.144  63.977  1.00  0.00    -0.132 C  
HETATM    9  C   UNL     1     -10.183   4.474  67.109  1.00  0.00    -0.096 A  
HETATM   10  C   UNL     1      -9.616   4.452  65.855  1.00  0.00    -0.188 A  
HETATM   11  C   UNL     1      -9.503   4.189  63.587  1.00  0.00    -0.142 C  
ENDROOT
BRANCH   3  12
HETATM   12  C   UNL     1     -10.082   8.172  67.384  1.00  0.00    -0.298 C  
BRANCH  12  13
HETATM   13  C   UNL     1      -9.973   9.252  66.301  1.00  0.00    -0.286 C  
BRANCH  13  14
HETATM   14  N   UNL     1      -8.912  10.203  66.703  1.00  0.00    -0.139 NA 
HETATM   15  N   UNL     1      -9.766  12.906  67.679  1.00  0.00    -0.207 NA 
HETATM   16  C   UNL     1      -8.906  11.450  65.914  1.00  0.00    -0.145 C  
HETATM   17  C   UNL     1      -8.881  10.544  68.142  1.00  0.00    -0.134 C  
HETATM   18  C   UNL     1      -9.645  11.813  68.665  1.00  0.00    -0.115 C  
HETATM   19  C   UNL     1     -10.031  12.411  66.322  1.00  0.00    -0.246 C  
BRANCH  15  20
HETATM   20  C   UNL     1      -8.953  14.023  67.750  1.00  0.00    -0.186 A  
HETATM   21  N   UNL     1      -7.635  13.945  67.632  1.00  0.00    -0.164 NA 
HETATM   22  S   UNL     1      -6.973  15.447  67.510  1.00  0.00    -0.192 SA 
HETATM   23  C   UNL     1      -8.459  16.298  67.583  1.00  0.00    -0.168 A  
HETATM   24  C   UNL     1      -8.668  17.680  67.475  1.00  0.00    -0.234 A  
HETATM   25  C   UNL     1      -9.979  18.154  67.578  1.00  0.00    -0.338 A  
HETATM   26  C   UNL     1     -11.026  17.268  67.791  1.00  0.00    -0.163 A  
HETATM   27  C   UNL     1     -10.810  15.892  67.874  1.00  0.00    -0.327 A  
HETATM   28  C   UNL     1      -9.480  15.372  67.789  1.00  0.00    -0.204 A  
ENDBRANCH  15  20
ENDBRANCH  13  14
ENDBRANCH  12  13
ENDBRANCH   3  12
TORSDOF 4
ENDMDL
MODEL      176
REMARK 921   NORMALIZED FREE ENERGY PREDICTED BY IDOCK:   -4.38 KCAL/MOL
REMARK 922        TOTAL FREE ENERGY PREDICTED BY IDOCK:   -5.92 KCAL/MOL
REMARK 923 INTER-LIGAND FREE ENERGY PREDICTED BY IDOCK:   -5.64 KCAL/MOL
REMARK 924 INTRA-LIGAND FREE ENERGY PREDICTED BY IDOCK:   -0.28 KCAL/MOL
REMARK 927      BINDING AFFINITY PREDICTED BY RF-SCORE:    0.00 PKD
ROOT
HETATM    1 CL   UNL     1     -13.206   9.326  71.544  1.00  0.00    -0.413 Cl 
HETATM    2  C   UNL     1     -12.951  11.009  71.250  1.00  0.00    -0.372 A  
HETATM    3  C   UNL     1     -12.170  11.459  70.151  1.00  0.00    -0.401 A  
HETATM    4  O   UNL     1     -11.426  16.070  73.185  1.00  0.00    -0.157 OA 
HETATM    5  C   UNL     1     -12.088  12.834  69.859  1.00  0.00    -0.329 A  
HETATM    6  C   UNL     1     -12.489  13.707  70.847  1.00  0.00    -0.448 A  
HETATM    7  N   UNL     1     -12.767  14.165  73.050  1.00  0.00    -0.302 NA 
HETATM    8  C   UNL     1     -12.142  15.156  71.013  1.00  0.00    -0.389 C  
HETATM    9  C   UNL     1     -13.361  11.907  72.233  1.00  0.00    -0.212 A  
HETATM   10  C   UNL     1     -12.997  13.222  72.050  1.00  0.00    -0.300 A  
HETATM   11  C   UNL     1     -12.043  15.243  72.536  1.00  0.00    -0.407 C  
ENDROOT
BRANCH   3  12
HETATM   12  C   UNL     1     -10.991  10.617  69.688  1.00  0.00    -0.331 C  
BRANCH  12  13
HETATM   13  C   UNL     1      -9.707  11.249  69.136  1.00  0.00     0.031 C  
BRANCH  13  14
HETATM   14  N   UNL     1      -9.731  11.130  67.661  1.00  0.00    -0.168 NA 
HETATM   15  N   UNL     1      -8.945   8.496  66.464  1.00  0.00    -0.151 NA 
HETATM   16  C   UNL     1      -8.419  10.805  67.072  1.00  0.00    -0.128 C  
HETATM   17  C   UNL     1     -10.746  10.201  67.117  1.00  0.00    -0.221 C  
HETATM   18  C   UNL     1     -10.363   8.707  66.820  1.00  0.00    -0.266 C  
HETATM   19  C   UNL     1      -8.037   9.330  67.261  1.00  0.00    -0.113 C  
BRANCH  15  20
HETATM   20  C   UNL     1      -8.561   8.299  65.150  1.00  0.00    -0.105 A  
HETATM   21  N   UNL     1      -8.072   9.279  64.402  1.00  0.00    -0.133 NA 
HETATM   22  S   UNL     1      -7.482   8.689  62.985  1.00  0.00    -0.110 SA 
HETATM   23  C   UNL     1      -7.836   7.047  63.319  1.00  0.00    -0.110 A  
HETATM   24  C   UNL     1      -7.541   5.922  62.534  1.00  0.00    -0.071 A  
HETATM   25  C   UNL     1      -7.941   4.670  63.007  1.00  0.00    -0.077 A  
HETATM   26  C   UNL     1      -8.617   4.564  64.215  1.00  0.00    -0.131 A  
HETATM   27  C   UNL     1      -8.885   5.687  65.000  1.00  0.00    -0.017 A  
HETATM   28  C   UNL     1      -8.505   6.986  64.540  1.00  0.00     0.193 A  
ENDBRANCH  15  20
ENDBRANCH  13  14
ENDBRANCH  12  13
ENDBRANCH   3  12
TORSDOF 4
ENDMDL
MODEL      177
REMARK 921   NORMALIZED FREE ENERGY PREDICTED BY IDOCK:   -4.37 KCAL/MOL
REMARK 922        TOTAL FREE ENERGY PREDICTED BY IDOCK:   -5.91 KCAL/MOL
REMARK 923 INTER-LIGAND FREE ENERGY PREDICTED BY IDOCK:   -6.05 KCAL/MOL
REMARK 924 INTRA-LIGAND FREE ENERGY PREDICTED BY IDOCK:    0.14 KCAL/MOL
REMARK 927      BINDING AFFINITY PREDICTED BY RF-SCORE:    0.00 PKD
ROOT
HETATM    1 CL   UNL     1     -11.252   6.143  67.111  1.00  0.00    -0.312 Cl 
HETATM    2  C   UNL     1     -10.415   5.980  68.614  1.00  0.00    -0.241 A  
HETATM    3  C   UNL     1      -9.855   7.106  69.277  1.00  0.00    -0.161 A  
HETATM    4  O   UNL     1      -6.461   3.401  71.681  1.00  0.00    -0.015 OA 
HETATM    5  C   UNL     1      -9.296   6.963  70.560  1.00  0.00    -0.159 A  
HETATM    6  C   UNL     1      -9.008   5.681  70.978  1.00  0.00    -0.151 A  
HETATM    7  N   UNL     1      -8.451   3.544  70.469  1.00  0.00    -0.060 NA 
HETATM    8  C   UNL     1      -8.061   5.236  72.052  1.00  0.00    -0.114 C  
HETATM    9  C   UNL     1     -10.127   4.690  69.057  1.00  0.00    -0.117 A  
HETATM   10  C   UNL     1      -9.317   4.592  70.166  1.00  0.00    -0.144 A  
HETATM   11  C   UNL     1      -7.519   3.952  71.425  1.00  0.00    -0.051 C  
ENDROOT
BRANCH   3  12
HETATM   12  C   UNL     1      -9.309   8.256  68.445  1.00  0.00    -0.136 C  
BRANCH  12  13
HETATM   13  C   UNL     1     -10.207   9.392  67.939  1.00  0.00    -0.211 C  
BRANCH  13  14
HETATM   14  N   UNL     1      -9.913  10.604  68.735  1.00  0.00    -0.185 NA 
HETATM   15  N   UNL     1     -12.009  12.745  68.836  1.00  0.00    -0.286 NA 
HETATM   16  C   UNL     1      -9.918  11.848  67.942  1.00  0.00    -0.191 C  
HETATM   17  C   UNL     1     -10.758  10.795  69.934  1.00  0.00    -0.144 C  
HETATM   18  C   UNL     1     -12.059  11.669  69.846  1.00  0.00    -0.301 C  
HETATM   19  C   UNL     1     -11.337  12.323  67.600  1.00  0.00    -0.311 C  
BRANCH  15  20
HETATM   20  C   UNL     1     -11.790  14.060  69.205  1.00  0.00    -0.350 A  
HETATM   21  N   UNL     1     -11.763  14.442  70.474  1.00  0.00    -0.283 NA 
HETATM   22  S   UNL     1     -11.241  15.997  70.601  1.00  0.00    -0.342 SA 
HETATM   23  C   UNL     1     -10.992  16.235  68.923  1.00  0.00    -0.334 A  
HETATM   24  C   UNL     1     -10.477  17.369  68.278  1.00  0.00    -0.385 A  
HETATM   25  C   UNL     1     -10.375  17.341  66.885  1.00  0.00    -0.310 A  
HETATM   26  C   UNL     1     -10.786  16.219  66.179  1.00  0.00    -0.105 A  
HETATM   27  C   UNL     1     -11.277  15.087  66.831  1.00  0.00    -0.323 A  
HETATM   28  C   UNL     1     -11.410  15.086  68.255  1.00  0.00    -0.331 A  
ENDBRANCH  15  20
ENDBRANCH  13  14
ENDBRANCH  12  13
ENDBRANCH   3  12
TORSDOF 4
ENDMDL
MODEL      178
REMARK 921   NORMALIZED FREE ENERGY PREDICTED BY IDOCK:   -4.37 KCAL/MOL
REMARK 922        TOTAL FREE ENERGY PREDICTED BY IDOCK:   -5.91 KCAL/MOL
REMARK 923 INTER-LIGAND FREE ENERGY PREDICTED BY IDOCK:   -6.05 KCAL/MOL
REMARK 924 INTRA-LIGAND FREE ENERGY PREDICTED BY IDOCK:    0.13 KCAL/MOL
REMARK 927      BINDING AFFINITY PREDICTED BY RF-SCORE:    0.00 PKD
ROOT
HETATM    1 CL   UNL     1      -9.385   5.763  66.795  1.00  0.00    -0.132 Cl 
HETATM    2  C   UNL     1     -10.064   6.064  68.355  1.00  0.00    -0.164 A  
HETATM    3  C   UNL     1     -10.519   7.357  68.729  1.00  0.00    -0.215 A  
HETATM    4  O   UNL     1      -9.676   5.622  73.953  1.00  0.00    -0.147 OA 
HETATM    5  C   UNL     1     -11.186   7.544  69.954  1.00  0.00    -0.124 A  
HETATM    6  C   UNL     1     -11.070   6.537  70.889  1.00  0.00    -0.345 A  
HETATM    7  N   UNL     1      -9.878   4.823  71.770  1.00  0.00    -0.173 NA 
HETATM    8  C   UNL     1     -11.284   6.606  72.371  1.00  0.00    -0.302 C  
HETATM    9  C   UNL     1      -9.966   5.052  69.309  1.00  0.00    -0.277 A  
HETATM   10  C   UNL     1     -10.363   5.377  70.587  1.00  0.00    -0.262 A  
HETATM   11  C   UNL     1     -10.196   5.647  72.851  1.00  0.00    -0.186 C  
ENDROOT
BRANCH   3  12
HETATM   12  C   UNL     1      -9.804   8.580  68.176  1.00  0.00    -0.192 C  
BRANCH  12  13
HETATM   13  C   UNL     1     -10.568   9.768  67.577  1.00  0.00    -0.275 C  
BRANCH  13  14
HETATM   14  N   UNL     1      -9.853  11.010  67.944  1.00  0.00    -0.168 NA 
HETATM   15  N   UNL     1     -10.724  13.559  66.628  1.00  0.00    -0.281 NA 
HETATM   16  C   UNL     1      -9.186  11.667  66.805  1.00  0.00    -0.186 C  
HETATM   17  C   UNL     1     -10.660  12.013  68.673  1.00  0.00    -0.229 C  
HETATM   18  C   UNL     1     -11.391  13.156  67.883  1.00  0.00    -0.286 C  
HETATM   19  C   UNL     1     -10.171  12.413  65.895  1.00  0.00    -0.251 C  
BRANCH  15  20
HETATM   20  C   UNL     1      -9.974  14.719  66.559  1.00  0.00    -0.271 A  
HETATM   21  N   UNL     1     -10.231  15.675  65.677  1.00  0.00    -0.348 NA 
HETATM   22  S   UNL     1      -9.339  17.018  66.000  1.00  0.00    -0.083 SA 
HETATM   23  C   UNL     1      -8.562  16.382  67.389  1.00  0.00    -0.178 A  
HETATM   24  C   UNL     1      -7.664  17.029  68.248  1.00  0.00    -0.209 A  
HETATM   25  C   UNL     1      -7.143  16.301  69.321  1.00  0.00    -0.222 A  
HETATM   26  C   UNL     1      -7.509  14.975  69.507  1.00  0.00    -0.194 A  
HETATM   27  C   UNL     1      -8.423  14.346  68.659  1.00  0.00    -0.156 A  
HETATM   28  C   UNL     1      -8.964  15.056  67.541  1.00  0.00    -0.189 A  
ENDBRANCH  15  20
ENDBRANCH  13  14
ENDBRANCH  12  13
ENDBRANCH   3  12
TORSDOF 4
ENDMDL
MODEL      179
REMARK 921   NORMALIZED FREE ENERGY PREDICTED BY IDOCK:   -4.36 KCAL/MOL
REMARK 922        TOTAL FREE ENERGY PREDICTED BY IDOCK:   -5.90 KCAL/MOL
REMARK 923 INTER-LIGAND FREE ENERGY PREDICTED BY IDOCK:   -5.96 KCAL/MOL
REMARK 924 INTRA-LIGAND FREE ENERGY PREDICTED BY IDOCK:    0.07 KCAL/MOL
REMARK 927      BINDING AFFINITY PREDICTED BY RF-SCORE:    0.00 PKD
ROOT
HETATM    1 CL   UNL     1      -7.812  13.410  68.520  1.00  0.00    -0.133 Cl 
HETATM    2  C   UNL     1      -9.348  13.335  67.734  1.00  0.00    -0.209 A  
HETATM    3  C   UNL     1     -10.215  12.221  67.903  1.00  0.00    -0.202 A  
HETATM    4  O   UNL     1     -12.377  13.765  63.009  1.00  0.00    -0.661 OA 
HETATM    5  C   UNL     1     -11.512  12.246  67.358  1.00  0.00    -0.422 A  
HETATM    6  C   UNL     1     -11.768  13.202  66.398  1.00  0.00    -0.429 A  
HETATM    7  N   UNL     1     -11.015  14.546  64.736  1.00  0.00    -0.399 NA 
HETATM    8  C   UNL     1     -12.852  13.222  65.363  1.00  0.00    -0.340 C  
HETATM    9  C   UNL     1      -9.629  14.301  66.769  1.00  0.00    -0.290 A  
HETATM   10  C   UNL     1     -10.784  14.121  66.042  1.00  0.00    -0.299 A  
HETATM   11  C   UNL     1     -12.104  13.860  64.193  1.00  0.00    -0.425 C  
ENDROOT
BRANCH   3  12
HETATM   12  C   UNL     1      -9.611  10.839  68.101  1.00  0.00    -0.167 C  
BRANCH  12  13
HETATM   13  C   UNL     1     -10.442   9.652  68.601  1.00  0.00    -0.210 C  
BRANCH  13  14
HETATM   14  N   UNL     1      -9.878   8.414  68.017  1.00  0.00    -0.163 NA 
HETATM   15  N   UNL     1      -9.586   6.034  69.817  1.00  0.00    -0.148 NA 
HETATM   16  C   UNL     1      -8.631   7.969  68.668  1.00  0.00    -0.128 C  
HETATM   17  C   UNL     1     -10.812   7.270  67.934  1.00  0.00    -0.114 C  
HETATM   18  C   UNL     1     -10.861   6.211  69.093  1.00  0.00    -0.351 C  
HETATM   19  C   UNL     1      -8.881   7.305  70.028  1.00  0.00    -0.141 C  
BRANCH  15  20
HETATM   20  C   UNL     1      -8.772   4.943  69.572  1.00  0.00    -0.086 A  
HETATM   21  N   UNL     1      -8.242   4.224  70.552  1.00  0.00    -0.066 NA 
HETATM   22  S   UNL     1      -7.535   2.863  69.956  1.00  0.00    -0.043 SA 
HETATM   23  C   UNL     1      -7.937   3.161  68.317  1.00  0.00    -0.058 A  
HETATM   24  C   UNL     1      -7.687   2.346  67.204  1.00  0.00    -0.066 A  
HETATM   25  C   UNL     1      -8.098   2.804  65.950  1.00  0.00    -0.084 A  
HETATM   26  C   UNL     1      -8.725   4.037  65.830  1.00  0.00    -0.116 A  
HETATM   27  C   UNL     1      -8.990   4.831  66.947  1.00  0.00    -0.111 A  
HETATM   28  C   UNL     1      -8.569   4.401  68.244  1.00  0.00    -0.106 A  
ENDBRANCH  15  20
ENDBRANCH  13  14
ENDBRANCH  12  13
ENDBRANCH   3  12
TORSDOF 4
ENDMDL
MODEL      180
REMARK 921   NORMALIZED FREE ENERGY PREDICTED BY IDOCK:   -4.34 KCAL/MOL
REMARK 922        TOTAL FREE ENERGY PREDICTED BY IDOCK:   -5.87 KCAL/MOL
REMARK 923 INTER-LIGAND FREE ENERGY PREDICTED BY IDOCK:   -5.51 KCAL/MOL
REMARK 924 INTRA-LIGAND FREE ENERGY PREDICTED BY IDOCK:   -0.36 KCAL/MOL
REMARK 927      BINDING AFFINITY PREDICTED BY RF-SCORE:    0.00 PKD
ROOT
HETATM    1 CL   UNL     1      -7.190  14.776  69.743  1.00  0.00    -0.142 Cl 
HETATM    2  C   UNL     1      -8.280  15.988  69.170  1.00  0.00    -0.241 A  
HETATM    3  C   UNL     1      -9.625  15.676  68.831  1.00  0.00    -0.224 A  
HETATM    4  O   UNL     1      -9.362  20.207  65.605  1.00  0.00    -0.181 OA 
HETATM    5  C   UNL     1     -10.524  16.704  68.494  1.00  0.00    -0.319 A  
HETATM    6  C   UNL     1      -9.981  17.930  68.175  1.00  0.00    -0.350 A  
HETATM    7  N   UNL     1      -8.249  19.142  67.358  1.00  0.00    -0.273 NA 
HETATM    8  C   UNL     1     -10.596  19.053  67.395  1.00  0.00    -0.559 C  
HETATM    9  C   UNL     1      -7.749  17.237  68.854  1.00  0.00    -0.221 A  
HETATM   10  C   UNL     1      -8.604  18.128  68.244  1.00  0.00    -0.288 A  
HETATM   11  C   UNL     1      -9.370  19.571  66.644  1.00  0.00    -0.358 C  
ENDROOT
BRANCH   3  12
HETATM   12  C   UNL     1      -9.941  14.307  68.250  1.00  0.00    -0.239 C  
BRANCH  12  13
HETATM   13  C   UNL     1      -9.007  13.610  67.252  1.00  0.00    -0.225 C  
BRANCH  13  14
HETATM   14  N   UNL     1      -8.681  12.268  67.785  1.00  0.00    -0.164 NA 
HETATM   15  N   UNL     1      -8.045  10.105  65.809  1.00  0.00    -0.136 NA 
HETATM   16  C   UNL     1      -9.605  11.212  67.331  1.00  0.00    -0.168 C  
HETATM   17  C   UNL     1      -7.290  11.819  67.561  1.00  0.00    -0.127 C  
HETATM   18  C   UNL     1      -6.938  10.952  66.299  1.00  0.00    -0.120 C  
HETATM   19  C   UNL     1      -9.345  10.784  65.880  1.00  0.00    -0.189 C  
BRANCH  15  20
HETATM   20  C   UNL     1      -8.075   8.748  66.074  1.00  0.00    -0.112 A  
HETATM   21  N   UNL     1      -8.251   8.271  67.298  1.00  0.00    -0.119 NA 
HETATM   22  S   UNL     1      -8.488   6.644  67.259  1.00  0.00    -0.120 SA 
HETATM   23  C   UNL     1      -8.390   6.494  65.555  1.00  0.00    -0.146 A  
HETATM   24  C   UNL     1      -8.564   5.340  64.778  1.00  0.00    -0.136 A  
HETATM   25  C   UNL     1      -8.425   5.456  63.392  1.00  0.00    -0.062 A  
HETATM   26  C   UNL     1      -8.114   6.684  62.823  1.00  0.00    -0.050 A  
HETATM   27  C   UNL     1      -7.965   7.832  63.604  1.00  0.00    -0.103 A  
HETATM   28  C   UNL     1      -8.085   7.747  65.026  1.00  0.00    -0.139 A  
ENDBRANCH  15  20
ENDBRANCH  13  14
ENDBRANCH  12  13
ENDBRANCH   3  12
TORSDOF 4
ENDMDL
MODEL      181
REMARK 921   NORMALIZED FREE ENERGY PREDICTED BY IDOCK:   -4.31 KCAL/MOL
REMARK 922        TOTAL FREE ENERGY PREDICTED BY IDOCK:   -5.83 KCAL/MOL
REMARK 923 INTER-LIGAND FREE ENERGY PREDICTED BY IDOCK:   -5.35 KCAL/MOL
REMARK 924 INTRA-LIGAND FREE ENERGY PREDICTED BY IDOCK:   -0.49 KCAL/MOL
REMARK 927      BINDING AFFINITY PREDICTED BY RF-SCORE:    0.00 PKD
ROOT
HETATM    1 CL   UNL     1     -10.903   7.331  73.576  1.00  0.00    -0.380 Cl 
HETATM    2  C   UNL     1      -9.381   6.858  72.908  1.00  0.00    -0.135 A  
HETATM    3  C   UNL     1      -8.801   7.559  71.816  1.00  0.00    -0.131 A  
HETATM    4  O   UNL     1      -6.071   2.805  70.835  1.00  0.00    -0.017 OA 
HETATM    5  C   UNL     1      -7.503   7.235  71.379  1.00  0.00    -0.082 A  
HETATM    6  C   UNL     1      -6.983   6.031  71.804  1.00  0.00    -0.073 A  
HETATM    7  N   UNL     1      -7.316   3.894  72.481  1.00  0.00    -0.060 NA 
HETATM    8  C   UNL     1      -5.865   5.230  71.205  1.00  0.00    -0.017 C  
HETATM    9  C   UNL     1      -8.835   5.649  73.335  1.00  0.00    -0.123 A  
HETATM   10  C   UNL     1      -7.711   5.217  72.668  1.00  0.00    -0.098 A  
HETATM   11  C   UNL     1      -6.382   3.813  71.446  1.00  0.00    -0.015 C  
ENDROOT
BRANCH   3  12
HETATM   12  C   UNL     1      -9.712   8.180  70.769  1.00  0.00    -0.189 C  
BRANCH  12  13
HETATM   13  C   UNL     1      -9.248   8.421  69.327  1.00  0.00    -0.154 C  
BRANCH  13  14
HETATM   14  N   UNL     1     -10.288   9.216  68.635  1.00  0.00    -0.205 NA 
HETATM   15  N   UNL     1      -9.374  11.438  66.841  1.00  0.00    -0.177 NA 
HETATM   16  C   UNL     1     -10.261  10.650  68.979  1.00  0.00    -0.215 C  
HETATM   17  C   UNL     1     -10.316   9.075  67.163  1.00  0.00    -0.272 C  
HETATM   18  C   UNL     1      -9.525  10.088  66.261  1.00  0.00    -0.191 C  
HETATM   19  C   UNL     1      -9.116  11.401  68.286  1.00  0.00    -0.179 C  
BRANCH  15  20
HETATM   20  C   UNL     1     -10.160  12.491  66.411  1.00  0.00    -0.243 A  
HETATM   21  N   UNL     1     -11.425  12.326  66.047  1.00  0.00    -0.364 NA 
HETATM   22  S   UNL     1     -12.161  13.780  65.827  1.00  0.00    -0.459 SA 
HETATM   23  C   UNL     1     -10.797  14.730  66.243  1.00  0.00    -0.322 A  
HETATM   24  C   UNL     1     -10.712  16.127  66.332  1.00  0.00    -0.211 A  
HETATM   25  C   UNL     1      -9.480  16.688  66.680  1.00  0.00    -0.271 A  
HETATM   26  C   UNL     1      -8.384  15.870  66.918  1.00  0.00    -0.281 A  
HETATM   27  C   UNL     1      -8.485  14.479  66.849  1.00  0.00    -0.179 A  
HETATM   28  C   UNL     1      -9.725  13.871  66.480  1.00  0.00    -0.303 A  
ENDBRANCH  15  20
ENDBRANCH  13  14
ENDBRANCH  12  13
ENDBRANCH   3  12
TORSDOF 4
ENDMDL
MODEL      182
REMARK 921   NORMALIZED FREE ENERGY PREDICTED BY IDOCK:   -4.30 KCAL/MOL
REMARK 922        TOTAL FREE ENERGY PREDICTED BY IDOCK:   -5.82 KCAL/MOL
REMARK 923 INTER-LIGAND FREE ENERGY PREDICTED BY IDOCK:   -5.96 KCAL/MOL
REMARK 924 INTRA-LIGAND FREE ENERGY PREDICTED BY IDOCK:    0.14 KCAL/MOL
REMARK 927      BINDING AFFINITY PREDICTED BY RF-SCORE:    0.00 PKD
ROOT
HETATM    1 CL   UNL     1     -10.154   9.520  69.522  1.00  0.00    -0.202 Cl 
HETATM    2  C   UNL     1     -10.709   8.206  70.498  1.00  0.00    -0.225 A  
HETATM    3  C   UNL     1     -11.875   8.321  71.303  1.00  0.00    -0.319 A  
HETATM    4  O   UNL     1      -9.599   4.245  74.340  1.00  0.00    -0.106 OA 
HETATM    5  C   UNL     1     -12.376   7.196  71.984  1.00  0.00    -0.298 A  
HETATM    6  C   UNL     1     -11.529   6.116  72.115  1.00  0.00    -0.361 A  
HETATM    7  N   UNL     1      -9.420   5.300  72.266  1.00  0.00    -0.141 NA 
HETATM    8  C   UNL     1     -11.593   4.990  73.103  1.00  0.00    -0.299 C  
HETATM    9  C   UNL     1      -9.870   7.101  70.632  1.00  0.00    -0.184 A  
HETATM   10  C   UNL     1     -10.259   6.146  71.544  1.00  0.00    -0.203 A  
HETATM   11  C   UNL     1     -10.103   4.763  73.358  1.00  0.00    -0.161 C  
ENDROOT
BRANCH   3  12
HETATM   12  C   UNL     1     -12.218   9.669  71.918  1.00  0.00    -0.413 C  
BRANCH  12  13
HETATM   13  C   UNL     1     -12.858  10.798  71.099  1.00  0.00    -0.414 C  
BRANCH  13  14
HETATM   14  N   UNL     1     -11.978  11.985  71.185  1.00  0.00     0.173 NA 
HETATM   15  N   UNL     1     -12.640  14.334  69.442  1.00  0.00    -0.073 NA 
HETATM   16  C   UNL     1     -11.322  12.328  69.909  1.00  0.00    -0.007 C  
HETATM   17  C   UNL     1     -12.610  13.201  71.743  1.00  0.00    -0.070 C  
HETATM   18  C   UNL     1     -13.258  14.261  70.782  1.00  0.00    -0.197 C  
HETATM   19  C   UNL     1     -12.277  13.010  68.920  1.00  0.00    -0.035 C  
BRANCH  15  20
HETATM   20  C   UNL     1     -11.768  15.355  69.114  1.00  0.00    -0.345 A  
HETATM   21  N   UNL     1     -11.268  16.178  70.026  1.00  0.00    -0.354 NA 
HETATM   22  S   UNL     1     -10.084  17.117  69.376  1.00  0.00    -0.030 SA 
HETATM   23  C   UNL     1     -10.163  16.433  67.806  1.00  0.00    -0.274 A  
HETATM   24  C   UNL     1      -9.360  16.727  66.695  1.00  0.00    -0.274 A  
HETATM   25  C   UNL     1      -9.617  16.046  65.502  1.00  0.00    -0.110 A  
HETATM   26  C   UNL     1     -10.647  15.118  65.438  1.00  0.00    -0.410 A  
HETATM   27  C   UNL     1     -11.427  14.816  66.555  1.00  0.00    -0.328 A  
HETATM   28  C   UNL     1     -11.202  15.505  67.788  1.00  0.00    -0.302 A  
ENDBRANCH  15  20
ENDBRANCH  13  14
ENDBRANCH  12  13
ENDBRANCH   3  12
TORSDOF 4
ENDMDL
MODEL      183
REMARK 921   NORMALIZED FREE ENERGY PREDICTED BY IDOCK:   -4.29 KCAL/MOL
REMARK 922        TOTAL FREE ENERGY PREDICTED BY IDOCK:   -5.81 KCAL/MOL
REMARK 923 INTER-LIGAND FREE ENERGY PREDICTED BY IDOCK:   -4.56 KCAL/MOL
REMARK 924 INTRA-LIGAND FREE ENERGY PREDICTED BY IDOCK:   -1.26 KCAL/MOL
REMARK 927      BINDING AFFINITY PREDICTED BY RF-SCORE:    0.00 PKD
ROOT
HETATM    1 CL   UNL     1     -11.733  12.352  66.535  1.00  0.00    -0.451 Cl 
HETATM    2  C   UNL     1     -10.835  11.538  67.766  1.00  0.00    -0.221 A  
HETATM    3  C   UNL     1      -9.414  11.500  67.744  1.00  0.00    -0.168 A  
HETATM    4  O   UNL     1      -9.965   6.906  70.844  1.00  0.00    -0.189 OA 
HETATM    5  C   UNL     1      -8.706  10.946  68.826  1.00  0.00    -0.158 A  
HETATM    6  C   UNL     1      -9.421  10.159  69.704  1.00  0.00    -0.226 A  
HETATM    7  N   UNL     1     -11.164   8.764  70.095  1.00  0.00    -0.203 NA 
HETATM    8  C   UNL     1      -8.913   9.125  70.663  1.00  0.00    -0.292 C  
HETATM    9  C   UNL     1     -11.543  10.748  68.669  1.00  0.00    -0.342 A  
HETATM   10  C   UNL     1     -10.792   9.983  69.532  1.00  0.00    -0.253 A  
HETATM   11  C   UNL     1     -10.037   8.094  70.577  1.00  0.00    -0.192 C  
ENDROOT
BRANCH   3  12
HETATM   12  C   UNL     1      -8.696  11.470  66.403  1.00  0.00    -0.179 C  
BRANCH  12  13
HETATM   13  C   UNL     1      -7.341  10.775  66.221  1.00  0.00    -0.138 C  
BRANCH  13  14
HETATM   14  N   UNL     1      -7.575   9.476  65.551  1.00  0.00    -0.102 NA 
HETATM   15  N   UNL     1      -8.604   7.212  67.225  1.00  0.00    -0.121 NA 
HETATM   16  C   UNL     1      -6.768   8.372  66.103  1.00  0.00    -0.061 C  
HETATM   17  C   UNL     1      -8.989   9.048  65.476  1.00  0.00    -0.204 C  
HETATM   18  C   UNL     1      -9.585   8.114  66.589  1.00  0.00    -0.229 C  
HETATM   19  C   UNL     1      -7.306   7.863  67.447  1.00  0.00    -0.092 C  
BRANCH  15  20
HETATM   20  C   UNL     1      -8.539   5.873  66.884  1.00  0.00    -0.111 A  
HETATM   21  N   UNL     1      -8.795   5.444  65.655  1.00  0.00    -0.151 NA 
HETATM   22  S   UNL     1      -8.398   3.855  65.501  1.00  0.00    -0.106 SA 
HETATM   23  C   UNL     1      -7.825   3.662  67.104  1.00  0.00    -0.080 A  
HETATM   24  C   UNL     1      -7.254   2.521  67.685  1.00  0.00    -0.052 A  
HETATM   25  C   UNL     1      -6.867   2.593  69.026  1.00  0.00    -0.037 A  
HETATM   26  C   UNL     1      -7.061   3.764  69.746  1.00  0.00    -0.042 A  
HETATM   27  C   UNL     1      -7.610   4.902  69.152  1.00  0.00    -0.064 A  
HETATM   28  C   UNL     1      -8.031   4.860  67.786  1.00  0.00    -0.094 A  
ENDBRANCH  15  20
ENDBRANCH  13  14
ENDBRANCH  12  13
ENDBRANCH   3  12
TORSDOF 4
ENDMDL
MODEL      184
REMARK 921   NORMALIZED FREE ENERGY PREDICTED BY IDOCK:   -4.28 KCAL/MOL
REMARK 922        TOTAL FREE ENERGY PREDICTED BY IDOCK:   -5.80 KCAL/MOL
REMARK 923 INTER-LIGAND FREE ENERGY PREDICTED BY IDOCK:   -6.04 KCAL/MOL
REMARK 924 INTRA-LIGAND FREE ENERGY PREDICTED BY IDOCK:    0.24 KCAL/MOL
REMARK 927      BINDING AFFINITY PREDICTED BY RF-SCORE:    0.00 PKD
ROOT
HETATM    1 CL   UNL     1      -7.382   7.190  67.709  1.00  0.00    -0.094 Cl 
HETATM    2  C   UNL     1      -8.194   5.970  66.794  1.00  0.00    -0.106 A  
HETATM    3  C   UNL     1      -8.917   4.923  67.430  1.00  0.00    -0.111 A  
HETATM    4  O   UNL     1      -8.045   2.099  62.710  1.00  0.00    -0.065 OA 
HETATM    5  C   UNL     1      -9.676   4.021  66.662  1.00  0.00    -0.215 A  
HETATM    6  C   UNL     1      -9.417   3.981  65.308  1.00  0.00    -0.172 A  
HETATM    7  N   UNL     1      -7.962   4.258  63.592  1.00  0.00    -0.086 NA 
HETATM    8  C   UNL     1      -9.724   2.889  64.328  1.00  0.00    -0.149 C  
HETATM    9  C   UNL     1      -7.953   5.922  65.422  1.00  0.00    -0.120 A  
HETATM   10  C   UNL     1      -8.478   4.843  64.747  1.00  0.00    -0.145 A  
HETATM   11  C   UNL     1      -8.496   2.979  63.422  1.00  0.00    -0.086 C  
ENDROOT
BRANCH   3  12
HETATM   12  C   UNL     1      -8.427   4.396  68.770  1.00  0.00    -0.095 C  
BRANCH  12  13
HETATM   13  C   UNL     1      -8.118   5.329  69.947  1.00  0.00    -0.084 C  
BRANCH  13  14
HETATM   14  N   UNL     1      -9.387   5.623  70.649  1.00  0.00    -0.156 NA 
HETATM   15  N   UNL     1     -10.887   8.088  69.835  1.00  0.00    -0.242 NA 
HETATM   16  C   UNL     1      -9.383   6.914  71.363  1.00  0.00    -0.156 C  
HETATM   17  C   UNL     1     -10.606   5.540  69.813  1.00  0.00    -0.318 C  
HETATM   18  C   UNL     1     -11.170   6.829  69.117  1.00  0.00    -0.177 C  
HETATM   19  C   UNL     1      -9.539   8.112  70.417  1.00  0.00    -0.170 C  
BRANCH  15  20
HETATM   20  C   UNL     1     -11.863   8.714  70.589  1.00  0.00    -0.102 A  
HETATM   21  N   UNL     1     -12.582   8.064  71.494  1.00  0.00    -0.311 NA 
HETATM   22  S   UNL     1     -13.476   9.115  72.390  1.00  0.00    -0.431 SA 
HETATM   23  C   UNL     1     -12.913  10.532  71.610  1.00  0.00    -0.476 A  
HETATM   24  C   UNL     1     -13.225  11.866  71.910  1.00  0.00    -0.467 A  
HETATM   25  C   UNL     1     -12.651  12.866  71.122  1.00  0.00    -0.373 A  
HETATM   26  C   UNL     1     -11.807  12.529  70.073  1.00  0.00    -0.363 A  
HETATM   27  C   UNL     1     -11.483  11.200  69.796  1.00  0.00    -0.388 A  
HETATM   28  C   UNL     1     -12.065  10.149  70.571  1.00  0.00    -0.380 A  
ENDBRANCH  15  20
ENDBRANCH  13  14
ENDBRANCH  12  13
ENDBRANCH   3  12
TORSDOF 4
ENDMDL
MODEL      185
REMARK 921   NORMALIZED FREE ENERGY PREDICTED BY IDOCK:   -4.26 KCAL/MOL
REMARK 922        TOTAL FREE ENERGY PREDICTED BY IDOCK:   -5.77 KCAL/MOL
REMARK 923 INTER-LIGAND FREE ENERGY PREDICTED BY IDOCK:   -6.33 KCAL/MOL
REMARK 924 INTRA-LIGAND FREE ENERGY PREDICTED BY IDOCK:    0.56 KCAL/MOL
REMARK 927      BINDING AFFINITY PREDICTED BY RF-SCORE:    0.00 PKD
ROOT
HETATM    1 CL   UNL     1     -12.928   9.891  71.390  1.00  0.00    -0.470 Cl 
HETATM    2  C   UNL     1     -11.455   9.091  71.810  1.00  0.00    -0.372 A  
HETATM    3  C   UNL     1     -10.238   9.375  71.133  1.00  0.00    -0.361 A  
HETATM    4  O   UNL     1      -8.682   4.294  72.802  1.00  0.00    -0.103 OA 
HETATM    5  C   UNL     1      -9.031   8.807  71.582  1.00  0.00    -0.301 A  
HETATM    6  C   UNL     1      -9.128   7.736  72.446  1.00  0.00    -0.208 A  
HETATM    7  N   UNL     1     -10.285   5.942  73.205  1.00  0.00    -0.185 NA 
HETATM    8  C   UNL     1      -8.103   6.686  72.754  1.00  0.00    -0.107 C  
HETATM    9  C   UNL     1     -11.532   8.015  72.692  1.00  0.00    -0.465 A  
HETATM   10  C   UNL     1     -10.375   7.293  72.879  1.00  0.00    -0.262 A  
HETATM   11  C   UNL     1      -9.004   5.464  72.922  1.00  0.00    -0.120 C  
ENDROOT
BRANCH   3  12
HETATM   12  C   UNL     1     -10.282   9.745  69.658  1.00  0.00    -0.254 C  
BRANCH  12  13
HETATM   13  C   UNL     1      -9.021  10.142  68.881  1.00  0.00    -0.155 C  
BRANCH  13  14
HETATM   14  N   UNL     1      -9.433  10.979  67.731  1.00  0.00    -0.160 NA 
HETATM   15  N   UNL     1      -9.083  13.946  67.974  1.00  0.00    -0.185 NA 
HETATM   16  C   UNL     1     -10.493  11.951  68.057  1.00  0.00    -0.208 C  
HETATM   17  C   UNL     1      -8.333  11.681  67.034  1.00  0.00    -0.169 C  
HETATM   18  C   UNL     1      -7.958  13.151  67.441  1.00  0.00    -0.171 C  
HETATM   19  C   UNL     1      -9.965  13.158  68.844  1.00  0.00     0.081 C  
BRANCH  15  20
HETATM   20  C   UNL     1      -9.721  14.892  67.192  1.00  0.00    -0.228 A  
HETATM   21  N   UNL     1      -9.476  16.190  67.313  1.00  0.00    -0.225 NA 
HETATM   22  S   UNL     1     -10.192  17.032  66.094  1.00  0.00    -0.304 SA 
HETATM   23  C   UNL     1     -10.861  15.665  65.308  1.00  0.00    -0.406 A  
HETATM   24  C   UNL     1     -11.589  15.627  64.110  1.00  0.00    -0.082 A  
HETATM   25  C   UNL     1     -12.051  14.387  63.662  1.00  0.00     0.145 A  
HETATM   26  C   UNL     1     -11.795  13.240  64.400  1.00  0.00    -0.448 A  
HETATM   27  C   UNL     1     -11.049  13.284  65.580  1.00  0.00    -0.299 A  
HETATM   28  C   UNL     1     -10.575  14.538  66.076  1.00  0.00    -0.311 A  
ENDBRANCH  15  20
ENDBRANCH  13  14
ENDBRANCH  12  13
ENDBRANCH   3  12
TORSDOF 4
ENDMDL
MODEL      186
REMARK 921   NORMALIZED FREE ENERGY PREDICTED BY IDOCK:   -4.23 KCAL/MOL
REMARK 922        TOTAL FREE ENERGY PREDICTED BY IDOCK:   -5.74 KCAL/MOL
REMARK 923 INTER-LIGAND FREE ENERGY PREDICTED BY IDOCK:   -4.80 KCAL/MOL
REMARK 924 INTRA-LIGAND FREE ENERGY PREDICTED BY IDOCK:   -0.95 KCAL/MOL
REMARK 927      BINDING AFFINITY PREDICTED BY RF-SCORE:    0.00 PKD
ROOT
HETATM    1 CL   UNL     1      -9.138  14.276  68.652  1.00  0.00    -0.187 Cl 
HETATM    2  C   UNL     1     -10.097  13.562  67.406  1.00  0.00    -0.237 A  
HETATM    3  C   UNL     1     -11.147  12.652  67.707  1.00  0.00    -0.287 A  
HETATM    4  O   UNL     1     -10.367  10.778  62.521  1.00  0.00     0.138 OA 
HETATM    5  C   UNL     1     -11.995  12.188  66.684  1.00  0.00    -0.186 A  
HETATM    6  C   UNL     1     -11.565  12.368  65.386  1.00  0.00    -0.426 A  
HETATM    7  N   UNL     1      -9.859  12.583  63.910  1.00  0.00    -0.215 NA 
HETATM    8  C   UNL     1     -12.000  11.645  64.147  1.00  0.00    -0.238 C  
HETATM    9  C   UNL     1      -9.684  13.744  66.087  1.00  0.00    -0.280 A  
HETATM   10  C   UNL     1     -10.367  13.029  65.129  1.00  0.00    -0.304 A  
HETATM   11  C   UNL     1     -10.674  11.576  63.390  1.00  0.00    -0.373 C  
ENDROOT
BRANCH   3  12
HETATM   12  C   UNL     1     -11.004  11.733  68.911  1.00  0.00    -0.288 C  
BRANCH  12  13
HETATM   13  C   UNL     1     -11.489  10.278  68.886  1.00  0.00    -0.127 C  
BRANCH  13  14
HETATM   14  N   UNL     1     -10.301   9.397  68.819  1.00  0.00    -0.204 NA 
HETATM   15  N   UNL     1      -8.503   9.664  66.434  1.00  0.00    -0.122 NA 
HETATM   16  C   UNL     1     -10.289   8.510  67.640  1.00  0.00    -0.253 C  
HETATM   17  C   UNL     1      -8.996  10.086  68.915  1.00  0.00    -0.152 C  
HETATM   18  C   UNL     1      -8.238  10.519  67.610  1.00  0.00    -0.111 C  
HETATM   19  C   UNL     1      -9.909   9.248  66.350  1.00  0.00    -0.277 C  
BRANCH  15  20
HETATM   20  C   UNL     1      -7.584   8.719  66.018  1.00  0.00    -0.093 A  
HETATM   21  N   UNL     1      -7.517   7.511  66.561  1.00  0.00    -0.083 NA 
HETATM   22  S   UNL     1      -6.507   6.541  65.698  1.00  0.00    -0.043 SA 
HETATM   23  C   UNL     1      -6.119   7.710  64.507  1.00  0.00    -0.041 A  
HETATM   24  C   UNL     1      -5.313   7.550  63.371  1.00  0.00    -0.038 A  
HETATM   25  C   UNL     1      -5.126   8.657  62.539  1.00  0.00    -0.070 A  
HETATM   26  C   UNL     1      -5.721   9.872  62.851  1.00  0.00    -0.101 A  
HETATM   27  C   UNL     1      -6.541  10.015  63.972  1.00  0.00    -0.130 A  
HETATM   28  C   UNL     1      -6.741   8.907  64.854  1.00  0.00    -0.069 A  
ENDBRANCH  15  20
ENDBRANCH  13  14
ENDBRANCH  12  13
ENDBRANCH   3  12
TORSDOF 4
ENDMDL
MODEL      187
REMARK 921   NORMALIZED FREE ENERGY PREDICTED BY IDOCK:   -4.23 KCAL/MOL
REMARK 922        TOTAL FREE ENERGY PREDICTED BY IDOCK:   -5.74 KCAL/MOL
REMARK 923 INTER-LIGAND FREE ENERGY PREDICTED BY IDOCK:   -5.24 KCAL/MOL
REMARK 924 INTRA-LIGAND FREE ENERGY PREDICTED BY IDOCK:   -0.50 KCAL/MOL
REMARK 927      BINDING AFFINITY PREDICTED BY RF-SCORE:    0.00 PKD
ROOT
HETATM    1 CL   UNL     1      -8.495   2.484  66.655  1.00  0.00    -0.096 Cl 
HETATM    2  C   UNL     1      -9.343   3.569  67.698  1.00  0.00    -0.204 A  
HETATM    3  C   UNL     1      -9.903   4.781  67.210  1.00  0.00    -0.218 A  
HETATM    4  O   UNL     1      -9.499   6.532  72.482  1.00  0.00    -0.146 OA 
HETATM    5  C   UNL     1     -10.699   5.580  68.052  1.00  0.00    -0.165 A  
HETATM    6  C   UNL     1     -10.624   5.330  69.406  1.00  0.00    -0.215 A  
HETATM    7  N   UNL     1      -9.436   4.590  71.188  1.00  0.00    -0.149 NA 
HETATM    8  C   UNL     1     -10.991   6.231  70.546  1.00  0.00    -0.374 C  
HETATM    9  C   UNL     1      -9.288   3.324  69.069  1.00  0.00    -0.234 A  
HETATM   10  C   UNL     1      -9.828   4.292  69.885  1.00  0.00    -0.197 A  
HETATM   11  C   UNL     1      -9.906   5.853  71.554  1.00  0.00    -0.166 C  
ENDROOT
BRANCH   3  12
HETATM   12  C   UNL     1      -9.203   5.515  66.076  1.00  0.00    -0.168 C  
BRANCH  12  13
HETATM   13  C   UNL     1      -8.380   6.787  66.316  1.00  0.00    -0.126 C  
BRANCH  13  14
HETATM   14  N   UNL     1      -9.060   7.911  65.634  1.00  0.00    -0.037 NA 
HETATM   15  N   UNL     1      -8.416  10.690  66.555  1.00  0.00    -0.139 NA 
HETATM   16  C   UNL     1      -9.885   8.737  66.535  1.00  0.00    -0.279 C  
HETATM   17  C   UNL     1      -8.179   8.797  64.842  1.00  0.00    -0.159 C  
HETATM   18  C   UNL     1      -7.580  10.094  65.493  1.00  0.00    -0.146 C  
HETATM   19  C   UNL     1      -9.044   9.675  67.410  1.00  0.00    -0.130 C  
BRANCH  15  20
HETATM   20  C   UNL     1      -9.187  11.811  66.310  1.00  0.00    -0.221 A  
HETATM   21  N   UNL     1     -10.326  11.751  65.633  1.00  0.00    -0.243 NA 
HETATM   22  S   UNL     1     -11.129  13.184  65.719  1.00  0.00    -0.276 SA 
HETATM   23  C   UNL     1      -9.977  13.971  66.713  1.00  0.00    -0.268 A  
HETATM   24  C   UNL     1     -10.041  15.263  67.254  1.00  0.00    -0.236 A  
HETATM   25  C   UNL     1      -8.968  15.701  68.034  1.00  0.00    -0.178 A  
HETATM   26  C   UNL     1      -7.876  14.870  68.246  1.00  0.00    -0.122 A  
HETATM   27  C   UNL     1      -7.831  13.577  67.723  1.00  0.00    -0.167 A  
HETATM   28  C   UNL     1      -8.905  13.101  66.907  1.00  0.00    -0.184 A  
ENDBRANCH  15  20
ENDBRANCH  13  14
ENDBRANCH  12  13
ENDBRANCH   3  12
TORSDOF 4
ENDMDL
MODEL      188
REMARK 921   NORMALIZED FREE ENERGY PREDICTED BY IDOCK:   -4.22 KCAL/MOL
REMARK 922        TOTAL FREE ENERGY PREDICTED BY IDOCK:   -5.72 KCAL/MOL
REMARK 923 INTER-LIGAND FREE ENERGY PREDICTED BY IDOCK:   -5.32 KCAL/MOL
REMARK 924 INTRA-LIGAND FREE ENERGY PREDICTED BY IDOCK:   -0.41 KCAL/MOL
REMARK 927      BINDING AFFINITY PREDICTED BY RF-SCORE:    0.00 PKD
ROOT
HETATM    1 CL   UNL     1      -5.579   2.979  68.540  1.00  0.00    -0.017 Cl 
HETATM    2  C   UNL     1      -6.995   3.411  69.430  1.00  0.00    -0.041 A  
HETATM    3  C   UNL     1      -8.284   3.384  68.831  1.00  0.00    -0.075 A  
HETATM    4  O   UNL     1      -9.666   7.071  72.770  1.00  0.00    -0.148 OA 
HETATM    5  C   UNL     1      -9.431   3.614  69.613  1.00  0.00    -0.245 A  
HETATM    6  C   UNL     1      -9.238   4.188  70.852  1.00  0.00    -0.201 A  
HETATM    7  N   UNL     1      -8.011   5.522  72.212  1.00  0.00    -0.106 NA 
HETATM    8  C   UNL     1     -10.226   4.921  71.708  1.00  0.00    -0.268 C  
HETATM    9  C   UNL     1      -6.819   3.981  70.689  1.00  0.00    -0.033 A  
HETATM   10  C   UNL     1      -7.951   4.468  71.303  1.00  0.00    -0.086 A  
HETATM   11  C   UNL     1      -9.321   5.994  72.314  1.00  0.00    -0.143 C  
ENDROOT
BRANCH   3  12
HETATM   12  C   UNL     1      -8.419   3.717  67.353  1.00  0.00    -0.104 C  
BRANCH  12  13
HETATM   13  C   UNL     1      -9.776   4.029  66.709  1.00  0.00    -0.190 C  
BRANCH  13  14
HETATM   14  N   UNL     1      -9.808   5.471  66.376  1.00  0.00    -0.163 NA 
HETATM   15  N   UNL     1      -9.976   7.420  68.648  1.00  0.00    -0.164 NA 
HETATM   16  C   UNL     1     -11.029   6.157  66.839  1.00  0.00    -0.305 C  
HETATM   17  C   UNL     1      -8.626   6.247  66.810  1.00  0.00    -0.116 C  
HETATM   18  C   UNL     1      -8.638   6.987  68.195  1.00  0.00    -0.128 C  
HETATM   19  C   UNL     1     -11.017   6.428  68.349  1.00  0.00    -0.309 C  
BRANCH  15  20
HETATM   20  C   UNL     1     -10.374   8.740  68.540  1.00  0.00    -0.199 A  
HETATM   21  N   UNL     1     -10.759   9.450  69.591  1.00  0.00    -0.230 NA 
HETATM   22  S   UNL     1     -10.931  11.036  69.190  1.00  0.00    -0.255 SA 
HETATM   23  C   UNL     1     -10.461  10.853  67.552  1.00  0.00    -0.215 A  
HETATM   24  C   UNL     1     -10.315  11.851  66.578  1.00  0.00    -0.249 A  
HETATM   25  C   UNL     1      -9.929  11.462  65.293  1.00  0.00    -0.303 A  
HETATM   26  C   UNL     1      -9.711  10.121  65.007  1.00  0.00    -0.384 A  
HETATM   27  C   UNL     1      -9.836   9.137  65.989  1.00  0.00    -0.342 A  
HETATM   28  C   UNL     1     -10.245   9.497  67.311  1.00  0.00    -0.295 A  
ENDBRANCH  15  20
ENDBRANCH  13  14
ENDBRANCH  12  13
ENDBRANCH   3  12
TORSDOF 4
ENDMDL
MODEL      189
REMARK 921   NORMALIZED FREE ENERGY PREDICTED BY IDOCK:   -4.17 KCAL/MOL
REMARK 922        TOTAL FREE ENERGY PREDICTED BY IDOCK:   -5.67 KCAL/MOL
REMARK 923 INTER-LIGAND FREE ENERGY PREDICTED BY IDOCK:   -6.36 KCAL/MOL
REMARK 924 INTRA-LIGAND FREE ENERGY PREDICTED BY IDOCK:    0.70 KCAL/MOL
REMARK 927      BINDING AFFINITY PREDICTED BY RF-SCORE:    0.00 PKD
ROOT
HETATM    1 CL   UNL     1      -8.042   9.783  65.841  1.00  0.00    -0.112 Cl 
HETATM    2  C   UNL     1      -8.950   8.842  66.971  1.00  0.00    -0.127 A  
HETATM    3  C   UNL     1      -9.816   9.454  67.918  1.00  0.00    -0.197 A  
HETATM    4  O   UNL     1      -9.075   4.799  70.886  1.00  0.00    -0.126 OA 
HETATM    5  C   UNL     1     -10.641   8.660  68.736  1.00  0.00    -0.169 A  
HETATM    6  C   UNL     1     -10.330   7.319  68.824  1.00  0.00    -0.209 A  
HETATM    7  N   UNL     1      -8.780   5.668  68.740  1.00  0.00    -0.107 NA 
HETATM    8  C   UNL     1     -10.720   6.335  69.885  1.00  0.00    -0.355 C  
HETATM    9  C   UNL     1      -8.657   7.483  67.064  1.00  0.00    -0.122 A  
HETATM   10  C   UNL     1      -9.274   6.793  68.084  1.00  0.00    -0.121 A  
HETATM   11  C   UNL     1      -9.452   5.484  69.950  1.00  0.00    -0.157 C  
ENDROOT
BRANCH   3  12
HETATM   12  C   UNL     1      -9.449  10.818  68.481  1.00  0.00    -0.181 C  
BRANCH  12  13
HETATM   13  C   UNL     1      -8.748  11.887  67.633  1.00  0.00    -0.162 C  
BRANCH  13  14
HETATM   14  N   UNL     1      -9.113  13.216  68.172  1.00  0.00    -0.198 NA 
HETATM   15  N   UNL     1      -7.891  15.626  66.872  1.00  0.00    -0.233 NA 
HETATM   16  C   UNL     1      -7.960  13.983  68.681  1.00  0.00    -0.122 C  
HETATM   17  C   UNL     1      -9.897  14.076  67.258  1.00  0.00    -0.242 C  
HETATM   18  C   UNL     1      -9.164  15.109  66.330  1.00  0.00    -0.300 C  
HETATM   19  C   UNL     1      -7.110  14.587  67.556  1.00  0.00    -0.175 C  
BRANCH  15  20
HETATM   20  C   UNL     1      -7.815  16.886  67.438  1.00  0.00    -0.170 A  
HETATM   21  N   UNL     1      -6.790  17.263  68.189  1.00  0.00    -0.177 NA 
HETATM   22  S   UNL     1      -6.864  18.875  68.507  1.00  0.00    -0.270 SA 
HETATM   23  C   UNL     1      -8.295  19.164  67.610  1.00  0.00    -0.290 A  
HETATM   24  C   UNL     1      -8.941  20.388  67.384  1.00  0.00    -0.449 A  
HETATM   25  C   UNL     1     -10.114  20.380  66.625  1.00  0.00    -0.457 A  
HETATM   26  C   UNL     1     -10.613  19.184  66.126  1.00  0.00    -0.524 A  
HETATM   27  C   UNL     1      -9.950  17.974  66.337  1.00  0.00    -0.362 A  
HETATM   28  C   UNL     1      -8.756  17.942  67.123  1.00  0.00    -0.248 A  
ENDBRANCH  15  20
ENDBRANCH  13  14
ENDBRANCH  12  13
ENDBRANCH   3  12
TORSDOF 4
ENDMDL
MODEL      190
REMARK 921   NORMALIZED FREE ENERGY PREDICTED BY IDOCK:   -4.13 KCAL/MOL
REMARK 922        TOTAL FREE ENERGY PREDICTED BY IDOCK:   -5.62 KCAL/MOL
REMARK 923 INTER-LIGAND FREE ENERGY PREDICTED BY IDOCK:   -4.97 KCAL/MOL
REMARK 924 INTRA-LIGAND FREE ENERGY PREDICTED BY IDOCK:   -0.65 KCAL/MOL
REMARK 927      BINDING AFFINITY PREDICTED BY RF-SCORE:    0.00 PKD
ROOT
HETATM    1 CL   UNL     1     -12.209  13.448  66.506  1.00  0.00    -0.440 Cl 
HETATM    2  C   UNL     1     -11.314  12.168  65.765  1.00  0.00    -0.354 A  
HETATM    3  C   UNL     1     -10.778  11.098  66.531  1.00  0.00    -0.314 A  
HETATM    4  O   UNL     1      -7.155  10.543  62.338  1.00  0.00    -0.142 OA 
HETATM    5  C   UNL     1     -10.169  10.005  65.888  1.00  0.00    -0.275 A  
HETATM    6  C   UNL     1      -9.815  10.175  64.566  1.00  0.00    -0.334 A  
HETATM    7  N   UNL     1      -9.190  11.552  62.877  1.00  0.00    -0.291 NA 
HETATM    8  C   UNL     1      -8.814   9.406  63.758  1.00  0.00    -0.201 C  
HETATM    9  C   UNL     1     -10.959  12.319  64.426  1.00  0.00    -0.374 A  
HETATM   10  C   UNL     1     -10.108  11.368  63.909  1.00  0.00    -0.345 A  
HETATM   11  C   UNL     1      -8.242  10.526  62.890  1.00  0.00    -0.147 C  
ENDROOT
BRANCH   3  12
HETATM   12  C   UNL     1     -10.308  11.370  67.953  1.00  0.00    -0.204 C  
BRANCH  12  13
HETATM   13  C   UNL     1     -10.995  10.740  69.171  1.00  0.00    -0.244 C  
BRANCH  13  14
HETATM   14  N   UNL     1      -9.955  10.100  70.007  1.00  0.00    -0.217 NA 
HETATM   15  N   UNL     1      -8.154   8.094  68.695  1.00  0.00    -0.122 NA 
HETATM   16  C   UNL     1     -10.085   8.634  70.094  1.00  0.00    -0.185 C  
HETATM   17  C   UNL     1      -8.559  10.439  69.650  1.00  0.00    -0.040 C  
HETATM   18  C   UNL     1      -7.754   9.516  68.668  1.00  0.00    -0.081 C  
HETATM   19  C   UNL     1      -9.607   7.923  68.820  1.00  0.00    -0.152 C  
BRANCH  15  20
HETATM   20  C   UNL     1      -7.392   7.151  69.359  1.00  0.00    -0.090 A  
HETATM   21  N   UNL     1      -6.967   7.334  70.602  1.00  0.00    -0.056 NA 
HETATM   22  S   UNL     1      -6.306   5.951  71.199  1.00  0.00    -0.041 SA 
HETATM   23  C   UNL     1      -6.585   5.005  69.798  1.00  0.00    -0.036 A  
HETATM   24  C   UNL     1      -6.313   3.643  69.608  1.00  0.00    -0.029 A  
HETATM   25  C   UNL     1      -6.617   3.081  68.365  1.00  0.00    -0.036 A  
HETATM   26  C   UNL     1      -7.162   3.868  67.359  1.00  0.00    -0.067 A  
HETATM   27  C   UNL     1      -7.451   5.218  67.566  1.00  0.00    -0.084 A  
HETATM   28  C   UNL     1      -7.138   5.830  68.820  1.00  0.00    -0.073 A  
ENDBRANCH  15  20
ENDBRANCH  13  14
ENDBRANCH  12  13
ENDBRANCH   3  12
TORSDOF 4
ENDMDL
MODEL      191
REMARK 921   NORMALIZED FREE ENERGY PREDICTED BY IDOCK:   -4.12 KCAL/MOL
REMARK 922        TOTAL FREE ENERGY PREDICTED BY IDOCK:   -5.61 KCAL/MOL
REMARK 923 INTER-LIGAND FREE ENERGY PREDICTED BY IDOCK:   -6.20 KCAL/MOL
REMARK 924 INTRA-LIGAND FREE ENERGY PREDICTED BY IDOCK:    0.59 KCAL/MOL
REMARK 927      BINDING AFFINITY PREDICTED BY RF-SCORE:    0.00 PKD
ROOT
HETATM    1 CL   UNL     1     -12.611  11.451  70.562  1.00  0.00    -0.340 Cl 
HETATM    2  C   UNL     1     -11.422  10.236  70.871  1.00  0.00    -0.339 A  
HETATM    3  C   UNL     1     -10.221  10.166  70.115  1.00  0.00    -0.235 A  
HETATM    4  O   UNL     1     -10.155   4.802  71.614  1.00  0.00    -0.185 OA 
HETATM    5  C   UNL     1      -9.214   9.251  70.473  1.00  0.00    -0.311 A  
HETATM    6  C   UNL     1      -9.572   8.231  71.329  1.00  0.00    -0.219 A  
HETATM    7  N   UNL     1     -11.164   6.839  72.145  1.00  0.00    -0.249 NA 
HETATM    8  C   UNL     1      -8.891   6.914  71.554  1.00  0.00    -0.132 C  
HETATM    9  C   UNL     1     -11.763   9.204  71.743  1.00  0.00    -0.456 A  
HETATM   10  C   UNL     1     -10.865   8.166  71.841  1.00  0.00    -0.270 A  
HETATM   11  C   UNL     1     -10.104   6.010  71.770  1.00  0.00    -0.188 C  
ENDROOT
BRANCH   3  12
HETATM   12  C   UNL     1     -10.243  10.579  68.651  1.00  0.00    -0.197 C  
BRANCH  12  13
HETATM   13  C   UNL     1      -9.249  10.012  67.630  1.00  0.00    -0.137 C  
BRANCH  13  14
HETATM   14  N   UNL     1      -8.611  11.148  66.927  1.00  0.00    -0.143 NA 
HETATM   15  N   UNL     1      -8.179  13.677  68.478  1.00  0.00    -0.140 NA 
HETATM   16  C   UNL     1      -9.456  12.355  66.867  1.00  0.00    -0.219 C  
HETATM   17  C   UNL     1      -7.269  11.524  67.422  1.00  0.00    -0.119 C  
HETATM   18  C   UNL     1      -7.120  12.647  68.510  1.00  0.00    -0.101 C  
HETATM   19  C   UNL     1      -9.505  13.108  68.203  1.00  0.00    -0.222 C  
BRANCH  15  20
HETATM   20  C   UNL     1      -7.946  14.922  67.925  1.00  0.00    -0.138 A  
HETATM   21  N   UNL     1      -6.859  15.188  67.215  1.00  0.00    -0.268 NA 
HETATM   22  S   UNL     1      -6.984  16.660  66.490  1.00  0.00    -0.026 SA 
HETATM   23  C   UNL     1      -8.551  17.014  67.084  1.00  0.00    -0.202 A  
HETATM   24  C   UNL     1      -9.345  18.136  66.810  1.00  0.00    -0.286 A  
HETATM   25  C   UNL     1     -10.598  18.219  67.424  1.00  0.00    -0.425 A  
HETATM   26  C   UNL     1     -11.020  17.214  68.284  1.00  0.00    -0.229 A  
HETATM   27  C   UNL     1     -10.232  16.089  68.533  1.00  0.00    -0.236 A  
HETATM   28  C   UNL     1      -8.938  15.979  67.934  1.00  0.00    -0.186 A  
ENDBRANCH  15  20
ENDBRANCH  13  14
ENDBRANCH  12  13
ENDBRANCH   3  12
TORSDOF 4
ENDMDL
MODEL      192
REMARK 921   NORMALIZED FREE ENERGY PREDICTED BY IDOCK:   -4.10 KCAL/MOL
REMARK 922        TOTAL FREE ENERGY PREDICTED BY IDOCK:   -5.58 KCAL/MOL
REMARK 923 INTER-LIGAND FREE ENERGY PREDICTED BY IDOCK:   -5.48 KCAL/MOL
REMARK 924 INTRA-LIGAND FREE ENERGY PREDICTED BY IDOCK:   -0.10 KCAL/MOL
REMARK 927      BINDING AFFINITY PREDICTED BY RF-SCORE:    0.00 PKD
ROOT
HETATM    1 CL   UNL     1      -5.588   7.892  71.368  1.00  0.00    -0.034 Cl 
HETATM    2  C   UNL     1      -6.841   6.704  71.337  1.00  0.00    -0.062 A  
HETATM    3  C   UNL     1      -7.526   6.379  70.134  1.00  0.00    -0.094 A  
HETATM    4  O   UNL     1     -11.635   4.687  73.491  1.00  0.00    -0.285 OA 
HETATM    5  C   UNL     1      -8.448   5.317  70.111  1.00  0.00    -0.109 A  
HETATM    6  C   UNL     1      -8.901   4.856  71.329  1.00  0.00    -0.154 A  
HETATM    7  N   UNL     1      -9.371   5.251  73.511  1.00  0.00    -0.133 NA 
HETATM    8  C   UNL     1     -10.143   4.073  71.631  1.00  0.00    -0.183 C  
HETATM    9  C   UNL     1      -7.303   6.218  72.559  1.00  0.00    -0.085 A  
HETATM   10  C   UNL     1      -8.410   5.401  72.513  1.00  0.00    -0.114 A  
HETATM   11  C   UNL     1     -10.528   4.676  72.982  1.00  0.00    -0.198 C  
ENDROOT
BRANCH   3  12
HETATM   12  C   UNL     1      -7.749   7.467  69.095  1.00  0.00    -0.111 C  
BRANCH  12  13
HETATM   13  C   UNL     1      -9.148   8.006  68.769  1.00  0.00    -0.144 C  
BRANCH  13  14
HETATM   14  N   UNL     1      -9.009   9.047  67.726  1.00  0.00    -0.128 NA 
HETATM   15  N   UNL     1     -10.458  11.638  68.146  1.00  0.00    -0.188 NA 
HETATM   16  C   UNL     1     -10.289   9.433  67.103  1.00  0.00    -0.258 C  
HETATM   17  C   UNL     1      -8.289  10.270  68.144  1.00  0.00    -0.118 C  
HETATM   18  C   UNL     1      -9.091  11.505  68.689  1.00  0.00    -0.120 C  
HETATM   19  C   UNL     1     -11.134  10.342  68.007  1.00  0.00    -0.274 C  
BRANCH  15  20
HETATM   20  C   UNL     1     -10.746  12.561  67.157  1.00  0.00    -0.237 A  
HETATM   21  N   UNL     1     -11.661  12.334  66.224  1.00  0.00    -0.511 NA 
HETATM   22  S   UNL     1     -11.951  13.698  65.351  1.00  0.00    -0.404 SA 
HETATM   23  C   UNL     1     -10.859  14.694  66.217  1.00  0.00    -0.321 A  
HETATM   24  C   UNL     1     -10.617  16.064  66.044  1.00  0.00    -0.324 A  
HETATM   25  C   UNL     1      -9.663  16.670  66.865  1.00  0.00    -0.261 A  
HETATM   26  C   UNL     1      -8.978  15.918  67.810  1.00  0.00    -0.176 A  
HETATM   27  C   UNL     1      -9.241  14.559  67.990  1.00  0.00    -0.190 A  
HETATM   28  C   UNL     1     -10.200  13.903  67.157  1.00  0.00    -0.258 A  
ENDBRANCH  15  20
ENDBRANCH  13  14
ENDBRANCH  12  13
ENDBRANCH   3  12
TORSDOF 4
ENDMDL
MODEL      193
REMARK 921   NORMALIZED FREE ENERGY PREDICTED BY IDOCK:   -4.10 KCAL/MOL
REMARK 922        TOTAL FREE ENERGY PREDICTED BY IDOCK:   -5.58 KCAL/MOL
REMARK 923 INTER-LIGAND FREE ENERGY PREDICTED BY IDOCK:   -5.46 KCAL/MOL
REMARK 924 INTRA-LIGAND FREE ENERGY PREDICTED BY IDOCK:   -0.12 KCAL/MOL
REMARK 927      BINDING AFFINITY PREDICTED BY RF-SCORE:    0.00 PKD
ROOT
HETATM    1 CL   UNL     1     -12.314  13.149  69.266  1.00  0.00    -0.130 Cl 
HETATM    2  C   UNL     1     -11.596  11.825  68.420  1.00  0.00    -0.318 A  
HETATM    3  C   UNL     1     -11.596  10.511  68.963  1.00  0.00    -0.278 A  
HETATM    4  O   UNL     1      -7.170   9.674  65.689  1.00  0.00    -0.091 OA 
HETATM    5  C   UNL     1     -11.122   9.430  68.197  1.00  0.00    -0.000 A  
HETATM    6  C   UNL     1     -10.367   9.736  67.084  1.00  0.00    -0.311 A  
HETATM    7  N   UNL     1      -8.949  11.147  66.019  1.00  0.00    -0.197 NA 
HETATM    8  C   UNL     1      -9.402   8.864  66.339  1.00  0.00    -0.262 C  
HETATM    9  C   UNL     1     -10.839  12.115  67.287  1.00  0.00    -0.286 A  
HETATM   10  C   UNL     1     -10.144  11.065  66.731  1.00  0.00    -0.220 A  
HETATM   11  C   UNL     1      -8.338   9.893  65.959  1.00  0.00    -0.122 C  
ENDROOT
BRANCH   3  12
HETATM   12  C   UNL     1     -11.510  10.335  70.472  1.00  0.00    -0.427 C  
BRANCH  12  13
HETATM   13  C   UNL     1     -12.481   9.433  71.243  1.00  0.00    -0.335 C  
BRANCH  13  14
HETATM   14  N   UNL     1     -11.686   8.468  72.035  1.00  0.00    -0.336 NA 
HETATM   15  N   UNL     1      -9.846   6.628  70.545  1.00  0.00    -0.176 NA 
HETATM   16  C   UNL     1     -11.959   7.059  71.697  1.00  0.00    -0.329 C  
HETATM   17  C   UNL     1     -10.223   8.692  72.020  1.00  0.00    -0.337 C  
HETATM   18  C   UNL     1      -9.325   7.943  70.972  1.00  0.00    -0.152 C  
HETATM   19  C   UNL     1     -11.305   6.632  70.376  1.00  0.00    -0.365 C  
BRANCH  15  20
HETATM   20  C   UNL     1      -9.315   5.454  71.045  1.00  0.00    -0.150 A  
HETATM   21  N   UNL     1      -9.777   4.262  70.690  1.00  0.00    -0.193 NA 
HETATM   22  S   UNL     1      -8.794   3.068  71.251  1.00  0.00    -0.089 SA 
HETATM   23  C   UNL     1      -7.656   4.113  71.993  1.00  0.00    -0.071 A  
HETATM   24  C   UNL     1      -6.465   3.768  72.647  1.00  0.00    -0.017 A  
HETATM   25  C   UNL     1      -5.694   4.798  73.192  1.00  0.00    -0.013 A  
HETATM   26  C   UNL     1      -6.118   6.116  73.087  1.00  0.00    -0.054 A  
HETATM   27  C   UNL     1      -7.294   6.452  72.414  1.00  0.00    -0.088 A  
HETATM   28  C   UNL     1      -8.116   5.422  71.858  1.00  0.00    -0.114 A  
ENDBRANCH  15  20
ENDBRANCH  13  14
ENDBRANCH  12  13
ENDBRANCH   3  12
TORSDOF 4
ENDMDL
MODEL      194
REMARK 921   NORMALIZED FREE ENERGY PREDICTED BY IDOCK:   -4.07 KCAL/MOL
REMARK 922        TOTAL FREE ENERGY PREDICTED BY IDOCK:   -5.55 KCAL/MOL
REMARK 923 INTER-LIGAND FREE ENERGY PREDICTED BY IDOCK:   -5.32 KCAL/MOL
REMARK 924 INTRA-LIGAND FREE ENERGY PREDICTED BY IDOCK:   -0.22 KCAL/MOL
REMARK 927      BINDING AFFINITY PREDICTED BY RF-SCORE:    0.00 PKD
ROOT
HETATM    1 CL   UNL     1     -12.412  11.884  71.784  1.00  0.00    -0.121 Cl 
HETATM    2  C   UNL     1     -12.187  12.174  70.096  1.00  0.00    -0.231 A  
HETATM    3  C   UNL     1     -11.934  11.110  69.188  1.00  0.00    -0.413 A  
HETATM    4  O   UNL     1      -9.596  15.028  65.994  1.00  0.00    -0.295 OA 
HETATM    5  C   UNL     1     -11.886  11.360  67.804  1.00  0.00    -0.196 A  
HETATM    6  C   UNL     1     -11.747  12.674  67.410  1.00  0.00    -0.432 A  
HETATM    7  N   UNL     1     -10.999  14.769  67.841  1.00  0.00    -0.269 NA 
HETATM    8  C   UNL     1     -11.256  13.212  66.100  1.00  0.00    -0.320 C  
HETATM    9  C   UNL     1     -12.057  13.497  69.679  1.00  0.00    -0.365 A  
HETATM   10  C   UNL     1     -11.713  13.691  68.360  1.00  0.00    -0.358 A  
HETATM   11  C   UNL     1     -10.495  14.448  66.579  1.00  0.00    -0.289 C  
ENDROOT
BRANCH   3  12
HETATM   12  C   UNL     1     -11.143   9.902  69.667  1.00  0.00    -0.279 C  
BRANCH  12  13
HETATM   13  C   UNL     1     -11.813   8.720  70.377  1.00  0.00     0.058 C  
BRANCH  13  14
HETATM   14  N   UNL     1     -10.810   7.642  70.526  1.00  0.00    -0.237 NA 
HETATM   15  N   UNL     1     -10.160   6.004  68.100  1.00  0.00    -0.147 NA 
HETATM   16  C   UNL     1     -11.337   6.298  70.222  1.00  0.00    -0.388 C  
HETATM   17  C   UNL     1      -9.549   7.844  69.779  1.00  0.00    -0.167 C  
HETATM   18  C   UNL     1      -9.383   7.237  68.340  1.00  0.00    -0.143 C  
HETATM   19  C   UNL     1     -11.492   6.052  68.716  1.00  0.00     0.296 C  
BRANCH  15  20
HETATM   20  C   UNL     1      -9.549   4.763  68.115  1.00  0.00    -0.148 A  
HETATM   21  N   UNL     1      -9.708   3.910  69.119  1.00  0.00    -0.142 NA 
HETATM   22  S   UNL     1      -9.069   2.442  68.739  1.00  0.00    -0.155 SA 
HETATM   23  C   UNL     1      -8.559   2.876  67.162  1.00  0.00    -0.105 A  
HETATM   24  C   UNL     1      -7.956   2.061  66.194  1.00  0.00    -0.078 A  
HETATM   25  C   UNL     1      -7.611   2.641  64.971  1.00  0.00    -0.072 A  
HETATM   26  C   UNL     1      -7.858   3.988  64.744  1.00  0.00    -0.085 A  
HETATM   27  C   UNL     1      -8.479   4.787  65.706  1.00  0.00    -0.119 A  
HETATM   28  C   UNL     1      -8.831   4.230  66.975  1.00  0.00    -0.121 A  
ENDBRANCH  15  20
ENDBRANCH  13  14
ENDBRANCH  12  13
ENDBRANCH   3  12
TORSDOF 4
ENDMDL
MODEL      195
REMARK 921   NORMALIZED FREE ENERGY PREDICTED BY IDOCK:   -4.07 KCAL/MOL
REMARK 922        TOTAL FREE ENERGY PREDICTED BY IDOCK:   -5.54 KCAL/MOL
REMARK 923 INTER-LIGAND FREE ENERGY PREDICTED BY IDOCK:   -5.08 KCAL/MOL
REMARK 924 INTRA-LIGAND FREE ENERGY PREDICTED BY IDOCK:   -0.46 KCAL/MOL
REMARK 927      BINDING AFFINITY PREDICTED BY RF-SCORE:    0.00 PKD
ROOT
HETATM    1 CL   UNL     1      -6.936   6.671  68.001  1.00  0.00    -0.077 Cl 
HETATM    2  C   UNL     1      -7.448   5.996  66.495  1.00  0.00    -0.090 A  
HETATM    3  C   UNL     1      -7.825   6.823  65.402  1.00  0.00    -0.115 A  
HETATM    4  O   UNL     1     -10.757   2.408  63.691  1.00  0.00    -0.175 OA 
HETATM    5  C   UNL     1      -8.111   6.250  64.149  1.00  0.00    -0.067 A  
HETATM    6  C   UNL     1      -8.344   4.892  64.122  1.00  0.00    -0.131 A  
HETATM    7  N   UNL     1      -9.058   3.015  65.172  1.00  0.00    -0.144 NA 
HETATM    8  C   UNL     1      -9.061   4.085  63.081  1.00  0.00    -0.117 C  
HETATM    9  C   UNL     1      -7.677   4.622  66.446  1.00  0.00    -0.091 A  
HETATM   10  C   UNL     1      -8.242   4.138  65.288  1.00  0.00    -0.102 A  
HETATM   11  C   UNL     1      -9.760   3.053  63.965  1.00  0.00    -0.148 C  
ENDROOT
BRANCH   3  12
HETATM   12  C   UNL     1      -8.497   8.159  65.684  1.00  0.00    -0.170 C  
BRANCH  12  13
HETATM   13  C   UNL     1      -9.630   8.300  66.708  1.00  0.00    -0.224 C  
BRANCH  13  14
HETATM   14  N   UNL     1      -9.374   9.515  67.514  1.00  0.00    -0.126 NA 
HETATM   15  N   UNL     1     -10.906  11.995  66.816  1.00  0.00    -0.253 NA 
HETATM   16  C   UNL     1      -8.866  10.652  66.724  1.00  0.00    -0.139 C  
HETATM   17  C   UNL     1     -10.510   9.974  68.344  1.00  0.00    -0.205 C  
HETATM   18  C   UNL     1     -11.504  11.054  67.785  1.00  0.00    -0.261 C  
HETATM   19  C   UNL     1      -9.965  11.337  65.901  1.00  0.00    -0.234 C  
BRANCH  15  20
HETATM   20  C   UNL     1     -10.559  13.280  67.191  1.00  0.00    -0.258 A  
HETATM   21  N   UNL     1      -9.874  13.532  68.298  1.00  0.00    -0.230 NA 
HETATM   22  S   UNL     1      -9.404  15.108  68.345  1.00  0.00    -0.203 SA 
HETATM   23  C   UNL     1     -10.089  15.539  66.835  1.00  0.00    -0.262 A  
HETATM   24  C   UNL     1     -10.024  16.775  66.177  1.00  0.00    -0.345 A  
HETATM   25  C   UNL     1     -10.675  16.900  64.948  1.00  0.00     0.045 A  
HETATM   26  C   UNL     1     -11.369  15.822  64.415  1.00  0.00    -0.274 A  
HETATM   27  C   UNL     1     -11.409  14.588  65.065  1.00  0.00    -0.377 A  
HETATM   28  C   UNL     1     -10.768  14.429  66.333  1.00  0.00    -0.306 A  
ENDBRANCH  15  20
ENDBRANCH  13  14
ENDBRANCH  12  13
ENDBRANCH   3  12
TORSDOF 4
ENDMDL
MODEL      196
REMARK 921   NORMALIZED FREE ENERGY PREDICTED BY IDOCK:   -4.05 KCAL/MOL
REMARK 922        TOTAL FREE ENERGY PREDICTED BY IDOCK:   -5.52 KCAL/MOL
REMARK 923 INTER-LIGAND FREE ENERGY PREDICTED BY IDOCK:   -5.55 KCAL/MOL
REMARK 924 INTRA-LIGAND FREE ENERGY PREDICTED BY IDOCK:    0.03 KCAL/MOL
REMARK 927      BINDING AFFINITY PREDICTED BY RF-SCORE:    0.00 PKD
ROOT
HETATM    1 CL   UNL     1      -5.280   8.190  66.058  1.00  0.00    -0.025 Cl 
HETATM    2  C   UNL     1      -6.602   7.078  66.025  1.00  0.00    -0.052 A  
HETATM    3  C   UNL     1      -7.925   7.508  65.735  1.00  0.00    -0.117 A  
HETATM    4  O   UNL     1      -9.505   2.958  68.532  1.00  0.00    -0.189 OA 
HETATM    5  C   UNL     1      -8.958   6.564  65.586  1.00  0.00    -0.007 A  
HETATM    6  C   UNL     1      -8.715   5.292  66.061  1.00  0.00    -0.137 A  
HETATM    7  N   UNL     1      -7.641   3.927  67.516  1.00  0.00    -0.068 NA 
HETATM    8  C   UNL     1      -9.702   4.226  66.430  1.00  0.00    -0.228 C  
HETATM    9  C   UNL     1      -6.371   5.785  66.490  1.00  0.00    -0.038 A  
HETATM   10  C   UNL     1      -7.476   4.972  66.610  1.00  0.00    -0.087 A  
HETATM   11  C   UNL     1      -8.993   3.597  67.629  1.00  0.00    -0.139 C  
ENDROOT
BRANCH   3  12
HETATM   12  C   UNL     1      -8.363   8.898  66.172  1.00  0.00    -0.125 C  
BRANCH  12  13
HETATM   13  C   UNL     1      -9.842   9.291  66.273  1.00  0.00    -0.291 C  
BRANCH  13  14
HETATM   14  N   UNL     1      -9.933  10.767  66.200  1.00  0.00    -0.223 NA 
HETATM   15  N   UNL     1     -10.532  12.250  68.736  1.00  0.00    -0.200 NA 
HETATM   16  C   UNL     1     -11.249  11.298  66.601  1.00  0.00    -0.177 C  
HETATM   17  C   UNL     1      -8.875  11.503  66.927  1.00  0.00    -0.182 C  
HETATM   18  C   UNL     1      -9.120  11.971  68.406  1.00  0.00    -0.158 C  
HETATM   19  C   UNL     1     -11.452  11.284  68.122  1.00  0.00    -0.306 C  
BRANCH  15  20
HETATM   20  C   UNL     1     -11.005  13.547  68.809  1.00  0.00    -0.261 A  
HETATM   21  N   UNL     1     -11.671  13.998  69.863  1.00  0.00    -0.296 NA 
HETATM   22  S   UNL     1     -11.882  15.626  69.765  1.00  0.00    -0.352 SA 
HETATM   23  C   UNL     1     -11.048  15.821  68.281  1.00  0.00    -0.342 A  
HETATM   24  C   UNL     1     -10.775  17.011  67.592  1.00  0.00    -0.295 A  
HETATM   25  C   UNL     1     -10.084  16.925  66.381  1.00  0.00    -0.331 A  
HETATM   26  C   UNL     1      -9.697  15.687  65.887  1.00  0.00    -0.388 A  
HETATM   27  C   UNL     1      -9.953  14.509  66.590  1.00  0.00    -0.276 A  
HETATM   28  C   UNL     1     -10.672  14.558  67.825  1.00  0.00    -0.256 A  
ENDBRANCH  15  20
ENDBRANCH  13  14
ENDBRANCH  12  13
ENDBRANCH   3  12
TORSDOF 4
ENDMDL
MODEL      197
REMARK 921   NORMALIZED FREE ENERGY PREDICTED BY IDOCK:   -4.04 KCAL/MOL
REMARK 922        TOTAL FREE ENERGY PREDICTED BY IDOCK:   -5.51 KCAL/MOL
REMARK 923 INTER-LIGAND FREE ENERGY PREDICTED BY IDOCK:   -4.75 KCAL/MOL
REMARK 924 INTRA-LIGAND FREE ENERGY PREDICTED BY IDOCK:   -0.76 KCAL/MOL
REMARK 927      BINDING AFFINITY PREDICTED BY RF-SCORE:    0.00 PKD
ROOT
HETATM    1 CL   UNL     1      -7.832  10.201  69.329  1.00  0.00    -0.120 Cl 
HETATM    2  C   UNL     1      -9.069   9.691  70.422  1.00  0.00    -0.191 A  
HETATM    3  C   UNL     1      -8.836   8.668  71.382  1.00  0.00    -0.276 A  
HETATM    4  O   UNL     1     -14.356   7.945  71.251  1.00  0.00    -0.369 OA 
HETATM    5  C   UNL     1      -9.817   8.365  72.343  1.00  0.00    -0.378 A  
HETATM    6  C   UNL     1     -11.092   8.834  72.105  1.00  0.00    -0.406 A  
HETATM    7  N   UNL     1     -12.694   9.460  70.629  1.00  0.00    -0.001 NA 
HETATM    8  C   UNL     1     -12.390   8.349  72.677  1.00  0.00    -0.278 C  
HETATM    9  C   UNL     1     -10.362  10.164  70.203  1.00  0.00    -0.280 A  
HETATM   10  C   UNL     1     -11.355   9.613  70.981  1.00  0.00    -0.374 A  
HETATM   11  C   UNL     1     -13.307   8.527  71.467  1.00  0.00    -0.293 C  
ENDROOT
BRANCH   3  12
HETATM   12  C   UNL     1      -7.880   7.536  71.037  1.00  0.00    -0.091 C  
BRANCH  12  13
HETATM   13  C   UNL     1      -8.380   6.140  70.646  1.00  0.00    -0.126 C  
BRANCH  13  14
HETATM   14  N   UNL     1      -7.488   5.609  69.592  1.00  0.00    -0.073 NA 
HETATM   15  N   UNL     1      -8.566   5.470  66.797  1.00  0.00    -0.111 NA 
HETATM   16  C   UNL     1      -8.013   4.402  68.925  1.00  0.00    -0.073 C  
HETATM   17  C   UNL     1      -7.075   6.586  68.560  1.00  0.00    -0.083 C  
HETATM   18  C   UNL     1      -7.895   6.714  67.227  1.00  0.00    -0.112 C  
HETATM   19  C   UNL     1      -9.133   4.721  67.926  1.00  0.00    -0.116 C  
BRANCH  15  20
HETATM   20  C   UNL     1      -8.045   4.695  65.778  1.00  0.00    -0.103 A  
HETATM   21  N   UNL     1      -6.755   4.392  65.710  1.00  0.00    -0.051 NA 
HETATM   22  S   UNL     1      -6.485   3.266  64.542  1.00  0.00    -0.035 SA 
HETATM   23  C   UNL     1      -8.125   3.102  64.074  1.00  0.00    -0.082 A  
HETATM   24  C   UNL     1      -8.669   2.228  63.121  1.00  0.00    -0.085 A  
HETATM   25  C   UNL     1     -10.046   2.280  62.896  1.00  0.00    -0.108 A  
HETATM   26  C   UNL     1     -10.834   3.182  63.597  1.00  0.00    -0.180 A  
HETATM   27  C   UNL     1     -10.288   4.032  64.560  1.00  0.00    -0.221 A  
HETATM   28  C   UNL     1      -8.879   4.017  64.806  1.00  0.00    -0.130 A  
ENDBRANCH  15  20
ENDBRANCH  13  14
ENDBRANCH  12  13
ENDBRANCH   3  12
TORSDOF 4
ENDMDL
MODEL      198
REMARK 921   NORMALIZED FREE ENERGY PREDICTED BY IDOCK:   -4.04 KCAL/MOL
REMARK 922        TOTAL FREE ENERGY PREDICTED BY IDOCK:   -5.51 KCAL/MOL
REMARK 923 INTER-LIGAND FREE ENERGY PREDICTED BY IDOCK:   -5.33 KCAL/MOL
REMARK 924 INTRA-LIGAND FREE ENERGY PREDICTED BY IDOCK:   -0.17 KCAL/MOL
REMARK 927      BINDING AFFINITY PREDICTED BY RF-SCORE:    0.00 PKD
ROOT
HETATM    1 CL   UNL     1      -8.836   4.324  67.380  1.00  0.00    -0.113 Cl 
HETATM    2  C   UNL     1      -9.192   4.553  69.055  1.00  0.00    -0.134 A  
HETATM    3  C   UNL     1      -8.776   5.723  69.748  1.00  0.00    -0.127 A  
HETATM    4  O   UNL     1      -9.131   2.560  74.319  1.00  0.00    -0.073 OA 
HETATM    5  C   UNL     1      -9.192   5.943  71.074  1.00  0.00    -0.163 A  
HETATM    6  C   UNL     1      -9.703   4.859  71.757  1.00  0.00    -0.223 A  
HETATM    7  N   UNL     1      -9.780   2.617  72.078  1.00  0.00    -0.136 NA 
HETATM    8  C   UNL     1      -9.827   4.659  73.238  1.00  0.00    -0.170 C  
HETATM    9  C   UNL     1      -9.720   3.472  69.758  1.00  0.00    -0.114 A  
HETATM   10  C   UNL     1      -9.838   3.628  71.121  1.00  0.00    -0.130 A  
HETATM   11  C   UNL     1      -9.534   3.163  73.339  1.00  0.00    -0.095 C  
ENDROOT
BRANCH   3  12
HETATM   12  C   UNL     1      -7.471   6.393  69.348  1.00  0.00    -0.094 C  
BRANCH  12  13
HETATM   13  C   UNL     1      -7.401   7.877  68.970  1.00  0.00    -0.088 C  
BRANCH  13  14
HETATM   14  N   UNL     1      -8.283   8.098  67.801  1.00  0.00    -0.127 NA 
HETATM   15  N   UNL     1      -8.133  10.758  66.428  1.00  0.00    -0.148 NA 
HETATM   16  C   UNL     1      -9.228   9.216  67.977  1.00  0.00    -0.134 C  
HETATM   17  C   UNL     1      -7.588   8.254  66.505  1.00  0.00    -0.092 C  
HETATM   18  C   UNL     1      -7.221   9.687  65.979  1.00  0.00    -0.098 C  
HETATM   19  C   UNL     1      -8.554  10.587  67.824  1.00  0.00    -0.118 C  
BRANCH  15  20
HETATM   20  C   UNL     1      -9.097  11.275  65.582  1.00  0.00    -0.189 A  
HETATM   21  N   UNL     1      -9.294  10.799  64.360  1.00  0.00    -0.227 NA 
HETATM   22  S   UNL     1     -10.655  11.442  63.699  1.00  0.00    -0.410 SA 
HETATM   23  C   UNL     1     -11.077  12.396  65.058  1.00  0.00    -0.304 A  
HETATM   24  C   UNL     1     -12.210  13.203  65.230  1.00  0.00    -0.502 A  
HETATM   25  C   UNL     1     -12.338  13.906  66.430  1.00  0.00    -0.468 A  
HETATM   26  C   UNL     1     -11.357  13.802  67.407  1.00  0.00    -0.348 A  
HETATM   27  C   UNL     1     -10.244  12.978  67.237  1.00  0.00    -0.239 A  
HETATM   28  C   UNL     1     -10.072  12.256  66.014  1.00  0.00    -0.269 A  
ENDBRANCH  15  20
ENDBRANCH  13  14
ENDBRANCH  12  13
ENDBRANCH   3  12
TORSDOF 4
ENDMDL
MODEL      199
REMARK 921   NORMALIZED FREE ENERGY PREDICTED BY IDOCK:   -4.02 KCAL/MOL
REMARK 922        TOTAL FREE ENERGY PREDICTED BY IDOCK:   -5.48 KCAL/MOL
REMARK 923 INTER-LIGAND FREE ENERGY PREDICTED BY IDOCK:   -5.31 KCAL/MOL
REMARK 924 INTRA-LIGAND FREE ENERGY PREDICTED BY IDOCK:   -0.17 KCAL/MOL
REMARK 927      BINDING AFFINITY PREDICTED BY RF-SCORE:    0.00 PKD
ROOT
HETATM    1 CL   UNL     1     -11.657  12.152  68.423  1.00  0.00    -0.356 Cl 
HETATM    2  C   UNL     1     -11.047  13.729  68.068  1.00  0.00    -0.261 A  
HETATM    3  C   UNL     1     -11.712  14.594  67.157  1.00  0.00    -0.392 A  
HETATM    4  O   UNL     1      -6.728  17.003  66.547  1.00  0.00    -0.217 OA 
HETATM    5  C   UNL     1     -11.267  15.918  66.988  1.00  0.00    -0.024 A  
HETATM    6  C   UNL     1     -10.004  16.218  67.454  1.00  0.00    -0.249 A  
HETATM    7  N   UNL     1      -7.897  15.544  67.944  1.00  0.00    -0.126 NA 
HETATM    8  C   UNL     1      -9.109  17.356  67.067  1.00  0.00    -0.251 C  
HETATM    9  C   UNL     1      -9.777  14.053  68.542  1.00  0.00    -0.215 A  
HETATM   10  C   UNL     1      -9.248  15.247  68.106  1.00  0.00    -0.183 A  
HETATM   11  C   UNL     1      -7.746  16.666  67.126  1.00  0.00    -0.180 C  
ENDROOT
BRANCH   3  12
HETATM   12  C   UNL     1     -12.451  13.991  65.972  1.00  0.00    -0.489 C  
BRANCH  12  13
HETATM   13  C   UNL     1     -12.102  14.358  64.524  1.00  0.00    -0.481 C  
BRANCH  13  14
HETATM   14  N   UNL     1     -11.730  13.115  63.811  1.00  0.00    -0.457 NA 
HETATM   15  N   UNL     1     -10.172  11.053  65.329  1.00  0.00    -0.270 NA 
HETATM   16  C   UNL     1     -10.274  12.896  63.726  1.00  0.00     0.003 C  
HETATM   17  C   UNL     1     -12.375  11.881  64.311  1.00  0.00    -0.211 C  
HETATM   18  C   UNL     1     -11.647  10.995  65.383  1.00  0.00     0.683 C  
HETATM   19  C   UNL     1      -9.674  12.406  65.051  1.00  0.00    -0.021 C  
BRANCH  15  20
HETATM   20  C   UNL     1      -9.438  10.028  64.760  1.00  0.00    -0.304 A  
HETATM   21  N   UNL     1      -8.847  10.153  63.580  1.00  0.00    -0.208 NA 
HETATM   22  S   UNL     1      -7.857   8.873  63.287  1.00  0.00    -0.151 SA 
HETATM   23  C   UNL     1      -8.156   8.078  64.775  1.00  0.00    -0.143 A  
HETATM   24  C   UNL     1      -7.575   6.895  65.255  1.00  0.00    -0.099 A  
HETATM   25  C   UNL     1      -7.986   6.423  66.504  1.00  0.00    -0.109 A  
HETATM   26  C   UNL     1      -8.948   7.113  67.228  1.00  0.00    -0.123 A  
HETATM   27  C   UNL     1      -9.504   8.302  66.753  1.00  0.00    -0.256 A  
HETATM   28  C   UNL     1      -9.119   8.806  65.471  1.00  0.00    -0.221 A  
ENDBRANCH  15  20
ENDBRANCH  13  14
ENDBRANCH  12  13
ENDBRANCH   3  12
TORSDOF 4
ENDMDL
MODEL      200
REMARK 921   NORMALIZED FREE ENERGY PREDICTED BY IDOCK:   -4.02 KCAL/MOL
REMARK 922        TOTAL FREE ENERGY PREDICTED BY IDOCK:   -5.48 KCAL/MOL
REMARK 923 INTER-LIGAND FREE ENERGY PREDICTED BY IDOCK:   -4.93 KCAL/MOL
REMARK 924 INTRA-LIGAND FREE ENERGY PREDICTED BY IDOCK:   -0.54 KCAL/MOL
REMARK 927      BINDING AFFINITY PREDICTED BY RF-SCORE:    0.00 PKD
ROOT
HETATM    1 CL   UNL     1      -8.767  10.367  63.577  1.00  0.00    -0.186 Cl 
HETATM    2  C   UNL     1      -9.290   9.818  65.129  1.00  0.00    -0.260 A  
HETATM    3  C   UNL     1     -10.528  10.239  65.687  1.00  0.00    -0.152 A  
HETATM    4  O   UNL     1      -8.187   9.025  70.592  1.00  0.00    -0.144 OA 
HETATM    5  C   UNL     1     -10.989   9.675  66.890  1.00  0.00     0.028 A  
HETATM    6  C   UNL     1     -10.067   8.989  67.653  1.00  0.00    -0.271 A  
HETATM    7  N   UNL     1      -7.917   8.679  68.300  1.00  0.00    -0.109 NA 
HETATM    8  C   UNL     1     -10.121   8.657  69.113  1.00  0.00    -0.203 C  
HETATM    9  C   UNL     1      -8.375   9.112  65.908  1.00  0.00    -0.127 A  
HETATM   10  C   UNL     1      -8.759   8.833  67.200  1.00  0.00    -0.120 A  
HETATM   11  C   UNL     1      -8.646   8.805  69.484  1.00  0.00    -0.130 C  
ENDROOT
BRANCH   3  12
HETATM   12  C   UNL     1     -11.039  11.638  65.378  1.00  0.00    -0.299 C  
BRANCH  12  13
HETATM   13  C   UNL     1     -11.664  12.533  66.456  1.00  0.00    -0.391 C  
BRANCH  13  14
HETATM   14  N   UNL     1     -11.888  13.874  65.870  1.00  0.00    -0.363 NA 
HETATM   15  N   UNL     1      -9.871  16.009  66.471  1.00  0.00    -0.252 NA 
HETATM   16  C   UNL     1     -12.033  14.942  66.877  1.00  0.00    -0.100 C  
HETATM   17  C   UNL     1     -10.894  14.297  64.859  1.00  0.00    -0.416 C  
HETATM   18  C   UNL     1      -9.647  15.147  65.293  1.00  0.00     0.022 C  
HETATM   19  C   UNL     1     -10.691  15.353  67.498  1.00  0.00    -0.295 C  
BRANCH  15  20
HETATM   20  C   UNL     1     -10.082  17.368  66.331  1.00  0.00    -0.327 A  
HETATM   21  N   UNL     1     -10.610  17.891  65.233  1.00  0.00    -0.546 NA 
HETATM   22  S   UNL     1     -10.962  19.482  65.459  1.00  0.00     0.319 SA 
HETATM   23  C   UNL     1     -10.436  19.547  67.088  1.00  0.00    -0.474 A  
HETATM   24  C   UNL     1     -10.496  20.634  67.973  1.00  0.00     0.079 A  
HETATM   25  C   UNL     1      -9.991  20.457  69.263  1.00  0.00     0.156 A  
HETATM   26  C   UNL     1      -9.441  19.238  69.636  1.00  0.00     0.211 A  
HETATM   27  C   UNL     1      -9.407  18.155  68.756  1.00  0.00    -0.261 A  
HETATM   28  C   UNL     1      -9.901  18.305  67.422  1.00  0.00    -0.323 A  
ENDBRANCH  15  20
ENDBRANCH  13  14
ENDBRANCH  12  13
ENDBRANCH   3  12
TORSDOF 4
ENDMDL
MODEL      201
REMARK 921   NORMALIZED FREE ENERGY PREDICTED BY IDOCK:   -3.99 KCAL/MOL
REMARK 922        TOTAL FREE ENERGY PREDICTED BY IDOCK:   -5.44 KCAL/MOL
REMARK 923 INTER-LIGAND FREE ENERGY PREDICTED BY IDOCK:   -4.85 KCAL/MOL
REMARK 924 INTRA-LIGAND FREE ENERGY PREDICTED BY IDOCK:   -0.60 KCAL/MOL
REMARK 927      BINDING AFFINITY PREDICTED BY RF-SCORE:    0.00 PKD
ROOT
HETATM    1 CL   UNL     1     -10.802   9.984  70.668  1.00  0.00    -0.382 Cl 
HETATM    2  C   UNL     1     -10.416   8.783  71.850  1.00  0.00    -0.353 A  
HETATM    3  C   UNL     1      -9.071   8.521  72.229  1.00  0.00    -0.318 A  
HETATM    4  O   UNL     1     -10.974   3.507  73.729  1.00  0.00    -0.215 OA 
HETATM    5  C   UNL     1      -8.796   7.634  73.286  1.00  0.00    -0.251 A  
HETATM    6  C   UNL     1      -9.819   6.799  73.683  1.00  0.00    -0.270 A  
HETATM    7  N   UNL     1     -11.708   5.653  73.178  1.00  0.00    -0.043 NA 
HETATM    8  C   UNL     1      -9.734   5.510  74.444  1.00  0.00    -0.194 C  
HETATM    9  C   UNL     1     -11.441   7.938  72.272  1.00  0.00    -0.403 A  
HETATM   10  C   UNL     1     -11.073   6.889  73.083  1.00  0.00    -0.205 A  
HETATM   11  C   UNL     1     -10.856   4.719  73.772  1.00  0.00    -0.310 C  
ENDROOT
BRANCH   3  12
HETATM   12  C   UNL     1      -7.969   8.672  71.193  1.00  0.00    -0.164 C  
BRANCH  12  13
HETATM   13  C   UNL     1      -7.141   7.477  70.705  1.00  0.00    -0.059 C  
BRANCH  13  14
HETATM   14  N   UNL     1      -6.789   7.707  69.286  1.00  0.00    -0.051 NA 
HETATM   15  N   UNL     1      -8.841   7.011  67.214  1.00  0.00    -0.119 NA 
HETATM   16  C   UNL     1      -6.809   6.481  68.466  1.00  0.00    -0.071 C  
HETATM   17  C   UNL     1      -7.575   8.757  68.602  1.00  0.00    -0.097 C  
HETATM   18  C   UNL     1      -8.864   8.370  67.792  1.00  0.00    -0.137 C  
HETATM   19  C   UNL     1      -8.234   6.027  68.120  1.00  0.00    -0.113 C  
BRANCH  15  20
HETATM   20  C   UNL     1      -8.583   6.811  65.871  1.00  0.00    -0.147 A  
HETATM   21  N   UNL     1      -7.906   7.690  65.143  1.00  0.00    -0.116 NA 
HETATM   22  S   UNL     1      -7.549   7.067  63.663  1.00  0.00    -0.109 SA 
HETATM   23  C   UNL     1      -8.278   5.540  63.937  1.00  0.00    -0.110 A  
HETATM   24  C   UNL     1      -8.307   4.431  63.080  1.00  0.00    -0.097 A  
HETATM   25  C   UNL     1      -8.978   3.285  63.514  1.00  0.00    -0.092 A  
HETATM   26  C   UNL     1      -9.598   3.268  64.756  1.00  0.00    -0.149 A  
HETATM   27  C   UNL     1      -9.545   4.370  65.611  1.00  0.00    -0.189 A  
HETATM   28  C   UNL     1      -8.881   5.565  65.193  1.00  0.00    -0.084 A  
ENDBRANCH  15  20
ENDBRANCH  13  14
ENDBRANCH  12  13
ENDBRANCH   3  12
TORSDOF 4
ENDMDL
MODEL      202
REMARK 921   NORMALIZED FREE ENERGY PREDICTED BY IDOCK:   -3.98 KCAL/MOL
REMARK 922        TOTAL FREE ENERGY PREDICTED BY IDOCK:   -5.43 KCAL/MOL
REMARK 923 INTER-LIGAND FREE ENERGY PREDICTED BY IDOCK:   -5.17 KCAL/MOL
REMARK 924 INTRA-LIGAND FREE ENERGY PREDICTED BY IDOCK:   -0.27 KCAL/MOL
REMARK 927      BINDING AFFINITY PREDICTED BY RF-SCORE:    0.00 PKD
ROOT
HETATM    1 CL   UNL     1     -11.124  11.321  65.214  1.00  0.00    -0.211 Cl 
HETATM    2  C   UNL     1     -10.063  10.017  65.611  1.00  0.00    -0.251 A  
HETATM    3  C   UNL     1      -9.703   9.737  66.958  1.00  0.00    -0.233 A  
HETATM    4  O   UNL     1      -5.197   7.321  64.751  1.00  0.00    -0.028 OA 
HETATM    5  C   UNL     1      -8.945   8.592  67.263  1.00  0.00    -0.145 A  
HETATM    6  C   UNL     1      -8.296   7.974  66.215  1.00  0.00    -0.121 A  
HETATM    7  N   UNL     1      -7.316   8.112  64.176  1.00  0.00    -0.090 NA 
HETATM    8  C   UNL     1      -7.123   7.041  66.258  1.00  0.00    -0.074 C  
HETATM    9  C   UNL     1      -9.408   9.373  64.563  1.00  0.00    -0.072 A  
HETATM   10  C   UNL     1      -8.446   8.454  64.916  1.00  0.00    -0.122 A  
HETATM   11  C   UNL     1      -6.382   7.472  64.994  1.00  0.00    -0.038 C  
ENDROOT
BRANCH   3  12
HETATM   12  C   UNL     1      -9.581  10.889  67.944  1.00  0.00    -0.175 C  
BRANCH  12  13
HETATM   13  C   UNL     1      -8.224  11.487  68.333  1.00  0.00    -0.152 C  
BRANCH  13  14
HETATM   14  N   UNL     1      -8.464  12.803  68.966  1.00  0.00     0.340 NA 
HETATM   15  N   UNL     1      -8.103  15.248  67.268  1.00  0.00    -0.185 NA 
HETATM   16  C   UNL     1      -7.282  13.686  68.960  1.00  0.00    -0.049 C  
HETATM   17  C   UNL     1      -9.627  13.554  68.444  1.00  0.00    -0.196 C  
HETATM   18  C   UNL     1      -9.432  14.603  67.292  1.00  0.00    -0.219 C  
HETATM   19  C   UNL     1      -7.018  14.309  67.583  1.00  0.00    -0.184 C  
BRANCH  15  20
HETATM   20  C   UNL     1      -7.925  16.533  67.747  1.00  0.00    -0.160 A  
HETATM   21  N   UNL     1      -6.871  16.877  68.475  1.00  0.00    -0.164 NA 
HETATM   22  S   UNL     1      -6.815  18.508  68.682  1.00  0.00    -0.272 SA 
HETATM   23  C   UNL     1      -8.220  18.849  67.763  1.00  0.00    -0.270 A  
HETATM   24  C   UNL     1      -8.766  20.102  67.453  1.00  0.00    -0.425 A  
HETATM   25  C   UNL     1      -9.937  20.137  66.691  1.00  0.00    -0.595 A  
HETATM   26  C   UNL     1     -10.532  18.954  66.273  1.00  0.00    -0.510 A  
HETATM   27  C   UNL     1      -9.969  17.712  66.568  1.00  0.00    -0.332 A  
HETATM   28  C   UNL     1      -8.779  17.638  67.359  1.00  0.00    -0.235 A  
ENDBRANCH  15  20
ENDBRANCH  13  14
ENDBRANCH  12  13
ENDBRANCH   3  12
TORSDOF 4
ENDMDL
MODEL      203
REMARK 921   NORMALIZED FREE ENERGY PREDICTED BY IDOCK:   -3.97 KCAL/MOL
REMARK 922        TOTAL FREE ENERGY PREDICTED BY IDOCK:   -5.42 KCAL/MOL
REMARK 923 INTER-LIGAND FREE ENERGY PREDICTED BY IDOCK:   -5.19 KCAL/MOL
REMARK 924 INTRA-LIGAND FREE ENERGY PREDICTED BY IDOCK:   -0.24 KCAL/MOL
REMARK 927      BINDING AFFINITY PREDICTED BY RF-SCORE:    0.00 PKD
ROOT
HETATM    1 CL   UNL     1      -6.558   5.359  68.790  1.00  0.00    -0.049 Cl 
HETATM    2  C   UNL     1      -6.885   5.127  67.110  1.00  0.00    -0.060 A  
HETATM    3  C   UNL     1      -7.279   6.207  66.274  1.00  0.00    -0.072 A  
HETATM    4  O   UNL     1      -9.555   2.267  63.063  1.00  0.00    -0.090 OA 
HETATM    5  C   UNL     1      -7.410   6.015  64.887  1.00  0.00    -0.073 A  
HETATM    6  C   UNL     1      -7.481   4.712  64.440  1.00  0.00    -0.071 A  
HETATM    7  N   UNL     1      -8.043   2.550  64.819  1.00  0.00    -0.081 NA 
HETATM    8  C   UNL     1      -8.027   4.196  63.143  1.00  0.00    -0.079 C  
HETATM    9  C   UNL     1      -6.948   3.816  66.639  1.00  0.00    -0.059 A  
HETATM   10  C   UNL     1      -7.373   3.655  65.339  1.00  0.00    -0.076 A  
HETATM   11  C   UNL     1      -8.660   2.887  63.612  1.00  0.00    -0.086 C  
ENDROOT
BRANCH   3  12
HETATM   12  C   UNL     1      -8.118   7.329  66.866  1.00  0.00    -0.120 C  
BRANCH  12  13
HETATM   13  C   UNL     1      -7.658   8.133  68.088  1.00  0.00    -0.105 C  
BRANCH  13  14
HETATM   14  N   UNL     1      -8.816   8.299  68.994  1.00  0.00    -0.143 NA 
HETATM   15  N   UNL     1     -10.587  10.680  68.565  1.00  0.00    -0.187 NA 
HETATM   16  C   UNL     1      -8.784   9.553  69.771  1.00  0.00    -0.194 C  
HETATM   17  C   UNL     1     -10.144   8.163  68.356  1.00  0.00    -0.200 C  
HETATM   18  C   UNL     1     -10.896   9.437  67.829  1.00  0.00    -0.159 C  
HETATM   19  C   UNL     1      -9.168  10.777  68.929  1.00  0.00    -0.173 C  
BRANCH  15  20
HETATM   20  C   UNL     1     -11.470  11.196  69.495  1.00  0.00    -0.303 A  
HETATM   21  N   UNL     1     -12.043  10.439  70.422  1.00  0.00    -0.301 NA 
HETATM   22  S   UNL     1     -12.836  11.369  71.522  1.00  0.00    -0.333 SA 
HETATM   23  C   UNL     1     -12.422  12.872  70.812  1.00  0.00    -0.286 A  
HETATM   24  C   UNL     1     -12.727  14.160  71.275  1.00  0.00    -0.434 A  
HETATM   25  C   UNL     1     -12.291  15.249  70.517  1.00  0.00    -0.434 A  
HETATM   26  C   UNL     1     -11.587  15.042  69.339  1.00  0.00    -0.337 A  
HETATM   27  C   UNL     1     -11.268  13.756  68.898  1.00  0.00    -0.309 A  
HETATM   28  C   UNL     1     -11.711  12.618  69.640  1.00  0.00    -0.373 A  
ENDBRANCH  15  20
ENDBRANCH  13  14
ENDBRANCH  12  13
ENDBRANCH   3  12
TORSDOF 4
ENDMDL
MODEL      204
REMARK 921   NORMALIZED FREE ENERGY PREDICTED BY IDOCK:   -3.97 KCAL/MOL
REMARK 922        TOTAL FREE ENERGY PREDICTED BY IDOCK:   -5.41 KCAL/MOL
REMARK 923 INTER-LIGAND FREE ENERGY PREDICTED BY IDOCK:   -5.60 KCAL/MOL
REMARK 924 INTRA-LIGAND FREE ENERGY PREDICTED BY IDOCK:    0.19 KCAL/MOL
REMARK 927      BINDING AFFINITY PREDICTED BY RF-SCORE:    0.00 PKD
ROOT
HETATM    1 CL   UNL     1     -10.940  19.577  66.082  1.00  0.00    -0.397 Cl 
HETATM    2  C   UNL     1      -9.479  18.726  66.438  1.00  0.00    -0.322 A  
HETATM    3  C   UNL     1      -9.399  17.311  66.329  1.00  0.00    -0.248 A  
HETATM    4  O   UNL     1      -5.204  17.744  69.965  1.00  0.00    -0.183 OA 
HETATM    5  C   UNL     1      -8.164  16.658  66.497  1.00  0.00    -0.330 A  
HETATM    6  C   UNL     1      -7.152  17.380  67.094  1.00  0.00    -0.203 A  
HETATM    7  N   UNL     1      -6.506  19.025  68.513  1.00  0.00    -0.236 NA 
HETATM    8  C   UNL     1      -5.917  16.873  67.776  1.00  0.00    -0.147 C  
HETATM    9  C   UNL     1      -8.441  19.443  67.031  1.00  0.00    -0.313 A  
HETATM   10  C   UNL     1      -7.356  18.709  67.455  1.00  0.00    -0.219 A  
HETATM   11  C   UNL     1      -5.789  17.893  68.906  1.00  0.00    -0.200 C  
ENDROOT
BRANCH   3  12
HETATM   12  C   UNL     1     -10.632  16.476  66.638  1.00  0.00    -0.216 C  
BRANCH  12  13
HETATM   13  C   UNL     1     -11.074  15.314  65.740  1.00  0.00    -0.301 C  
BRANCH  13  14
HETATM   14  N   UNL     1     -10.170  14.168  65.989  1.00  0.00    -0.297 NA 
HETATM   15  N   UNL     1     -11.298  11.410  65.659  1.00  0.00    -0.089 NA 
HETATM   16  C   UNL     1     -10.624  13.283  67.078  1.00  0.00    -0.259 C  
HETATM   17  C   UNL     1      -9.851  13.345  64.802  1.00  0.00     0.011 C  
HETATM   18  C   UNL     1     -10.707  12.070  64.477  1.00  0.00    -0.312 C  
HETATM   19  C   UNL     1     -11.785  12.374  66.654  1.00  0.00    -0.372 C  
BRANCH  15  20
HETATM   20  C   UNL     1     -10.746  10.254  66.182  1.00  0.00     0.028 A  
HETATM   21  N   UNL     1     -11.307   9.596  67.187  1.00  0.00     0.327 NA 
HETATM   22  S   UNL     1     -10.563   8.147  67.418  1.00  0.00    -0.194 SA 
HETATM   23  C   UNL     1      -9.442   8.319  66.134  1.00  0.00    -0.171 A  
HETATM   24  C   UNL     1      -8.487   7.393  65.691  1.00  0.00    -0.137 A  
HETATM   25  C   UNL     1      -7.664   7.761  64.623  1.00  0.00    -0.121 A  
HETATM   26  C   UNL     1      -7.797   9.013  64.039  1.00  0.00    -0.133 A  
HETATM   27  C   UNL     1      -8.766   9.919  64.472  1.00  0.00    -0.219 A  
HETATM   28  C   UNL     1      -9.615   9.583  65.573  1.00  0.00    -0.349 A  
ENDBRANCH  15  20
ENDBRANCH  13  14
ENDBRANCH  12  13
ENDBRANCH   3  12
TORSDOF 4
ENDMDL
MODEL      205
REMARK 921   NORMALIZED FREE ENERGY PREDICTED BY IDOCK:   -3.95 KCAL/MOL
REMARK 922        TOTAL FREE ENERGY PREDICTED BY IDOCK:   -5.40 KCAL/MOL
REMARK 923 INTER-LIGAND FREE ENERGY PREDICTED BY IDOCK:   -5.25 KCAL/MOL
REMARK 924 INTRA-LIGAND FREE ENERGY PREDICTED BY IDOCK:   -0.15 KCAL/MOL
REMARK 927      BINDING AFFINITY PREDICTED BY RF-SCORE:    0.00 PKD
ROOT
HETATM    1 CL   UNL     1     -12.312  10.924  72.020  1.00  0.00     0.075 Cl 
HETATM    2  C   UNL     1     -12.090  11.596  70.444  1.00  0.00    -0.373 A  
HETATM    3  C   UNL     1     -11.415  10.877  69.419  1.00  0.00    -0.373 A  
HETATM    4  O   UNL     1     -10.405  15.896  67.225  1.00  0.00    -0.279 OA 
HETATM    5  C   UNL     1     -11.364  11.394  68.111  1.00  0.00    -0.374 A  
HETATM    6  C   UNL     1     -11.674  12.728  67.953  1.00  0.00    -0.408 A  
HETATM    7  N   UNL     1     -11.748  14.826  68.806  1.00  0.00    -0.317 NA 
HETATM    8  C   UNL     1     -11.317  13.645  66.822  1.00  0.00    -0.346 C  
HETATM    9  C   UNL     1     -12.410  12.941  70.263  1.00  0.00    -0.294 A  
HETATM   10  C   UNL     1     -12.068  13.492  69.049  1.00  0.00    -0.291 A  
HETATM   11  C   UNL     1     -11.078  14.946  67.587  1.00  0.00    -0.311 C  
ENDROOT
BRANCH   3  12
HETATM   12  C   UNL     1     -10.282   9.937  69.800  1.00  0.00    -0.278 C  
BRANCH  12  13
HETATM   13  C   UNL     1      -8.940   9.937  69.058  1.00  0.00    -0.160 C  
BRANCH  13  14
HETATM   14  N   UNL     1      -8.714   8.580  68.513  1.00  0.00    -0.138 NA 
HETATM   15  N   UNL     1      -7.779   8.358  65.673  1.00  0.00    -0.095 NA 
HETATM   16  C   UNL     1      -9.559   8.262  67.346  1.00  0.00    -0.160 C  
HETATM   17  C   UNL     1      -7.307   8.253  68.192  1.00  0.00    -0.096 C  
HETATM   18  C   UNL     1      -6.762   8.481  66.737  1.00  0.00    -0.061 C  
HETATM   19  C   UNL     1      -9.069   8.943  66.061  1.00  0.00    -0.214 C  
BRANCH  15  20
HETATM   20  C   UNL     1      -7.861   7.220  64.892  1.00  0.00    -0.126 A  
HETATM   21  N   UNL     1      -8.022   7.276  63.577  1.00  0.00    -0.103 NA 
HETATM   22  S   UNL     1      -7.835   5.786  62.905  1.00  0.00    -0.100 SA 
HETATM   23  C   UNL     1      -7.494   4.974  64.375  1.00  0.00    -0.068 A  
HETATM   24  C   UNL     1      -7.162   3.624  64.559  1.00  0.00    -0.066 A  
HETATM   25  C   UNL     1      -6.935   3.177  65.863  1.00  0.00    -0.057 A  
HETATM   26  C   UNL     1      -7.050   4.056  66.931  1.00  0.00    -0.064 A  
HETATM   27  C   UNL     1      -7.359   5.403  66.736  1.00  0.00    -0.086 A  
HETATM   28  C   UNL     1      -7.613   5.892  65.417  1.00  0.00    -0.085 A  
ENDBRANCH  15  20
ENDBRANCH  13  14
ENDBRANCH  12  13
ENDBRANCH   3  12
TORSDOF 4
ENDMDL
MODEL      206
REMARK 921   NORMALIZED FREE ENERGY PREDICTED BY IDOCK:   -3.95 KCAL/MOL
REMARK 922        TOTAL FREE ENERGY PREDICTED BY IDOCK:   -5.39 KCAL/MOL
REMARK 923 INTER-LIGAND FREE ENERGY PREDICTED BY IDOCK:   -4.80 KCAL/MOL
REMARK 924 INTRA-LIGAND FREE ENERGY PREDICTED BY IDOCK:   -0.59 KCAL/MOL
REMARK 927      BINDING AFFINITY PREDICTED BY RF-SCORE:    0.00 PKD
ROOT
HETATM    1 CL   UNL     1      -7.100   9.834  69.558  1.00  0.00    -0.066 Cl 
HETATM    2  C   UNL     1      -8.386   9.351  70.605  1.00  0.00    -0.175 A  
HETATM    3  C   UNL     1      -8.179   8.404  71.645  1.00  0.00    -0.195 A  
HETATM    4  O   UNL     1     -13.653   7.466  71.227  1.00  0.00    -0.355 OA 
HETATM    5  C   UNL     1      -9.209   8.129  72.563  1.00  0.00    -0.319 A  
HETATM    6  C   UNL     1     -10.481   8.532  72.216  1.00  0.00    -0.402 A  
HETATM    7  N   UNL     1     -12.006   8.999  70.605  1.00  0.00    -0.170 NA 
HETATM    8  C   UNL     1     -11.796   8.038  72.739  1.00  0.00    -0.303 C  
HETATM    9  C   UNL     1      -9.677   9.760  70.275  1.00  0.00    -0.279 A  
HETATM   10  C   UNL     1     -10.698   9.225  71.027  1.00  0.00    -0.316 A  
HETATM   11  C   UNL     1     -12.640   8.100  71.466  1.00  0.00    -0.304 C  
ENDROOT
BRANCH   3  12
HETATM   12  C   UNL     1      -7.167   7.289  71.438  1.00  0.00    -0.076 C  
BRANCH  12  13
HETATM   13  C   UNL     1      -7.547   5.809  71.574  1.00  0.00    -0.099 C  
BRANCH  13  14
HETATM   14  N   UNL     1      -6.953   5.073  70.435  1.00  0.00    -0.047 NA 
HETATM   15  N   UNL     1      -8.699   4.548  68.056  1.00  0.00    -0.102 NA 
HETATM   16  C   UNL     1      -7.639   3.804  70.129  1.00  0.00    -0.048 C  
HETATM   17  C   UNL     1      -6.804   5.853  69.187  1.00  0.00    -0.062 C  
HETATM   18  C   UNL     1      -7.931   5.809  68.095  1.00  0.00    -0.104 C  
HETATM   19  C   UNL     1      -8.971   4.016  69.397  1.00  0.00    -0.108 C  
BRANCH  15  20
HETATM   20  C   UNL     1      -8.458   3.596  67.083  1.00  0.00    -0.101 A  
HETATM   21  N   UNL     1      -7.602   2.599  67.267  1.00  0.00    -0.068 NA 
HETATM   22  S   UNL     1      -7.715   1.504  66.045  1.00  0.00    -0.067 SA 
HETATM   23  C   UNL     1      -8.965   2.314  65.199  1.00  0.00    -0.123 A  
HETATM   24  C   UNL     1      -9.629   1.902  64.035  1.00  0.00    -0.134 A  
HETATM   25  C   UNL     1     -10.617   2.740  63.512  1.00  0.00    -0.213 A  
HETATM   26  C   UNL     1     -10.911   3.944  64.135  1.00  0.00    -0.171 A  
HETATM   27  C   UNL     1     -10.261   4.336  65.307  1.00  0.00    -0.234 A  
HETATM   28  C   UNL     1      -9.233   3.511  65.861  1.00  0.00    -0.162 A  
ENDBRANCH  15  20
ENDBRANCH  13  14
ENDBRANCH  12  13
ENDBRANCH   3  12
TORSDOF 4
ENDMDL
MODEL      207
REMARK 921   NORMALIZED FREE ENERGY PREDICTED BY IDOCK:   -3.95 KCAL/MOL
REMARK 922        TOTAL FREE ENERGY PREDICTED BY IDOCK:   -5.39 KCAL/MOL
REMARK 923 INTER-LIGAND FREE ENERGY PREDICTED BY IDOCK:   -5.68 KCAL/MOL
REMARK 924 INTRA-LIGAND FREE ENERGY PREDICTED BY IDOCK:    0.29 KCAL/MOL
REMARK 927      BINDING AFFINITY PREDICTED BY RF-SCORE:    0.00 PKD
ROOT
HETATM    1 CL   UNL     1      -7.193  12.335  68.778  1.00  0.00    -0.109 Cl 
HETATM    2  C   UNL     1      -8.768  12.489  68.083  1.00  0.00    -0.190 A  
HETATM    3  C   UNL     1      -9.766  11.497  68.281  1.00  0.00    -0.198 A  
HETATM    4  O   UNL     1     -11.971  13.455  63.556  1.00  0.00    -0.483 OA 
HETATM    5  C   UNL     1     -11.076  11.711  67.814  1.00  0.00    -0.309 A  
HETATM    6  C   UNL     1     -11.254  12.720  66.891  1.00  0.00    -0.339 A  
HETATM    7  N   UNL     1     -10.421  13.997  65.214  1.00  0.00    -0.358 NA 
HETATM    8  C   UNL     1     -12.382  12.915  65.923  1.00  0.00    -0.378 C  
HETATM    9  C   UNL     1      -8.968  13.511  67.156  1.00  0.00    -0.230 A  
HETATM   10  C   UNL     1     -10.176  13.508  66.496  1.00  0.00    -0.283 A  
HETATM   11  C   UNL     1     -11.621  13.479  64.724  1.00  0.00    -0.349 C  
ENDROOT
BRANCH   3  12
HETATM   12  C   UNL     1      -9.345  10.041  68.414  1.00  0.00    -0.139 C  
BRANCH  12  13
HETATM   13  C   UNL     1      -8.648   9.508  69.672  1.00  0.00    -0.183 C  
BRANCH  13  14
HETATM   14  N   UNL     1      -9.391   8.318  70.142  1.00  0.00    -0.158 NA 
HETATM   15  N   UNL     1      -8.023   5.657  69.949  1.00  0.00    -0.093 NA 
HETATM   16  C   UNL     1      -9.612   7.306  69.092  1.00  0.00    -0.155 C  
HETATM   17  C   UNL     1      -8.830   7.655  71.340  1.00  0.00    -0.132 C  
HETATM   18  C   UNL     1      -7.830   6.456  71.177  1.00  0.00    -0.114 C  
HETATM   19  C   UNL     1      -8.349   6.491  68.785  1.00  0.00    -0.122 C  
BRANCH  15  20
HETATM   20  C   UNL     1      -8.656   4.429  69.989  1.00  0.00    -0.069 A  
HETATM   21  N   UNL     1      -8.633   3.589  68.963  1.00  0.00    -0.077 NA 
HETATM   22  S   UNL     1      -9.254   2.128  69.395  1.00  0.00    -0.103 SA 
HETATM   23  C   UNL     1      -9.569   2.548  71.026  1.00  0.00    -0.136 A  
HETATM   24  C   UNL     1     -10.073   1.730  72.047  1.00  0.00    -0.222 A  
HETATM   25  C   UNL     1     -10.262   2.297  73.309  1.00  0.00    -0.199 A  
HETATM   26  C   UNL     1      -9.962   3.636  73.523  1.00  0.00    -0.172 A  
HETATM   27  C   UNL     1      -9.439   4.437  72.507  1.00  0.00    -0.176 A  
HETATM   28  C   UNL     1      -9.249   3.893  71.198  1.00  0.00    -0.201 A  
ENDBRANCH  15  20
ENDBRANCH  13  14
ENDBRANCH  12  13
ENDBRANCH   3  12
TORSDOF 4
ENDMDL
MODEL      208
REMARK 921   NORMALIZED FREE ENERGY PREDICTED BY IDOCK:   -3.94 KCAL/MOL
REMARK 922        TOTAL FREE ENERGY PREDICTED BY IDOCK:   -5.38 KCAL/MOL
REMARK 923 INTER-LIGAND FREE ENERGY PREDICTED BY IDOCK:   -5.06 KCAL/MOL
REMARK 924 INTRA-LIGAND FREE ENERGY PREDICTED BY IDOCK:   -0.32 KCAL/MOL
REMARK 927      BINDING AFFINITY PREDICTED BY RF-SCORE:    0.00 PKD
ROOT
HETATM    1 CL   UNL     1      -8.201   9.851  70.095  1.00  0.00    -0.199 Cl 
HETATM    2  C   UNL     1      -7.826   8.192  70.397  1.00  0.00    -0.090 A  
HETATM    3  C   UNL     1      -6.776   7.531  69.703  1.00  0.00    -0.040 A  
HETATM    4  O   UNL     1      -9.569   2.863  70.897  1.00  0.00    -0.152 OA 
HETATM    5  C   UNL     1      -6.407   6.221  70.062  1.00  0.00    -0.035 A  
HETATM    6  C   UNL     1      -7.298   5.511  70.839  1.00  0.00    -0.083 A  
HETATM    7  N   UNL     1      -9.433   5.117  71.488  1.00  0.00    -0.148 NA 
HETATM    8  C   UNL     1      -7.404   4.028  71.024  1.00  0.00    -0.040 C  
HETATM    9  C   UNL     1      -8.710   7.462  71.190  1.00  0.00    -0.137 A  
HETATM   10  C   UNL     1      -8.478   6.108  71.277  1.00  0.00    -0.125 A  
HETATM   11  C   UNL     1      -8.921   3.870  71.123  1.00  0.00    -0.104 C  
ENDROOT
BRANCH   3  12
HETATM   12  C   UNL     1      -6.475   7.928  68.266  1.00  0.00    -0.054 C  
BRANCH  12  13
HETATM   13  C   UNL     1      -6.853   7.034  67.078  1.00  0.00    -0.068 C  
BRANCH  13  14
HETATM   14  N   UNL     1      -7.109   7.904  65.908  1.00  0.00    -0.061 NA 
HETATM   15  N   UNL     1      -8.853  10.308  66.319  1.00  0.00    -0.144 NA 
HETATM   16  C   UNL     1      -8.536   8.009  65.551  1.00  0.00    -0.135 C  
HETATM   17  C   UNL     1      -6.533   9.264  65.994  1.00  0.00    -0.068 C  
HETATM   18  C   UNL     1      -7.401  10.451  66.547  1.00  0.00    -0.119 C  
HETATM   19  C   UNL     1      -9.317   8.927  66.501  1.00  0.00    -0.195 C  
BRANCH  15  20
HETATM   20  C   UNL     1      -9.489  11.014  65.314  1.00  0.00    -0.223 A  
HETATM   21  N   UNL     1      -9.333  10.713  64.032  1.00  0.00    -0.243 NA 
HETATM   22  S   UNL     1     -10.396  11.557  63.103  1.00  0.00    -0.271 SA 
HETATM   23  C   UNL     1     -11.159  12.369  64.405  1.00  0.00    -0.333 A  
HETATM   24  C   UNL     1     -12.248  13.251  64.355  1.00  0.00    -0.449 A  
HETATM   25  C   UNL     1     -12.696  13.808  65.555  1.00  0.00    -0.530 A  
HETATM   26  C   UNL     1     -12.062  13.493  66.750  1.00  0.00    -0.425 A  
HETATM   27  C   UNL     1     -10.993  12.596  66.793  1.00  0.00    -0.296 A  
HETATM   28  C   UNL     1     -10.498  12.019  65.582  1.00  0.00    -0.293 A  
ENDBRANCH  15  20
ENDBRANCH  13  14
ENDBRANCH  12  13
ENDBRANCH   3  12
TORSDOF 4
ENDMDL
MODEL      209
REMARK 921   NORMALIZED FREE ENERGY PREDICTED BY IDOCK:   -3.94 KCAL/MOL
REMARK 922        TOTAL FREE ENERGY PREDICTED BY IDOCK:   -5.38 KCAL/MOL
REMARK 923 INTER-LIGAND FREE ENERGY PREDICTED BY IDOCK:   -5.20 KCAL/MOL
REMARK 924 INTRA-LIGAND FREE ENERGY PREDICTED BY IDOCK:   -0.17 KCAL/MOL
REMARK 927      BINDING AFFINITY PREDICTED BY RF-SCORE:    0.00 PKD
ROOT
HETATM    1 CL   UNL     1     -10.123  13.826  65.546  1.00  0.00    -0.316 Cl 
HETATM    2  C   UNL     1     -10.353  14.503  67.119  1.00  0.00    -0.265 A  
HETATM    3  C   UNL     1      -9.255  14.969  67.893  1.00  0.00    -0.182 A  
HETATM    4  O   UNL     1     -12.588  14.094  72.269  1.00  0.00    -0.292 OA 
HETATM    5  C   UNL     1      -9.483  15.634  69.112  1.00  0.00    -0.256 A  
HETATM    6  C   UNL     1     -10.739  15.506  69.669  1.00  0.00    -0.274 A  
HETATM    7  N   UNL     1     -12.635  14.296  69.944  1.00  0.00    -0.256 NA 
HETATM    8  C   UNL     1     -11.157  15.717  71.093  1.00  0.00    -0.345 C  
HETATM    9  C   UNL     1     -11.619  14.393  67.692  1.00  0.00    -0.396 A  
HETATM   10  C   UNL     1     -11.731  14.789  69.005  1.00  0.00    -0.312 A  
HETATM   11  C   UNL     1     -12.210  14.618  71.235  1.00  0.00    -0.348 C  
ENDROOT
BRANCH   3  12
HETATM   12  C   UNL     1      -7.912  14.267  67.768  1.00  0.00    -0.174 C  
BRANCH  12  13
HETATM   13  C   UNL     1      -7.271  13.521  68.945  1.00  0.00    -0.070 C  
BRANCH  13  14
HETATM   14  N   UNL     1      -6.650  12.283  68.423  1.00  0.00    -0.056 NA 
HETATM   15  N   UNL     1      -8.476  10.125  67.425  1.00  0.00    -0.122 NA 
HETATM   16  C   UNL     1      -7.040  11.069  69.164  1.00  0.00    -0.116 C  
HETATM   17  C   UNL     1      -6.835  12.043  66.975  1.00  0.00    -0.097 C  
HETATM   18  C   UNL     1      -8.035  11.164  66.473  1.00  0.00    -0.158 C  
HETATM   19  C   UNL     1      -8.458  10.596  68.816  1.00  0.00    -0.149 C  
BRANCH  15  20
HETATM   20  C   UNL     1      -8.124   8.799  67.249  1.00  0.00    -0.101 A  
HETATM   21  N   UNL     1      -8.088   7.938  68.257  1.00  0.00    -0.121 NA 
HETATM   22  S   UNL     1      -7.880   6.404  67.702  1.00  0.00    -0.107 SA 
HETATM   23  C   UNL     1      -7.854   6.821  66.041  1.00  0.00    -0.104 A  
HETATM   24  C   UNL     1      -7.760   5.963  64.936  1.00  0.00    -0.097 A  
HETATM   25  C   UNL     1      -7.745   6.535  63.661  1.00  0.00    -0.114 A  
HETATM   26  C   UNL     1      -7.811   7.913  63.515  1.00  0.00    -0.138 A  
HETATM   27  C   UNL     1      -7.928   8.758  64.620  1.00  0.00    -0.135 A  
HETATM   28  C   UNL     1      -7.931   8.209  65.940  1.00  0.00    -0.102 A  
ENDBRANCH  15  20
ENDBRANCH  13  14
ENDBRANCH  12  13
ENDBRANCH   3  12
TORSDOF 4
ENDMDL
MODEL      210
REMARK 921   NORMALIZED FREE ENERGY PREDICTED BY IDOCK:   -3.92 KCAL/MOL
REMARK 922        TOTAL FREE ENERGY PREDICTED BY IDOCK:   -5.36 KCAL/MOL
REMARK 923 INTER-LIGAND FREE ENERGY PREDICTED BY IDOCK:   -5.16 KCAL/MOL
REMARK 924 INTRA-LIGAND FREE ENERGY PREDICTED BY IDOCK:   -0.20 KCAL/MOL
REMARK 927      BINDING AFFINITY PREDICTED BY RF-SCORE:    0.00 PKD
ROOT
HETATM    1 CL   UNL     1     -11.299  18.550  66.885  1.00  0.00     0.471 Cl 
HETATM    2  C   UNL     1      -9.772  17.912  67.382  1.00  0.00    -0.288 A  
HETATM    3  C   UNL     1      -9.629  16.553  67.773  1.00  0.00    -0.232 A  
HETATM    4  O   UNL     1      -5.186  18.340  70.616  1.00  0.00    -0.240 OA 
HETATM    5  C   UNL     1      -8.352  16.029  68.046  1.00  0.00    -0.162 A  
HETATM    6  C   UNL     1      -7.334  16.936  68.253  1.00  0.00    -0.193 A  
HETATM    7  N   UNL     1      -6.663  18.992  68.932  1.00  0.00    -0.279 NA 
HETATM    8  C   UNL     1      -6.024  16.731  68.952  1.00  0.00    -0.156 C  
HETATM    9  C   UNL     1      -8.729  18.814  67.584  1.00  0.00    -0.300 A  
HETATM   10  C   UNL     1      -7.578  18.302  68.138  1.00  0.00    -0.269 A  
HETATM   11  C   UNL     1      -5.860  18.090  69.632  1.00  0.00    -0.245 C  
ENDROOT
BRANCH   3  12
HETATM   12  C   UNL     1     -10.788  15.859  68.471  1.00  0.00    -0.298 C  
BRANCH  12  13
HETATM   13  C   UNL     1     -11.324  14.500  68.002  1.00  0.00    -0.306 C  
BRANCH  13  14
HETATM   14  N   UNL     1     -10.194  13.730  67.434  1.00  0.00    -0.250 NA 
HETATM   15  N   UNL     1     -10.488  10.751  67.264  1.00  0.00    -0.223 NA 
HETATM   16  C   UNL     1      -9.617  12.749  68.372  1.00  0.00    -0.175 C  
HETATM   17  C   UNL     1     -10.471  13.059  66.145  1.00  0.00    -0.279 C  
HETATM   18  C   UNL     1     -10.961  11.567  66.127  1.00  0.00    -0.266 C  
HETATM   19  C   UNL     1     -10.492  11.498  68.529  1.00  0.00    -0.208 C  
BRANCH  15  20
HETATM   20  C   UNL     1      -9.447   9.854  67.114  1.00  0.00    -0.158 A  
HETATM   21  N   UNL     1      -8.402  10.108  66.338  1.00  0.00    -0.123 NA 
HETATM   22  S   UNL     1      -7.228   8.976  66.556  1.00  0.00    -0.085 SA 
HETATM   23  C   UNL     1      -8.069   8.080  67.750  1.00  0.00    -0.128 A  
HETATM   24  C   UNL     1      -7.623   6.957  68.462  1.00  0.00    -0.111 A  
HETATM   25  C   UNL     1      -8.495   6.379  69.387  1.00  0.00    -0.126 A  
HETATM   26  C   UNL     1      -9.764   6.910  69.575  1.00  0.00    -0.159 A  
HETATM   27  C   UNL     1     -10.191   8.041  68.879  1.00  0.00    -0.220 A  
HETATM   28  C   UNL     1      -9.331   8.650  67.912  1.00  0.00    -0.155 A  
ENDBRANCH  15  20
ENDBRANCH  13  14
ENDBRANCH  12  13
ENDBRANCH   3  12
TORSDOF 4
ENDMDL
MODEL      211
REMARK 921   NORMALIZED FREE ENERGY PREDICTED BY IDOCK:   -3.92 KCAL/MOL
REMARK 922        TOTAL FREE ENERGY PREDICTED BY IDOCK:   -5.35 KCAL/MOL
REMARK 923 INTER-LIGAND FREE ENERGY PREDICTED BY IDOCK:   -4.51 KCAL/MOL
REMARK 924 INTRA-LIGAND FREE ENERGY PREDICTED BY IDOCK:   -0.84 KCAL/MOL
REMARK 927      BINDING AFFINITY PREDICTED BY RF-SCORE:    0.00 PKD
ROOT
HETATM    1 CL   UNL     1      -5.695   8.808  71.971  1.00  0.00    -0.055 Cl 
HETATM    2  C   UNL     1      -7.365   8.551  72.327  1.00  0.00    -0.057 A  
HETATM    3  C   UNL     1      -7.775   7.790  73.455  1.00  0.00    -0.179 A  
HETATM    4  O   UNL     1     -12.480   6.964  70.593  1.00  0.00    -0.321 OA 
HETATM    5  C   UNL     1      -9.138   7.707  73.794  1.00  0.00    -0.332 A  
HETATM    6  C   UNL     1     -10.047   8.084  72.828  1.00  0.00    -0.378 A  
HETATM    7  N   UNL     1     -10.578   8.316  70.637  1.00  0.00    -0.211 NA 
HETATM    8  C   UNL     1     -11.498   7.727  72.717  1.00  0.00    -0.415 C  
HETATM    9  C   UNL     1      -8.298   8.937  71.366  1.00  0.00    -0.195 A  
HETATM   10  C   UNL     1      -9.604   8.571  71.600  1.00  0.00    -0.249 A  
HETATM   11  C   UNL     1     -11.635   7.598  71.201  1.00  0.00    -0.280 C  
ENDROOT
BRANCH   3  12
HETATM   12  C   UNL     1      -6.911   6.624  73.913  1.00  0.00    -0.080 C  
BRANCH  12  13
HETATM   13  C   UNL     1      -7.515   5.277  74.326  1.00  0.00    -0.086 C  
BRANCH  13  14
HETATM   14  N   UNL     1      -7.271   4.307  73.235  1.00  0.00    -0.072 NA 
HETATM   15  N   UNL     1      -8.512   4.875  70.565  1.00  0.00    -0.095 NA 
HETATM   16  C   UNL     1      -8.502   3.691  72.704  1.00  0.00    -0.090 C  
HETATM   17  C   UNL     1      -6.462   4.817  72.105  1.00  0.00    -0.034 C  
HETATM   18  C   UNL     1      -7.172   5.430  70.846  1.00  0.00    -0.073 C  
HETATM   19  C   UNL     1      -9.288   4.640  71.789  1.00  0.00    -0.142 C  
BRANCH  15  20
HETATM   20  C   UNL     1      -8.703   3.946  69.560  1.00  0.00    -0.081 A  
HETATM   21  N   UNL     1      -8.981   2.675  69.816  1.00  0.00    -0.092 NA 
HETATM   22  S   UNL     1      -9.394   1.881  68.436  1.00  0.00    -0.182 SA 
HETATM   23  C   UNL     1      -9.245   3.238  67.402  1.00  0.00    -0.198 A  
HETATM   24  C   UNL     1      -9.513   3.312  66.028  1.00  0.00    -0.086 A  
HETATM   25  C   UNL     1      -9.305   4.534  65.384  1.00  0.00    -0.163 A  
HETATM   26  C   UNL     1      -8.837   5.628  66.098  1.00  0.00    -0.142 A  
HETATM   27  C   UNL     1      -8.594   5.551  67.471  1.00  0.00    -0.108 A  
HETATM   28  C   UNL     1      -8.781   4.312  68.160  1.00  0.00    -0.118 A  
ENDBRANCH  15  20
ENDBRANCH  13  14
ENDBRANCH  12  13
ENDBRANCH   3  12
TORSDOF 4
ENDMDL
MODEL      212
REMARK 921   NORMALIZED FREE ENERGY PREDICTED BY IDOCK:   -3.91 KCAL/MOL
REMARK 922        TOTAL FREE ENERGY PREDICTED BY IDOCK:   -5.35 KCAL/MOL
REMARK 923 INTER-LIGAND FREE ENERGY PREDICTED BY IDOCK:   -5.46 KCAL/MOL
REMARK 924 INTRA-LIGAND FREE ENERGY PREDICTED BY IDOCK:    0.11 KCAL/MOL
REMARK 927      BINDING AFFINITY PREDICTED BY RF-SCORE:    0.00 PKD
ROOT
HETATM    1 CL   UNL     1      -5.816   7.669  67.787  1.00  0.00    -0.035 Cl 
HETATM    2  C   UNL     1      -6.742   6.539  66.866  1.00  0.00    -0.060 A  
HETATM    3  C   UNL     1      -7.950   6.921  66.221  1.00  0.00    -0.108 A  
HETATM    4  O   UNL     1      -9.255   1.514  66.508  1.00  0.00    -0.077 OA 
HETATM    5  C   UNL     1      -8.614   6.017  65.371  1.00  0.00    -0.127 A  
HETATM    6  C   UNL     1      -8.251   4.689  65.466  1.00  0.00    -0.115 A  
HETATM    7  N   UNL     1      -7.444   2.973  66.706  1.00  0.00    -0.073 NA 
HETATM    8  C   UNL     1      -9.021   3.476  65.039  1.00  0.00    -0.133 C  
HETATM    9  C   UNL     1      -6.383   5.194  66.940  1.00  0.00    -0.040 A  
HETATM   10  C   UNL     1      -7.235   4.299  66.334  1.00  0.00    -0.075 A  
HETATM   11  C   UNL     1      -8.634   2.500  66.149  1.00  0.00    -0.113 C  
ENDROOT
BRANCH   3  12
HETATM   12  C   UNL     1      -8.828   7.983  66.866  1.00  0.00    -0.146 C  
BRANCH  12  13
HETATM   13  C   UNL     1      -9.662   8.964  66.033  1.00  0.00    -0.238 C  
BRANCH  13  14
HETATM   14  N   UNL     1      -9.207  10.337  66.346  1.00  0.00    -0.155 NA 
HETATM   15  N   UNL     1     -11.246  12.533  66.255  1.00  0.00    -0.299 NA 
HETATM   16  C   UNL     1      -9.403  11.292  65.238  1.00  0.00    -0.203 C  
HETATM   17  C   UNL     1      -9.762  10.921  67.587  1.00  0.00    -0.171 C  
HETATM   18  C   UNL     1     -11.058  11.806  67.527  1.00  0.00    -0.272 C  
HETATM   19  C   UNL     1     -10.866  11.728  65.088  1.00  0.00    -0.297 C  
BRANCH  15  20
HETATM   20  C   UNL     1     -10.963  13.883  66.157  1.00  0.00    -0.293 A  
HETATM   21  N   UNL     1     -11.007  14.531  65.001  1.00  0.00    -0.374 NA 
HETATM   22  S   UNL     1     -10.866  16.153  65.239  1.00  0.00    -0.265 SA 
HETATM   23  C   UNL     1     -10.763  16.070  66.947  1.00  0.00    -0.262 A  
HETATM   24  C   UNL     1     -10.680  17.131  67.860  1.00  0.00    -0.355 A  
HETATM   25  C   UNL     1     -10.592  16.820  69.220  1.00  0.00    -0.336 A  
HETATM   26  C   UNL     1     -10.577  15.495  69.632  1.00  0.00    -0.285 A  
HETATM   27  C   UNL     1     -10.683  14.446  68.718  1.00  0.00    -0.258 A  
HETATM   28  C   UNL     1     -10.759  14.726  67.317  1.00  0.00    -0.294 A  
ENDBRANCH  15  20
ENDBRANCH  13  14
ENDBRANCH  12  13
ENDBRANCH   3  12
TORSDOF 4
ENDMDL
MODEL      213
REMARK 921   NORMALIZED FREE ENERGY PREDICTED BY IDOCK:   -3.89 KCAL/MOL
REMARK 922        TOTAL FREE ENERGY PREDICTED BY IDOCK:   -5.32 KCAL/MOL
REMARK 923 INTER-LIGAND FREE ENERGY PREDICTED BY IDOCK:   -5.83 KCAL/MOL
REMARK 924 INTRA-LIGAND FREE ENERGY PREDICTED BY IDOCK:    0.50 KCAL/MOL
REMARK 927      BINDING AFFINITY PREDICTED BY RF-SCORE:    0.00 PKD
ROOT
HETATM    1 CL   UNL     1     -10.590  10.141  67.091  1.00  0.00    -0.311 Cl 
HETATM    2  C   UNL     1     -11.359  11.444  67.924  1.00  0.00    -0.303 A  
HETATM    3  C   UNL     1     -11.371  12.762  67.391  1.00  0.00    -0.363 A  
HETATM    4  O   UNL     1     -12.079  14.382  72.672  1.00  0.00    -0.103 OA 
HETATM    5  C   UNL     1     -12.116  13.773  68.024  1.00  0.00    -0.315 A  
HETATM    6  C   UNL     1     -12.527  13.530  69.318  1.00  0.00     0.061 A  
HETATM    7  N   UNL     1     -12.196  12.493  71.306  1.00  0.00    -0.037 NA 
HETATM    8  C   UNL     1     -12.941  14.515  70.369  1.00  0.00    -0.230 C  
HETATM    9  C   UNL     1     -11.791  11.213  69.229  1.00  0.00    -0.422 A  
HETATM   10  C   UNL     1     -12.248  12.309  69.925  1.00  0.00    -0.163 A  
HETATM   11  C   UNL     1     -12.367  13.844  71.616  1.00  0.00    -0.178 C  
ENDROOT
BRANCH   3  12
HETATM   12  C   UNL     1     -10.182  13.237  66.569  1.00  0.00    -0.283 C  
BRANCH  12  13
HETATM   13  C   UNL     1      -8.738  13.079  67.062  1.00  0.00    -0.193 C  
BRANCH  13  14
HETATM   14  N   UNL     1      -8.429  14.216  67.956  1.00  0.00    -0.160 NA 
HETATM   15  N   UNL     1      -8.511  16.973  66.780  1.00  0.00    -0.216 NA 
HETATM   16  C   UNL     1      -7.261  15.008  67.524  1.00  0.00    -0.201 C  
HETATM   17  C   UNL     1      -9.557  15.133  68.228  1.00  0.00    -0.211 C  
HETATM   18  C   UNL     1      -9.757  16.416  67.344  1.00  0.00    -0.238 C  
HETATM   19  C   UNL     1      -7.579  15.928  66.338  1.00  0.00     0.209 C  
BRANCH  15  20
HETATM   20  C   UNL     1      -7.917  18.094  67.331  1.00  0.00    -0.226 A  
HETATM   21  N   UNL     1      -7.826  18.272  68.642  1.00  0.00    -0.306 NA 
HETATM   22  S   UNL     1      -6.861  19.560  68.987  1.00  0.00    -0.358 SA 
HETATM   23  C   UNL     1      -6.486  19.938  67.359  1.00  0.00    -0.200 A  
HETATM   24  C   UNL     1      -5.626  20.936  66.880  1.00  0.00    -0.258 A  
HETATM   25  C   UNL     1      -5.482  21.069  65.497  1.00  0.00    -0.263 A  
HETATM   26  C   UNL     1      -6.187  20.235  64.639  1.00  0.00    -0.338 A  
HETATM   27  C   UNL     1      -7.023  19.229  65.126  1.00  0.00     0.023 A  
HETATM   28  C   UNL     1      -7.206  19.074  66.535  1.00  0.00    -0.243 A  
ENDBRANCH  15  20
ENDBRANCH  13  14
ENDBRANCH  12  13
ENDBRANCH   3  12
TORSDOF 4
ENDMDL
MODEL      214
REMARK 921   NORMALIZED FREE ENERGY PREDICTED BY IDOCK:   -3.85 KCAL/MOL
REMARK 922        TOTAL FREE ENERGY PREDICTED BY IDOCK:   -5.27 KCAL/MOL
REMARK 923 INTER-LIGAND FREE ENERGY PREDICTED BY IDOCK:   -5.22 KCAL/MOL
REMARK 924 INTRA-LIGAND FREE ENERGY PREDICTED BY IDOCK:   -0.05 KCAL/MOL
REMARK 927      BINDING AFFINITY PREDICTED BY RF-SCORE:    0.00 PKD
ROOT
HETATM    1 CL   UNL     1      -7.922   8.403  72.745  1.00  0.00    -0.188 Cl 
HETATM    2  C   UNL     1      -7.666   7.050  71.701  1.00  0.00    -0.093 A  
HETATM    3  C   UNL     1      -7.282   7.224  70.343  1.00  0.00    -0.069 A  
HETATM    4  O   UNL     1      -9.524   2.186  69.562  1.00  0.00    -0.111 OA 
HETATM    5  C   UNL     1      -6.953   6.106  69.554  1.00  0.00    -0.067 A  
HETATM    6  C   UNL     1      -7.344   4.871  70.027  1.00  0.00    -0.055 A  
HETATM    7  N   UNL     1      -8.783   3.618  71.250  1.00  0.00    -0.079 NA 
HETATM    8  C   UNL     1      -7.524   3.592  69.266  1.00  0.00    -0.052 C  
HETATM    9  C   UNL     1      -8.045   5.792  72.167  1.00  0.00    -0.108 A  
HETATM   10  C   UNL     1      -7.986   4.761  71.257  1.00  0.00    -0.096 A  
HETATM   11  C   UNL     1      -8.732   3.006  69.996  1.00  0.00    -0.072 C  
ENDROOT
BRANCH   3  12
HETATM   12  C   UNL     1      -7.785   8.441  69.583  1.00  0.00    -0.095 C  
BRANCH  12  13
HETATM   13  C   UNL     1      -9.245   8.573  69.133  1.00  0.00    -0.150 C  
BRANCH  13  14
HETATM   14  N   UNL     1      -9.848   9.717  69.853  1.00  0.00    -0.224 NA 
HETATM   15  N   UNL     1     -10.944  11.973  68.211  1.00  0.00    -0.219 NA 
HETATM   16  C   UNL     1      -9.175  11.003  69.591  1.00  0.00     0.553 C  
HETATM   17  C   UNL     1     -11.305   9.889  69.660  1.00  0.00    -0.165 C  
HETATM   18  C   UNL     1     -11.840  10.845  68.536  1.00  0.00    -0.166 C  
HETATM   19  C   UNL     1      -9.528  11.583  68.215  1.00  0.00    -0.189 C  
BRANCH  15  20
HETATM   20  C   UNL     1     -11.204  13.248  68.679  1.00  0.00    -0.274 A  
HETATM   21  N   UNL     1     -10.919  14.332  67.970  1.00  0.00    -0.244 NA 
HETATM   22  S   UNL     1     -11.564  15.672  68.674  1.00  0.00    -0.358 SA 
HETATM   23  C   UNL     1     -12.298  14.845  69.983  1.00  0.00    -0.312 A  
HETATM   24  C   UNL     1     -13.103  15.379  70.999  1.00  0.00    -0.565 A  
HETATM   25  C   UNL     1     -13.587  14.507  71.978  1.00  0.00    -0.509 A  
HETATM   26  C   UNL     1     -13.261  13.159  71.933  1.00  0.00    -0.526 A  
HETATM   27  C   UNL     1     -12.478  12.632  70.904  1.00  0.00    -0.368 A  
HETATM   28  C   UNL     1     -11.953  13.498  69.894  1.00  0.00    -0.416 A  
ENDBRANCH  15  20
ENDBRANCH  13  14
ENDBRANCH  12  13
ENDBRANCH   3  12
TORSDOF 4
ENDMDL
MODEL      215
REMARK 921   NORMALIZED FREE ENERGY PREDICTED BY IDOCK:   -3.83 KCAL/MOL
REMARK 922        TOTAL FREE ENERGY PREDICTED BY IDOCK:   -5.25 KCAL/MOL
REMARK 923 INTER-LIGAND FREE ENERGY PREDICTED BY IDOCK:   -5.78 KCAL/MOL
REMARK 924 INTRA-LIGAND FREE ENERGY PREDICTED BY IDOCK:    0.53 KCAL/MOL
REMARK 927      BINDING AFFINITY PREDICTED BY RF-SCORE:    0.00 PKD
ROOT
HETATM    1 CL   UNL     1     -10.995  18.750  67.527  1.00  0.00    -0.393 Cl 
HETATM    2  C   UNL     1      -9.653  17.662  67.496  1.00  0.00    -0.267 A  
HETATM    3  C   UNL     1      -9.785  16.335  67.004  1.00  0.00    -0.244 A  
HETATM    4  O   UNL     1      -5.358  15.218  70.193  1.00  0.00    -0.113 OA 
HETATM    5  C   UNL     1      -8.650  15.516  66.868  1.00  0.00    -0.289 A  
HETATM    6  C   UNL     1      -7.509  15.912  67.535  1.00  0.00    -0.194 A  
HETATM    7  N   UNL     1      -6.547  17.003  69.273  1.00  0.00    -0.226 NA 
HETATM    8  C   UNL     1      -6.322  15.088  67.931  1.00  0.00    -0.179 C  
HETATM    9  C   UNL     1      -8.488  18.052  68.155  1.00  0.00    -0.273 A  
HETATM   10  C   UNL     1      -7.497  17.102  68.258  1.00  0.00    -0.217 A  
HETATM   11  C   UNL     1      -5.979  15.728  69.276  1.00  0.00    -0.121 C  
ENDROOT
BRANCH   3  12
HETATM   12  C   UNL     1     -11.105  15.604  67.197  1.00  0.00    -0.218 C  
BRANCH  12  13
HETATM   13  C   UNL     1     -11.326  14.174  66.687  1.00  0.00    -0.344 C  
BRANCH  13  14
HETATM   14  N   UNL     1     -10.357  13.287  67.369  1.00  0.00    -0.242 NA 
HETATM   15  N   UNL     1     -11.168  10.438  67.833  1.00  0.00    -0.304 NA 
HETATM   16  C   UNL     1     -10.860  12.726  68.637  1.00  0.00    -0.253 C  
HETATM   17  C   UNL     1      -9.812  12.189  66.540  1.00  0.00    -0.218 C  
HETATM   18  C   UNL     1     -10.496  10.776  66.561  1.00  0.00    -0.240 C  
HETATM   19  C   UNL     1     -11.867  11.589  68.420  1.00  0.00    -0.283 C  
BRANCH  15  20
HETATM   20  C   UNL     1     -10.582   9.579  68.744  1.00  0.00    -0.214 A  
HETATM   21  N   UNL     1     -11.272   9.005  69.720  1.00  0.00    -0.102 NA 
HETATM   22  S   UNL     1     -10.366   7.860  70.476  1.00  0.00    -0.208 SA 
HETATM   23  C   UNL     1      -8.976   8.060  69.494  1.00  0.00    -0.148 A  
HETATM   24  C   UNL     1      -7.776   7.336  69.537  1.00  0.00    -0.113 A  
HETATM   25  C   UNL     1      -6.766   7.687  68.638  1.00  0.00    -0.054 A  
HETATM   26  C   UNL     1      -6.961   8.731  67.744  1.00  0.00    -0.075 A  
HETATM   27  C   UNL     1      -8.168   9.431  67.693  1.00  0.00    -0.114 A  
HETATM   28  C   UNL     1      -9.217   9.109  68.609  1.00  0.00    -0.136 A  
ENDBRANCH  15  20
ENDBRANCH  13  14
ENDBRANCH  12  13
ENDBRANCH   3  12
TORSDOF 4
ENDMDL
MODEL      216
REMARK 921   NORMALIZED FREE ENERGY PREDICTED BY IDOCK:   -3.83 KCAL/MOL
REMARK 922        TOTAL FREE ENERGY PREDICTED BY IDOCK:   -5.24 KCAL/MOL
REMARK 923 INTER-LIGAND FREE ENERGY PREDICTED BY IDOCK:   -4.67 KCAL/MOL
REMARK 924 INTRA-LIGAND FREE ENERGY PREDICTED BY IDOCK:   -0.57 KCAL/MOL
REMARK 927      BINDING AFFINITY PREDICTED BY RF-SCORE:    0.00 PKD
ROOT
HETATM    1 CL   UNL     1      -6.165   8.554  71.213  1.00  0.00    -0.040 Cl 
HETATM    2  C   UNL     1      -7.742   8.112  70.663  1.00  0.00    -0.085 A  
HETATM    3  C   UNL     1      -8.176   8.403  69.342  1.00  0.00    -0.116 A  
HETATM    4  O   UNL     1     -13.312   8.116  71.475  1.00  0.00    -0.325 OA 
HETATM    5  C   UNL     1      -9.413   7.917  68.881  1.00  0.00    -0.150 A  
HETATM    6  C   UNL     1     -10.302   7.467  69.834  1.00  0.00    -0.222 A  
HETATM    7  N   UNL     1     -11.098   7.557  71.954  1.00  0.00    -0.234 NA 
HETATM    8  C   UNL     1     -11.787   7.298  69.724  1.00  0.00     0.231 C  
HETATM    9  C   UNL     1      -8.650   7.644  71.612  1.00  0.00    -0.129 A  
HETATM   10  C   UNL     1      -9.944   7.458  71.180  1.00  0.00    -0.185 A  
HETATM   11  C   UNL     1     -12.216   7.706  71.132  1.00  0.00    -0.285 C  
ENDROOT
BRANCH   3  12
HETATM   12  C   UNL     1      -7.671   9.666  68.661  1.00  0.00    -0.080 C  
BRANCH  12  13
HETATM   13  C   UNL     1      -8.621  10.783  68.210  1.00  0.00    -0.135 C  
BRANCH  13  14
HETATM   14  N   UNL     1      -7.804  11.891  67.664  1.00  0.00    -0.132 NA 
HETATM   15  N   UNL     1      -8.327  14.651  68.712  1.00  0.00    -0.164 NA 
HETATM   16  C   UNL     1      -8.600  12.935  66.992  1.00  0.00    -0.169 C  
HETATM   17  C   UNL     1      -6.884  12.533  68.628  1.00  0.00    -0.088 C  
HETATM   18  C   UNL     1      -7.342  13.808  69.421  1.00  0.00     0.182 C  
HETATM   19  C   UNL     1      -9.324  13.855  67.984  1.00  0.00    -0.204 C  
BRANCH  15  20
HETATM   20  C   UNL     1      -7.945  15.826  68.091  1.00  0.00    -0.135 A  
HETATM   21  N   UNL     1      -6.828  15.920  67.382  1.00  0.00    -0.179 NA 
HETATM   22  S   UNL     1      -6.773  17.350  66.572  1.00  0.00    -0.271 SA 
HETATM   23  C   UNL     1      -8.293  17.920  67.122  1.00  0.00    -0.228 A  
HETATM   24  C   UNL     1      -8.947  19.110  66.771  1.00  0.00    -0.335 A  
HETATM   25  C   UNL     1     -10.186  19.374  67.361  1.00  0.00    -0.530 A  
HETATM   26  C   UNL     1     -10.730  18.479  68.271  1.00  0.00    -0.098 A  
HETATM   27  C   UNL     1     -10.082  17.286  68.596  1.00  0.00    -0.341 A  
HETATM   28  C   UNL     1      -8.805  16.990  68.024  1.00  0.00    -0.223 A  
ENDBRANCH  15  20
ENDBRANCH  13  14
ENDBRANCH  12  13
ENDBRANCH   3  12
TORSDOF 4
ENDMDL
MODEL      217
REMARK 921   NORMALIZED FREE ENERGY PREDICTED BY IDOCK:   -3.81 KCAL/MOL
REMARK 922        TOTAL FREE ENERGY PREDICTED BY IDOCK:   -5.23 KCAL/MOL
REMARK 923 INTER-LIGAND FREE ENERGY PREDICTED BY IDOCK:   -4.92 KCAL/MOL
REMARK 924 INTRA-LIGAND FREE ENERGY PREDICTED BY IDOCK:   -0.31 KCAL/MOL
REMARK 927      BINDING AFFINITY PREDICTED BY RF-SCORE:    0.00 PKD
ROOT
HETATM    1 CL   UNL     1      -8.774   9.422  70.492  1.00  0.00    -0.269 Cl 
HETATM    2  C   UNL     1      -8.248   7.790  70.274  1.00  0.00    -0.125 A  
HETATM    3  C   UNL     1      -7.405   7.421  69.191  1.00  0.00    -0.090 A  
HETATM    4  O   UNL     1      -9.518   2.319  69.909  1.00  0.00    -0.114 OA 
HETATM    5  C   UNL     1      -6.886   6.116  69.114  1.00  0.00    -0.062 A  
HETATM    6  C   UNL     1      -7.488   5.156  69.901  1.00  0.00    -0.061 A  
HETATM    7  N   UNL     1      -9.332   4.389  70.971  1.00  0.00    -0.138 NA 
HETATM    8  C   UNL     1      -7.464   3.666  69.743  1.00  0.00    -0.045 C  
HETATM    9  C   UNL     1      -8.837   6.809  71.070  1.00  0.00    -0.141 A  
HETATM   10  C   UNL     1      -8.524   5.505  70.763  1.00  0.00    -0.122 A  
HETATM   11  C   UNL     1      -8.882   3.319  70.195  1.00  0.00    -0.086 C  
ENDROOT
BRANCH   3  12
HETATM   12  C   UNL     1      -7.540   8.155  67.866  1.00  0.00    -0.102 C  
BRANCH  12  13
HETATM   13  C   UNL     1      -8.733   7.929  66.929  1.00  0.00    -0.131 C  
BRANCH  13  14
HETATM   14  N   UNL     1      -8.974   9.182  66.179  1.00  0.00    -0.162 NA 
HETATM   15  N   UNL     1      -9.963  11.556  67.720  1.00  0.00    -0.180 NA 
HETATM   16  C   UNL     1     -10.372   9.650  66.245  1.00  0.00    -0.160 C  
HETATM   17  C   UNL     1      -8.074  10.306  66.518  1.00  0.00    -0.121 C  
HETATM   18  C   UNL     1      -8.504  11.356  67.603  1.00  0.00    -0.130 C  
HETATM   19  C   UNL     1     -10.713  10.300  67.592  1.00  0.00    -0.288 C  
BRANCH  15  20
HETATM   20  C   UNL     1     -10.577  12.666  67.169  1.00  0.00    -0.236 A  
HETATM   21  N   UNL     1     -11.538  12.563  66.261  1.00  0.00    -0.374 NA 
HETATM   22  S   UNL     1     -12.235  14.028  65.984  1.00  0.00    -0.452 SA 
HETATM   23  C   UNL     1     -11.279  14.891  67.114  1.00  0.00    -0.343 A  
HETATM   24  C   UNL     1     -11.369  16.246  67.464  1.00  0.00     0.047 A  
HETATM   25  C   UNL     1     -10.467  16.739  68.411  1.00  0.00    -0.339 A  
HETATM   26  C   UNL     1      -9.513  15.899  68.969  1.00  0.00    -0.247 A  
HETATM   27  C   UNL     1      -9.447  14.547  68.631  1.00  0.00    -0.205 A  
HETATM   28  C   UNL     1     -10.343  14.011  67.654  1.00  0.00    -0.242 A  
ENDBRANCH  15  20
ENDBRANCH  13  14
ENDBRANCH  12  13
ENDBRANCH   3  12
TORSDOF 4
ENDMDL
MODEL      218
REMARK 921   NORMALIZED FREE ENERGY PREDICTED BY IDOCK:   -3.80 KCAL/MOL
REMARK 922        TOTAL FREE ENERGY PREDICTED BY IDOCK:   -5.21 KCAL/MOL
REMARK 923 INTER-LIGAND FREE ENERGY PREDICTED BY IDOCK:   -4.90 KCAL/MOL
REMARK 924 INTRA-LIGAND FREE ENERGY PREDICTED BY IDOCK:   -0.31 KCAL/MOL
REMARK 927      BINDING AFFINITY PREDICTED BY RF-SCORE:    0.00 PKD
ROOT
HETATM    1 CL   UNL     1      -9.512   2.188  68.796  1.00  0.00    -0.221 Cl 
HETATM    2  C   UNL     1      -8.537   2.956  67.595  1.00  0.00    -0.099 A  
HETATM    3  C   UNL     1      -7.198   3.350  67.867  1.00  0.00    -0.051 A  
HETATM    4  O   UNL     1      -7.938   7.003  63.728  1.00  0.00    -0.122 OA 
HETATM    5  C   UNL     1      -6.386   3.852  66.833  1.00  0.00    -0.040 A  
HETATM    6  C   UNL     1      -7.023   4.259  65.679  1.00  0.00    -0.062 A  
HETATM    7  N   UNL     1      -8.874   5.078  64.659  1.00  0.00    -0.143 NA 
HETATM    8  C   UNL     1      -6.527   5.190  64.614  1.00  0.00    -0.035 C  
HETATM    9  C   UNL     1      -9.162   3.363  66.417  1.00  0.00    -0.174 A  
HETATM   10  C   UNL     1      -8.403   4.117  65.552  1.00  0.00    -0.109 A  
HETATM   11  C   UNL     1      -7.827   5.906  64.248  1.00  0.00    -0.116 C  
ENDROOT
BRANCH   3  12
HETATM   12  C   UNL     1      -6.834   3.808  69.271  1.00  0.00    -0.045 C  
BRANCH  12  13
HETATM   13  C   UNL     1      -6.625   5.287  69.616  1.00  0.00    -0.043 C  
BRANCH  13  14
HETATM   14  N   UNL     1      -7.881   6.012  69.322  1.00  0.00    -0.101 NA 
HETATM   15  N   UNL     1      -8.953   7.850  71.434  1.00  0.00    -0.132 NA 
HETATM   16  C   UNL     1      -8.975   5.705  70.263  1.00  0.00    -0.139 C  
HETATM   17  C   UNL     1      -7.750   7.481  69.200  1.00  0.00    -0.113 C  
HETATM   18  C   UNL     1      -7.996   8.398  70.450  1.00  0.00    -0.099 C  
HETATM   19  C   UNL     1      -8.799   6.402  71.619  1.00  0.00    -0.136 C  
BRANCH  15  20
HETATM   20  C   UNL     1     -10.252   8.317  71.502  1.00  0.00    -0.214 A  
HETATM   21  N   UNL     1     -11.116   7.874  72.405  1.00  0.00    -0.304 NA 
HETATM   22  S   UNL     1     -12.486   8.785  72.394  1.00  0.00    -0.292 SA 
HETATM   23  C   UNL     1     -11.970   9.863  71.167  1.00  0.00    -0.384 A  
HETATM   24  C   UNL     1     -12.643  10.983  70.662  1.00  0.00    -0.427 A  
HETATM   25  C   UNL     1     -12.028  11.714  69.642  1.00  0.00    -0.390 A  
HETATM   26  C   UNL     1     -10.790  11.320  69.152  1.00  0.00    -0.269 A  
HETATM   27  C   UNL     1     -10.117  10.216  69.677  1.00  0.00    -0.265 A  
HETATM   28  C   UNL     1     -10.724   9.435  70.710  1.00  0.00    -0.373 A  
ENDBRANCH  15  20
ENDBRANCH  13  14
ENDBRANCH  12  13
ENDBRANCH   3  12
TORSDOF 4
ENDMDL
MODEL      219
REMARK 921   NORMALIZED FREE ENERGY PREDICTED BY IDOCK:   -3.80 KCAL/MOL
REMARK 922        TOTAL FREE ENERGY PREDICTED BY IDOCK:   -5.21 KCAL/MOL
REMARK 923 INTER-LIGAND FREE ENERGY PREDICTED BY IDOCK:   -6.05 KCAL/MOL
REMARK 924 INTRA-LIGAND FREE ENERGY PREDICTED BY IDOCK:    0.84 KCAL/MOL
REMARK 927      BINDING AFFINITY PREDICTED BY RF-SCORE:    0.00 PKD
ROOT
HETATM    1 CL   UNL     1     -11.496  12.758  67.186  1.00  0.00    -0.367 Cl 
HETATM    2  C   UNL     1     -10.619  11.350  67.668  1.00  0.00    -0.202 A  
HETATM    3  C   UNL     1      -9.302  11.441  68.195  1.00  0.00    -0.181 A  
HETATM    4  O   UNL     1      -8.757   6.177  66.460  1.00  0.00    -0.124 OA 
HETATM    5  C   UNL     1      -8.664  10.293  68.701  1.00  0.00    -0.133 A  
HETATM    6  C   UNL     1      -9.204   9.073  68.354  1.00  0.00    -0.137 A  
HETATM    7  N   UNL     1     -10.373   7.806  66.882  1.00  0.00    -0.320 NA 
HETATM    8  C   UNL     1      -8.553   7.723  68.365  1.00  0.00    -0.128 C  
HETATM    9  C   UNL     1     -11.157  10.107  67.336  1.00  0.00    -0.219 A  
HETATM   10  C   UNL     1     -10.361   9.011  67.581  1.00  0.00    -0.257 A  
HETATM   11  C   UNL     1      -9.196   7.097  67.128  1.00  0.00    -0.134 C  
ENDROOT
BRANCH   3  12
HETATM   12  C   UNL     1      -8.379  12.540  67.693  1.00  0.00    -0.172 C  
BRANCH  12  13
HETATM   13  C   UNL     1      -7.251  13.114  68.558  1.00  0.00    -0.110 C  
BRANCH  13  14
HETATM   14  N   UNL     1      -7.055  14.531  68.180  1.00  0.00    -0.108 NA 
HETATM   15  N   UNL     1      -9.419  16.364  68.382  1.00  0.00    -0.214 NA 
HETATM   16  C   UNL     1      -7.909  14.968  67.060  1.00  0.00    -0.129 C  
HETATM   17  C   UNL     1      -7.179  15.504  69.288  1.00  0.00    -0.196 C  
HETATM   18  C   UNL     1      -8.559  16.198  69.572  1.00  0.00     0.044 C  
HETATM   19  C   UNL     1      -9.365  15.202  67.485  1.00  0.00    -0.198 C  
BRANCH  15  20
HETATM   20  C   UNL     1      -9.536  17.589  67.752  1.00  0.00    -0.269 A  
HETATM   21  N   UNL     1     -10.685  18.016  67.245  1.00  0.00    -0.342 NA 
HETATM   22  S   UNL     1     -10.568  19.592  66.788  1.00  0.00    -0.477 SA 
HETATM   23  C   UNL     1      -8.940  19.796  67.281  1.00  0.00    -0.326 A  
HETATM   24  C   UNL     1      -8.165  20.964  67.242  1.00  0.00    -0.148 A  
HETATM   25  C   UNL     1      -6.844  20.890  67.690  1.00  0.00    -0.387 A  
HETATM   26  C   UNL     1      -6.330  19.685  68.148  1.00  0.00    -0.267 A  
HETATM   27  C   UNL     1      -7.116  18.532  68.205  1.00  0.00    -0.261 A  
HETATM   28  C   UNL     1      -8.468  18.567  67.739  1.00  0.00    -0.285 A  
ENDBRANCH  15  20
ENDBRANCH  13  14
ENDBRANCH  12  13
ENDBRANCH   3  12
TORSDOF 4
ENDMDL
MODEL      220
REMARK 921   NORMALIZED FREE ENERGY PREDICTED BY IDOCK:   -3.80 KCAL/MOL
REMARK 922        TOTAL FREE ENERGY PREDICTED BY IDOCK:   -5.20 KCAL/MOL
REMARK 923 INTER-LIGAND FREE ENERGY PREDICTED BY IDOCK:   -5.16 KCAL/MOL
REMARK 924 INTRA-LIGAND FREE ENERGY PREDICTED BY IDOCK:   -0.04 KCAL/MOL
REMARK 927      BINDING AFFINITY PREDICTED BY RF-SCORE:    0.00 PKD
ROOT
HETATM    1 CL   UNL     1      -5.799   8.634  67.960  1.00  0.00    -0.042 Cl 
HETATM    2  C   UNL     1      -6.914   7.388  67.524  1.00  0.00    -0.079 A  
HETATM    3  C   UNL     1      -8.174   7.691  66.941  1.00  0.00    -0.120 A  
HETATM    4  O   UNL     1      -9.756   2.742  68.945  1.00  0.00    -0.065 OA 
HETATM    5  C   UNL     1      -9.005   6.655  66.476  1.00  0.00    -0.155 A  
HETATM    6  C   UNL     1      -8.716   5.379  66.911  1.00  0.00    -0.112 A  
HETATM    7  N   UNL     1      -7.849   4.009  68.495  1.00  0.00    -0.068 NA 
HETATM    8  C   UNL     1      -9.611   4.177  66.950  1.00  0.00    -0.232 C  
HETATM    9  C   UNL     1      -6.631   6.090  67.945  1.00  0.00    -0.056 A  
HETATM   10  C   UNL     1      -7.613   5.150  67.730  1.00  0.00    -0.087 A  
HETATM   11  C   UNL     1      -9.132   3.519  68.243  1.00  0.00    -0.150 C  
ENDROOT
BRANCH   3  12
HETATM   12  C   UNL     1      -8.886   8.974  67.346  1.00  0.00    -0.125 C  
BRANCH  12  13
HETATM   13  C   UNL     1      -9.939   9.637  66.450  1.00  0.00    -0.255 C  
BRANCH  13  14
HETATM   14  N   UNL     1      -9.346  10.862  65.870  1.00  0.00    -0.192 NA 
HETATM   15  N   UNL     1      -9.949  13.473  67.216  1.00  0.00    -0.233 NA 
HETATM   16  C   UNL     1     -10.347  11.852  65.429  1.00  0.00    -0.267 C  
HETATM   17  C   UNL     1      -8.339  11.540  66.716  1.00  0.00    -0.165 C  
HETATM   18  C   UNL     1      -8.776  12.702  67.677  1.00  0.00    -0.179 C  
HETATM   19  C   UNL     1     -10.974  12.619  66.601  1.00  0.00    -0.258 C  
BRANCH  15  20
HETATM   20  C   UNL     1      -9.801  14.721  66.639  1.00  0.00    -0.259 A  
HETATM   21  N   UNL     1     -10.822  15.378  66.104  1.00  0.00    -0.323 NA 
HETATM   22  S   UNL     1     -10.387  16.919  65.728  1.00  0.00    -0.206 SA 
HETATM   23  C   UNL     1      -8.778  16.791  66.301  1.00  0.00    -0.307 A  
HETATM   24  C   UNL     1      -7.797  17.792  66.351  1.00  0.00    -0.312 A  
HETATM   25  C   UNL     1      -6.538  17.451  66.853  1.00  0.00    -0.224 A  
HETATM   26  C   UNL     1      -6.284  16.153  67.274  1.00  0.00    -0.188 A  
HETATM   27  C   UNL     1      -7.274  15.169  67.242  1.00  0.00    -0.197 A  
HETATM   28  C   UNL     1      -8.569  15.479  66.720  1.00  0.00    -0.307 A  
ENDBRANCH  15  20
ENDBRANCH  13  14
ENDBRANCH  12  13
ENDBRANCH   3  12
TORSDOF 4
ENDMDL
MODEL      221
REMARK 921   NORMALIZED FREE ENERGY PREDICTED BY IDOCK:   -3.79 KCAL/MOL
REMARK 922        TOTAL FREE ENERGY PREDICTED BY IDOCK:   -5.19 KCAL/MOL
REMARK 923 INTER-LIGAND FREE ENERGY PREDICTED BY IDOCK:   -5.53 KCAL/MOL
REMARK 924 INTRA-LIGAND FREE ENERGY PREDICTED BY IDOCK:    0.34 KCAL/MOL
REMARK 927      BINDING AFFINITY PREDICTED BY RF-SCORE:    0.00 PKD
ROOT
HETATM    1 CL   UNL     1     -11.383   6.431  69.288  1.00  0.00    -0.441 Cl 
HETATM    2  C   UNL     1     -10.222   6.871  70.488  1.00  0.00    -0.192 A  
HETATM    3  C   UNL     1      -9.121   7.716  70.180  1.00  0.00    -0.150 A  
HETATM    4  O   UNL     1      -6.664   5.313  74.563  1.00  0.00    -0.073 OA 
HETATM    5  C   UNL     1      -8.266   8.164  71.204  1.00  0.00    -0.123 A  
HETATM    6  C   UNL     1      -8.329   7.495  72.408  1.00  0.00    -0.131 A  
HETATM    7  N   UNL     1      -8.753   5.589  73.560  1.00  0.00    -0.118 NA 
HETATM    8  C   UNL     1      -7.308   7.440  73.504  1.00  0.00    -0.103 C  
HETATM    9  C   UNL     1     -10.279   6.213  71.716  1.00  0.00    -0.236 A  
HETATM   10  C   UNL     1      -9.244   6.461  72.590  1.00  0.00    -0.138 A  
HETATM   11  C   UNL     1      -7.483   5.996  73.972  1.00  0.00    -0.091 C  
ENDROOT
BRANCH   3  12
HETATM   12  C   UNL     1      -8.504   7.648  68.791  1.00  0.00    -0.129 C  
BRANCH  12  13
HETATM   13  C   UNL     1      -9.347   7.801  67.519  1.00  0.00    -0.139 C  
BRANCH  13  14
HETATM   14  N   UNL     1      -8.918   9.037  66.826  1.00  0.00    -0.132 NA 
HETATM   15  N   UNL     1     -10.020  11.642  67.820  1.00  0.00    -0.178 NA 
HETATM   16  C   UNL     1     -10.031   9.792  66.222  1.00  0.00    -0.262 C  
HETATM   17  C   UNL     1      -8.092   9.961  67.635  1.00  0.00    -0.110 C  
HETATM   18  C   UNL     1      -8.774  11.132  68.428  1.00  0.00    -0.157 C  
HETATM   19  C   UNL     1     -10.851  10.567  67.261  1.00  0.00    -0.279 C  
BRANCH  15  20
HETATM   20  C   UNL     1     -10.034  12.827  67.108  1.00  0.00    -0.218 A  
HETATM   21  N   UNL     1     -11.119  13.262  66.482  1.00  0.00    -0.290 NA 
HETATM   22  S   UNL     1     -10.899  14.800  65.940  1.00  0.00    -0.343 SA 
HETATM   23  C   UNL     1      -9.309  14.975  66.554  1.00  0.00    -0.281 A  
HETATM   24  C   UNL     1      -8.485  16.108  66.507  1.00  0.00    -0.346 A  
HETATM   25  C   UNL     1      -7.208  16.015  67.067  1.00  0.00    -0.249 A  
HETATM   26  C   UNL     1      -6.784  14.823  67.640  1.00  0.00    -0.198 A  
HETATM   27  C   UNL     1      -7.620  13.707  67.702  1.00  0.00    -0.186 A  
HETATM   28  C   UNL     1      -8.927  13.762  67.124  1.00  0.00    -0.241 A  
ENDBRANCH  15  20
ENDBRANCH  13  14
ENDBRANCH  12  13
ENDBRANCH   3  12
TORSDOF 4
ENDMDL
MODEL      222
REMARK 921   NORMALIZED FREE ENERGY PREDICTED BY IDOCK:   -3.78 KCAL/MOL
REMARK 922        TOTAL FREE ENERGY PREDICTED BY IDOCK:   -5.18 KCAL/MOL
REMARK 923 INTER-LIGAND FREE ENERGY PREDICTED BY IDOCK:   -5.17 KCAL/MOL
REMARK 924 INTRA-LIGAND FREE ENERGY PREDICTED BY IDOCK:   -0.02 KCAL/MOL
REMARK 927      BINDING AFFINITY PREDICTED BY RF-SCORE:    0.00 PKD
ROOT
HETATM    1 CL   UNL     1      -6.710   8.680  65.439  1.00  0.00    -0.066 Cl 
HETATM    2  C   UNL     1      -7.737   7.294  65.520  1.00  0.00    -0.108 A  
HETATM    3  C   UNL     1      -8.651   7.110  66.594  1.00  0.00    -0.124 A  
HETATM    4  O   UNL     1      -8.318   1.699  65.320  1.00  0.00    -0.076 OA 
HETATM    5  C   UNL     1      -9.566   6.042  66.567  1.00  0.00    -0.182 A  
HETATM    6  C   UNL     1      -9.313   5.024  65.671  1.00  0.00    -0.163 A  
HETATM    7  N   UNL     1      -7.824   3.814  64.465  1.00  0.00    -0.084 NA 
HETATM    8  C   UNL     1      -9.820   3.614  65.688  1.00  0.00    -0.054 C  
HETATM    9  C   UNL     1      -7.504   6.261  64.614  1.00  0.00    -0.087 A  
HETATM   10  C   UNL     1      -8.223   5.104  64.807  1.00  0.00    -0.130 A  
HETATM   11  C   UNL     1      -8.595   2.874  65.153  1.00  0.00    -0.104 C  
ENDROOT
BRANCH   3  12
HETATM   12  C   UNL     1      -8.278   7.622  67.977  1.00  0.00    -0.124 C  
BRANCH  12  13
HETATM   13  C   UNL     1      -7.573   8.969  68.183  1.00  0.00    -0.092 C  
BRANCH  13  14
HETATM   14  N   UNL     1      -8.489   9.860  68.929  1.00  0.00    -0.119 NA 
HETATM   15  N   UNL     1     -10.047  11.884  67.359  1.00  0.00    -0.195 NA 
HETATM   16  C   UNL     1      -8.160  11.291  68.796  1.00  0.00    -0.130 C  
HETATM   17  C   UNL     1      -9.928   9.669  68.646  1.00  0.00    -0.165 C  
HETATM   18  C   UNL     1     -10.635  10.542  67.548  1.00  0.00    -0.259 C  
HETATM   19  C   UNL     1      -8.580  11.869  67.438  1.00  0.00    -0.164 C  
BRANCH  15  20
HETATM   20  C   UNL     1     -10.653  13.009  67.887  1.00  0.00    -0.229 A  
HETATM   21  N   UNL     1     -11.292  12.988  69.048  1.00  0.00    -0.275 NA 
HETATM   22  S   UNL     1     -11.686  14.513  69.522  1.00  0.00    -0.334 SA 
HETATM   23  C   UNL     1     -10.979  15.302  68.175  1.00  0.00    -0.292 A  
HETATM   24  C   UNL     1     -10.885  16.680  67.933  1.00  0.00    -0.321 A  
HETATM   25  C   UNL     1     -10.270  17.096  66.749  1.00  0.00    -0.311 A  
HETATM   26  C   UNL     1      -9.784  16.159  65.849  1.00  0.00    -0.374 A  
HETATM   27  C   UNL     1      -9.862  14.789  66.110  1.00  0.00    -0.335 A  
HETATM   28  C   UNL     1     -10.498  14.327  67.304  1.00  0.00    -0.269 A  
ENDBRANCH  15  20
ENDBRANCH  13  14
ENDBRANCH  12  13
ENDBRANCH   3  12
TORSDOF 4
ENDMDL
MODEL      223
REMARK 921   NORMALIZED FREE ENERGY PREDICTED BY IDOCK:   -3.77 KCAL/MOL
REMARK 922        TOTAL FREE ENERGY PREDICTED BY IDOCK:   -5.17 KCAL/MOL
REMARK 923 INTER-LIGAND FREE ENERGY PREDICTED BY IDOCK:   -5.18 KCAL/MOL
REMARK 924 INTRA-LIGAND FREE ENERGY PREDICTED BY IDOCK:    0.01 KCAL/MOL
REMARK 927      BINDING AFFINITY PREDICTED BY RF-SCORE:    0.00 PKD
ROOT
HETATM    1 CL   UNL     1      -6.956   6.693  65.304  1.00  0.00    -0.051 Cl 
HETATM    2  C   UNL     1      -7.975   6.309  66.645  1.00  0.00    -0.108 A  
HETATM    3  C   UNL     1      -8.071   7.168  67.774  1.00  0.00    -0.115 A  
HETATM    4  O   UNL     1      -9.651   2.590  70.524  1.00  0.00    -0.136 OA 
HETATM    5  C   UNL     1      -9.006   6.897  68.790  1.00  0.00    -0.130 A  
HETATM    6  C   UNL     1      -9.552   5.631  68.816  1.00  0.00    -0.166 A  
HETATM    7  N   UNL     1      -9.366   3.419  68.361  1.00  0.00    -0.179 NA 
HETATM    8  C   UNL     1     -10.213   4.920  69.958  1.00  0.00    -0.313 C  
HETATM    9  C   UNL     1      -8.545   5.037  66.682  1.00  0.00    -0.109 A  
HETATM   10  C   UNL     1      -9.214   4.700  67.837  1.00  0.00    -0.127 A  
HETATM   11  C   UNL     1      -9.733   3.491  69.706  1.00  0.00    -0.043 C  
ENDROOT
BRANCH   3  12
HETATM   12  C   UNL     1      -6.849   7.966  68.201  1.00  0.00    -0.068 C  
BRANCH  12  13
HETATM   13  C   UNL     1      -5.987   8.736  67.192  1.00  0.00    -0.053 C  
BRANCH  13  14
HETATM   14  N   UNL     1      -6.351  10.168  67.273  1.00  0.00    -0.066 NA 
HETATM   15  N   UNL     1      -9.248  10.885  66.984  1.00  0.00    -0.152 NA 
HETATM   16  C   UNL     1      -6.998  10.684  66.051  1.00  0.00    -0.128 C  
HETATM   17  C   UNL     1      -7.169  10.548  68.446  1.00  0.00    -0.080 C  
HETATM   18  C   UNL     1      -8.735  10.580  68.335  1.00  0.00    -0.137 C  
HETATM   19  C   UNL     1      -8.461  10.239  65.926  1.00  0.00    -0.150 C  
BRANCH  15  20
HETATM   20  C   UNL     1      -9.732  12.142  66.672  1.00  0.00    -0.219 A  
HETATM   21  N   UNL     1      -9.258  13.243  67.241  1.00  0.00    -0.213 NA 
HETATM   22  S   UNL     1      -9.851  14.583  66.494  1.00  0.00    -0.297 SA 
HETATM   23  C   UNL     1     -10.775  13.738  65.325  1.00  0.00    -0.339 A  
HETATM   24  C   UNL     1     -11.533  14.271  64.273  1.00  0.00    -0.257 A  
HETATM   25  C   UNL     1     -12.220  13.381  63.444  1.00  0.00    -0.419 A  
HETATM   26  C   UNL     1     -12.148  12.015  63.677  1.00  0.00    -0.627 A  
HETATM   27  C   UNL     1     -11.372  11.492  64.712  1.00  0.00    -0.206 A  
HETATM   28  C   UNL     1     -10.668  12.374  65.591  1.00  0.00    -0.299 A  
ENDBRANCH  15  20
ENDBRANCH  13  14
ENDBRANCH  12  13
ENDBRANCH   3  12
TORSDOF 4
ENDMDL
MODEL      224
REMARK 921   NORMALIZED FREE ENERGY PREDICTED BY IDOCK:   -3.77 KCAL/MOL
REMARK 922        TOTAL FREE ENERGY PREDICTED BY IDOCK:   -5.17 KCAL/MOL
REMARK 923 INTER-LIGAND FREE ENERGY PREDICTED BY IDOCK:   -5.69 KCAL/MOL
REMARK 924 INTRA-LIGAND FREE ENERGY PREDICTED BY IDOCK:    0.53 KCAL/MOL
REMARK 927      BINDING AFFINITY PREDICTED BY RF-SCORE:    0.00 PKD
ROOT
HETATM    1 CL   UNL     1      -7.940   8.252  66.630  1.00  0.00    -0.097 Cl 
HETATM    2  C   UNL     1      -8.623   8.191  68.216  1.00  0.00    -0.130 A  
HETATM    3  C   UNL     1      -9.812   8.901  68.539  1.00  0.00    -0.182 A  
HETATM    4  O   UNL     1      -7.949   8.681  73.783  1.00  0.00    -0.407 OA 
HETATM    5  C   UNL     1     -10.416   8.729  69.798  1.00  0.00    -0.222 A  
HETATM    6  C   UNL     1      -9.651   8.145  70.785  1.00  0.00    -0.185 A  
HETATM    7  N   UNL     1      -7.611   7.728  71.679  1.00  0.00    -0.082 NA 
HETATM    8  C   UNL     1      -9.833   8.207  72.271  1.00  0.00    -0.329 C  
HETATM    9  C   UNL     1      -7.868   7.593  69.224  1.00  0.00    -0.121 A  
HETATM   10  C   UNL     1      -8.359   7.707  70.504  1.00  0.00    -0.126 A  
HETATM   11  C   UNL     1      -8.375   8.248  72.726  1.00  0.00    -0.171 C  
ENDROOT
BRANCH   3  12
HETATM   12  C   UNL     1     -10.088  10.230  67.852  1.00  0.00    -0.200 C  
BRANCH  12  13
HETATM   13  C   UNL     1     -11.106  10.360  66.712  1.00  0.00     0.048 C  
BRANCH  13  14
HETATM   14  N   UNL     1     -10.943  11.697  66.099  1.00  0.00    -0.293 NA 
HETATM   15  N   UNL     1      -9.479  13.783  67.678  1.00  0.00    -0.210 NA 
HETATM   16  C   UNL     1     -11.562  12.785  66.879  1.00  0.00    -0.366 C  
HETATM   17  C   UNL     1      -9.552  12.075  65.766  1.00  0.00    -0.213 C  
HETATM   18  C   UNL     1      -8.695  12.896  66.794  1.00  0.00    -0.106 C  
HETATM   19  C   UNL     1     -10.738  13.166  68.116  1.00  0.00    -0.242 C  
BRANCH  15  20
HETATM   20  C   UNL     1      -9.539  15.145  67.450  1.00  0.00    -0.208 A  
HETATM   21  N   UNL     1     -10.688  15.807  67.428  1.00  0.00    -0.314 NA 
HETATM   22  S   UNL     1     -10.422  17.430  67.383  1.00  0.00    -0.309 SA 
HETATM   23  C   UNL     1      -8.712  17.328  67.419  1.00  0.00    -0.206 A  
HETATM   24  C   UNL     1      -7.784  18.378  67.462  1.00  0.00    -0.231 A  
HETATM   25  C   UNL     1      -6.425  18.052  67.473  1.00  0.00    -0.182 A  
HETATM   26  C   UNL     1      -6.027  16.723  67.432  1.00  0.00    -0.190 A  
HETATM   27  C   UNL     1      -6.958  15.684  67.412  1.00  0.00    -0.234 A  
HETATM   28  C   UNL     1      -8.357  15.980  67.384  1.00  0.00    -0.188 A  
ENDBRANCH  15  20
ENDBRANCH  13  14
ENDBRANCH  12  13
ENDBRANCH   3  12
TORSDOF 4
ENDMDL
MODEL      225
REMARK 921   NORMALIZED FREE ENERGY PREDICTED BY IDOCK:   -3.76 KCAL/MOL
REMARK 922        TOTAL FREE ENERGY PREDICTED BY IDOCK:   -5.16 KCAL/MOL
REMARK 923 INTER-LIGAND FREE ENERGY PREDICTED BY IDOCK:   -4.75 KCAL/MOL
REMARK 924 INTRA-LIGAND FREE ENERGY PREDICTED BY IDOCK:   -0.41 KCAL/MOL
REMARK 927      BINDING AFFINITY PREDICTED BY RF-SCORE:    0.00 PKD
ROOT
HETATM    1 CL   UNL     1     -12.262  14.836  69.940  1.00  0.00    -0.360 Cl 
HETATM    2  C   UNL     1     -11.115  15.509  68.837  1.00  0.00    -0.282 A  
HETATM    3  C   UNL     1     -11.279  15.389  67.430  1.00  0.00    -0.287 A  
HETATM    4  O   UNL     1      -5.760  16.095  67.204  1.00  0.00    -0.297 OA 
HETATM    5  C   UNL     1     -10.402  16.058  66.557  1.00  0.00    -0.303 A  
HETATM    6  C   UNL     1      -9.221  16.524  67.094  1.00  0.00    -0.226 A  
HETATM    7  N   UNL     1      -7.579  16.342  68.645  1.00  0.00    -0.185 NA 
HETATM    8  C   UNL     1      -7.946  16.878  66.387  1.00  0.00    -0.352 C  
HETATM    9  C   UNL     1      -9.919  15.996  69.364  1.00  0.00    -0.262 A  
HETATM   10  C   UNL     1      -8.958  16.372  68.453  1.00  0.00    -0.214 A  
HETATM   11  C   UNL     1      -6.921  16.400  67.415  1.00  0.00    -0.165 C  
ENDROOT
BRANCH   3  12
HETATM   12  C   UNL     1     -11.942  14.140  66.869  1.00  0.00    -0.479 C  
BRANCH  12  13
HETATM   13  C   UNL     1     -11.175  13.131  66.006  1.00  0.00    -0.292 C  
BRANCH  13  14
HETATM   14  N   UNL     1     -10.150  12.483  66.854  1.00  0.00    -0.222 NA 
HETATM   15  N   UNL     1      -8.748  10.075  65.747  1.00  0.00    -0.140 NA 
HETATM   16  C   UNL     1     -10.456  11.077  67.181  1.00  0.00    -0.232 C  
HETATM   17  C   UNL     1      -8.763  12.568  66.347  1.00  0.00     0.053 C  
HETATM   18  C   UNL     1      -8.176  11.408  65.467  1.00  0.00     0.306 C  
HETATM   19  C   UNL     1     -10.193  10.128  66.004  1.00  0.00    -0.218 C  
BRANCH  15  20
HETATM   20  C   UNL     1      -8.052   9.143  66.494  1.00  0.00    -0.107 A  
HETATM   21  N   UNL     1      -7.976   7.867  66.140  1.00  0.00    -0.100 NA 
HETATM   22  S   UNL     1      -6.887   7.067  67.079  1.00  0.00    -0.070 SA 
HETATM   23  C   UNL     1      -6.431   8.428  68.014  1.00  0.00    -0.057 A  
HETATM   24  C   UNL     1      -5.455   8.498  69.019  1.00  0.00    -0.036 A  
HETATM   25  C   UNL     1      -5.262   9.723  69.661  1.00  0.00    -0.034 A  
HETATM   26  C   UNL     1      -6.029  10.824  69.307  1.00  0.00    -0.043 A  
HETATM   27  C   UNL     1      -6.982  10.751  68.290  1.00  0.00    -0.069 A  
HETATM   28  C   UNL     1      -7.218   9.509  67.622  1.00  0.00    -0.082 A  
ENDBRANCH  15  20
ENDBRANCH  13  14
ENDBRANCH  12  13
ENDBRANCH   3  12
TORSDOF 4
ENDMDL
MODEL      226
REMARK 921   NORMALIZED FREE ENERGY PREDICTED BY IDOCK:   -3.74 KCAL/MOL
REMARK 922        TOTAL FREE ENERGY PREDICTED BY IDOCK:   -5.14 KCAL/MOL
REMARK 923 INTER-LIGAND FREE ENERGY PREDICTED BY IDOCK:   -4.86 KCAL/MOL
REMARK 924 INTRA-LIGAND FREE ENERGY PREDICTED BY IDOCK:   -0.28 KCAL/MOL
REMARK 927      BINDING AFFINITY PREDICTED BY RF-SCORE:    0.00 PKD
ROOT
HETATM    1 CL   UNL     1      -5.433   8.037  65.942  1.00  0.00    -0.028 Cl 
HETATM    2  C   UNL     1      -6.718   6.882  65.917  1.00  0.00    -0.052 A  
HETATM    3  C   UNL     1      -8.053   7.265  65.611  1.00  0.00    -0.133 A  
HETATM    4  O   UNL     1      -9.505   2.708  68.465  1.00  0.00    -0.195 OA 
HETATM    5  C   UNL     1      -9.053   6.285  65.469  1.00  0.00     0.084 A  
HETATM    6  C   UNL     1      -8.772   5.029  65.965  1.00  0.00    -0.127 A  
HETATM    7  N   UNL     1      -7.665   3.721  67.448  1.00  0.00    -0.078 NA 
HETATM    8  C   UNL     1      -9.727   3.937  66.343  1.00  0.00    -0.181 C  
HETATM    9  C   UNL     1      -6.449   5.604  66.403  1.00  0.00    -0.044 A  
HETATM   10  C   UNL     1      -7.528   4.758  66.527  1.00  0.00    -0.086 A  
HETATM   11  C   UNL     1      -9.006   3.349  67.556  1.00  0.00    -0.147 C  
ENDROOT
BRANCH   3  12
HETATM   12  C   UNL     1      -8.538   8.646  66.024  1.00  0.00    -0.173 C  
BRANCH  12  13
HETATM   13  C   UNL     1     -10.011   8.927  66.349  1.00  0.00    -0.284 C  
BRANCH  13  14
HETATM   14  N   UNL     1     -10.248  10.380  66.195  1.00  0.00    -0.235 NA 
HETATM   15  N   UNL     1      -9.835  12.118  68.603  1.00  0.00    -0.153 NA 
HETATM   16  C   UNL     1     -11.308  10.902  67.078  1.00  0.00    -0.024 C  
HETATM   17  C   UNL     1      -9.047  11.234  66.329  1.00  0.00    -0.199 C  
HETATM   18  C   UNL     1      -8.679  11.859  67.722  1.00  0.00    -0.158 C  
HETATM   19  C   UNL     1     -10.844  11.053  68.532  1.00  0.00    -0.213 C  
BRANCH  15  20
HETATM   20  C   UNL     1     -10.339  13.396  68.761  1.00  0.00    -0.152 A  
HETATM   21  N   UNL     1      -9.996  14.395  67.959  1.00  0.00    -0.220 NA 
HETATM   22  S   UNL     1     -10.937  15.714  68.240  1.00  0.00    -0.330 SA 
HETATM   23  C   UNL     1     -11.895  14.989  69.462  1.00  0.00    -0.330 A  
HETATM   24  C   UNL     1     -12.986  15.542  70.146  1.00  0.00    -0.035 A  
HETATM   25  C   UNL     1     -13.613  14.761  71.121  1.00  0.00    -0.432 A  
HETATM   26  C   UNL     1     -13.147  13.483  71.395  1.00  0.00    -0.385 A  
HETATM   27  C   UNL     1     -12.074  12.932  70.693  1.00  0.00    -0.321 A  
HETATM   28  C   UNL     1     -11.399  13.708  69.699  1.00  0.00    -0.226 A  
ENDBRANCH  15  20
ENDBRANCH  13  14
ENDBRANCH  12  13
ENDBRANCH   3  12
TORSDOF 4
ENDMDL
MODEL      227
REMARK 921   NORMALIZED FREE ENERGY PREDICTED BY IDOCK:   -3.72 KCAL/MOL
REMARK 922        TOTAL FREE ENERGY PREDICTED BY IDOCK:   -5.11 KCAL/MOL
REMARK 923 INTER-LIGAND FREE ENERGY PREDICTED BY IDOCK:   -4.10 KCAL/MOL
REMARK 924 INTRA-LIGAND FREE ENERGY PREDICTED BY IDOCK:   -1.02 KCAL/MOL
REMARK 927      BINDING AFFINITY PREDICTED BY RF-SCORE:    0.00 PKD
ROOT
HETATM    1 CL   UNL     1      -8.834   3.591  64.839  1.00  0.00    -0.118 Cl 
HETATM    2  C   UNL     1      -9.241   5.080  65.615  1.00  0.00    -0.157 A  
HETATM    3  C   UNL     1      -8.323   6.165  65.665  1.00  0.00    -0.146 A  
HETATM    4  O   UNL     1     -11.217   7.781  70.141  1.00  0.00    -0.243 OA 
HETATM    5  C   UNL     1      -8.728   7.408  66.187  1.00  0.00    -0.172 A  
HETATM    6  C   UNL     1      -9.885   7.425  66.936  1.00  0.00    -0.284 A  
HETATM    7  N   UNL     1     -11.339   6.350  68.301  1.00  0.00    -0.178 NA 
HETATM    8  C   UNL     1     -10.336   8.443  67.939  1.00  0.00    -0.279 C  
HETATM    9  C   UNL     1     -10.414   5.119  66.366  1.00  0.00    -0.356 A  
HETATM   10  C   UNL     1     -10.628   6.260  67.107  1.00  0.00    -0.311 A  
HETATM   11  C   UNL     1     -11.018   7.537  68.963  1.00  0.00     0.031 C  
ENDROOT
BRANCH   3  12
HETATM   12  C   UNL     1      -6.834   5.869  65.750  1.00  0.00    -0.056 C  
BRANCH  12  13
HETATM   13  C   UNL     1      -5.893   6.681  66.648  1.00  0.00    -0.018 C  
BRANCH  13  14
HETATM   14  N   UNL     1      -5.615   5.885  67.865  1.00  0.00    -0.008 NA 
HETATM   15  N   UNL     1      -7.842   5.547  69.844  1.00  0.00    -0.081 NA 
HETATM   16  C   UNL     1      -5.781   6.644  69.118  1.00  0.00    -0.017 C  
HETATM   17  C   UNL     1      -6.360   4.612  67.971  1.00  0.00    -0.037 C  
HETATM   18  C   UNL     1      -7.724   4.563  68.749  1.00  0.00    -0.071 C  
HETATM   19  C   UNL     1      -7.255   6.847  69.494  1.00  0.00    -0.081 C  
BRANCH  15  20
HETATM   20  C   UNL     1      -7.685   5.167  71.164  1.00  0.00    -0.096 A  
HETATM   21  N   UNL     1      -6.493   5.077  71.737  1.00  0.00    -0.030 NA 
HETATM   22  S   UNL     1      -6.643   4.849  73.359  1.00  0.00    -0.068 SA 
HETATM   23  C   UNL     1      -8.356   4.887  73.382  1.00  0.00    -0.107 A  
HETATM   24  C   UNL     1      -9.206   4.806  74.494  1.00  0.00    -0.118 A  
HETATM   25  C   UNL     1     -10.585   4.846  74.268  1.00  0.00    -0.321 A  
HETATM   26  C   UNL     1     -11.077   4.952  72.975  1.00  0.00    -0.368 A  
HETATM   27  C   UNL     1     -10.222   5.054  71.876  1.00  0.00    -0.267 A  
HETATM   28  C   UNL     1      -8.806   5.001  72.068  1.00  0.00    -0.139 A  
ENDBRANCH  15  20
ENDBRANCH  13  14
ENDBRANCH  12  13
ENDBRANCH   3  12
TORSDOF 4
ENDMDL
MODEL      228
REMARK 921   NORMALIZED FREE ENERGY PREDICTED BY IDOCK:   -3.71 KCAL/MOL
REMARK 922        TOTAL FREE ENERGY PREDICTED BY IDOCK:   -5.09 KCAL/MOL
REMARK 923 INTER-LIGAND FREE ENERGY PREDICTED BY IDOCK:   -5.55 KCAL/MOL
REMARK 924 INTRA-LIGAND FREE ENERGY PREDICTED BY IDOCK:    0.46 KCAL/MOL
REMARK 927      BINDING AFFINITY PREDICTED BY RF-SCORE:    0.00 PKD
ROOT
HETATM    1 CL   UNL     1      -5.813   8.382  68.040  1.00  0.00    -0.041 Cl 
HETATM    2  C   UNL     1      -6.940   7.348  68.844  1.00  0.00    -0.078 A  
HETATM    3  C   UNL     1      -8.333   7.416  68.572  1.00  0.00    -0.126 A  
HETATM    4  O   UNL     1      -8.948   5.207  73.647  1.00  0.00    -0.121 OA 
HETATM    5  C   UNL     1      -9.211   6.475  69.142  1.00  0.00    -0.135 A  
HETATM    6  C   UNL     1      -8.733   5.739  70.206  1.00  0.00    -0.137 A  
HETATM    7  N   UNL     1      -7.345   5.565  71.989  1.00  0.00    -0.090 NA 
HETATM    8  C   UNL     1      -9.506   5.003  71.258  1.00  0.00    -0.209 C  
HETATM    9  C   UNL     1      -6.471   6.588  69.914  1.00  0.00    -0.043 A  
HETATM   10  C   UNL     1      -7.420   5.903  70.639  1.00  0.00    -0.087 A  
HETATM   11  C   UNL     1      -8.615   5.247  72.475  1.00  0.00    -0.121 C  
ENDROOT
BRANCH   3  12
HETATM   12  C   UNL     1      -8.951   8.758  68.212  1.00  0.00    -0.141 C  
BRANCH  12  13
HETATM   13  C   UNL     1     -10.440   9.054  68.432  1.00  0.00    -0.192 C  
BRANCH  13  14
HETATM   14  N   UNL     1     -10.824  10.176  67.546  1.00  0.00    -0.296 NA 
HETATM   15  N   UNL     1      -8.973  12.530  67.402  1.00  0.00    -0.179 NA 
HETATM   16  C   UNL     1     -10.997  11.457  68.256  1.00  0.00    -0.216 C  
HETATM   17  C   UNL     1      -9.942  10.389  66.377  1.00  0.00    -0.221 C  
HETATM   18  C   UNL     1      -8.751  11.408  66.468  1.00  0.00    -0.181 C  
HETATM   19  C   UNL     1      -9.659  12.109  68.630  1.00  0.00    -0.060 C  
BRANCH  15  20
HETATM   20  C   UNL     1      -9.315  13.787  66.939  1.00  0.00    -0.261 A  
HETATM   21  N   UNL     1      -8.557  14.852  67.161  1.00  0.00    -0.211 NA 
HETATM   22  S   UNL     1      -9.091  16.138  66.285  1.00  0.00    -0.356 SA 
HETATM   23  C   UNL     1     -10.382  15.307  65.525  1.00  0.00    -0.383 A  
HETATM   24  C   UNL     1     -11.273  15.795  64.558  1.00  0.00    -0.334 A  
HETATM   25  C   UNL     1     -12.264  14.931  64.085  1.00  0.00    -0.280 A  
HETATM   26  C   UNL     1     -12.353  13.636  64.578  1.00  0.00    -0.402 A  
HETATM   27  C   UNL     1     -11.447  13.153  65.524  1.00  0.00    -0.343 A  
HETATM   28  C   UNL     1     -10.430  14.014  66.042  1.00  0.00    -0.307 A  
ENDBRANCH  15  20
ENDBRANCH  13  14
ENDBRANCH  12  13
ENDBRANCH   3  12
TORSDOF 4
ENDMDL
MODEL      229
REMARK 921   NORMALIZED FREE ENERGY PREDICTED BY IDOCK:   -3.69 KCAL/MOL
REMARK 922        TOTAL FREE ENERGY PREDICTED BY IDOCK:   -5.07 KCAL/MOL
REMARK 923 INTER-LIGAND FREE ENERGY PREDICTED BY IDOCK:   -5.15 KCAL/MOL
REMARK 924 INTRA-LIGAND FREE ENERGY PREDICTED BY IDOCK:    0.08 KCAL/MOL
REMARK 927      BINDING AFFINITY PREDICTED BY RF-SCORE:    0.00 PKD
ROOT
HETATM    1 CL   UNL     1      -7.926   8.255  69.036  1.00  0.00    -0.110 Cl 
HETATM    2  C   UNL     1      -7.639   7.376  67.577  1.00  0.00    -0.106 A  
HETATM    3  C   UNL     1      -7.542   8.034  66.321  1.00  0.00    -0.090 A  
HETATM    4  O   UNL     1      -9.003   3.111  64.165  1.00  0.00    -0.099 OA 
HETATM    5  C   UNL     1      -7.178   7.311  65.170  1.00  0.00    -0.070 A  
HETATM    6  C   UNL     1      -7.262   5.936  65.244  1.00  0.00    -0.073 A  
HETATM    7  N   UNL     1      -8.221   4.087  66.136  1.00  0.00    -0.104 NA 
HETATM    8  C   UNL     1      -7.358   4.943  64.126  1.00  0.00    -0.055 C  
HETATM    9  C   UNL     1      -7.708   5.985  67.636  1.00  0.00    -0.097 A  
HETATM   10  C   UNL     1      -7.642   5.319  66.433  1.00  0.00    -0.088 A  
HETATM   11  C   UNL     1      -8.296   3.912  64.753  1.00  0.00    -0.101 C  
ENDROOT
BRANCH   3  12
HETATM   12  C   UNL     1      -8.374   9.284  66.076  1.00  0.00    -0.117 C  
BRANCH  12  13
HETATM   13  C   UNL     1      -7.828  10.691  66.346  1.00  0.00    -0.144 C  
BRANCH  13  14
HETATM   14  N   UNL     1      -8.779  11.393  67.237  1.00  0.00    -0.144 NA 
HETATM   15  N   UNL     1      -9.285  14.302  66.717  1.00  0.00    -0.259 NA 
HETATM   16  C   UNL     1      -8.177  12.521  67.973  1.00  0.00    -0.166 C  
HETATM   17  C   UNL     1     -10.029  11.851  66.593  1.00  0.00    -0.199 C  
HETATM   18  C   UNL     1     -10.128  13.309  66.019  1.00  0.00    -0.299 C  
HETATM   19  C   UNL     1      -7.972  13.759  67.089  1.00  0.00    -0.044 C  
BRANCH  15  20
HETATM   20  C   UNL     1      -9.832  15.191  67.623  1.00  0.00    -0.219 A  
HETATM   21  N   UNL     1      -9.726  16.505  67.475  1.00  0.00    -0.239 NA 
HETATM   22  S   UNL     1     -10.678  17.291  68.562  1.00  0.00    -0.249 SA 
HETATM   23  C   UNL     1     -11.318  15.876  69.287  1.00  0.00    -0.355 A  
HETATM   24  C   UNL     1     -12.284  15.786  70.299  1.00  0.00    -0.367 A  
HETATM   25  C   UNL     1     -12.647  14.513  70.747  1.00  0.00    -0.418 A  
HETATM   26  C   UNL     1     -12.050  13.386  70.201  1.00  0.00    -0.415 A  
HETATM   27  C   UNL     1     -11.106  13.485  69.177  1.00  0.00    -0.271 A  
HETATM   28  C   UNL     1     -10.699  14.772  68.705  1.00  0.00    -0.253 A  
ENDBRANCH  15  20
ENDBRANCH  13  14
ENDBRANCH  12  13
ENDBRANCH   3  12
TORSDOF 4
ENDMDL
MODEL      230
REMARK 921   NORMALIZED FREE ENERGY PREDICTED BY IDOCK:   -3.66 KCAL/MOL
REMARK 922        TOTAL FREE ENERGY PREDICTED BY IDOCK:   -5.04 KCAL/MOL
REMARK 923 INTER-LIGAND FREE ENERGY PREDICTED BY IDOCK:   -5.02 KCAL/MOL
REMARK 924 INTRA-LIGAND FREE ENERGY PREDICTED BY IDOCK:   -0.02 KCAL/MOL
REMARK 927      BINDING AFFINITY PREDICTED BY RF-SCORE:    0.00 PKD
ROOT
HETATM    1 CL   UNL     1      -6.985   8.472  73.536  1.00  0.00    -0.115 Cl 
HETATM    2  C   UNL     1      -7.156   6.791  73.173  1.00  0.00    -0.076 A  
HETATM    3  C   UNL     1      -7.124   6.315  71.834  1.00  0.00    -0.085 A  
HETATM    4  O   UNL     1     -10.011   1.982  73.812  1.00  0.00    -0.088 OA 
HETATM    5  C   UNL     1      -7.134   4.932  71.576  1.00  0.00    -0.056 A  
HETATM    6  C   UNL     1      -7.515   4.105  72.612  1.00  0.00    -0.073 A  
HETATM    7  N   UNL     1      -8.707   3.786  74.513  1.00  0.00    -0.090 NA 
HETATM    8  C   UNL     1      -8.022   2.696  72.548  1.00  0.00    -0.055 C  
HETATM    9  C   UNL     1      -7.529   5.940  74.211  1.00  0.00    -0.087 A  
HETATM   10  C   UNL     1      -7.820   4.641  73.861  1.00  0.00    -0.101 A  
HETATM   11  C   UNL     1      -9.051   2.722  73.677  1.00  0.00    -0.081 C  
ENDROOT
BRANCH   3  12
HETATM   12  C   UNL     1      -7.678   7.195  70.723  1.00  0.00    -0.094 C  
BRANCH  12  13
HETATM   13  C   UNL     1      -9.141   7.653  70.701  1.00  0.00    -0.158 C  
BRANCH  13  14
HETATM   14  N   UNL     1      -9.161   9.131  70.623  1.00  0.00    -0.238 NA 
HETATM   15  N   UNL     1     -10.948  10.390  68.572  1.00  0.00    -0.238 NA 
HETATM   16  C   UNL     1      -8.737   9.659  69.313  1.00  0.00    -0.159 C  
HETATM   17  C   UNL     1     -10.440   9.768  71.007  1.00  0.00    -0.160 C  
HETATM   18  C   UNL     1     -11.510  10.105  69.908  1.00  0.00    -0.254 C  
HETATM   19  C   UNL     1      -9.821   9.510  68.237  1.00  0.00    -0.155 C  
BRANCH  15  20
HETATM   20  C   UNL     1     -10.839  11.688  68.106  1.00  0.00    -0.217 A  
HETATM   21  N   UNL     1     -10.399  11.966  66.887  1.00  0.00    -0.208 NA 
HETATM   22  S   UNL     1     -10.614  13.560  66.541  1.00  0.00    -0.283 SA 
HETATM   23  C   UNL     1     -11.351  13.964  68.034  1.00  0.00    -0.288 A  
HETATM   24  C   UNL     1     -11.871  15.203  68.433  1.00  0.00    -0.293 A  
HETATM   25  C   UNL     1     -12.419  15.302  69.715  1.00  0.00    -0.223 A  
HETATM   26  C   UNL     1     -12.429  14.198  70.556  1.00  0.00    -0.431 A  
HETATM   27  C   UNL     1     -11.929  12.962  70.141  1.00  0.00    -0.373 A  
HETATM   28  C   UNL     1     -11.347  12.828  68.842  1.00  0.00    -0.344 A  
ENDBRANCH  15  20
ENDBRANCH  13  14
ENDBRANCH  12  13
ENDBRANCH   3  12
TORSDOF 4
ENDMDL
MODEL      231
REMARK 921   NORMALIZED FREE ENERGY PREDICTED BY IDOCK:   -3.66 KCAL/MOL
REMARK 922        TOTAL FREE ENERGY PREDICTED BY IDOCK:   -5.03 KCAL/MOL
REMARK 923 INTER-LIGAND FREE ENERGY PREDICTED BY IDOCK:   -5.86 KCAL/MOL
REMARK 924 INTRA-LIGAND FREE ENERGY PREDICTED BY IDOCK:    0.83 KCAL/MOL
REMARK 927      BINDING AFFINITY PREDICTED BY RF-SCORE:    0.00 PKD
ROOT
HETATM    1 CL   UNL     1      -8.328   8.103  67.432  1.00  0.00    -0.121 Cl 
HETATM    2  C   UNL     1      -8.863   8.045  69.074  1.00  0.00    -0.145 A  
HETATM    3  C   UNL     1     -10.021   8.751  69.502  1.00  0.00    -0.195 A  
HETATM    4  O   UNL     1      -7.686   8.560  74.554  1.00  0.00    -0.297 OA 
HETATM    5  C   UNL     1     -10.508   8.581  70.811  1.00  0.00    -0.239 A  
HETATM    6  C   UNL     1      -9.652   8.004  71.726  1.00  0.00    -0.231 A  
HETATM    7  N   UNL     1      -7.537   7.601  72.432  1.00  0.00    -0.079 NA 
HETATM    8  C   UNL     1      -9.698   8.071  73.223  1.00  0.00    -0.308 C  
HETATM    9  C   UNL     1      -8.016   7.455  70.010  1.00  0.00    -0.119 A  
HETATM   10  C   UNL     1      -8.389   7.571  71.330  1.00  0.00    -0.107 A  
HETATM   11  C   UNL     1      -8.205   8.121  73.542  1.00  0.00    -0.215 C  
ENDROOT
BRANCH   3  12
HETATM   12  C   UNL     1     -10.366  10.075  68.838  1.00  0.00    -0.217 C  
BRANCH  12  13
HETATM   13  C   UNL     1     -11.317  10.161  67.638  1.00  0.00     0.078 C  
BRANCH  13  14
HETATM   14  N   UNL     1     -11.258  11.539  67.100  1.00  0.00    -0.307 NA 
HETATM   15  N   UNL     1      -9.975  13.644  68.805  1.00  0.00    -0.148 NA 
HETATM   16  C   UNL     1     -11.967  12.529  67.932  1.00  0.00    -0.223 C  
HETATM   17  C   UNL     1      -9.900  12.044  66.803  1.00  0.00    -0.204 C  
HETATM   18  C   UNL     1      -9.117  12.873  67.882  1.00  0.00    -0.201 C  
HETATM   19  C   UNL     1     -11.183  12.906  69.196  1.00  0.00    -0.237 C  
BRANCH  15  20
HETATM   20  C   UNL     1     -10.143  15.008  68.651  1.00  0.00    -0.233 A  
HETATM   21  N   UNL     1      -9.880  15.867  69.627  1.00  0.00    -0.265 NA 
HETATM   22  S   UNL     1      -9.937  17.414  69.071  1.00  0.00    -0.218 SA 
HETATM   23  C   UNL     1     -10.299  17.002  67.448  1.00  0.00    -0.319 A  
HETATM   24  C   UNL     1     -10.440  17.861  66.349  1.00  0.00    -0.318 A  
HETATM   25  C   UNL     1     -10.752  17.296  65.110  1.00  0.00     0.053 A  
HETATM   26  C   UNL     1     -10.923  15.923  64.994  1.00  0.00    -0.426 A  
HETATM   27  C   UNL     1     -10.759  15.073  66.088  1.00  0.00    -0.328 A  
HETATM   28  C   UNL     1     -10.455  15.618  67.375  1.00  0.00    -0.291 A  
ENDBRANCH  15  20
ENDBRANCH  13  14
ENDBRANCH  12  13
ENDBRANCH   3  12
TORSDOF 4
ENDMDL
MODEL      232
REMARK 921   NORMALIZED FREE ENERGY PREDICTED BY IDOCK:   -3.57 KCAL/MOL
REMARK 922        TOTAL FREE ENERGY PREDICTED BY IDOCK:   -4.92 KCAL/MOL
REMARK 923 INTER-LIGAND FREE ENERGY PREDICTED BY IDOCK:   -4.92 KCAL/MOL
REMARK 924 INTRA-LIGAND FREE ENERGY PREDICTED BY IDOCK:   -0.01 KCAL/MOL
REMARK 927      BINDING AFFINITY PREDICTED BY RF-SCORE:    0.00 PKD
ROOT
HETATM    1 CL   UNL     1      -9.289   7.524  73.376  1.00  0.00    -0.263 Cl 
HETATM    2  C   UNL     1      -8.396   6.523  72.287  1.00  0.00    -0.106 A  
HETATM    3  C   UNL     1      -8.018   6.985  70.997  1.00  0.00    -0.101 A  
HETATM    4  O   UNL     1      -7.807   1.585  69.652  1.00  0.00    -0.042 OA 
HETATM    5  C   UNL     1      -7.180   6.199  70.184  1.00  0.00    -0.076 A  
HETATM    6  C   UNL     1      -7.038   4.872  70.531  1.00  0.00    -0.052 A  
HETATM    7  N   UNL     1      -7.889   3.009  71.499  1.00  0.00    -0.055 NA 
HETATM    8  C   UNL     1      -6.590   3.724  69.677  1.00  0.00    -0.033 C  
HETATM    9  C   UNL     1      -8.232   5.182  72.628  1.00  0.00    -0.113 A  
HETATM   10  C   UNL     1      -7.665   4.373  71.669  1.00  0.00    -0.078 A  
HETATM   11  C   UNL     1      -7.482   2.610  70.224  1.00  0.00    -0.043 C  
ENDROOT
BRANCH   3  12
HETATM   12  C   UNL     1      -8.934   7.949  70.259  1.00  0.00    -0.151 C  
BRANCH  12  13
HETATM   13  C   UNL     1      -8.844   8.159  68.743  1.00  0.00    -0.138 C  
BRANCH  13  14
HETATM   14  N   UNL     1     -10.022   8.945  68.315  1.00  0.00    -0.169 NA 
HETATM   15  N   UNL     1      -9.532  11.665  67.152  1.00  0.00    -0.175 NA 
HETATM   16  C   UNL     1     -10.166  10.229  69.026  1.00  0.00    -0.210 C  
HETATM   17  C   UNL     1     -10.126   9.188  66.859  1.00  0.00    -0.258 C  
HETATM   18  C   UNL     1      -9.537  10.505  66.239  1.00  0.00    -0.187 C  
HETATM   19  C   UNL     1      -9.179  11.293  68.529  1.00  0.00    -0.181 C  
BRANCH  15  20
HETATM   20  C   UNL     1     -10.478  12.667  67.038  1.00  0.00    -0.232 A  
HETATM   21  N   UNL     1     -10.726  13.520  68.023  1.00  0.00    -0.245 NA 
HETATM   22  S   UNL     1     -11.710  14.733  67.506  1.00  0.00    -0.291 SA 
HETATM   23  C   UNL     1     -11.836  14.179  65.890  1.00  0.00    -0.384 A  
HETATM   24  C   UNL     1     -12.507  14.785  64.819  1.00  0.00    -0.222 A  
HETATM   25  C   UNL     1     -12.484  14.139  63.581  1.00  0.00     0.124 A  
HETATM   26  C   UNL     1     -11.819  12.929  63.438  1.00  0.00    -0.576 A  
HETATM   27  C   UNL     1     -11.134  12.344  64.505  1.00  0.00    -0.360 A  
HETATM   28  C   UNL     1     -11.150  12.970  65.790  1.00  0.00    -0.302 A  
ENDBRANCH  15  20
ENDBRANCH  13  14
ENDBRANCH  12  13
ENDBRANCH   3  12
TORSDOF 4
ENDMDL
MODEL      233
REMARK 921   NORMALIZED FREE ENERGY PREDICTED BY IDOCK:   -3.56 KCAL/MOL
REMARK 922        TOTAL FREE ENERGY PREDICTED BY IDOCK:   -4.91 KCAL/MOL
REMARK 923 INTER-LIGAND FREE ENERGY PREDICTED BY IDOCK:   -4.89 KCAL/MOL
REMARK 924 INTRA-LIGAND FREE ENERGY PREDICTED BY IDOCK:   -0.02 KCAL/MOL
REMARK 927      BINDING AFFINITY PREDICTED BY RF-SCORE:    0.00 PKD
ROOT
HETATM    1 CL   UNL     1     -11.385   6.428  69.291  1.00  0.00    -0.441 Cl 
HETATM    2  C   UNL     1     -10.218   6.842  70.496  1.00  0.00    -0.192 A  
HETATM    3  C   UNL     1      -9.112   7.683  70.198  1.00  0.00    -0.150 A  
HETATM    4  O   UNL     1      -6.666   5.197  74.540  1.00  0.00    -0.072 OA 
HETATM    5  C   UNL     1      -8.252   8.109  71.227  1.00  0.00    -0.132 A  
HETATM    6  C   UNL     1      -8.318   7.423  72.422  1.00  0.00    -0.123 A  
HETATM    7  N   UNL     1      -8.755   5.504  73.545  1.00  0.00    -0.118 NA 
HETATM    8  C   UNL     1      -7.296   7.345  73.515  1.00  0.00    -0.103 C  
HETATM    9  C   UNL     1     -10.278   6.166  71.713  1.00  0.00    -0.236 A  
HETATM   10  C   UNL     1      -9.241   6.393  72.589  1.00  0.00    -0.138 A  
HETATM   11  C   UNL     1      -7.481   5.895  73.962  1.00  0.00    -0.092 C  
ENDROOT
BRANCH   3  12
HETATM   12  C   UNL     1      -8.498   7.632  68.807  1.00  0.00    -0.129 C  
BRANCH  12  13
HETATM   13  C   UNL     1      -9.339   7.822  67.539  1.00  0.00    -0.139 C  
BRANCH  13  14
HETATM   14  N   UNL     1      -8.894   9.066  66.873  1.00  0.00    -0.115 NA 
HETATM   15  N   UNL     1      -9.927  11.667  67.949  1.00  0.00    -0.178 NA 
HETATM   16  C   UNL     1      -9.999   9.860  66.304  1.00  0.00    -0.256 C  
HETATM   17  C   UNL     1      -8.038   9.952  67.692  1.00  0.00    -0.110 C  
HETATM   18  C   UNL     1      -8.684  11.116  68.525  1.00  0.00    -0.161 C  
HETATM   19  C   UNL     1     -10.788  10.625  67.375  1.00  0.00    -0.296 C  
BRANCH  15  20
HETATM   20  C   UNL     1      -9.926  12.870  67.267  1.00  0.00    -0.224 A  
HETATM   21  N   UNL     1      -9.598  12.955  65.985  1.00  0.00    -0.212 NA 
HETATM   22  S   UNL     1      -9.928  14.456  65.400  1.00  0.00    -0.245 SA 
HETATM   23  C   UNL     1     -10.567  15.078  66.863  1.00  0.00    -0.297 A  
HETATM   24  C   UNL     1     -11.122  16.344  67.095  1.00  0.00     0.026 A  
HETATM   25  C   UNL     1     -11.572  16.637  68.384  1.00  0.00     0.121 A  
HETATM   26  C   UNL     1     -11.456  15.692  69.394  1.00  0.00    -0.354 A  
HETATM   27  C   UNL     1     -10.923  14.425  69.149  1.00  0.00    -0.288 A  
HETATM   28  C   UNL     1     -10.437  14.097  67.845  1.00  0.00    -0.237 A  
ENDBRANCH  15  20
ENDBRANCH  13  14
ENDBRANCH  12  13
ENDBRANCH   3  12
TORSDOF 4
ENDMDL
MODEL      234
REMARK 921   NORMALIZED FREE ENERGY PREDICTED BY IDOCK:   -3.54 KCAL/MOL
REMARK 922        TOTAL FREE ENERGY PREDICTED BY IDOCK:   -4.89 KCAL/MOL
REMARK 923 INTER-LIGAND FREE ENERGY PREDICTED BY IDOCK:   -5.20 KCAL/MOL
REMARK 924 INTRA-LIGAND FREE ENERGY PREDICTED BY IDOCK:    0.31 KCAL/MOL
REMARK 927      BINDING AFFINITY PREDICTED BY RF-SCORE:    0.00 PKD
ROOT
HETATM    1 CL   UNL     1     -11.665  13.053  69.126  1.00  0.00    -0.358 Cl 
HETATM    2  C   UNL     1     -11.317  12.172  67.682  1.00  0.00    -0.314 A  
HETATM    3  C   UNL     1     -10.865  10.825  67.725  1.00  0.00    -0.320 A  
HETATM    4  O   UNL     1      -8.683  11.896  62.714  1.00  0.00    -0.021 OA 
HETATM    5  C   UNL     1     -10.716  10.092  66.534  1.00  0.00    -0.094 A  
HETATM    6  C   UNL     1     -10.686  10.810  65.357  1.00  0.00    -0.149 A  
HETATM    7  N   UNL     1     -10.216  12.737  64.261  1.00  0.00    -0.358 NA 
HETATM    8  C   UNL     1     -10.137  10.401  64.024  1.00  0.00    -0.216 C  
HETATM    9  C   UNL     1     -11.295  12.881  66.481  1.00  0.00    -0.361 A  
HETATM   10  C   UNL     1     -10.852  12.193  65.374  1.00  0.00    -0.294 A  
HETATM   11  C   UNL     1      -9.564  11.733  63.542  1.00  0.00    -0.219 C  
ENDROOT
BRANCH   3  12
HETATM   12  C   UNL     1      -9.994  10.376  68.889  1.00  0.00    -0.208 C  
BRANCH  12  13
HETATM   13  C   UNL     1     -10.594   9.896  70.216  1.00  0.00    -0.301 C  
BRANCH  13  14
HETATM   14  N   UNL     1      -9.984   8.591  70.554  1.00  0.00    -0.184 NA 
HETATM   15  N   UNL     1      -9.844   6.521  68.389  1.00  0.00    -0.135 NA 
HETATM   16  C   UNL     1     -10.903   7.449  70.387  1.00  0.00    -0.243 C  
HETATM   17  C   UNL     1      -8.712   8.289  69.862  1.00  0.00    -0.134 C  
HETATM   18  C   UNL     1      -8.722   7.473  68.520  1.00  0.00    -0.128 C  
HETATM   19  C   UNL     1     -11.103   7.062  68.916  1.00  0.00    -0.050 C  
BRANCH  15  20
HETATM   20  C   UNL     1      -9.656   5.166  68.591  1.00  0.00    -0.142 A  
HETATM   21  N   UNL     1      -9.793   4.280  67.614  1.00  0.00    -0.138 NA 
HETATM   22  S   UNL     1      -9.269   2.797  68.096  1.00  0.00    -0.203 SA 
HETATM   23  C   UNL     1      -8.795   3.283  69.669  1.00  0.00    -0.088 A  
HETATM   24  C   UNL     1      -8.181   2.509  70.664  1.00  0.00    -0.070 A  
HETATM   25  C   UNL     1      -7.895   3.121  71.887  1.00  0.00    -0.054 A  
HETATM   26  C   UNL     1      -8.225   4.453  72.094  1.00  0.00    -0.107 A  
HETATM   27  C   UNL     1      -8.815   5.222  71.090  1.00  0.00    -0.147 A  
HETATM   28  C   UNL     1      -9.137   4.624  69.831  1.00  0.00    -0.161 A  
ENDBRANCH  15  20
ENDBRANCH  13  14
ENDBRANCH  12  13
ENDBRANCH   3  12
TORSDOF 4
ENDMDL
MODEL      235
REMARK 921   NORMALIZED FREE ENERGY PREDICTED BY IDOCK:   -3.52 KCAL/MOL
REMARK 922        TOTAL FREE ENERGY PREDICTED BY IDOCK:   -4.86 KCAL/MOL
REMARK 923 INTER-LIGAND FREE ENERGY PREDICTED BY IDOCK:   -4.32 KCAL/MOL
REMARK 924 INTRA-LIGAND FREE ENERGY PREDICTED BY IDOCK:   -0.54 KCAL/MOL
REMARK 927      BINDING AFFINITY PREDICTED BY RF-SCORE:    0.00 PKD
ROOT
HETATM    1 CL   UNL     1      -6.543   8.307  70.595  1.00  0.00    -0.036 Cl 
HETATM    2  C   UNL     1      -8.087   8.244  71.367  1.00  0.00    -0.125 A  
HETATM    3  C   UNL     1      -8.472   7.134  72.168  1.00  0.00    -0.118 A  
HETATM    4  O   UNL     1     -13.685   8.711  71.008  1.00  0.00    -0.089 OA 
HETATM    5  C   UNL     1      -9.679   7.169  72.890  1.00  0.00    -0.200 A  
HETATM    6  C   UNL     1     -10.598   8.130  72.526  1.00  0.00    -0.411 A  
HETATM    7  N   UNL     1     -11.482   9.477  70.931  1.00  0.00    -0.307 NA 
HETATM    8  C   UNL     1     -12.074   8.161  72.786  1.00  0.00    -0.208 C  
HETATM    9  C   UNL     1      -9.025   9.216  71.020  1.00  0.00    -0.281 A  
HETATM   10  C   UNL     1     -10.295   9.045  71.521  1.00  0.00    -0.342 A  
HETATM   11  C   UNL     1     -12.569   8.799  71.488  1.00  0.00    -0.326 C  
ENDROOT
BRANCH   3  12
HETATM   12  C   UNL     1      -7.963   5.748  71.802  1.00  0.00    -0.114 C  
BRANCH  12  13
HETATM   13  C   UNL     1      -8.910   4.623  71.368  1.00  0.00    -0.123 C  
BRANCH  13  14
HETATM   14  N   UNL     1      -8.363   4.007  70.139  1.00  0.00    -0.060 NA 
HETATM   15  N   UNL     1      -9.101   5.251  67.513  1.00  0.00    -0.108 NA 
HETATM   16  C   UNL     1      -9.400   3.518  69.211  1.00  0.00    -0.172 C  
HETATM   17  C   UNL     1      -7.400   4.841  69.388  1.00  0.00    -0.052 C  
HETATM   18  C   UNL     1      -7.902   5.755  68.213  1.00  0.00    -0.100 C  
HETATM   19  C   UNL     1     -10.077   4.653  68.432  1.00  0.00    -0.001 C  
BRANCH  15  20
HETATM   20  C   UNL     1      -8.999   4.632  66.280  1.00  0.00    -0.118 A  
HETATM   21  N   UNL     1      -9.439   3.399  66.070  1.00  0.00    -0.149 NA 
HETATM   22  S   UNL     1      -9.406   3.036  64.466  1.00  0.00    -0.147 SA 
HETATM   23  C   UNL     1      -8.812   4.560  63.955  1.00  0.00    -0.144 A  
HETATM   24  C   UNL     1      -8.583   5.002  62.644  1.00  0.00    -0.118 A  
HETATM   25  C   UNL     1      -8.078   6.293  62.467  1.00  0.00    -0.097 A  
HETATM   26  C   UNL     1      -7.809   7.093  63.568  1.00  0.00    -0.103 A  
HETATM   27  C   UNL     1      -8.061   6.652  64.868  1.00  0.00    -0.115 A  
HETATM   28  C   UNL     1      -8.562   5.331  65.088  1.00  0.00    -0.151 A  
ENDBRANCH  15  20
ENDBRANCH  13  14
ENDBRANCH  12  13
ENDBRANCH   3  12
TORSDOF 4
ENDMDL
MODEL      236
REMARK 921   NORMALIZED FREE ENERGY PREDICTED BY IDOCK:   -3.49 KCAL/MOL
REMARK 922        TOTAL FREE ENERGY PREDICTED BY IDOCK:   -4.82 KCAL/MOL
REMARK 923 INTER-LIGAND FREE ENERGY PREDICTED BY IDOCK:   -4.90 KCAL/MOL
REMARK 924 INTRA-LIGAND FREE ENERGY PREDICTED BY IDOCK:    0.08 KCAL/MOL
REMARK 927      BINDING AFFINITY PREDICTED BY RF-SCORE:    0.00 PKD
ROOT
HETATM    1 CL   UNL     1      -7.043   8.451  70.750  1.00  0.00    -0.046 Cl 
HETATM    2  C   UNL     1      -6.674   7.223  69.591  1.00  0.00    -0.045 A  
HETATM    3  C   UNL     1      -7.114   7.320  68.243  1.00  0.00    -0.081 A  
HETATM    4  O   UNL     1      -6.622   1.773  68.185  1.00  0.00    -0.028 OA 
HETATM    5  C   UNL     1      -6.689   6.375  67.292  1.00  0.00    -0.060 A  
HETATM    6  C   UNL     1      -6.141   5.205  67.775  1.00  0.00    -0.023 A  
HETATM    7  N   UNL     1      -6.000   3.653  69.421  1.00  0.00    -0.022 NA 
HETATM    8  C   UNL     1      -5.994   3.883  67.083  1.00  0.00    -0.024 C  
HETATM    9  C   UNL     1      -6.110   6.039  70.061  1.00  0.00    -0.026 A  
HETATM   10  C   UNL     1      -5.981   5.019  69.146  1.00  0.00    -0.021 A  
HETATM   11  C   UNL     1      -6.246   2.931  68.251  1.00  0.00    -0.029 C  
ENDROOT
BRANCH   3  12
HETATM   12  C   UNL     1      -8.441   8.001  67.945  1.00  0.00    -0.125 C  
BRANCH  12  13
HETATM   13  C   UNL     1      -8.591   9.038  66.825  1.00  0.00    -0.123 C  
BRANCH  13  14
HETATM   14  N   UNL     1      -8.636  10.382  67.444  1.00  0.00    -0.125 NA 
HETATM   15  N   UNL     1     -11.111  11.134  68.959  1.00  0.00    -0.222 NA 
HETATM   16  C   UNL     1      -9.735  11.228  66.941  1.00  0.00    -0.192 C  
HETATM   17  C   UNL     1      -8.655  10.398  68.923  1.00  0.00    -0.149 C  
HETATM   18  C   UNL     1     -10.024  10.451  69.690  1.00  0.00    -0.174 C  
HETATM   19  C   UNL     1     -11.098  10.830  67.522  1.00  0.00    -0.308 C  
BRANCH  15  20
HETATM   20  C   UNL     1     -11.487  12.425  69.284  1.00  0.00    -0.288 A  
HETATM   21  N   UNL     1     -11.225  13.457  68.493  1.00  0.00    -0.266 NA 
HETATM   22  S   UNL     1     -12.005  14.805  69.021  1.00  0.00    -0.239 SA 
HETATM   23  C   UNL     1     -12.774  14.052  70.354  1.00  0.00    -0.253 A  
HETATM   24  C   UNL     1     -13.681  14.617  71.261  1.00  0.00    -0.439 A  
HETATM   25  C   UNL     1     -14.174  13.807  72.287  1.00  0.00    -0.563 A  
HETATM   26  C   UNL     1     -13.757  12.487  72.393  1.00  0.00    -0.284 A  
HETATM   27  C   UNL     1     -12.871  11.926  71.472  1.00  0.00    -0.421 A  
HETATM   28  C   UNL     1     -12.334  12.731  70.419  1.00  0.00    -0.324 A  
ENDBRANCH  15  20
ENDBRANCH  13  14
ENDBRANCH  12  13
ENDBRANCH   3  12
TORSDOF 4
ENDMDL
MODEL      237
REMARK 921   NORMALIZED FREE ENERGY PREDICTED BY IDOCK:   -3.47 KCAL/MOL
REMARK 922        TOTAL FREE ENERGY PREDICTED BY IDOCK:   -4.80 KCAL/MOL
REMARK 923 INTER-LIGAND FREE ENERGY PREDICTED BY IDOCK:   -4.29 KCAL/MOL
REMARK 924 INTRA-LIGAND FREE ENERGY PREDICTED BY IDOCK:   -0.51 KCAL/MOL
REMARK 927      BINDING AFFINITY PREDICTED BY RF-SCORE:    0.00 PKD
ROOT
HETATM    1 CL   UNL     1      -9.018   3.056  68.671  1.00  0.00    -0.170 Cl 
HETATM    2  C   UNL     1      -7.993   3.799  67.495  1.00  0.00    -0.089 A  
HETATM    3  C   UNL     1      -6.661   4.183  67.810  1.00  0.00    -0.050 A  
HETATM    4  O   UNL     1      -7.216   7.791  63.604  1.00  0.00    -0.073 OA 
HETATM    5  C   UNL     1      -5.808   4.665  66.800  1.00  0.00    -0.026 A  
HETATM    6  C   UNL     1      -6.399   5.063  65.620  1.00  0.00    -0.035 A  
HETATM    7  N   UNL     1      -8.203   5.888  64.525  1.00  0.00    -0.130 NA 
HETATM    8  C   UNL     1      -5.856   5.976  64.562  1.00  0.00    -0.025 C  
HETATM    9  C   UNL     1      -8.572   4.197  66.291  1.00  0.00    -0.113 A  
HETATM   10  C   UNL     1      -7.774   4.933  65.445  1.00  0.00    -0.086 A  
HETATM   11  C   UNL     1      -7.134   6.700  64.141  1.00  0.00    -0.055 C  
ENDROOT
BRANCH   3  12
HETATM   12  C   UNL     1      -6.342   4.654  69.221  1.00  0.00    -0.031 C  
BRANCH  12  13
HETATM   13  C   UNL     1      -6.115   6.134  69.553  1.00  0.00    -0.029 C  
BRANCH  13  14
HETATM   14  N   UNL     1      -7.210   6.918  68.938  1.00  0.00    -0.089 NA 
HETATM   15  N   UNL     1      -8.457   9.091  70.585  1.00  0.00    -0.178 NA 
HETATM   16  C   UNL     1      -8.487   6.824  69.670  1.00  0.00    -0.133 C  
HETATM   17  C   UNL     1      -6.903   8.344  68.687  1.00  0.00    -0.063 C  
HETATM   18  C   UNL     1      -7.281   9.428  69.758  1.00  0.00    -0.076 C  
HETATM   19  C   UNL     1      -8.496   7.670  70.951  1.00  0.00    -0.124 C  
BRANCH  15  20
HETATM   20  C   UNL     1      -9.690   9.670  70.341  1.00  0.00    -0.245 A  
HETATM   21  N   UNL     1      -9.904  10.465  69.302  1.00  0.00    -0.222 NA 
HETATM   22  S   UNL     1     -11.508  10.793  69.143  1.00  0.00    -0.306 SA 
HETATM   23  C   UNL     1     -12.014   9.842  70.475  1.00  0.00    -0.206 A  
HETATM   24  C   UNL     1     -13.322   9.600  70.917  1.00  0.00    -0.186 A  
HETATM   25  C   UNL     1     -13.495   8.794  72.045  1.00  0.00    -0.461 A  
HETATM   26  C   UNL     1     -12.390   8.266  72.700  1.00  0.00    -0.256 A  
HETATM   27  C   UNL     1     -11.093   8.493  72.239  1.00  0.00    -0.430 A  
HETATM   28  C   UNL     1     -10.878   9.326  71.097  1.00  0.00    -0.407 A  
ENDBRANCH  15  20
ENDBRANCH  13  14
ENDBRANCH  12  13
ENDBRANCH   3  12
TORSDOF 4
ENDMDL
MODEL      238
REMARK 921   NORMALIZED FREE ENERGY PREDICTED BY IDOCK:   -3.41 KCAL/MOL
REMARK 922        TOTAL FREE ENERGY PREDICTED BY IDOCK:   -4.73 KCAL/MOL
REMARK 923 INTER-LIGAND FREE ENERGY PREDICTED BY IDOCK:   -5.49 KCAL/MOL
REMARK 924 INTRA-LIGAND FREE ENERGY PREDICTED BY IDOCK:    0.77 KCAL/MOL
REMARK 927      BINDING AFFINITY PREDICTED BY RF-SCORE:    0.00 PKD
ROOT
HETATM    1 CL   UNL     1     -12.392  11.901  65.037  1.00  0.00    -0.027 Cl 
HETATM    2  C   UNL     1     -11.583  13.326  65.585  1.00  0.00    -0.335 A  
HETATM    3  C   UNL     1     -10.189  13.514  65.378  1.00  0.00    -0.316 A  
HETATM    4  O   UNL     1     -10.489  16.955  69.746  1.00  0.00    -0.225 OA 
HETATM    5  C   UNL     1      -9.584  14.738  65.717  1.00  0.00    -0.289 A  
HETATM    6  C   UNL     1     -10.296  15.579  66.546  1.00  0.00    -0.293 A  
HETATM    7  N   UNL     1     -11.833  15.855  68.188  1.00  0.00    -0.131 NA 
HETATM    8  C   UNL     1      -9.788  16.702  67.399  1.00  0.00    -0.254 C  
HETATM    9  C   UNL     1     -12.292  14.194  66.415  1.00  0.00    -0.431 A  
HETATM   10  C   UNL     1     -11.575  15.229  66.970  1.00  0.00    -0.095 A  
HETATM   11  C   UNL     1     -10.706  16.561  68.613  1.00  0.00    -0.334 C  
ENDROOT
BRANCH   3  12
HETATM   12  C   UNL     1      -9.271  12.301  65.387  1.00  0.00     0.226 C  
BRANCH  12  13
HETATM   13  C   UNL     1      -8.273  12.044  66.522  1.00  0.00     0.014 C  
BRANCH  13  14
HETATM   14  N   UNL     1      -9.000  12.144  67.807  1.00  0.00    -0.171 NA 
HETATM   15  N   UNL     1     -10.065   9.610  69.004  1.00  0.00    -0.178 NA 
HETATM   16  C   UNL     1     -10.396  11.673  67.735  1.00  0.00    -0.182 C  
HETATM   17  C   UNL     1      -8.335  11.502  68.962  1.00  0.00     0.093 C  
HETATM   18  C   UNL     1      -8.689  10.022  69.349  1.00  0.00    -0.186 C  
HETATM   19  C   UNL     1     -10.500  10.142  67.706  1.00  0.00    -0.232 C  
BRANCH  15  20
HETATM   20  C   UNL     1     -11.051   9.536  69.970  1.00  0.00    -0.237 A  
HETATM   21  N   UNL     1     -11.955  10.493  70.132  1.00  0.00    -0.302 NA 
HETATM   22  S   UNL     1     -13.129  10.012  71.178  1.00  0.00    -0.353 SA 
HETATM   23  C   UNL     1     -12.487   8.448  71.454  1.00  0.00    -0.288 A  
HETATM   24  C   UNL     1     -13.028   7.417  72.236  1.00  0.00     0.040 A  
HETATM   25  C   UNL     1     -12.315   6.219  72.326  1.00  0.00    -0.147 A  
HETATM   26  C   UNL     1     -11.104   6.077  71.662  1.00  0.00    -0.333 A  
HETATM   27  C   UNL     1     -10.585   7.101  70.867  1.00  0.00    -0.238 A  
HETATM   28  C   UNL     1     -11.280   8.346  70.765  1.00  0.00    -0.290 A  
ENDBRANCH  15  20
ENDBRANCH  13  14
ENDBRANCH  12  13
ENDBRANCH   3  12
TORSDOF 4
ENDMDL
MODEL      239
REMARK 921   NORMALIZED FREE ENERGY PREDICTED BY IDOCK:   -3.41 KCAL/MOL
REMARK 922        TOTAL FREE ENERGY PREDICTED BY IDOCK:   -4.72 KCAL/MOL
REMARK 923 INTER-LIGAND FREE ENERGY PREDICTED BY IDOCK:   -4.70 KCAL/MOL
REMARK 924 INTRA-LIGAND FREE ENERGY PREDICTED BY IDOCK:   -0.02 KCAL/MOL
REMARK 927      BINDING AFFINITY PREDICTED BY RF-SCORE:    0.00 PKD
ROOT
HETATM    1 CL   UNL     1      -8.990  13.120  66.499  1.00  0.00    -0.136 Cl 
HETATM    2  C   UNL     1      -8.588  14.779  66.767  1.00  0.00    -0.193 A  
HETATM    3  C   UNL     1      -7.284  15.169  67.178  1.00  0.00    -0.098 A  
HETATM    4  O   UNL     1      -9.799  19.704  69.209  1.00  0.00    -0.416 OA 
HETATM    5  C   UNL     1      -6.949  16.533  67.261  1.00  0.00    -0.208 A  
HETATM    6  C   UNL     1      -7.993  17.434  67.270  1.00  0.00    -0.218 A  
HETATM    7  N   UNL     1     -10.154  17.909  67.761  1.00  0.00    -0.330 NA 
HETATM    8  C   UNL     1      -8.002  18.852  67.758  1.00  0.00    -0.275 C  
HETATM    9  C   UNL     1      -9.630  15.705  66.768  1.00  0.00    -0.257 A  
HETATM   10  C   UNL     1      -9.306  16.988  67.148  1.00  0.00    -0.236 A  
HETATM   11  C   UNL     1      -9.407  18.928  68.355  1.00  0.00    -0.350 C  
ENDROOT
BRANCH   3  12
HETATM   12  C   UNL     1      -6.483  14.239  68.075  1.00  0.00    -0.158 C  
BRANCH  12  13
HETATM   13  C   UNL     1      -6.447  12.722  67.850  1.00  0.00    -0.120 C  
BRANCH  13  14
HETATM   14  N   UNL     1      -6.649  12.056  69.156  1.00  0.00    -0.100 NA 
HETATM   15  N   UNL     1      -6.950   9.073  69.164  1.00  0.00    -0.058 NA 
HETATM   16  C   UNL     1      -7.921  11.315  69.251  1.00  0.00     0.086 C  
HETATM   17  C   UNL     1      -5.545  11.175  69.594  1.00  0.00    -0.052 C  
HETATM   18  C   UNL     1      -5.590   9.639  69.269  1.00  0.00    -0.035 C  
HETATM   19  C   UNL     1      -7.885   9.983  68.490  1.00  0.00    -0.093 C  
BRANCH  15  20
HETATM   20  C   UNL     1      -7.494   8.329  70.195  1.00  0.00    -0.060 A  
HETATM   21  N   UNL     1      -7.410   8.710  71.462  1.00  0.00    -0.098 NA 
HETATM   22  S   UNL     1      -8.355   7.761  72.418  1.00  0.00    -0.138 SA 
HETATM   23  C   UNL     1      -8.960   6.782  71.148  1.00  0.00    -0.147 A  
HETATM   24  C   UNL     1      -9.906   5.750  71.228  1.00  0.00    -0.223 A  
HETATM   25  C   UNL     1     -10.241   5.076  70.051  1.00  0.00    -0.339 A  
HETATM   26  C   UNL     1      -9.638   5.426  68.851  1.00  0.00    -0.188 A  
HETATM   27  C   UNL     1      -8.714   6.470  68.777  1.00  0.00    -0.123 A  
HETATM   28  C   UNL     1      -8.335   7.171  69.964  1.00  0.00    -0.138 A  
ENDBRANCH  15  20
ENDBRANCH  13  14
ENDBRANCH  12  13
ENDBRANCH   3  12
TORSDOF 4
ENDMDL
MODEL      240
REMARK 921   NORMALIZED FREE ENERGY PREDICTED BY IDOCK:   -3.34 KCAL/MOL
REMARK 922        TOTAL FREE ENERGY PREDICTED BY IDOCK:   -4.65 KCAL/MOL
REMARK 923 INTER-LIGAND FREE ENERGY PREDICTED BY IDOCK:   -4.15 KCAL/MOL
REMARK 924 INTRA-LIGAND FREE ENERGY PREDICTED BY IDOCK:   -0.50 KCAL/MOL
REMARK 927      BINDING AFFINITY PREDICTED BY RF-SCORE:    0.00 PKD
ROOT
HETATM    1 CL   UNL     1      -9.278   4.879  67.523  1.00  0.00    -0.127 Cl 
HETATM    2  C   UNL     1      -8.969   5.274  69.176  1.00  0.00    -0.103 A  
HETATM    3  C   UNL     1      -8.317   6.484  69.539  1.00  0.00    -0.130 A  
HETATM    4  O   UNL     1      -6.915   3.769  74.196  1.00  0.00    -0.048 OA 
HETATM    5  C   UNL     1      -8.197   6.841  70.895  1.00  0.00    -0.123 A  
HETATM    6  C   UNL     1      -8.412   5.846  71.825  1.00  0.00    -0.131 A  
HETATM    7  N   UNL     1      -8.368   3.648  72.374  1.00  0.00    -0.084 NA 
HETATM    8  C   UNL     1      -7.964   5.788  73.255  1.00  0.00    -0.110 C  
HETATM    9  C   UNL     1      -9.193   4.284  70.131  1.00  0.00    -0.205 A  
HETATM   10  C   UNL     1      -8.782   4.569  71.414  1.00  0.00    -0.117 A  
HETATM   11  C   UNL     1      -7.659   4.297  73.387  1.00  0.00    -0.078 C  
ENDROOT
BRANCH   3  12
HETATM   12  C   UNL     1      -7.260   7.061  68.610  1.00  0.00    -0.094 C  
BRANCH  12  13
HETATM   13  C   UNL     1      -6.874   8.545  68.640  1.00  0.00    -0.063 C  
BRANCH  13  14
HETATM   14  N   UNL     1      -8.118   9.346  68.635  1.00  0.00    -0.103 NA 
HETATM   15  N   UNL     1      -7.973  12.136  67.546  1.00  0.00    -0.152 NA 
HETATM   16  C   UNL     1      -8.028  10.584  69.433  1.00  0.00    -0.140 C  
HETATM   17  C   UNL     1      -8.654   9.676  67.296  1.00  0.00    -0.132 C  
HETATM   18  C   UNL     1      -8.265  11.033  66.608  1.00  0.00    -0.154 C  
HETATM   19  C   UNL     1      -7.226  11.684  68.726  1.00  0.00    -0.116 C  
BRANCH  15  20
HETATM   20  C   UNL     1      -8.899  13.135  67.783  1.00  0.00    -0.191 A  
HETATM   21  N   UNL     1     -10.148  12.869  68.141  1.00  0.00    -0.235 NA 
HETATM   22  S   UNL     1     -10.929  14.247  68.588  1.00  0.00    -0.262 SA 
HETATM   23  C   UNL     1      -9.594  15.292  68.343  1.00  0.00    -0.206 A  
HETATM   24  C   UNL     1      -9.518  16.669  68.591  1.00  0.00    -0.249 A  
HETATM   25  C   UNL     1      -8.318  17.323  68.301  1.00  0.00    -0.242 A  
HETATM   26  C   UNL     1      -7.247  16.613  67.774  1.00  0.00    -0.154 A  
HETATM   27  C   UNL     1      -7.324  15.237  67.552  1.00  0.00    -0.223 A  
HETATM   28  C   UNL     1      -8.543  14.539  67.822  1.00  0.00    -0.176 A  
ENDBRANCH  15  20
ENDBRANCH  13  14
ENDBRANCH  12  13
ENDBRANCH   3  12
TORSDOF 4
ENDMDL
MODEL      241
REMARK 921   NORMALIZED FREE ENERGY PREDICTED BY IDOCK:   -3.34 KCAL/MOL
REMARK 922        TOTAL FREE ENERGY PREDICTED BY IDOCK:   -4.64 KCAL/MOL
REMARK 923 INTER-LIGAND FREE ENERGY PREDICTED BY IDOCK:   -4.28 KCAL/MOL
REMARK 924 INTRA-LIGAND FREE ENERGY PREDICTED BY IDOCK:   -0.36 KCAL/MOL
REMARK 927      BINDING AFFINITY PREDICTED BY RF-SCORE:    0.00 PKD
ROOT
HETATM    1 CL   UNL     1      -9.745   2.764  68.436  1.00  0.00    -0.083 Cl 
HETATM    2  C   UNL     1      -8.739   3.382  67.175  1.00  0.00    -0.122 A  
HETATM    3  C   UNL     1      -7.472   3.965  67.455  1.00  0.00    -0.068 A  
HETATM    4  O   UNL     1      -8.163   6.632  62.615  1.00  0.00    -0.090 OA 
HETATM    5  C   UNL     1      -6.619   4.339  66.401  1.00  0.00    -0.045 A  
HETATM    6  C   UNL     1      -7.182   4.440  65.146  1.00  0.00    -0.067 A  
HETATM    7  N   UNL     1      -8.999   4.837  63.851  1.00  0.00    -0.116 NA 
HETATM    8  C   UNL     1      -6.678   5.192  63.952  1.00  0.00    -0.045 C  
HETATM    9  C   UNL     1      -9.288   3.480  65.898  1.00  0.00    -0.159 A  
HETATM   10  C   UNL     1      -8.525   4.127  64.953  1.00  0.00    -0.115 A  
HETATM   11  C   UNL     1      -7.999   5.677  63.355  1.00  0.00    -0.105 C  
ENDROOT
BRANCH   3  12
HETATM   12  C   UNL     1      -7.282   4.726  68.758  1.00  0.00    -0.057 C  
BRANCH  12  13
HETATM   13  C   UNL     1      -6.580   6.088  68.810  1.00  0.00    -0.055 C  
BRANCH  13  14
HETATM   14  N   UNL     1      -7.609   7.130  69.024  1.00  0.00    -0.098 NA 
HETATM   15  N   UNL     1      -8.672   8.554  66.609  1.00  0.00    -0.121 NA 
HETATM   16  C   UNL     1      -7.201   8.469  68.560  1.00  0.00    -0.081 C  
HETATM   17  C   UNL     1      -8.948   6.818  68.477  1.00  0.00    -0.121 C  
HETATM   18  C   UNL     1      -9.341   7.309  67.038  1.00  0.00    -0.148 C  
HETATM   19  C   UNL     1      -7.267   8.609  67.034  1.00  0.00    -0.076 C  
BRANCH  15  20
HETATM   20  C   UNL     1      -9.339   9.765  66.626  1.00  0.00    -0.158 A  
HETATM   21  N   UNL     1      -9.479  10.509  65.537  1.00  0.00    -0.200 NA 
HETATM   22  S   UNL     1     -10.520  11.753  65.814  1.00  0.00    -0.270 SA 
HETATM   23  C   UNL     1     -10.866  11.332  67.439  1.00  0.00    -0.262 A  
HETATM   24  C   UNL     1     -11.763  11.953  68.319  1.00  0.00    -0.385 A  
HETATM   25  C   UNL     1     -11.872  11.439  69.614  1.00  0.00    -0.431 A  
HETATM   26  C   UNL     1     -11.099  10.352  70.000  1.00  0.00    -0.379 A  
HETATM   27  C   UNL     1     -10.226   9.726  69.109  1.00  0.00    -0.211 A  
HETATM   28  C   UNL     1     -10.077  10.235  67.781  1.00  0.00    -0.213 A  
ENDBRANCH  15  20
ENDBRANCH  13  14
ENDBRANCH  12  13
ENDBRANCH   3  12
TORSDOF 4
ENDMDL
MODEL      242
REMARK 921   NORMALIZED FREE ENERGY PREDICTED BY IDOCK:   -3.34 KCAL/MOL
REMARK 922        TOTAL FREE ENERGY PREDICTED BY IDOCK:   -4.64 KCAL/MOL
REMARK 923 INTER-LIGAND FREE ENERGY PREDICTED BY IDOCK:   -4.02 KCAL/MOL
REMARK 924 INTRA-LIGAND FREE ENERGY PREDICTED BY IDOCK:   -0.62 KCAL/MOL
REMARK 927      BINDING AFFINITY PREDICTED BY RF-SCORE:    0.00 PKD
ROOT
HETATM    1 CL   UNL     1     -10.435  11.113  65.521  1.00  0.00    -0.323 Cl 
HETATM    2  C   UNL     1      -9.955  10.634  67.110  1.00  0.00    -0.195 A  
HETATM    3  C   UNL     1      -8.613  10.782  67.556  1.00  0.00    -0.125 A  
HETATM    4  O   UNL     1      -9.861   6.712  71.147  1.00  0.00    -0.181 OA 
HETATM    5  C   UNL     1      -8.280  10.507  68.895  1.00  0.00    -0.141 A  
HETATM    6  C   UNL     1      -9.194   9.783  69.631  1.00  0.00    -0.239 A  
HETATM    7  N   UNL     1     -10.861   8.249  69.704  1.00  0.00    -0.197 NA 
HETATM    8  C   UNL     1      -8.971   8.992  70.885  1.00  0.00    -0.300 C  
HETATM    9  C   UNL     1     -10.871   9.912  67.873  1.00  0.00    -0.312 A  
HETATM   10  C   UNL     1     -10.407   9.401  69.064  1.00  0.00    -0.210 A  
HETATM   11  C   UNL     1      -9.923   7.821  70.644  1.00  0.00    -0.186 C  
ENDROOT
BRANCH   3  12
HETATM   12  C   UNL     1      -7.481  10.633  66.552  1.00  0.00    -0.134 C  
BRANCH  12  13
HETATM   13  C   UNL     1      -6.151   9.964  66.920  1.00  0.00    -0.063 C  
BRANCH  13  14
HETATM   14  N   UNL     1      -6.124   8.619  66.302  1.00  0.00    -0.054 NA 
HETATM   15  N   UNL     1      -7.811   6.479  67.553  1.00  0.00    -0.111 NA 
HETATM   16  C   UNL     1      -5.645   7.560  67.210  1.00  0.00    -0.031 C  
HETATM   17  C   UNL     1      -7.394   8.182  65.682  1.00  0.00    -0.076 C  
HETATM   18  C   UNL     1      -8.420   7.330  66.511  1.00  0.00    -0.125 C  
HETATM   19  C   UNL     1      -6.701   7.148  68.244  1.00  0.00    -0.061 C  
BRANCH  15  20
HETATM   20  C   UNL     1      -7.648   5.120  67.360  1.00  0.00    -0.088 A  
HETATM   21  N   UNL     1      -7.055   4.345  68.257  1.00  0.00    -0.059 NA 
HETATM   22  S   UNL     1      -7.232   2.758  67.862  1.00  0.00    -0.049 SA 
HETATM   23  C   UNL     1      -8.160   3.033  66.447  1.00  0.00    -0.085 A  
HETATM   24  C   UNL     1      -8.734   2.082  65.592  1.00  0.00    -0.119 A  
HETATM   25  C   UNL     1      -9.445   2.544  64.481  1.00  0.00    -0.132 A  
HETATM   26  C   UNL     1      -9.558   3.907  64.244  1.00  0.00    -0.168 A  
HETATM   27  C   UNL     1      -9.002   4.847  65.113  1.00  0.00    -0.152 A  
HETATM   28  C   UNL     1      -8.254   4.410  66.252  1.00  0.00    -0.102 A  
ENDBRANCH  15  20
ENDBRANCH  13  14
ENDBRANCH  12  13
ENDBRANCH   3  12
TORSDOF 4
ENDMDL
MODEL      243
REMARK 921   NORMALIZED FREE ENERGY PREDICTED BY IDOCK:   -3.29 KCAL/MOL
REMARK 922        TOTAL FREE ENERGY PREDICTED BY IDOCK:   -4.59 KCAL/MOL
REMARK 923 INTER-LIGAND FREE ENERGY PREDICTED BY IDOCK:   -4.82 KCAL/MOL
REMARK 924 INTRA-LIGAND FREE ENERGY PREDICTED BY IDOCK:    0.24 KCAL/MOL
REMARK 927      BINDING AFFINITY PREDICTED BY RF-SCORE:    0.00 PKD
ROOT
HETATM    1 CL   UNL     1     -11.396   6.398  67.788  1.00  0.00    -0.252 Cl 
HETATM    2  C   UNL     1     -10.533   5.857  69.184  1.00  0.00    -0.270 A  
HETATM    3  C   UNL     1      -9.385   5.027  69.070  1.00  0.00    -0.176 A  
HETATM    4  O   UNL     1     -10.607   3.439  74.266  1.00  0.00    -0.187 OA 
HETATM    5  C   UNL     1      -8.627   4.711  70.212  1.00  0.00    -0.105 A  
HETATM    6  C   UNL     1      -9.218   4.937  71.437  1.00  0.00    -0.188 A  
HETATM    7  N   UNL     1     -11.096   5.095  72.696  1.00  0.00    -0.248 NA 
HETATM    8  C   UNL     1      -8.872   4.339  72.768  1.00  0.00    -0.111 C  
HETATM    9  C   UNL     1     -11.111   6.088  70.431  1.00  0.00    -0.399 A  
HETATM   10  C   UNL     1     -10.488   5.503  71.510  1.00  0.00    -0.235 A  
HETATM   11  C   UNL     1     -10.267   4.202  73.378  1.00  0.00    -0.152 C  
ENDROOT
BRANCH   3  12
HETATM   12  C   UNL     1      -9.311   4.021  67.931  1.00  0.00    -0.220 C  
BRANCH  12  13
HETATM   13  C   UNL     1      -7.974   3.567  67.332  1.00  0.00    -0.082 C  
BRANCH  13  14
HETATM   14  N   UNL     1      -7.849   4.158  65.981  1.00  0.00    -0.094 NA 
HETATM   15  N   UNL     1      -6.701   6.920  65.772  1.00  0.00    -0.051 NA 
HETATM   16  C   UNL     1      -8.618   5.404  65.807  1.00  0.00    -0.139 C  
HETATM   17  C   UNL     1      -6.463   4.379  65.514  1.00  0.00    -0.040 C  
HETATM   18  C   UNL     1      -5.772   5.772  65.738  1.00  0.00    -0.013 C  
HETATM   19  C   UNL     1      -7.949   6.609  66.481  1.00  0.00    -0.106 C  
BRANCH  15  20
HETATM   20  C   UNL     1      -6.836   7.760  64.682  1.00  0.00    -0.054 A  
HETATM   21  N   UNL     1      -6.117   7.608  63.579  1.00  0.00    -0.053 NA 
HETATM   22  S   UNL     1      -6.672   8.591  62.383  1.00  0.00    -0.094 SA 
HETATM   23  C   UNL     1      -7.953   9.270  63.296  1.00  0.00    -0.145 A  
HETATM   24  C   UNL     1      -8.925  10.188  62.873  1.00  0.00    -0.262 A  
HETATM   25  C   UNL     1      -9.874  10.615  63.805  1.00  0.00    -0.394 A  
HETATM   26  C   UNL     1      -9.834  10.139  65.108  1.00  0.00    -0.394 A  
HETATM   27  C   UNL     1      -8.877   9.208  65.515  1.00  0.00    -0.229 A  
HETATM   28  C   UNL     1      -7.880   8.761  64.592  1.00  0.00    -0.127 A  
ENDBRANCH  15  20
ENDBRANCH  13  14
ENDBRANCH  12  13
ENDBRANCH   3  12
TORSDOF 4
ENDMDL
MODEL      244
REMARK 921   NORMALIZED FREE ENERGY PREDICTED BY IDOCK:   -3.29 KCAL/MOL
REMARK 922        TOTAL FREE ENERGY PREDICTED BY IDOCK:   -4.57 KCAL/MOL
REMARK 923 INTER-LIGAND FREE ENERGY PREDICTED BY IDOCK:   -4.48 KCAL/MOL
REMARK 924 INTRA-LIGAND FREE ENERGY PREDICTED BY IDOCK:   -0.10 KCAL/MOL
REMARK 927      BINDING AFFINITY PREDICTED BY RF-SCORE:    0.00 PKD
ROOT
HETATM    1 CL   UNL     1      -7.840   8.444  66.517  1.00  0.00    -0.092 Cl 
HETATM    2  C   UNL     1      -8.662   8.676  68.018  1.00  0.00    -0.141 A  
HETATM    3  C   UNL     1      -8.063   9.394  69.089  1.00  0.00    -0.107 A  
HETATM    4  O   UNL     1     -11.520   6.484  72.344  1.00  0.00    -0.268 OA 
HETATM    5  C   UNL     1      -8.805   9.680  70.249  1.00  0.00    -0.253 A  
HETATM    6  C   UNL     1      -9.967   8.963  70.442  1.00  0.00    -0.230 A  
HETATM    7  N   UNL     1     -11.164   7.066  70.113  1.00  0.00    -0.284 NA 
HETATM    8  C   UNL     1     -10.722   8.727  71.715  1.00  0.00    -0.413 C  
HETATM    9  C   UNL     1      -9.845   7.967  68.225  1.00  0.00    -0.190 A  
HETATM   10  C   UNL     1     -10.389   8.041  69.487  1.00  0.00    -0.221 A  
HETATM   11  C   UNL     1     -11.200   7.293  71.490  1.00  0.00    -0.245 C  
ENDROOT
BRANCH   3  12
HETATM   12  C   UNL     1      -6.555   9.324  69.273  1.00  0.00    -0.049 C  
BRANCH  12  13
HETATM   13  C   UNL     1      -5.663  10.567  69.163  1.00  0.00    -0.040 C  
BRANCH  13  14
HETATM   14  N   UNL     1      -6.509  11.707  68.745  1.00  0.00    -0.059 NA 
HETATM   15  N   UNL     1      -5.228  14.414  68.612  1.00  0.00    -0.090 NA 
HETATM   16  C   UNL     1      -6.618  12.767  69.765  1.00  0.00     0.071 C  
HETATM   17  C   UNL     1      -6.148  12.322  67.449  1.00  0.00    -0.153 C  
HETATM   18  C   UNL     1      -5.180  13.558  67.409  1.00  0.00     0.250 C  
HETATM   19  C   UNL     1      -5.356  13.635  69.850  1.00  0.00    -0.092 C  
BRANCH  15  20
HETATM   20  C   UNL     1      -5.907  15.619  68.603  1.00  0.00    -0.101 A  
HETATM   21  N   UNL     1      -5.438  16.699  69.213  1.00  0.00    -0.135 NA 
HETATM   22  S   UNL     1      -6.332  18.023  68.820  1.00  0.00    -0.227 SA 
HETATM   23  C   UNL     1      -7.404  17.202  67.764  1.00  0.00    -0.169 A  
HETATM   24  C   UNL     1      -8.440  17.745  66.992  1.00  0.00    -0.245 A  
HETATM   25  C   UNL     1      -9.199  16.873  66.207  1.00  0.00    -0.299 A  
HETATM   26  C   UNL     1      -8.925  15.513  66.213  1.00  0.00    -0.362 A  
HETATM   27  C   UNL     1      -7.876  14.984  66.967  1.00  0.00    -0.164 A  
HETATM   28  C   UNL     1      -7.089  15.845  67.795  1.00  0.00    -0.168 A  
ENDBRANCH  15  20
ENDBRANCH  13  14
ENDBRANCH  12  13
ENDBRANCH   3  12
TORSDOF 4
ENDMDL
MODEL      245
REMARK 921   NORMALIZED FREE ENERGY PREDICTED BY IDOCK:   -3.29 KCAL/MOL
REMARK 922        TOTAL FREE ENERGY PREDICTED BY IDOCK:   -4.57 KCAL/MOL
REMARK 923 INTER-LIGAND FREE ENERGY PREDICTED BY IDOCK:   -4.81 KCAL/MOL
REMARK 924 INTRA-LIGAND FREE ENERGY PREDICTED BY IDOCK:    0.24 KCAL/MOL
REMARK 927      BINDING AFFINITY PREDICTED BY RF-SCORE:    0.00 PKD
ROOT
HETATM    1 CL   UNL     1      -8.646  14.953  67.592  1.00  0.00    -0.169 Cl 
HETATM    2  C   UNL     1     -10.100  14.517  66.768  1.00  0.00    -0.264 A  
HETATM    3  C   UNL     1     -11.295  14.220  67.479  1.00  0.00    -0.346 A  
HETATM    4  O   UNL     1     -12.705  11.310  62.945  1.00  0.00     0.076 OA 
HETATM    5  C   UNL     1     -12.495  13.997  66.780  1.00  0.00    -0.238 A  
HETATM    6  C   UNL     1     -12.394  13.740  65.429  1.00  0.00    -0.504 A  
HETATM    7  N   UNL     1     -11.197  12.931  63.683  1.00  0.00    -0.415 NA 
HETATM    8  C   UNL     1     -13.385  13.071  64.526  1.00  0.00     0.636 C  
HETATM    9  C   UNL     1     -10.018  14.265  65.399  1.00  0.00    -0.334 A  
HETATM   10  C   UNL     1     -11.151  13.760  64.802  1.00  0.00    -0.377 A  
HETATM   11  C   UNL     1     -12.441  12.302  63.602  1.00  0.00    -0.541 C  
ENDROOT
BRANCH   3  12
HETATM   12  C   UNL     1     -11.197  13.559  68.845  1.00  0.00    -0.316 C  
BRANCH  12  13
HETATM   13  C   UNL     1     -11.880  12.221  69.153  1.00  0.00    -0.301 C  
BRANCH  13  14
HETATM   14  N   UNL     1     -10.843  11.165  69.164  1.00  0.00    -0.227 NA 
HETATM   15  N   UNL     1      -9.256  10.748  66.654  1.00  0.00    -0.163 NA 
HETATM   16  C   UNL     1     -11.069  10.105  68.163  1.00  0.00    -0.230 C  
HETATM   17  C   UNL     1      -9.449  11.646  69.048  1.00  0.00     0.139 C  
HETATM   18  C   UNL     1      -8.762  11.732  67.639  1.00  0.00    -0.159 C  
HETATM   19  C   UNL     1     -10.709  10.551  66.740  1.00  0.00    -0.188 C  
BRANCH  15  20
HETATM   20  C   UNL     1      -8.526   9.614  66.351  1.00  0.00    -0.123 A  
HETATM   21  N   UNL     1      -7.950   9.440  65.169  1.00  0.00    -0.112 NA 
HETATM   22  S   UNL     1      -6.958   8.128  65.194  1.00  0.00    -0.063 SA 
HETATM   23  C   UNL     1      -7.236   7.731  66.837  1.00  0.00    -0.089 A  
HETATM   24  C   UNL     1      -6.645   6.706  67.590  1.00  0.00    -0.054 A  
HETATM   25  C   UNL     1      -7.038   6.562  68.923  1.00  0.00    -0.082 A  
HETATM   26  C   UNL     1      -7.994   7.411  69.463  1.00  0.00    -0.127 A  
HETATM   27  C   UNL     1      -8.560   8.443  68.713  1.00  0.00    -0.135 A  
HETATM   28  C   UNL     1      -8.193   8.610  67.341  1.00  0.00    -0.105 A  
ENDBRANCH  15  20
ENDBRANCH  13  14
ENDBRANCH  12  13
ENDBRANCH   3  12
TORSDOF 4
ENDMDL
MODEL      246
REMARK 921   NORMALIZED FREE ENERGY PREDICTED BY IDOCK:   -3.28 KCAL/MOL
REMARK 922        TOTAL FREE ENERGY PREDICTED BY IDOCK:   -4.57 KCAL/MOL
REMARK 923 INTER-LIGAND FREE ENERGY PREDICTED BY IDOCK:   -5.32 KCAL/MOL
REMARK 924 INTRA-LIGAND FREE ENERGY PREDICTED BY IDOCK:    0.76 KCAL/MOL
REMARK 927      BINDING AFFINITY PREDICTED BY RF-SCORE:    0.00 PKD
ROOT
HETATM    1 CL   UNL     1      -9.499   9.147  70.732  1.00  0.00    -0.307 Cl 
HETATM    2  C   UNL     1      -9.067   7.993  69.521  1.00  0.00    -0.152 A  
HETATM    3  C   UNL     1      -8.097   8.291  68.525  1.00  0.00    -0.123 A  
HETATM    4  O   UNL     1     -10.661   4.358  65.530  1.00  0.00    -0.256 OA 
HETATM    5  C   UNL     1      -7.669   7.290  67.634  1.00  0.00    -0.112 A  
HETATM    6  C   UNL     1      -8.452   6.158  67.543  1.00  0.00    -0.108 A  
HETATM    7  N   UNL     1     -10.489   5.178  67.709  1.00  0.00    -0.098 NA 
HETATM    8  C   UNL     1      -8.513   5.148  66.437  1.00  0.00    -0.112 C  
HETATM    9  C   UNL     1      -9.839   6.837  69.423  1.00  0.00    -0.162 A  
HETATM   10  C   UNL     1      -9.579   6.017  68.348  1.00  0.00    -0.120 A  
HETATM   11  C   UNL     1     -10.005   4.817  66.449  1.00  0.00    -0.241 C  
ENDROOT
BRANCH   3  12
HETATM   12  C   UNL     1      -7.975   9.720  68.018  1.00  0.00    -0.097 C  
BRANCH  12  13
HETATM   13  C   UNL     1      -7.978  10.054  66.521  1.00  0.00    -0.115 C  
BRANCH  13  14
HETATM   14  N   UNL     1      -8.404  11.463  66.364  1.00  0.00    -0.163 NA 
HETATM   15  N   UNL     1      -9.611  12.825  68.746  1.00  0.00     0.010 NA 
HETATM   16  C   UNL     1      -9.844  11.676  66.601  1.00  0.00    -0.200 C  
HETATM   17  C   UNL     1      -7.635  12.448  67.156  1.00  0.00    -0.104 C  
HETATM   18  C   UNL     1      -8.145  12.883  68.576  1.00  0.00    -0.080 C  
HETATM   19  C   UNL     1     -10.206  11.652  68.092  1.00  0.00    -0.197 C  
BRANCH  15  20
HETATM   20  C   UNL     1     -10.380  13.974  68.704  1.00  0.00    -0.238 A  
HETATM   21  N   UNL     1     -11.408  14.166  69.520  1.00  0.00    -0.263 NA 
HETATM   22  S   UNL     1     -11.963  15.710  69.401  1.00  0.00    -0.262 SA 
HETATM   23  C   UNL     1     -10.809  16.221  68.241  1.00  0.00    -0.340 A  
HETATM   24  C   UNL     1     -10.642  17.502  67.695  1.00  0.00    -0.355 A  
HETATM   25  C   UNL     1      -9.633  17.683  66.747  1.00  0.00    -0.297 A  
HETATM   26  C   UNL     1      -8.837  16.613  66.363  1.00  0.00    -0.337 A  
HETATM   27  C   UNL     1      -8.996  15.347  66.928  1.00  0.00    -0.273 A  
HETATM   28  C   UNL     1     -10.029  15.121  67.891  1.00  0.00    -0.221 A  
ENDBRANCH  15  20
ENDBRANCH  13  14
ENDBRANCH  12  13
ENDBRANCH   3  12
TORSDOF 4
ENDMDL
MODEL      247
REMARK 921   NORMALIZED FREE ENERGY PREDICTED BY IDOCK:   -3.27 KCAL/MOL
REMARK 922        TOTAL FREE ENERGY PREDICTED BY IDOCK:   -4.55 KCAL/MOL
REMARK 923 INTER-LIGAND FREE ENERGY PREDICTED BY IDOCK:   -5.37 KCAL/MOL
REMARK 924 INTRA-LIGAND FREE ENERGY PREDICTED BY IDOCK:    0.82 KCAL/MOL
REMARK 927      BINDING AFFINITY PREDICTED BY RF-SCORE:    0.00 PKD
ROOT
HETATM    1 CL   UNL     1      -9.840  17.359  68.101  1.00  0.00    -0.287 Cl 
HETATM    2  C   UNL     1      -8.825  15.976  67.890  1.00  0.00    -0.180 A  
HETATM    3  C   UNL     1      -9.236  14.869  67.099  1.00  0.00    -0.231 A  
HETATM    4  O   UNL     1      -5.624  11.946  70.169  1.00  0.00    -0.102 OA 
HETATM    5  C   UNL     1      -8.339  13.817  66.837  1.00  0.00    -0.029 A  
HETATM    6  C   UNL     1      -7.217  13.739  67.635  1.00  0.00    -0.183 A  
HETATM    7  N   UNL     1      -6.208  14.139  69.625  1.00  0.00    -0.119 NA 
HETATM    8  C   UNL     1      -6.330  12.558  67.891  1.00  0.00    -0.103 C  
HETATM    9  C   UNL     1      -7.680  15.887  68.680  1.00  0.00    -0.161 A  
HETATM   10  C   UNL     1      -6.982  14.703  68.612  1.00  0.00    -0.111 A  
HETATM   11  C   UNL     1      -5.988  12.785  69.363  1.00  0.00    -0.104 C  
ENDROOT
BRANCH   3  12
HETATM   12  C   UNL     1     -10.712  14.503  67.050  1.00  0.00    -0.291 C  
BRANCH  12  13
HETATM   13  C   UNL     1     -11.187  13.046  66.981  1.00  0.00    -0.289 C  
BRANCH  13  14
HETATM   14  N   UNL     1     -10.119  12.185  67.537  1.00  0.00    -0.195 NA 
HETATM   15  N   UNL     1     -10.954   9.737  69.053  1.00  0.00    -0.198 NA 
HETATM   16  C   UNL     1     -10.171  12.053  69.005  1.00  0.00     0.040 C  
HETATM   17  C   UNL     1     -10.015  10.838  66.936  1.00  0.00    -0.200 C  
HETATM   18  C   UNL     1     -10.767   9.625  67.592  1.00  0.00    -0.262 C  
HETATM   19  C   UNL     1     -11.284  11.105  69.472  1.00  0.00    -0.277 C  
BRANCH  15  20
HETATM   20  C   UNL     1     -10.153   9.030  69.931  1.00  0.00    -0.201 A  
HETATM   21  N   UNL     1      -8.894   9.370  70.169  1.00  0.00    -0.204 NA 
HETATM   22  S   UNL     1      -8.286   8.504  71.428  1.00  0.00    -0.158 SA 
HETATM   23  C   UNL     1      -9.722   7.625  71.745  1.00  0.00    -0.161 A  
HETATM   24  C   UNL     1      -9.960   6.698  72.769  1.00  0.00    -0.187 A  
HETATM   25  C   UNL     1     -11.217   6.090  72.825  1.00  0.00    -0.299 A  
HETATM   26  C   UNL     1     -12.184   6.403  71.880  1.00  0.00    -0.332 A  
HETATM   27  C   UNL     1     -11.947   7.344  70.877  1.00  0.00    -0.308 A  
HETATM   28  C   UNL     1     -10.666   7.974  70.780  1.00  0.00    -0.236 A  
ENDBRANCH  15  20
ENDBRANCH  13  14
ENDBRANCH  12  13
ENDBRANCH   3  12
TORSDOF 4
ENDMDL
MODEL      248
REMARK 921   NORMALIZED FREE ENERGY PREDICTED BY IDOCK:   -3.23 KCAL/MOL
REMARK 922        TOTAL FREE ENERGY PREDICTED BY IDOCK:   -4.51 KCAL/MOL
REMARK 923 INTER-LIGAND FREE ENERGY PREDICTED BY IDOCK:   -4.40 KCAL/MOL
REMARK 924 INTRA-LIGAND FREE ENERGY PREDICTED BY IDOCK:   -0.11 KCAL/MOL
REMARK 927      BINDING AFFINITY PREDICTED BY RF-SCORE:    0.00 PKD
ROOT
HETATM    1 CL   UNL     1      -5.436   8.011  63.049  1.00  0.00    -0.058 Cl 
HETATM    2  C   UNL     1      -6.653   7.742  64.246  1.00  0.00    -0.056 A  
HETATM    3  C   UNL     1      -7.923   8.376  64.169  1.00  0.00    -0.151 A  
HETATM    4  O   UNL     1      -8.126   7.577  69.677  1.00  0.00    -0.122 OA 
HETATM    5  C   UNL     1      -8.938   8.037  65.083  1.00  0.00     0.162 A  
HETATM    6  C   UNL     1      -8.554   7.359  66.220  1.00  0.00    -0.148 A  
HETATM    7  N   UNL     1      -6.967   6.893  67.770  1.00  0.00    -0.080 NA 
HETATM    8  C   UNL     1      -9.278   7.237  67.527  1.00  0.00    -0.138 C  
HETATM    9  C   UNL     1      -6.285   7.048  65.398  1.00  0.00    -0.037 A  
HETATM   10  C   UNL     1      -7.223   6.993  66.404  1.00  0.00    -0.075 A  
HETATM   11  C   UNL     1      -8.099   7.263  68.499  1.00  0.00    -0.125 C  
ENDROOT
BRANCH   3  12
HETATM   12  C   UNL     1      -8.017   9.769  63.567  1.00  0.00    -0.145 C  
BRANCH  12  13
HETATM   13  C   UNL     1      -9.341  10.542  63.507  1.00  0.00    -0.293 C  
BRANCH  13  14
HETATM   14  N   UNL     1      -9.162  11.821  64.230  1.00  0.00     0.151 NA 
HETATM   15  N   UNL     1     -10.902  12.324  66.619  1.00  0.00    -0.249 NA 
HETATM   16  C   UNL     1     -10.374  12.660  64.256  1.00  0.00    -0.374 C  
HETATM   17  C   UNL     1      -8.630  11.701  65.605  1.00  0.00     0.203 C  
HETATM   18  C   UNL     1      -9.617  11.624  66.824  1.00  0.00    -0.192 C  
HETATM   19  C   UNL     1     -11.421  12.153  65.256  1.00  0.00    -0.336 C  
BRANCH  15  20
HETATM   20  C   UNL     1     -11.139  13.562  67.187  1.00  0.00    -0.293 A  
HETATM   21  N   UNL     1     -12.110  13.760  68.068  1.00  0.00    -0.339 NA 
HETATM   22  S   UNL     1     -11.986  15.255  68.742  1.00  0.00    -0.186 SA 
HETATM   23  C   UNL     1     -10.575  15.716  67.887  1.00  0.00    -0.278 A  
HETATM   24  C   UNL     1      -9.840  16.904  68.008  1.00  0.00    -0.264 A  
HETATM   25  C   UNL     1      -8.719  17.068  67.190  1.00  0.00    -0.226 A  
HETATM   26  C   UNL     1      -8.367  16.077  66.285  1.00  0.00    -0.287 A  
HETATM   27  C   UNL     1      -9.091  14.888  66.187  1.00  0.00    -0.202 A  
HETATM   28  C   UNL     1     -10.253  14.693  66.997  1.00  0.00    -0.261 A  
ENDBRANCH  15  20
ENDBRANCH  13  14
ENDBRANCH  12  13
ENDBRANCH   3  12
TORSDOF 4
ENDMDL
MODEL      249
REMARK 921   NORMALIZED FREE ENERGY PREDICTED BY IDOCK:   -3.22 KCAL/MOL
REMARK 922        TOTAL FREE ENERGY PREDICTED BY IDOCK:   -4.49 KCAL/MOL
REMARK 923 INTER-LIGAND FREE ENERGY PREDICTED BY IDOCK:   -4.60 KCAL/MOL
REMARK 924 INTRA-LIGAND FREE ENERGY PREDICTED BY IDOCK:    0.12 KCAL/MOL
REMARK 927      BINDING AFFINITY PREDICTED BY RF-SCORE:    0.00 PKD
ROOT
HETATM    1 CL   UNL     1     -11.010  16.819  69.579  1.00  0.00    -0.245 Cl 
HETATM    2  C   UNL     1      -9.940  17.519  68.417  1.00  0.00    -0.335 A  
HETATM    3  C   UNL     1     -10.406  17.949  67.145  1.00  0.00    -0.371 A  
HETATM    4  O   UNL     1      -5.130  17.247  65.507  1.00  0.00    -0.204 OA 
HETATM    5  C   UNL     1      -9.542  18.634  66.271  1.00  0.00    -0.295 A  
HETATM    6  C   UNL     1      -8.192  18.561  66.542  1.00  0.00    -0.299 A  
HETATM    7  N   UNL     1      -6.440  17.429  67.429  1.00  0.00    -0.141 NA 
HETATM    8  C   UNL     1      -7.037  18.801  65.618  1.00  0.00    -0.219 C  
HETATM    9  C   UNL     1      -8.573  17.465  68.681  1.00  0.00    -0.259 A  
HETATM   10  C   UNL     1      -7.738  17.877  67.667  1.00  0.00    -0.213 A  
HETATM   11  C   UNL     1      -6.054  17.746  66.125  1.00  0.00    -0.226 C  
ENDROOT
BRANCH   3  12
HETATM   12  C   UNL     1     -11.548  17.193  66.482  1.00  0.00     1.541 C  
BRANCH  12  13
HETATM   13  C   UNL     1     -11.875  15.737  66.838  1.00  0.00     0.603 C  
BRANCH  13  14
HETATM   14  N   UNL     1     -10.689  14.908  66.523  1.00  0.00    -0.303 NA 
HETATM   15  N   UNL     1     -11.126  11.980  66.051  1.00  0.00    -0.308 NA 
HETATM   16  C   UNL     1     -10.447  13.829  67.499  1.00  0.00    -0.245 C  
HETATM   17  C   UNL     1     -10.660  14.338  65.158  1.00  0.00    -0.406 C  
HETATM   18  C   UNL     1     -11.226  12.897  64.897  1.00  0.00    -0.300 C  
HETATM   19  C   UNL     1     -11.414  12.650  67.326  1.00  0.00    -0.342 C  
BRANCH  15  20
HETATM   20  C   UNL     1     -10.145  11.007  66.106  1.00  0.00    -0.237 A  
HETATM   21  N   UNL     1      -9.758  10.458  67.250  1.00  0.00    -0.162 NA 
HETATM   22  S   UNL     1      -8.768   9.174  66.972  1.00  0.00    -0.124 SA 
HETATM   23  C   UNL     1      -8.828   9.275  65.262  1.00  0.00    -0.198 A  
HETATM   24  C   UNL     1      -8.233   8.418  64.325  1.00  0.00    -0.130 A  
HETATM   25  C   UNL     1      -8.409   8.706  62.969  1.00  0.00    -0.153 A  
HETATM   26  C   UNL     1      -9.146   9.817  62.583  1.00  0.00    -0.297 A  
HETATM   27  C   UNL     1      -9.755  10.651  63.523  1.00  0.00    -0.389 A  
HETATM   28  C   UNL     1      -9.582  10.395  64.919  1.00  0.00    -0.348 A  
ENDBRANCH  15  20
ENDBRANCH  13  14
ENDBRANCH  12  13
ENDBRANCH   3  12
TORSDOF 4
ENDMDL
MODEL      250
REMARK 921   NORMALIZED FREE ENERGY PREDICTED BY IDOCK:   -3.18 KCAL/MOL
REMARK 922        TOTAL FREE ENERGY PREDICTED BY IDOCK:   -4.44 KCAL/MOL
REMARK 923 INTER-LIGAND FREE ENERGY PREDICTED BY IDOCK:   -3.92 KCAL/MOL
REMARK 924 INTRA-LIGAND FREE ENERGY PREDICTED BY IDOCK:   -0.52 KCAL/MOL
REMARK 927      BINDING AFFINITY PREDICTED BY RF-SCORE:    0.00 PKD
ROOT
HETATM    1 CL   UNL     1      -7.601   5.843  66.220  1.00  0.00    -0.092 Cl 
HETATM    2  C   UNL     1      -8.183   7.468  66.159  1.00  0.00    -0.125 A  
HETATM    3  C   UNL     1      -7.296   8.577  66.234  1.00  0.00    -0.079 A  
HETATM    4  O   UNL     1     -11.738  11.396  68.060  1.00  0.00    -0.484 OA 
HETATM    5  C   UNL     1      -7.782   9.884  66.050  1.00  0.00    -0.108 A  
HETATM    6  C   UNL     1      -9.147  10.062  66.142  1.00  0.00    -0.188 A  
HETATM    7  N   UNL     1     -11.145   9.409  66.989  1.00  0.00     0.142 NA 
HETATM    8  C   UNL     1      -9.911  11.323  66.412  1.00  0.00    -0.243 C  
HETATM    9  C   UNL     1      -9.560   7.666  66.238  1.00  0.00    -0.155 A  
HETATM   10  C   UNL     1      -9.985   8.970  66.355  1.00  0.00    -0.300 A  
HETATM   11  C   UNL     1     -11.054  10.775  67.265  1.00  0.00    -0.270 C  
ENDROOT
BRANCH   3  12
HETATM   12  C   UNL     1      -6.034   8.457  67.075  1.00  0.00    -0.053 C  
BRANCH  12  13
HETATM   13  C   UNL     1      -5.573   9.577  68.016  1.00  0.00    -0.040 C  
BRANCH  13  14
HETATM   14  N   UNL     1      -5.374   8.995  69.362  1.00  0.00    -0.035 NA 
HETATM   15  N   UNL     1      -7.622   7.394  70.533  1.00  0.00    -0.085 NA 
HETATM   16  C   UNL     1      -6.347   9.473  70.363  1.00  0.00    -0.073 C  
HETATM   17  C   UNL     1      -5.319   7.518  69.412  1.00  0.00    -0.015 C  
HETATM   18  C   UNL     1      -6.624   6.693  69.699  1.00  0.00    -0.048 C  
HETATM   19  C   UNL     1      -7.727   8.821  70.201  1.00  0.00    -0.084 C  
BRANCH  15  20
HETATM   20  C   UNL     1      -7.772   7.090  71.874  1.00  0.00    -0.093 A  
HETATM   21  N   UNL     1      -7.049   7.679  72.817  1.00  0.00    -0.071 NA 
HETATM   22  S   UNL     1      -7.621   7.296  74.311  1.00  0.00    -0.129 SA 
HETATM   23  C   UNL     1      -8.914   6.318  73.757  1.00  0.00    -0.128 A  
HETATM   24  C   UNL     1      -9.901   5.678  74.520  1.00  0.00    -0.246 A  
HETATM   25  C   UNL     1     -10.859   4.915  73.846  1.00  0.00    -0.355 A  
HETATM   26  C   UNL     1     -10.811   4.800  72.464  1.00  0.00    -0.208 A  
HETATM   27  C   UNL     1      -9.838   5.460  71.711  1.00  0.00    -0.223 A  
HETATM   28  C   UNL     1      -8.833   6.236  72.368  1.00  0.00    -0.131 A  
ENDBRANCH  15  20
ENDBRANCH  13  14
ENDBRANCH  12  13
ENDBRANCH   3  12
TORSDOF 4
ENDMDL
MODEL      251
REMARK 921   NORMALIZED FREE ENERGY PREDICTED BY IDOCK:   -3.16 KCAL/MOL
REMARK 922        TOTAL FREE ENERGY PREDICTED BY IDOCK:   -4.42 KCAL/MOL
REMARK 923 INTER-LIGAND FREE ENERGY PREDICTED BY IDOCK:   -5.07 KCAL/MOL
REMARK 924 INTRA-LIGAND FREE ENERGY PREDICTED BY IDOCK:    0.64 KCAL/MOL
REMARK 927      BINDING AFFINITY PREDICTED BY RF-SCORE:    0.00 PKD
ROOT
HETATM    1 CL   UNL     1      -6.357   6.029  67.397  1.00  0.00    -0.036 Cl 
HETATM    2  C   UNL     1      -7.093   5.613  68.904  1.00  0.00    -0.069 A  
HETATM    3  C   UNL     1      -8.421   6.012  69.216  1.00  0.00    -0.115 A  
HETATM    4  O   UNL     1      -6.831   5.464  74.525  1.00  0.00    -0.075 OA 
HETATM    5  C   UNL     1      -9.040   5.548  70.391  1.00  0.00    -0.164 A  
HETATM    6  C   UNL     1      -8.220   5.004  71.357  1.00  0.00    -0.113 A  
HETATM    7  N   UNL     1      -6.187   4.898  72.354  1.00  0.00    -0.028 NA 
HETATM    8  C   UNL     1      -8.488   4.823  72.821  1.00  0.00    -0.112 C  
HETATM    9  C   UNL     1      -6.281   5.051  69.888  1.00  0.00    -0.026 A  
HETATM   10  C   UNL     1      -6.851   4.884  71.129  1.00  0.00    -0.043 A  
HETATM   11  C   UNL     1      -7.099   5.101  73.392  1.00  0.00    -0.078 C  
ENDROOT
BRANCH   3  12
HETATM   12  C   UNL     1      -8.940   7.336  68.677  1.00  0.00    -0.128 C  
BRANCH  12  13
HETATM   13  C   UNL     1      -8.124   8.630  68.775  1.00  0.00    -0.116 C  
BRANCH  13  14
HETATM   14  N   UNL     1      -8.579   9.546  67.705  1.00  0.00    -0.122 NA 
HETATM   15  N   UNL     1      -9.833  12.140  68.533  1.00  0.00    -0.195 NA 
HETATM   16  C   UNL     1     -10.025   9.833  67.748  1.00  0.00    -0.168 C  
HETATM   17  C   UNL     1      -7.838  10.822  67.606  1.00  0.00    -0.109 C  
HETATM   18  C   UNL     1      -8.367  12.097  68.355  1.00  0.00    -0.143 C  
HETATM   19  C   UNL     1     -10.397  10.824  68.859  1.00  0.00    -0.202 C  
BRANCH  15  20
HETATM   20  C   UNL     1     -10.626  12.936  67.727  1.00  0.00    -0.222 A  
HETATM   21  N   UNL     1     -11.048  14.133  68.113  1.00  0.00    -0.249 NA 
HETATM   22  S   UNL     1     -11.754  14.931  66.859  1.00  0.00    -0.171 SA 
HETATM   23  C   UNL     1     -11.502  13.694  65.701  1.00  0.00    -0.308 A  
HETATM   24  C   UNL     1     -11.816  13.713  64.334  1.00  0.00    -0.460 A  
HETATM   25  C   UNL     1     -11.528  12.574  63.579  1.00  0.00    -0.570 A  
HETATM   26  C   UNL     1     -10.956  11.463  64.185  1.00  0.00    -0.411 A  
HETATM   27  C   UNL     1     -10.625  11.462  65.541  1.00  0.00    -0.328 A  
HETATM   28  C   UNL     1     -10.921  12.605  66.348  1.00  0.00    -0.304 A  
ENDBRANCH  15  20
ENDBRANCH  13  14
ENDBRANCH  12  13
ENDBRANCH   3  12
TORSDOF 4
ENDMDL
MODEL      252
REMARK 921   NORMALIZED FREE ENERGY PREDICTED BY IDOCK:   -3.10 KCAL/MOL
REMARK 922        TOTAL FREE ENERGY PREDICTED BY IDOCK:   -4.35 KCAL/MOL
REMARK 923 INTER-LIGAND FREE ENERGY PREDICTED BY IDOCK:   -3.75 KCAL/MOL
REMARK 924 INTRA-LIGAND FREE ENERGY PREDICTED BY IDOCK:   -0.60 KCAL/MOL
REMARK 927      BINDING AFFINITY PREDICTED BY RF-SCORE:    0.00 PKD
ROOT
HETATM    1 CL   UNL     1      -7.916   9.441  65.157  1.00  0.00    -0.112 Cl 
HETATM    2  C   UNL     1      -8.842   8.152  65.838  1.00  0.00    -0.158 A  
HETATM    3  C   UNL     1      -9.714   8.367  66.940  1.00  0.00    -0.292 A  
HETATM    4  O   UNL     1      -9.038   2.926  67.921  1.00  0.00    -0.142 OA 
HETATM    5  C   UNL     1     -10.553   7.330  67.389  1.00  0.00    -0.370 A  
HETATM    6  C   UNL     1     -10.253   6.054  66.963  1.00  0.00    -0.253 A  
HETATM    7  N   UNL     1      -8.714   4.542  66.268  1.00  0.00    -0.112 NA 
HETATM    8  C   UNL     1     -10.660   4.744  67.568  1.00  0.00     0.157 C  
HETATM    9  C   UNL     1      -8.560   6.856  65.409  1.00  0.00    -0.054 A  
HETATM   10  C   UNL     1      -9.193   5.838  66.086  1.00  0.00    -0.156 A  
HETATM   11  C   UNL     1      -9.400   3.919  67.313  1.00  0.00    -0.191 C  
ENDROOT
BRANCH   3  12
HETATM   12  C   UNL     1      -9.343   9.411  67.982  1.00  0.00    -0.140 C  
BRANCH  12  13
HETATM   13  C   UNL     1     -10.289   9.790  69.128  1.00  0.00    -0.211 C  
BRANCH  13  14
HETATM   14  N   UNL     1      -9.561   9.619  70.404  1.00  0.00    -0.259 NA 
HETATM   15  N   UNL     1      -8.006   7.084  70.791  1.00  0.00    -0.100 NA 
HETATM   16  C   UNL     1      -9.999   8.445  71.183  1.00  0.00    -0.194 C  
HETATM   17  C   UNL     1      -8.085   9.599  70.293  1.00  0.00    -0.183 C  
HETATM   18  C   UNL     1      -7.328   8.231  70.152  1.00  0.00    -0.056 C  
HETATM   19  C   UNL     1      -9.463   7.126  70.612  1.00  0.00    -0.161 C  
BRANCH  15  20
HETATM   20  C   UNL     1      -7.577   6.589  72.008  1.00  0.00    -0.093 A  
HETATM   21  N   UNL     1      -7.088   7.375  72.958  1.00  0.00    -0.068 NA 
HETATM   22  S   UNL     1      -6.899   6.539  74.362  1.00  0.00    -0.088 SA 
HETATM   23  C   UNL     1      -7.502   5.052  73.763  1.00  0.00    -0.087 A  
HETATM   24  C   UNL     1      -7.692   3.852  74.463  1.00  0.00    -0.074 A  
HETATM   25  C   UNL     1      -8.189   2.753  73.757  1.00  0.00    -0.072 A  
HETATM   26  C   UNL     1      -8.471   2.864  72.403  1.00  0.00    -0.078 A  
HETATM   27  C   UNL     1      -8.300   4.070  71.720  1.00  0.00    -0.098 A  
HETATM   28  C   UNL     1      -7.778   5.210  72.406  1.00  0.00    -0.097 A  
ENDBRANCH  15  20
ENDBRANCH  13  14
ENDBRANCH  12  13
ENDBRANCH   3  12
TORSDOF 4
ENDMDL
MODEL      253
REMARK 921   NORMALIZED FREE ENERGY PREDICTED BY IDOCK:   -3.04 KCAL/MOL
REMARK 922        TOTAL FREE ENERGY PREDICTED BY IDOCK:   -4.27 KCAL/MOL
REMARK 923 INTER-LIGAND FREE ENERGY PREDICTED BY IDOCK:   -5.67 KCAL/MOL
REMARK 924 INTRA-LIGAND FREE ENERGY PREDICTED BY IDOCK:    1.39 KCAL/MOL
REMARK 927      BINDING AFFINITY PREDICTED BY RF-SCORE:    0.00 PKD
ROOT
HETATM    1 CL   UNL     1      -9.206   9.938  65.693  1.00  0.00    -0.222 Cl 
HETATM    2  C   UNL     1      -9.761   9.145  67.123  1.00  0.00    -0.182 A  
HETATM    3  C   UNL     1     -10.391   9.866  68.174  1.00  0.00    -0.232 A  
HETATM    4  O   UNL     1      -8.729   5.654  71.417  1.00  0.00    -0.130 OA 
HETATM    5  C   UNL     1     -10.951   9.177  69.266  1.00  0.00    -0.081 A  
HETATM    6  C   UNL     1     -10.568   7.863  69.439  1.00  0.00    -0.209 A  
HETATM    7  N   UNL     1      -9.015   6.235  69.174  1.00  0.00    -0.128 NA 
HETATM    8  C   UNL     1     -10.637   7.024  70.679  1.00  0.00    -0.246 C  
HETATM    9  C   UNL     1      -9.394   7.813  67.309  1.00  0.00    -0.175 A  
HETATM   10  C   UNL     1      -9.707   7.257  68.529  1.00  0.00    -0.149 A  
HETATM   11  C   UNL     1      -9.356   6.204  70.528  1.00  0.00    -0.161 C  
ENDROOT
BRANCH   3  12
HETATM   12  C   UNL     1      -9.958  11.297  68.451  1.00  0.00    -0.201 C  
BRANCH  12  13
HETATM   13  C   UNL     1      -9.593  12.270  67.322  1.00  0.00    -0.187 C  
BRANCH  13  14
HETATM   14  N   UNL     1      -9.920  13.641  67.772  1.00  0.00    -0.230 NA 
HETATM   15  N   UNL     1     -10.510  15.692  65.665  1.00  0.00    -0.357 NA 
HETATM   16  C   UNL     1      -8.982  14.665  67.274  1.00  0.00    -0.205 C  
HETATM   17  C   UNL     1     -11.305  14.084  67.498  1.00  0.00    -0.321 C  
HETATM   18  C   UNL     1     -11.629  14.879  66.184  1.00  0.00    -0.228 C  
HETATM   19  C   UNL     1      -9.215  15.011  65.797  1.00  0.00    -0.003 C  
BRANCH  15  20
HETATM   20  C   UNL     1     -10.476  17.061  65.853  1.00  0.00    -0.274 A  
HETATM   21  N   UNL     1     -10.921  17.911  64.937  1.00  0.00    -0.608 NA 
HETATM   22  S   UNL     1     -10.978  19.439  65.541  1.00  0.00     0.375 SA 
HETATM   23  C   UNL     1     -10.421  19.028  67.109  1.00  0.00    -0.441 A  
HETATM   24  C   UNL     1     -10.269  19.869  68.220  1.00  0.00    -0.562 A  
HETATM   25  C   UNL     1      -9.782  19.309  69.404  1.00  0.00    -0.181 A  
HETATM   26  C   UNL     1      -9.454  17.962  69.454  1.00  0.00     0.276 A  
HETATM   27  C   UNL     1      -9.629  17.127  68.349  1.00  0.00    -0.281 A  
HETATM   28  C   UNL     1     -10.111  17.669  67.116  1.00  0.00    -0.328 A  
ENDBRANCH  15  20
ENDBRANCH  13  14
ENDBRANCH  12  13
ENDBRANCH   3  12
TORSDOF 4
ENDMDL
MODEL      254
REMARK 921   NORMALIZED FREE ENERGY PREDICTED BY IDOCK:   -2.96 KCAL/MOL
REMARK 922        TOTAL FREE ENERGY PREDICTED BY IDOCK:   -4.17 KCAL/MOL
REMARK 923 INTER-LIGAND FREE ENERGY PREDICTED BY IDOCK:   -4.33 KCAL/MOL
REMARK 924 INTRA-LIGAND FREE ENERGY PREDICTED BY IDOCK:    0.16 KCAL/MOL
REMARK 927      BINDING AFFINITY PREDICTED BY RF-SCORE:    0.00 PKD
ROOT
HETATM    1 CL   UNL     1      -8.523   8.023  67.640  1.00  0.00    -0.130 Cl 
HETATM    2  C   UNL     1      -9.073   7.227  69.072  1.00  0.00    -0.133 A  
HETATM    3  C   UNL     1      -9.989   7.852  69.962  1.00  0.00    -0.191 A  
HETATM    4  O   UNL     1      -7.866   4.416  73.797  1.00  0.00    -0.084 OA 
HETATM    5  C   UNL     1     -10.520   7.132  71.048  1.00  0.00    -0.230 A  
HETATM    6  C   UNL     1      -9.874   5.966  71.401  1.00  0.00    -0.205 A  
HETATM    7  N   UNL     1      -7.968   4.743  71.489  1.00  0.00    -0.099 NA 
HETATM    8  C   UNL     1      -9.918   5.229  72.706  1.00  0.00    -0.189 C  
HETATM    9  C   UNL     1      -8.439   6.041  69.437  1.00  0.00    -0.115 A  
HETATM   10  C   UNL     1      -8.780   5.518  70.664  1.00  0.00    -0.129 A  
HETATM   11  C   UNL     1      -8.475   4.732  72.790  1.00  0.00    -0.112 C  
ENDROOT
BRANCH   3  12
HETATM   12  C   UNL     1      -9.937   9.362  70.136  1.00  0.00    -0.269 C  
BRANCH  12  13
HETATM   13  C   UNL     1     -11.102  10.269  69.723  1.00  0.00    -0.287 C  
BRANCH  13  14
HETATM   14  N   UNL     1     -10.539  11.490  69.103  1.00  0.00    -0.180 NA 
HETATM   15  N   UNL     1     -12.191  12.884  67.026  1.00  0.00    -0.391 NA 
HETATM   16  C   UNL     1     -10.362  11.384  67.643  1.00  0.00    -0.183 C  
HETATM   17  C   UNL     1     -11.260  12.745  69.411  1.00  0.00    -0.132 C  
HETATM   18  C   UNL     1     -12.379  13.266  68.440  1.00  0.00     0.142 C  
HETATM   19  C   UNL     1     -11.686  11.513  66.877  1.00  0.00     0.050 C  
BRANCH  15  20
HETATM   20  C   UNL     1     -11.710  13.791  66.100  1.00  0.00    -0.370 A  
HETATM   21  N   UNL     1     -12.439  14.206  65.072  1.00  0.00    -0.553 NA 
HETATM   22  S   UNL     1     -11.696  15.454  64.300  1.00  0.00    -0.059 SA 
HETATM   23  C   UNL     1     -10.340  15.523  65.343  1.00  0.00    -0.394 A  
HETATM   24  C   UNL     1      -9.272  16.432  65.314  1.00  0.00     0.978 A  
HETATM   25  C   UNL     1      -8.261  16.286  66.267  1.00  0.00    -0.312 A  
HETATM   26  C   UNL     1      -8.325  15.260  67.200  1.00  0.00    -0.244 A  
HETATM   27  C   UNL     1      -9.403  14.374  67.236  1.00  0.00    -0.211 A  
HETATM   28  C   UNL     1     -10.448  14.483  66.266  1.00  0.00    -0.303 A  
ENDBRANCH  15  20
ENDBRANCH  13  14
ENDBRANCH  12  13
ENDBRANCH   3  12
TORSDOF 4
ENDMDL
MODEL      255
REMARK 921   NORMALIZED FREE ENERGY PREDICTED BY IDOCK:   -2.96 KCAL/MOL
REMARK 922        TOTAL FREE ENERGY PREDICTED BY IDOCK:   -4.17 KCAL/MOL
REMARK 923 INTER-LIGAND FREE ENERGY PREDICTED BY IDOCK:   -4.06 KCAL/MOL
REMARK 924 INTRA-LIGAND FREE ENERGY PREDICTED BY IDOCK:   -0.12 KCAL/MOL
REMARK 927      BINDING AFFINITY PREDICTED BY RF-SCORE:    0.00 PKD
ROOT
HETATM    1 CL   UNL     1      -7.898   8.486  66.580  1.00  0.00    -0.089 Cl 
HETATM    2  C   UNL     1      -9.002   8.683  67.894  1.00  0.00    -0.140 A  
HETATM    3  C   UNL     1      -8.685   9.501  69.013  1.00  0.00    -0.142 A  
HETATM    4  O   UNL     1     -12.375   6.356  71.753  1.00  0.00    -0.333 OA 
HETATM    5  C   UNL     1      -9.653   9.748  70.004  1.00  0.00    -0.282 A  
HETATM    6  C   UNL     1     -10.753   8.916  70.024  1.00  0.00    -0.241 A  
HETATM    7  N   UNL     1     -11.673   6.891  69.593  1.00  0.00    -0.098 NA 
HETATM    8  C   UNL     1     -11.703   8.647  71.153  1.00  0.00    -0.334 C  
HETATM    9  C   UNL     1     -10.125   7.859  67.925  1.00  0.00    -0.240 A  
HETATM   10  C   UNL     1     -10.897   7.920  69.063  1.00  0.00    -0.007 A  
HETATM   11  C   UNL     1     -11.985   7.163  70.926  1.00  0.00    -0.334 C  
ENDROOT
BRANCH   3  12
HETATM   12  C   UNL     1      -7.237   9.601  69.468  1.00  0.00    -0.080 C  
BRANCH  12  13
HETATM   13  C   UNL     1      -6.643   8.642  70.508  1.00  0.00    -0.039 C  
BRANCH  13  14
HETATM   14  N   UNL     1      -7.622   7.559  70.750  1.00  0.00    -0.080 NA 
HETATM   15  N   UNL     1      -6.692   5.164  72.294  1.00  0.00    -0.051 NA 
HETATM   16  C   UNL     1      -7.222   6.261  70.175  1.00  0.00    -0.080 C  
HETATM   17  C   UNL     1      -8.009   7.360  72.164  1.00  0.00    -0.093 C  
HETATM   18  C   UNL     1      -7.246   6.308  73.045  1.00  0.00    -0.087 C  
HETATM   19  C   UNL     1      -6.131   5.563  70.997  1.00  0.00    -0.029 C  
BRANCH  15  20
HETATM   20  C   UNL     1      -7.319   3.931  72.308  1.00  0.00    -0.057 A  
HETATM   21  N   UNL     1      -6.667   2.804  72.054  1.00  0.00    -0.015 NA 
HETATM   22  S   UNL     1      -7.611   1.499  72.387  1.00  0.00    -0.040 SA 
HETATM   23  C   UNL     1      -8.966   2.398  72.927  1.00  0.00    -0.070 A  
HETATM   24  C   UNL     1     -10.176   1.911  73.442  1.00  0.00    -0.178 A  
HETATM   25  C   UNL     1     -11.153   2.840  73.811  1.00  0.00    -0.304 A  
HETATM   26  C   UNL     1     -10.916   4.198  73.655  1.00  0.00    -0.351 A  
HETATM   27  C   UNL     1      -9.700   4.675  73.162  1.00  0.00    -0.158 A  
HETATM   28  C   UNL     1      -8.684   3.752  72.760  1.00  0.00    -0.101 A  
ENDBRANCH  15  20
ENDBRANCH  13  14
ENDBRANCH  12  13
ENDBRANCH   3  12
TORSDOF 4
ENDMDL
MODEL      256
REMARK 921   NORMALIZED FREE ENERGY PREDICTED BY IDOCK:   -2.94 KCAL/MOL
REMARK 922        TOTAL FREE ENERGY PREDICTED BY IDOCK:   -4.15 KCAL/MOL
REMARK 923 INTER-LIGAND FREE ENERGY PREDICTED BY IDOCK:   -3.21 KCAL/MOL
REMARK 924 INTRA-LIGAND FREE ENERGY PREDICTED BY IDOCK:   -0.95 KCAL/MOL
REMARK 927      BINDING AFFINITY PREDICTED BY RF-SCORE:    0.00 PKD
ROOT
HETATM    1 CL   UNL     1     -10.362  11.218  65.509  1.00  0.00    -0.308 Cl 
HETATM    2  C   UNL     1     -10.099  10.863  67.179  1.00  0.00    -0.198 A  
HETATM    3  C   UNL     1      -8.834  11.073  67.791  1.00  0.00    -0.133 A  
HETATM    4  O   UNL     1     -10.511   7.239  71.466  1.00  0.00    -0.203 OA 
HETATM    5  C   UNL     1      -8.684  10.901  69.180  1.00  0.00    -0.055 A  
HETATM    6  C   UNL     1      -9.681  10.210  69.835  1.00  0.00    -0.195 A  
HETATM    7  N   UNL     1     -11.323   8.648  69.792  1.00  0.00     0.020 NA 
HETATM    8  C   UNL     1      -9.622   9.515  71.162  1.00  0.00    -0.082 C  
HETATM    9  C   UNL     1     -11.102  10.176  67.860  1.00  0.00    -0.303 A  
HETATM   10  C   UNL     1     -10.800   9.761  69.138  1.00  0.00    -0.207 A  
HETATM   11  C   UNL     1     -10.517   8.308  70.881  1.00  0.00    -0.196 C  
ENDROOT
BRANCH   3  12
HETATM   12  C   UNL     1      -7.572  10.879  66.964  1.00  0.00    -0.122 C  
BRANCH  12  13
HETATM   13  C   UNL     1      -6.262  10.375  67.584  1.00  0.00    -0.056 C  
BRANCH  13  14
HETATM   14  N   UNL     1      -6.066   8.968  67.169  1.00  0.00    -0.057 NA 
HETATM   15  N   UNL     1      -7.397   6.837  68.805  1.00  0.00    -0.091 NA 
HETATM   16  C   UNL     1      -5.416   8.134  68.197  1.00  0.00    -0.034 C  
HETATM   17  C   UNL     1      -7.281   8.276  66.685  1.00  0.00    -0.081 C  
HETATM   18  C   UNL     1      -8.151   7.430  67.681  1.00  0.00    -0.114 C  
HETATM   19  C   UNL     1      -6.372   7.746  69.333  1.00  0.00    -0.035 C  
BRANCH  15  20
HETATM   20  C   UNL     1      -7.051   5.498  68.804  1.00  0.00    -0.065 A  
HETATM   21  N   UNL     1      -5.910   5.063  68.288  1.00  0.00    -0.017 NA 
HETATM   22  S   UNL     1      -5.674   3.477  68.655  1.00  0.00    -0.023 SA 
HETATM   23  C   UNL     1      -7.110   3.294  69.570  1.00  0.00    -0.041 A  
HETATM   24  C   UNL     1      -7.552   2.160  70.266  1.00  0.00    -0.042 A  
HETATM   25  C   UNL     1      -8.774   2.239  70.939  1.00  0.00    -0.115 A  
HETATM   26  C   UNL     1      -9.518   3.411  70.898  1.00  0.00    -0.234 A  
HETATM   27  C   UNL     1      -9.059   4.542  70.221  1.00  0.00    -0.159 A  
HETATM   28  C   UNL     1      -7.820   4.492  69.509  1.00  0.00    -0.058 A  
ENDBRANCH  15  20
ENDBRANCH  13  14
ENDBRANCH  12  13
ENDBRANCH   3  12
TORSDOF 4
ENDMDL
MODEL      257
REMARK 921   NORMALIZED FREE ENERGY PREDICTED BY IDOCK:   -2.90 KCAL/MOL
REMARK 922        TOTAL FREE ENERGY PREDICTED BY IDOCK:   -4.10 KCAL/MOL
REMARK 923 INTER-LIGAND FREE ENERGY PREDICTED BY IDOCK:   -4.18 KCAL/MOL
REMARK 924 INTRA-LIGAND FREE ENERGY PREDICTED BY IDOCK:    0.08 KCAL/MOL
REMARK 927      BINDING AFFINITY PREDICTED BY RF-SCORE:    0.00 PKD
ROOT
HETATM    1 CL   UNL     1      -6.149   8.016  67.429  1.00  0.00    -0.049 Cl 
HETATM    2  C   UNL     1      -6.983   7.195  66.157  1.00  0.00    -0.065 A  
HETATM    3  C   UNL     1      -8.034   7.822  65.435  1.00  0.00    -0.125 A  
HETATM    4  O   UNL     1      -9.740   2.633  64.351  1.00  0.00    -0.151 OA 
HETATM    5  C   UNL     1      -8.605   7.181  64.320  1.00  0.00     0.402 A  
HETATM    6  C   UNL     1      -8.357   5.831  64.180  1.00  0.00    -0.047 A  
HETATM    7  N   UNL     1      -7.892   3.826  65.129  1.00  0.00    -0.085 NA 
HETATM    8  C   UNL     1      -9.125   4.815  63.391  1.00  0.00    -0.026 C  
HETATM    9  C   UNL     1      -6.735   5.834  65.994  1.00  0.00    -0.056 A  
HETATM   10  C   UNL     1      -7.532   5.172  65.087  1.00  0.00    -0.073 A  
HETATM   11  C   UNL     1      -9.000   3.601  64.310  1.00  0.00    -0.120 C  
ENDROOT
BRANCH   3  12
HETATM   12  C   UNL     1      -8.933   8.818  66.153  1.00  0.00    -0.225 C  
BRANCH  12  13
HETATM   13  C   UNL     1      -9.833   9.798  65.391  1.00  0.00    -0.295 C  
BRANCH  13  14
HETATM   14  N   UNL     1      -9.230  11.146  65.483  1.00  0.00    -0.216 NA 
HETATM   15  N   UNL     1     -10.292  13.004  67.583  1.00  0.00    -0.220 NA 
HETATM   16  C   UNL     1     -10.193  12.241  65.262  1.00  0.00    -0.278 C  
HETATM   17  C   UNL     1      -8.471  11.416  66.724  1.00  0.00    -0.165 C  
HETATM   18  C   UNL     1      -9.182  12.100  67.946  1.00  0.00    -0.188 C  
HETATM   19  C   UNL     1     -11.102  12.480  66.475  1.00  0.00    -0.287 C  
BRANCH  15  20
HETATM   20  C   UNL     1     -10.126  14.377  67.592  1.00  0.00    -0.222 A  
HETATM   21  N   UNL     1     -11.155  15.213  67.598  1.00  0.00    -0.310 NA 
HETATM   22  S   UNL     1     -10.648  16.756  67.857  1.00  0.00    -0.345 SA 
HETATM   23  C   UNL     1      -8.985  16.371  68.004  1.00  0.00    -0.185 A  
HETATM   24  C   UNL     1      -7.921  17.235  68.300  1.00  0.00    -0.244 A  
HETATM   25  C   UNL     1      -6.634  16.695  68.357  1.00  0.00    -0.140 A  
HETATM   26  C   UNL     1      -6.435  15.342  68.115  1.00  0.00    -0.133 A  
HETATM   27  C   UNL     1      -7.503  14.486  67.843  1.00  0.00    -0.159 A  
HETATM   28  C   UNL     1      -8.832  15.007  67.762  1.00  0.00    -0.172 A  
ENDBRANCH  15  20
ENDBRANCH  13  14
ENDBRANCH  12  13
ENDBRANCH   3  12
TORSDOF 4
ENDMDL
MODEL      258
REMARK 921   NORMALIZED FREE ENERGY PREDICTED BY IDOCK:   -2.87 KCAL/MOL
REMARK 922        TOTAL FREE ENERGY PREDICTED BY IDOCK:   -4.06 KCAL/MOL
REMARK 923 INTER-LIGAND FREE ENERGY PREDICTED BY IDOCK:   -4.04 KCAL/MOL
REMARK 924 INTRA-LIGAND FREE ENERGY PREDICTED BY IDOCK:   -0.02 KCAL/MOL
REMARK 927      BINDING AFFINITY PREDICTED BY RF-SCORE:    0.00 PKD
ROOT
HETATM    1 CL   UNL     1      -8.610  11.088  68.332  1.00  0.00    -0.143 Cl 
HETATM    2  C   UNL     1      -8.993  10.194  69.760  1.00  0.00    -0.132 A  
HETATM    3  C   UNL     1      -8.010   9.423  70.438  1.00  0.00    -0.190 A  
HETATM    4  O   UNL     1     -12.334   6.508  72.394  1.00  0.00    -0.159 OA 
HETATM    5  C   UNL     1      -8.317   8.812  71.668  1.00  0.00    -0.190 A  
HETATM    6  C   UNL     1      -9.652   8.704  71.997  1.00  0.00    -0.385 A  
HETATM    7  N   UNL     1     -11.813   8.523  71.338  1.00  0.00    -0.286 NA 
HETATM    8  C   UNL     1     -10.303   7.773  72.975  1.00  0.00    -0.410 C  
HETATM    9  C   UNL     1     -10.337  10.084  70.113  1.00  0.00    -0.321 A  
HETATM   10  C   UNL     1     -10.627   9.231  71.154  1.00  0.00    -0.332 A  
HETATM   11  C   UNL     1     -11.613   7.480  72.245  1.00  0.00    -0.310 C  
ENDROOT
BRANCH   3  12
HETATM   12  C   UNL     1      -6.907   8.757  69.630  1.00  0.00    -0.046 C  
BRANCH  12  13
HETATM   13  C   UNL     1      -6.324   7.392  70.019  1.00  0.00    -0.027 C  
BRANCH  13  14
HETATM   14  N   UNL     1      -6.043   6.640  68.776  1.00  0.00    -0.025 NA 
HETATM   15  N   UNL     1      -8.373   5.441  67.319  1.00  0.00    -0.108 NA 
HETATM   16  C   UNL     1      -6.465   5.227  68.832  1.00  0.00    -0.042 C  
HETATM   17  C   UNL     1      -6.568   7.249  67.534  1.00  0.00    -0.057 C  
HETATM   18  C   UNL     1      -7.976   6.824  66.986  1.00  0.00    -0.109 C  
HETATM   19  C   UNL     1      -7.983   5.059  68.682  1.00  0.00    -0.085 C  
BRANCH  15  20
HETATM   20  C   UNL     1      -8.292   4.430  66.379  1.00  0.00    -0.105 A  
HETATM   21  N   UNL     1      -8.954   3.288  66.512  1.00  0.00    -0.144 NA 
HETATM   22  S   UNL     1      -8.856   2.397  65.133  1.00  0.00    -0.123 SA 
HETATM   23  C   UNL     1      -7.922   3.534  64.256  1.00  0.00    -0.086 A  
HETATM   24  C   UNL     1      -7.494   3.457  62.923  1.00  0.00    -0.054 A  
HETATM   25  C   UNL     1      -6.724   4.508  62.419  1.00  0.00    -0.027 A  
HETATM   26  C   UNL     1      -6.394   5.583  63.234  1.00  0.00    -0.022 A  
HETATM   27  C   UNL     1      -6.843   5.662  64.553  1.00  0.00    -0.050 A  
HETATM   28  C   UNL     1      -7.620   4.596  65.106  1.00  0.00    -0.077 A  
ENDBRANCH  15  20
ENDBRANCH  13  14
ENDBRANCH  12  13
ENDBRANCH   3  12
TORSDOF 4
ENDMDL
MODEL      259
REMARK 921   NORMALIZED FREE ENERGY PREDICTED BY IDOCK:   -2.74 KCAL/MOL
REMARK 922        TOTAL FREE ENERGY PREDICTED BY IDOCK:   -3.91 KCAL/MOL
REMARK 923 INTER-LIGAND FREE ENERGY PREDICTED BY IDOCK:   -4.01 KCAL/MOL
REMARK 924 INTRA-LIGAND FREE ENERGY PREDICTED BY IDOCK:    0.10 KCAL/MOL
REMARK 927      BINDING AFFINITY PREDICTED BY RF-SCORE:    0.00 PKD
ROOT
HETATM    1 CL   UNL     1     -10.736  19.134  70.118  1.00  0.00     1.431 Cl 
HETATM    2  C   UNL     1     -10.012  19.396  68.571  1.00  0.00    -0.434 A  
HETATM    3  C   UNL     1     -10.241  18.508  67.485  1.00  0.00    -0.414 A  
HETATM    4  O   UNL     1      -5.399  20.427  65.515  1.00  0.00    -0.164 OA 
HETATM    5  C   UNL     1      -9.746  18.816  66.205  1.00  0.00    -0.280 A  
HETATM    6  C   UNL     1      -8.774  19.791  66.128  1.00  0.00    -0.368 A  
HETATM    7  N   UNL     1      -7.052  20.906  67.091  1.00  0.00    -0.353 NA 
HETATM    8  C   UNL     1      -7.782  20.040  65.032  1.00  0.00     0.624 C  
HETATM    9  C   UNL     1      -9.036  20.386  68.473  1.00  0.00     0.275 A  
HETATM   10  C   UNL     1      -8.359  20.460  67.276  1.00  0.00    -0.335 A  
HETATM   11  C   UNL     1      -6.569  20.475  65.854  1.00  0.00    -0.221 C  
ENDROOT
BRANCH   3  12
HETATM   12  C   UNL     1     -10.449  17.028  67.772  1.00  0.00    -0.349 C  
BRANCH  12  13
HETATM   13  C   UNL     1     -10.245  15.954  66.696  1.00  0.00    -0.288 C  
BRANCH  13  14
HETATM   14  N   UNL     1     -10.612  14.644  67.277  1.00  0.00    -0.280 NA 
HETATM   15  N   UNL     1      -9.167  12.220  66.264  1.00  0.00    -0.207 NA 
HETATM   16  C   UNL     1     -11.127  13.681  66.285  1.00  0.00    -0.301 C  
HETATM   17  C   UNL     1      -9.555  13.989  68.079  1.00  0.00    -0.217 C  
HETATM   18  C   UNL     1      -8.585  12.955  67.405  1.00  0.00    -0.195 C  
HETATM   19  C   UNL     1     -10.015  13.073  65.421  1.00  0.00    -0.188 C  
BRANCH  15  20
HETATM   20  C   UNL     1      -9.602  10.914  66.404  1.00  0.00    -0.197 A  
HETATM   21  N   UNL     1      -9.451  10.012  65.444  1.00  0.00    -0.229 NA 
HETATM   22  S   UNL     1      -9.837   8.510  65.992  1.00  0.00     0.081 SA 
HETATM   23  C   UNL     1     -10.210   8.999  67.592  1.00  0.00    -0.242 A  
HETATM   24  C   UNL     1     -10.578   8.192  68.678  1.00  0.00    -0.144 A  
HETATM   25  C   UNL     1     -10.849   8.818  69.897  1.00  0.00    -0.211 A  
HETATM   26  C   UNL     1     -10.761  10.199  70.006  1.00  0.00    -0.356 A  
HETATM   27  C   UNL     1     -10.372  10.992  68.925  1.00  0.00    -0.223 A  
HETATM   28  C   UNL     1     -10.101  10.387  67.658  1.00  0.00    -0.223 A  
ENDBRANCH  15  20
ENDBRANCH  13  14
ENDBRANCH  12  13
ENDBRANCH   3  12
TORSDOF 4
ENDMDL
MODEL      260
REMARK 921   NORMALIZED FREE ENERGY PREDICTED BY IDOCK:   -2.68 KCAL/MOL
REMARK 922        TOTAL FREE ENERGY PREDICTED BY IDOCK:   -3.83 KCAL/MOL
REMARK 923 INTER-LIGAND FREE ENERGY PREDICTED BY IDOCK:   -4.13 KCAL/MOL
REMARK 924 INTRA-LIGAND FREE ENERGY PREDICTED BY IDOCK:    0.30 KCAL/MOL
REMARK 927      BINDING AFFINITY PREDICTED BY RF-SCORE:    0.00 PKD
ROOT
HETATM    1 CL   UNL     1      -6.140   8.487  71.247  1.00  0.00    -0.038 Cl 
HETATM    2  C   UNL     1      -7.575   7.570  70.951  1.00  0.00    -0.081 A  
HETATM    3  C   UNL     1      -8.173   7.526  69.663  1.00  0.00    -0.129 A  
HETATM    4  O   UNL     1     -12.854   6.266  72.405  1.00  0.00    -0.050 OA 
HETATM    5  C   UNL     1      -9.262   6.669  69.420  1.00  0.00    -0.142 A  
HETATM    6  C   UNL     1      -9.918   6.163  70.522  1.00  0.00    -0.223 A  
HETATM    7  N   UNL     1     -10.540   6.382  72.690  1.00  0.00    -0.214 NA 
HETATM    8  C   UNL     1     -11.305   5.601  70.611  1.00  0.00     0.051 C  
HETATM    9  C   UNL     1      -8.244   7.041  72.054  1.00  0.00    -0.101 A  
HETATM   10  C   UNL     1      -9.467   6.462  71.805  1.00  0.00    -0.153 A  
HETATM   11  C   UNL     1     -11.718   6.103  71.993  1.00  0.00    -0.299 C  
ENDROOT
BRANCH   3  12
HETATM   12  C   UNL     1      -8.087   8.751  68.765  1.00  0.00    -0.115 C  
BRANCH  12  13
HETATM   13  C   UNL     1      -9.337   9.503  68.292  1.00  0.00    -0.133 C  
BRANCH  13  14
HETATM   14  N   UNL     1      -8.899  10.663  67.483  1.00  0.00    -0.132 NA 
HETATM   15  N   UNL     1      -9.951  13.365  68.244  1.00  0.00    -0.237 NA 
HETATM   16  C   UNL     1     -10.009  11.376  66.824  1.00  0.00    -0.208 C  
HETATM   17  C   UNL     1      -8.050  11.645  68.193  1.00  0.00    -0.148 C  
HETATM   18  C   UNL     1      -8.705  12.895  68.881  1.00  0.00     0.330 C  
HETATM   19  C   UNL     1     -10.804  12.257  67.797  1.00  0.00    -0.221 C  
BRANCH  15  20
HETATM   20  C   UNL     1      -9.957  14.479  67.424  1.00  0.00    -0.227 A  
HETATM   21  N   UNL     1      -8.942  15.332  67.384  1.00  0.00    -0.177 NA 
HETATM   22  S   UNL     1      -9.131  16.402  66.149  1.00  0.00    -0.295 SA 
HETATM   23  C   UNL     1     -10.606  15.746  65.574  1.00  0.00    -0.406 A  
HETATM   24  C   UNL     1     -11.351  16.145  64.455  1.00  0.00    -0.273 A  
HETATM   25  C   UNL     1     -12.541  15.465  64.184  1.00  0.00     0.284 A  
HETATM   26  C   UNL     1     -12.961  14.436  65.015  1.00  0.00     0.029 A  
HETATM   27  C   UNL     1     -12.201  14.031  66.114  1.00  0.00    -0.494 A  
HETATM   28  C   UNL     1     -10.986  14.714  66.431  1.00  0.00    -0.325 A  
ENDBRANCH  15  20
ENDBRANCH  13  14
ENDBRANCH  12  13
ENDBRANCH   3  12
TORSDOF 4
ENDMDL
MODEL      261
REMARK 921   NORMALIZED FREE ENERGY PREDICTED BY IDOCK:   -2.68 KCAL/MOL
REMARK 922        TOTAL FREE ENERGY PREDICTED BY IDOCK:   -3.83 KCAL/MOL
REMARK 923 INTER-LIGAND FREE ENERGY PREDICTED BY IDOCK:   -4.87 KCAL/MOL
REMARK 924 INTRA-LIGAND FREE ENERGY PREDICTED BY IDOCK:    1.04 KCAL/MOL
REMARK 927      BINDING AFFINITY PREDICTED BY RF-SCORE:    0.00 PKD
ROOT
HETATM    1 CL   UNL     1      -5.271   8.423  66.081  1.00  0.00    -0.027 Cl 
HETATM    2  C   UNL     1      -6.249   7.128  65.487  1.00  0.00    -0.037 A  
HETATM    3  C   UNL     1      -7.666   7.233  65.435  1.00  0.00    -0.111 A  
HETATM    4  O   UNL     1      -7.606   1.666  65.590  1.00  0.00    -0.063 OA 
HETATM    5  C   UNL     1      -8.427   6.218  64.826  1.00  0.00     0.013 A  
HETATM    6  C   UNL     1      -7.798   5.009  64.610  1.00  0.00    -0.093 A  
HETATM    7  N   UNL     1      -6.215   3.501  65.208  1.00  0.00    -0.023 NA 
HETATM    8  C   UNL     1      -8.413   3.660  64.392  1.00  0.00    -0.093 C  
HETATM    9  C   UNL     1      -5.628   5.903  65.252  1.00  0.00    -0.020 A  
HETATM   10  C   UNL     1      -6.455   4.848  64.941  1.00  0.00    -0.035 A  
HETATM   11  C   UNL     1      -7.406   2.776  65.128  1.00  0.00    -0.067 C  
ENDROOT
BRANCH   3  12
HETATM   12  C   UNL     1      -8.386   8.047  66.498  1.00  0.00    -0.121 C  
BRANCH  12  13
HETATM   13  C   UNL     1      -7.662   8.589  67.737  1.00  0.00    -0.103 C  
BRANCH  13  14
HETATM   14  N   UNL     1      -7.911  10.045  67.817  1.00  0.00    -0.094 NA 
HETATM   15  N   UNL     1     -10.747  10.988  67.581  1.00  0.00    -0.220 NA 
HETATM   16  C   UNL     1      -8.539  10.605  66.605  1.00  0.00    -0.139 C  
HETATM   17  C   UNL     1      -8.671  10.494  69.004  1.00  0.00    -0.156 C  
HETATM   18  C   UNL     1     -10.232  10.649  68.923  1.00  0.00    -0.201 C  
HETATM   19  C   UNL     1     -10.035  10.277  66.511  1.00  0.00    -0.224 C  
BRANCH  15  20
HETATM   20  C   UNL     1     -11.136  12.278  67.272  1.00  0.00    -0.275 A  
HETATM   21  N   UNL     1     -10.943  13.293  68.103  1.00  0.00    -0.246 NA 
HETATM   22  S   UNL     1     -11.280  14.723  67.363  1.00  0.00    -0.349 SA 
HETATM   23  C   UNL     1     -11.687  14.041  65.844  1.00  0.00    -0.366 A  
HETATM   24  C   UNL     1     -12.037  14.710  64.663  1.00  0.00    -0.466 A  
HETATM   25  C   UNL     1     -12.344  13.939  63.539  1.00  0.00    -0.075 A  
HETATM   26  C   UNL     1     -12.306  12.554  63.613  1.00  0.00    -0.618 A  
HETATM   27  C   UNL     1     -11.934  11.897  64.787  1.00  0.00    -0.222 A  
HETATM   28  C   UNL     1     -11.629  12.654  65.962  1.00  0.00    -0.443 A  
ENDBRANCH  15  20
ENDBRANCH  13  14
ENDBRANCH  12  13
ENDBRANCH   3  12
TORSDOF 4
ENDMDL
MODEL      262
REMARK 921   NORMALIZED FREE ENERGY PREDICTED BY IDOCK:   -2.68 KCAL/MOL
REMARK 922        TOTAL FREE ENERGY PREDICTED BY IDOCK:   -3.83 KCAL/MOL
REMARK 923 INTER-LIGAND FREE ENERGY PREDICTED BY IDOCK:   -4.49 KCAL/MOL
REMARK 924 INTRA-LIGAND FREE ENERGY PREDICTED BY IDOCK:    0.66 KCAL/MOL
REMARK 927      BINDING AFFINITY PREDICTED BY RF-SCORE:    0.00 PKD
ROOT
HETATM    1 CL   UNL     1      -8.454   8.048  67.409  1.00  0.00    -0.125 Cl 
HETATM    2  C   UNL     1      -9.281   7.390  68.776  1.00  0.00    -0.144 A  
HETATM    3  C   UNL     1     -10.501   7.948  69.243  1.00  0.00    -0.221 A  
HETATM    4  O   UNL     1      -9.132   5.643  74.125  1.00  0.00    -0.122 OA 
HETATM    5  C   UNL     1     -11.219   7.314  70.274  1.00  0.00    -0.287 A  
HETATM    6  C   UNL     1     -10.543   6.369  71.017  1.00  0.00    -0.282 A  
HETATM    7  N   UNL     1      -8.590   5.581  71.855  1.00  0.00    -0.130 NA 
HETATM    8  C   UNL     1     -10.863   5.849  72.386  1.00  0.00    -0.288 C  
HETATM    9  C   UNL     1      -8.616   6.425  69.531  1.00  0.00    -0.133 A  
HETATM   10  C   UNL     1      -9.226   6.041  70.704  1.00  0.00    -0.150 A  
HETATM   11  C   UNL     1      -9.454   5.670  72.949  1.00  0.00    -0.147 C  
ENDROOT
BRANCH   3  12
HETATM   12  C   UNL     1     -10.727   9.447  69.110  1.00  0.00    -0.216 C  
BRANCH  12  13
HETATM   13  C   UNL     1     -11.638  10.040  68.028  1.00  0.00     0.446 C  
BRANCH  13  14
HETATM   14  N   UNL     1     -11.225  11.442  67.796  1.00  0.00    -0.261 NA 
HETATM   15  N   UNL     1      -8.330  11.964  67.222  1.00  0.00    -0.162 NA 
HETATM   16  C   UNL     1     -10.226  11.933  68.764  1.00  0.00    -0.143 C  
HETATM   17  C   UNL     1     -10.757  11.746  66.426  1.00  0.00    -0.266 C  
HETATM   18  C   UNL     1      -9.226  11.672  66.085  1.00  0.00    -0.219 C  
HETATM   19  C   UNL     1      -8.818  11.391  68.483  1.00  0.00    -0.151 C  
BRANCH  15  20
HETATM   20  C   UNL     1      -7.701  13.190  67.338  1.00  0.00    -0.145 A  
HETATM   21  N   UNL     1      -6.398  13.298  67.559  1.00  0.00    -0.243 NA 
HETATM   22  S   UNL     1      -5.909  14.861  67.400  1.00  0.00     0.432 SA 
HETATM   23  C   UNL     1      -7.452  15.485  66.992  1.00  0.00    -0.170 A  
HETATM   24  C   UNL     1      -7.788  16.803  66.650  1.00  0.00    -0.307 A  
HETATM   25  C   UNL     1      -9.125  17.085  66.364  1.00  0.00    -0.300 A  
HETATM   26  C   UNL     1     -10.080  16.079  66.431  1.00  0.00    -0.314 A  
HETATM   27  C   UNL     1      -9.732  14.766  66.750  1.00  0.00    -0.264 A  
HETATM   28  C   UNL     1      -8.375  14.444  67.064  1.00  0.00    -0.172 A  
ENDBRANCH  15  20
ENDBRANCH  13  14
ENDBRANCH  12  13
ENDBRANCH   3  12
TORSDOF 4
ENDMDL
MODEL      263
REMARK 921   NORMALIZED FREE ENERGY PREDICTED BY IDOCK:   -2.67 KCAL/MOL
REMARK 922        TOTAL FREE ENERGY PREDICTED BY IDOCK:   -3.81 KCAL/MOL
REMARK 923 INTER-LIGAND FREE ENERGY PREDICTED BY IDOCK:   -3.36 KCAL/MOL
REMARK 924 INTRA-LIGAND FREE ENERGY PREDICTED BY IDOCK:   -0.45 KCAL/MOL
REMARK 927      BINDING AFFINITY PREDICTED BY RF-SCORE:    0.00 PKD
ROOT
HETATM    1 CL   UNL     1     -10.906  10.773  64.958  1.00  0.00    -0.164 Cl 
HETATM    2  C   UNL     1     -11.509  11.831  66.183  1.00  0.00    -0.220 A  
HETATM    3  C   UNL     1     -12.248  13.000  65.855  1.00  0.00    -0.493 A  
HETATM    4  O   UNL     1     -10.565  14.880  70.819  1.00  0.00    -0.013 OA 
HETATM    5  C   UNL     1     -12.838  13.772  66.873  1.00  0.00     0.565 A  
HETATM    6  C   UNL     1     -12.393  13.554  68.160  1.00  0.00     0.058 A  
HETATM    7  N   UNL     1     -10.734  12.918  69.567  1.00  0.00     0.198 NA 
HETATM    8  C   UNL     1     -12.495  14.458  69.351  1.00  0.00    -0.113 C  
HETATM    9  C   UNL     1     -11.078  11.619  67.491  1.00  0.00    -0.333 A  
HETATM   10  C   UNL     1     -11.439  12.573  68.416  1.00  0.00    -0.312 A  
HETATM   11  C   UNL     1     -11.162  14.161  70.037  1.00  0.00    -0.061 C  
ENDROOT
BRANCH   3  12
HETATM   12  C   UNL     1     -11.917  13.747  64.571  1.00  0.00    -0.458 C  
BRANCH  12  13
HETATM   13  C   UNL     1     -10.789  14.784  64.501  1.00  0.00    -0.159 C  
BRANCH  13  14
HETATM   14  N   UNL     1     -10.834  15.600  65.734  1.00  0.00    -0.324 NA 
HETATM   15  N   UNL     1      -9.088  18.034  65.857  1.00  0.00    -0.492 NA 
HETATM   16  C   UNL     1      -9.535  15.699  66.426  1.00  0.00    -0.292 C  
HETATM   17  C   UNL     1     -11.399  16.958  65.574  1.00  0.00     0.562 C  
HETATM   18  C   UNL     1     -10.447  18.176  65.295  1.00  0.00     0.478 C  
HETATM   19  C   UNL     1      -8.569  16.666  65.729  1.00  0.00     0.194 C  
BRANCH  15  20
HETATM   20  C   UNL     1      -8.722  18.697  67.014  1.00  0.00    -0.280 A  
HETATM   21  N   UNL     1      -9.314  18.466  68.178  1.00  0.00    -0.306 NA 
HETATM   22  S   UNL     1      -8.505  19.212  69.399  1.00  0.00     0.319 SA 
HETATM   23  C   UNL     1      -7.273  19.878  68.412  1.00  0.00    -0.296 A  
HETATM   24  C   UNL     1      -6.156  20.625  68.810  1.00  0.00    -0.366 A  
HETATM   25  C   UNL     1      -5.283  21.079  67.818  1.00  0.00    -0.310 A  
HETATM   26  C   UNL     1      -5.538  20.797  66.483  1.00  0.00    -0.231 A  
HETATM   27  C   UNL     1      -6.641  20.032  66.098  1.00  0.00    -0.238 A  
HETATM   28  C   UNL     1      -7.564  19.565  67.085  1.00  0.00    -0.271 A  
ENDBRANCH  15  20
ENDBRANCH  13  14
ENDBRANCH  12  13
ENDBRANCH   3  12
TORSDOF 4
ENDMDL
MODEL      264
REMARK 921   NORMALIZED FREE ENERGY PREDICTED BY IDOCK:   -2.66 KCAL/MOL
REMARK 922        TOTAL FREE ENERGY PREDICTED BY IDOCK:   -3.80 KCAL/MOL
REMARK 923 INTER-LIGAND FREE ENERGY PREDICTED BY IDOCK:   -3.41 KCAL/MOL
REMARK 924 INTRA-LIGAND FREE ENERGY PREDICTED BY IDOCK:   -0.39 KCAL/MOL
REMARK 927      BINDING AFFINITY PREDICTED BY RF-SCORE:    0.00 PKD
ROOT
HETATM    1 CL   UNL     1      -6.548  10.228  69.290  1.00  0.00    -0.051 Cl 
HETATM    2  C   UNL     1      -7.684   9.597  70.429  1.00  0.00    -0.160 A  
HETATM    3  C   UNL     1      -7.257   8.942  71.616  1.00  0.00    -0.057 A  
HETATM    4  O   UNL     1     -12.241   6.461  71.467  1.00  0.00    -0.312 OA 
HETATM    5  C   UNL     1      -8.200   8.556  72.587  1.00  0.00    -0.129 A  
HETATM    6  C   UNL     1      -9.522   8.522  72.196  1.00  0.00    -0.375 A  
HETATM    7  N   UNL     1     -11.064   8.258  70.556  1.00  0.00    -0.251 NA 
HETATM    8  C   UNL     1     -10.665   7.781  72.821  1.00  0.00    -0.417 C  
HETATM    9  C   UNL     1      -9.026   9.567  70.055  1.00  0.00    -0.249 A  
HETATM   10  C   UNL     1      -9.883   8.909  70.908  1.00  0.00    -0.242 A  
HETATM   11  C   UNL     1     -11.451   7.384  71.573  1.00  0.00    -0.263 C  
ENDROOT
BRANCH   3  12
HETATM   12  C   UNL     1      -5.969   8.133  71.592  1.00  0.00    -0.037 C  
BRANCH  12  13
HETATM   13  C   UNL     1      -5.840   6.786  72.314  1.00  0.00    -0.038 C  
BRANCH  13  14
HETATM   14  N   UNL     1      -5.717   5.724  71.290  1.00  0.00    -0.020 NA 
HETATM   15  N   UNL     1      -8.201   4.916  69.819  1.00  0.00    -0.072 NA 
HETATM   16  C   UNL     1      -6.541   4.534  71.572  1.00  0.00    -0.030 C  
HETATM   17  C   UNL     1      -5.958   6.157  69.897  1.00  0.00    -0.025 C  
HETATM   18  C   UNL     1      -7.392   6.024  69.270  1.00  0.00    -0.083 C  
HETATM   19  C   UNL     1      -8.028   4.761  71.269  1.00  0.00    -0.096 C  
BRANCH  15  20
HETATM   20  C   UNL     1      -8.365   3.736  69.116  1.00  0.00    -0.068 A  
HETATM   21  N   UNL     1      -9.510   3.069  69.114  1.00  0.00    -0.145 NA 
HETATM   22  S   UNL     1      -9.473   1.856  68.003  1.00  0.00    -0.057 SA 
HETATM   23  C   UNL     1      -7.891   2.187  67.436  1.00  0.00    -0.064 A  
HETATM   24  C   UNL     1      -7.194   1.551  66.399  1.00  0.00    -0.051 A  
HETATM   25  C   UNL     1      -5.897   1.986  66.117  1.00  0.00    -0.021 A  
HETATM   26  C   UNL     1      -5.329   3.012  66.860  1.00  0.00    -0.016 A  
HETATM   27  C   UNL     1      -6.039   3.655  67.875  1.00  0.00    -0.032 A  
HETATM   28  C   UNL     1      -7.364   3.225  68.201  1.00  0.00    -0.050 A  
ENDBRANCH  15  20
ENDBRANCH  13  14
ENDBRANCH  12  13
ENDBRANCH   3  12
TORSDOF 4
ENDMDL
MODEL      265
REMARK 921   NORMALIZED FREE ENERGY PREDICTED BY IDOCK:   -2.61 KCAL/MOL
REMARK 922        TOTAL FREE ENERGY PREDICTED BY IDOCK:   -3.74 KCAL/MOL
REMARK 923 INTER-LIGAND FREE ENERGY PREDICTED BY IDOCK:   -4.19 KCAL/MOL
REMARK 924 INTRA-LIGAND FREE ENERGY PREDICTED BY IDOCK:    0.45 KCAL/MOL
REMARK 927      BINDING AFFINITY PREDICTED BY RF-SCORE:    0.00 PKD
ROOT
HETATM    1 CL   UNL     1      -9.354  11.817  67.055  1.00  0.00    -0.180 Cl 
HETATM    2  C   UNL     1      -9.723  10.136  66.907  1.00  0.00    -0.187 A  
HETATM    3  C   UNL     1     -10.479   9.452  67.898  1.00  0.00    -0.296 A  
HETATM    4  O   UNL     1      -7.962   4.872  65.974  1.00  0.00    -0.104 OA 
HETATM    5  C   UNL     1     -10.876   8.119  67.688  1.00  0.00    -0.093 A  
HETATM    6  C   UNL     1     -10.231   7.425  66.686  1.00  0.00    -0.247 A  
HETATM    7  N   UNL     1      -8.380   7.100  65.420  1.00  0.00    -0.136 NA 
HETATM    8  C   UNL     1     -10.116   5.942  66.499  1.00  0.00    -0.206 C  
HETATM    9  C   UNL     1      -9.090   9.421  65.892  1.00  0.00    -0.242 A  
HETATM   10  C   UNL     1      -9.272   8.057  65.900  1.00  0.00    -0.067 A  
HETATM   11  C   UNL     1      -8.696   5.844  65.942  1.00  0.00    -0.150 C  
ENDROOT
BRANCH   3  12
HETATM   12  C   UNL     1     -10.345   9.878  69.352  1.00  0.00    -0.238 C  
BRANCH  12  13
HETATM   13  C   UNL     1     -11.188   9.245  70.466  1.00  0.00    -0.265 C  
BRANCH  13  14
HETATM   14  N   UNL     1     -10.519   7.999  70.901  1.00  0.00    -0.201 NA 
HETATM   15  N   UNL     1      -8.349   8.231  72.958  1.00  0.00    -0.274 NA 
HETATM   16  C   UNL     1      -9.068   7.983  70.634  1.00  0.00    -0.153 C  
HETATM   17  C   UNL     1     -10.752   7.614  72.311  1.00  0.00    -0.260 C  
HETATM   18  C   UNL     1      -9.740   8.060  73.425  1.00  0.00    -0.168 C  
HETATM   19  C   UNL     1      -8.277   8.846  71.626  1.00  0.00    -0.040 C  
BRANCH  15  20
HETATM   20  C   UNL     1      -7.387   7.271  73.215  1.00  0.00    -0.072 A  
HETATM   21  N   UNL     1      -6.273   7.548  73.879  1.00  0.00    -0.074 NA 
HETATM   22  S   UNL     1      -5.454   6.168  74.240  1.00  0.00    -0.050 SA 
HETATM   23  C   UNL     1      -6.591   5.100  73.532  1.00  0.00    -0.071 A  
HETATM   24  C   UNL     1      -6.566   3.698  73.515  1.00  0.00    -0.034 A  
HETATM   25  C   UNL     1      -7.605   3.032  72.861  1.00  0.00    -0.051 A  
HETATM   26  C   UNL     1      -8.617   3.754  72.244  1.00  0.00    -0.102 A  
HETATM   27  C   UNL     1      -8.646   5.149  72.285  1.00  0.00    -0.125 A  
HETATM   28  C   UNL     1      -7.590   5.865  72.932  1.00  0.00    -0.099 A  
ENDBRANCH  15  20
ENDBRANCH  13  14
ENDBRANCH  12  13
ENDBRANCH   3  12
TORSDOF 4
ENDMDL
MODEL      266
REMARK 921   NORMALIZED FREE ENERGY PREDICTED BY IDOCK:   -2.59 KCAL/MOL
REMARK 922        TOTAL FREE ENERGY PREDICTED BY IDOCK:   -3.72 KCAL/MOL
REMARK 923 INTER-LIGAND FREE ENERGY PREDICTED BY IDOCK:   -4.03 KCAL/MOL
REMARK 924 INTRA-LIGAND FREE ENERGY PREDICTED BY IDOCK:    0.31 KCAL/MOL
REMARK 927      BINDING AFFINITY PREDICTED BY RF-SCORE:    0.00 PKD
ROOT
HETATM    1 CL   UNL     1      -5.950  12.363  68.964  1.00  0.00    -0.066 Cl 
HETATM    2  C   UNL     1      -7.605  12.218  68.491  1.00  0.00    -0.118 A  
HETATM    3  C   UNL     1      -8.422  11.156  68.966  1.00  0.00    -0.044 A  
HETATM    4  O   UNL     1     -11.458  12.080  64.389  1.00  0.00    -0.334 OA 
HETATM    5  C   UNL     1      -9.797  11.136  68.670  1.00  0.00    -0.207 A  
HETATM    6  C   UNL     1     -10.230  11.961  67.653  1.00  0.00    -0.215 A  
HETATM    7  N   UNL     1      -9.802  13.054  65.714  1.00  0.00    -0.248 NA 
HETATM    8  C   UNL     1     -11.487  11.867  66.842  1.00  0.00    -0.390 C  
HETATM    9  C   UNL     1      -8.063  13.052  67.472  1.00  0.00    -0.179 A  
HETATM   10  C   UNL     1      -9.332  12.803  67.002  1.00  0.00    -0.229 A  
HETATM   11  C   UNL     1     -10.970  12.326  65.479  1.00  0.00    -0.298 C  
ENDROOT
BRANCH   3  12
HETATM   12  C   UNL     1      -7.788   9.800  69.235  1.00  0.00    -0.105 C  
BRANCH  12  13
HETATM   13  C   UNL     1      -7.704   9.206  70.647  1.00  0.00    -0.138 C  
BRANCH  13  14
HETATM   14  N   UNL     1      -8.071   7.774  70.567  1.00  0.00    -0.102 NA 
HETATM   15  N   UNL     1      -6.969   6.181  68.279  1.00  0.00    -0.077 NA 
HETATM   16  C   UNL     1      -8.796   7.417  69.333  1.00  0.00    -0.137 C  
HETATM   17  C   UNL     1      -6.955   6.823  70.762  1.00  0.00    -0.067 C  
HETATM   18  C   UNL     1      -6.171   6.268  69.519  1.00  0.00    -0.033 C  
HETATM   19  C   UNL     1      -7.871   7.327  68.112  1.00  0.00    -0.118 C  
BRANCH  15  20
HETATM   20  C   UNL     1      -7.469   4.970  67.836  1.00  0.00    -0.079 A  
HETATM   21  N   UNL     1      -7.643   3.937  68.650  1.00  0.00    -0.054 NA 
HETATM   22  S   UNL     1      -8.474   2.736  67.893  1.00  0.00    -0.092 SA 
HETATM   23  C   UNL     1      -8.671   3.568  66.409  1.00  0.00    -0.124 A  
HETATM   24  C   UNL     1      -9.367   3.145  65.267  1.00  0.00    -0.135 A  
HETATM   25  C   UNL     1      -9.382   3.994  64.157  1.00  0.00    -0.157 A  
HETATM   26  C   UNL     1      -8.715   5.210  64.201  1.00  0.00    -0.059 A  
HETATM   27  C   UNL     1      -8.044   5.633  65.350  1.00  0.00    -0.126 A  
HETATM   28  C   UNL     1      -7.994   4.783  66.499  1.00  0.00    -0.103 A  
ENDBRANCH  15  20
ENDBRANCH  13  14
ENDBRANCH  12  13
ENDBRANCH   3  12
TORSDOF 4
ENDMDL
MODEL      267
REMARK 921   NORMALIZED FREE ENERGY PREDICTED BY IDOCK:   -2.53 KCAL/MOL
REMARK 922        TOTAL FREE ENERGY PREDICTED BY IDOCK:   -3.65 KCAL/MOL
REMARK 923 INTER-LIGAND FREE ENERGY PREDICTED BY IDOCK:   -4.60 KCAL/MOL
REMARK 924 INTRA-LIGAND FREE ENERGY PREDICTED BY IDOCK:    0.95 KCAL/MOL
REMARK 927      BINDING AFFINITY PREDICTED BY RF-SCORE:    0.00 PKD
ROOT
HETATM    1 CL   UNL     1      -5.819   7.842  66.645  1.00  0.00    -0.042 Cl 
HETATM    2  C   UNL     1      -7.153   6.852  66.169  1.00  0.00    -0.073 A  
HETATM    3  C   UNL     1      -8.449   7.036  66.725  1.00  0.00    -0.118 A  
HETATM    4  O   UNL     1      -9.286   1.713  65.318  1.00  0.00    -0.120 OA 
HETATM    5  C   UNL     1      -9.541   6.305  66.224  1.00  0.00    -0.117 A  
HETATM    6  C   UNL     1      -9.253   5.200  65.452  1.00  0.00    -0.122 A  
HETATM    7  N   UNL     1      -7.844   3.505  64.923  1.00  0.00    -0.085 NA 
HETATM    8  C   UNL     1     -10.126   4.021  65.142  1.00  0.00    -0.189 C  
HETATM    9  C   UNL     1      -6.881   5.737  65.379  1.00  0.00    -0.055 A  
HETATM   10  C   UNL     1      -7.932   4.876  65.154  1.00  0.00    -0.098 A  
HETATM   11  C   UNL     1      -9.085   2.902  65.137  1.00  0.00    -0.148 C  
ENDROOT
BRANCH   3  12
HETATM   12  C   UNL     1      -8.575   7.504  68.167  1.00  0.00    -0.123 C  
BRANCH  12  13
HETATM   13  C   UNL     1      -9.932   7.611  68.872  1.00  0.00    -0.176 C  
BRANCH  13  14
HETATM   14  N   UNL     1     -10.209   9.043  69.125  1.00  0.00    -0.200 NA 
HETATM   15  N   UNL     1      -8.668  11.060  67.530  1.00  0.00    -0.127 NA 
HETATM   16  C   UNL     1      -9.031   9.799  69.592  1.00  0.00    -0.215 C  
HETATM   17  C   UNL     1     -10.836   9.775  68.003  1.00  0.00    -0.223 C  
HETATM   18  C   UNL     1      -9.940  10.553  66.975  1.00  0.00    -0.201 C  
HETATM   19  C   UNL     1      -8.044  10.110  68.459  1.00  0.00    -0.106 C  
BRANCH  15  20
HETATM   20  C   UNL     1      -8.517  12.394  67.862  1.00  0.00    -0.166 A  
HETATM   21  N   UNL     1      -7.324  12.954  68.012  1.00  0.00    -0.105 NA 
HETATM   22  S   UNL     1      -7.462  14.586  68.159  1.00  0.00    -0.142 SA 
HETATM   23  C   UNL     1      -9.167  14.631  68.000  1.00  0.00    -0.197 A  
HETATM   24  C   UNL     1     -10.003  15.757  67.972  1.00  0.00    -0.222 A  
HETATM   25  C   UNL     1     -11.379  15.549  67.845  1.00  0.00    -0.309 A  
HETATM   26  C   UNL     1     -11.884  14.259  67.760  1.00  0.00    -0.414 A  
HETATM   27  C   UNL     1     -11.042  13.145  67.765  1.00  0.00    -0.287 A  
HETATM   28  C   UNL     1      -9.630  13.320  67.910  1.00  0.00    -0.217 A  
ENDBRANCH  15  20
ENDBRANCH  13  14
ENDBRANCH  12  13
ENDBRANCH   3  12
TORSDOF 4
ENDMDL
MODEL      268
REMARK 921   NORMALIZED FREE ENERGY PREDICTED BY IDOCK:   -2.52 KCAL/MOL
REMARK 922        TOTAL FREE ENERGY PREDICTED BY IDOCK:   -3.63 KCAL/MOL
REMARK 923 INTER-LIGAND FREE ENERGY PREDICTED BY IDOCK:   -3.79 KCAL/MOL
REMARK 924 INTRA-LIGAND FREE ENERGY PREDICTED BY IDOCK:    0.15 KCAL/MOL
REMARK 927      BINDING AFFINITY PREDICTED BY RF-SCORE:    0.00 PKD
ROOT
HETATM    1 CL   UNL     1      -5.554   4.889  68.813  1.00  0.00    -0.011 Cl 
HETATM    2  C   UNL     1      -6.193   4.443  67.271  1.00  0.00    -0.039 A  
HETATM    3  C   UNL     1      -6.472   5.418  66.274  1.00  0.00    -0.044 A  
HETATM    4  O   UNL     1     -10.047   1.649  64.267  1.00  0.00    -0.050 OA 
HETATM    5  C   UNL     1      -6.866   5.017  64.985  1.00  0.00    -0.049 A  
HETATM    6  C   UNL     1      -7.293   3.713  64.839  1.00  0.00    -0.072 A  
HETATM    7  N   UNL     1      -8.245   1.862  65.735  1.00  0.00    -0.084 NA 
HETATM    8  C   UNL     1      -8.142   3.122  63.754  1.00  0.00    -0.082 C  
HETATM    9  C   UNL     1      -6.618   3.127  67.102  1.00  0.00    -0.037 A  
HETATM   10  C   UNL     1      -7.273   2.843  65.925  1.00  0.00    -0.066 A  
HETATM   11  C   UNL     1      -8.961   2.117  64.563  1.00  0.00    -0.118 C  
ENDROOT
BRANCH   3  12
HETATM   12  C   UNL     1      -6.938   6.801  66.704  1.00  0.00    -0.066 C  
BRANCH  12  13
HETATM   13  C   UNL     1      -7.169   7.161  68.177  1.00  0.00    -0.095 C  
BRANCH  13  14
HETATM   14  N   UNL     1      -6.808   8.583  68.367  1.00  0.00    -0.064 NA 
HETATM   15  N   UNL     1      -9.017  10.607  68.259  1.00  0.00    -0.137 NA 
HETATM   16  C   UNL     1      -7.143   9.438  67.212  1.00  0.00    -0.086 C  
HETATM   17  C   UNL     1      -7.334   9.211  69.599  1.00  0.00    -0.065 C  
HETATM   18  C   UNL     1      -8.698   9.989  69.562  1.00  0.00    -0.192 C  
HETATM   19  C   UNL     1      -8.643   9.751  67.126  1.00  0.00    -0.128 C  
BRANCH  15  20
HETATM   20  C   UNL     1      -8.848  11.963  68.053  1.00  0.00    -0.177 A  
HETATM   21  N   UNL     1      -7.785  12.619  68.499  1.00  0.00    -0.131 NA 
HETATM   22  S   UNL     1      -7.747  14.146  67.891  1.00  0.00    -0.177 SA 
HETATM   23  C   UNL     1      -9.173  13.997  66.953  1.00  0.00    -0.260 A  
HETATM   24  C   UNL     1      -9.741  14.942  66.087  1.00  0.00    -0.333 A  
HETATM   25  C   UNL     1     -10.926  14.601  65.431  1.00  0.00    -0.358 A  
HETATM   26  C   UNL     1     -11.513  13.362  65.651  1.00  0.00    -0.335 A  
HETATM   27  C   UNL     1     -10.928  12.419  66.497  1.00  0.00    -0.312 A  
HETATM   28  C   UNL     1      -9.723  12.740  67.198  1.00  0.00    -0.216 A  
ENDBRANCH  15  20
ENDBRANCH  13  14
ENDBRANCH  12  13
ENDBRANCH   3  12
TORSDOF 4
ENDMDL
MODEL      269
REMARK 921   NORMALIZED FREE ENERGY PREDICTED BY IDOCK:   -2.50 KCAL/MOL
REMARK 922        TOTAL FREE ENERGY PREDICTED BY IDOCK:   -3.60 KCAL/MOL
REMARK 923 INTER-LIGAND FREE ENERGY PREDICTED BY IDOCK:   -3.40 KCAL/MOL
REMARK 924 INTRA-LIGAND FREE ENERGY PREDICTED BY IDOCK:   -0.20 KCAL/MOL
REMARK 927      BINDING AFFINITY PREDICTED BY RF-SCORE:    0.00 PKD
ROOT
HETATM    1 CL   UNL     1      -8.566  10.570  69.798  1.00  0.00     0.003 Cl 
HETATM    2  C   UNL     1      -7.948   9.222  68.912  1.00  0.00    -0.098 A  
HETATM    3  C   UNL     1      -8.270   9.025  67.541  1.00  0.00    -0.109 A  
HETATM    4  O   UNL     1      -7.117   3.667  68.535  1.00  0.00    -0.050 OA 
HETATM    5  C   UNL     1      -7.649   7.994  66.812  1.00  0.00    -0.094 A  
HETATM    6  C   UNL     1      -7.013   7.009  67.538  1.00  0.00    -0.079 A  
HETATM    7  N   UNL     1      -6.840   5.798  69.446  1.00  0.00    -0.059 NA 
HETATM    8  C   UNL     1      -6.647   5.620  67.111  1.00  0.00    -0.056 C  
HETATM    9  C   UNL     1      -7.292   8.223  69.629  1.00  0.00    -0.073 A  
HETATM   10  C   UNL     1      -6.959   7.086  68.927  1.00  0.00    -0.079 A  
HETATM   11  C   UNL     1      -6.890   4.859  68.414  1.00  0.00    -0.055 C  
ENDROOT
BRANCH   3  12
HETATM   12  C   UNL     1      -9.636   9.460  67.033  1.00  0.00    -0.209 C  
BRANCH  12  13
HETATM   13  C   UNL     1      -9.852  10.805  66.330  1.00  0.00    -0.215 C  
BRANCH  13  14
HETATM   14  N   UNL     1      -9.956  11.856  67.366  1.00  0.00    -0.189 NA 
HETATM   15  N   UNL     1      -9.912  14.714  66.459  1.00  0.00    -0.271 NA 
HETATM   16  C   UNL     1      -8.791  12.760  67.411  1.00  0.00    -0.190 C  
HETATM   17  C   UNL     1     -11.193  12.667  67.323  1.00  0.00    -0.298 C  
HETATM   18  C   UNL     1     -11.215  14.023  66.531  1.00  0.00    -0.322 C  
HETATM   19  C   UNL     1      -8.794  13.781  66.265  1.00  0.00     0.253 C  
BRANCH  15  20
HETATM   20  C   UNL     1      -9.636  15.803  67.265  1.00  0.00    -0.217 A  
HETATM   21  N   UNL     1     -10.145  15.927  68.484  1.00  0.00    -0.213 NA 
HETATM   22  S   UNL     1      -9.446  17.185  69.279  1.00  0.00     0.129 SA 
HETATM   23  C   UNL     1      -8.380  17.624  68.011  1.00  0.00    -0.246 A  
HETATM   24  C   UNL     1      -7.402  18.628  68.012  1.00  0.00    -0.265 A  
HETATM   25  C   UNL     1      -6.653  18.815  66.848  1.00  0.00    -0.202 A  
HETATM   26  C   UNL     1      -6.892  18.026  65.732  1.00  0.00    -0.281 A  
HETATM   27  C   UNL     1      -7.852  17.013  65.747  1.00  0.00     0.324 A  
HETATM   28  C   UNL     1      -8.649  16.804  66.916  1.00  0.00    -0.240 A  
ENDBRANCH  15  20
ENDBRANCH  13  14
ENDBRANCH  12  13
ENDBRANCH   3  12
TORSDOF 4
ENDMDL
MODEL      270
REMARK 921   NORMALIZED FREE ENERGY PREDICTED BY IDOCK:   -2.48 KCAL/MOL
REMARK 922        TOTAL FREE ENERGY PREDICTED BY IDOCK:   -3.58 KCAL/MOL
REMARK 923 INTER-LIGAND FREE ENERGY PREDICTED BY IDOCK:   -5.16 KCAL/MOL
REMARK 924 INTRA-LIGAND FREE ENERGY PREDICTED BY IDOCK:    1.58 KCAL/MOL
REMARK 927      BINDING AFFINITY PREDICTED BY RF-SCORE:    0.00 PKD
ROOT
HETATM    1 CL   UNL     1      -7.802  14.268  68.140  1.00  0.00    -0.127 Cl 
HETATM    2  C   UNL     1      -9.334  13.923  67.419  1.00  0.00    -0.228 A  
HETATM    3  C   UNL     1     -10.145  12.850  67.879  1.00  0.00    -0.232 A  
HETATM    4  O   UNL     1     -12.385  12.991  62.782  1.00  0.00    -0.128 OA 
HETATM    5  C   UNL     1     -11.442  12.673  67.363  1.00  0.00    -0.397 A  
HETATM    6  C   UNL     1     -11.746  13.340  66.194  1.00  0.00    -0.416 A  
HETATM    7  N   UNL     1     -11.061  14.249  64.234  1.00  0.00    -0.197 NA 
HETATM    8  C   UNL     1     -12.831  13.045  65.203  1.00  0.00    -0.335 C  
HETATM    9  C   UNL     1      -9.663  14.597  66.244  1.00  0.00    -0.329 A  
HETATM   10  C   UNL     1     -10.809  14.183  65.603  1.00  0.00    -0.305 A  
HETATM   11  C   UNL     1     -12.115  13.397  63.899  1.00  0.00    -0.455 C  
ENDROOT
BRANCH   3  12
HETATM   12  C   UNL     1      -9.474  11.594  68.414  1.00  0.00    -0.193 C  
BRANCH  12  13
HETATM   13  C   UNL     1      -9.851  10.194  67.916  1.00  0.00    -0.151 C  
BRANCH  13  14
HETATM   14  N   UNL     1      -9.088   9.201  68.705  1.00  0.00    -0.136 NA 
HETATM   15  N   UNL     1     -10.502   7.847  70.976  1.00  0.00    -0.203 NA 
HETATM   16  C   UNL     1      -8.965   9.551  70.133  1.00  0.00    -0.236 C  
HETATM   17  C   UNL     1      -9.560   7.804  68.591  1.00  0.00    -0.154 C  
HETATM   18  C   UNL     1     -10.586   7.234  69.635  1.00  0.00    -0.235 C  
HETATM   19  C   UNL     1     -10.259   9.294  70.917  1.00  0.00    -0.301 C  
BRANCH  15  20
HETATM   20  C   UNL     1      -9.883   7.189  72.023  1.00  0.00    -0.158 A  
HETATM   21  N   UNL     1     -10.275   5.991  72.435  1.00  0.00    -0.187 NA 
HETATM   22  S   UNL     1      -9.203   5.369  73.516  1.00  0.00    -0.130 SA 
HETATM   23  C   UNL     1      -8.118   6.695  73.468  1.00  0.00    -0.109 A  
HETATM   24  C   UNL     1      -6.891   6.831  74.132  1.00  0.00    -0.079 A  
HETATM   25  C   UNL     1      -6.176   8.018  73.951  1.00  0.00    -0.099 A  
HETATM   26  C   UNL     1      -6.687   9.022  73.141  1.00  0.00     0.279 A  
HETATM   27  C   UNL     1      -7.898   8.868  72.465  1.00  0.00     0.262 A  
HETATM   28  C   UNL     1      -8.665   7.674  72.640  1.00  0.00    -0.182 A  
ENDBRANCH  15  20
ENDBRANCH  13  14
ENDBRANCH  12  13
ENDBRANCH   3  12
TORSDOF 4
ENDMDL
MODEL      271
REMARK 921   NORMALIZED FREE ENERGY PREDICTED BY IDOCK:   -2.46 KCAL/MOL
REMARK 922        TOTAL FREE ENERGY PREDICTED BY IDOCK:   -3.55 KCAL/MOL
REMARK 923 INTER-LIGAND FREE ENERGY PREDICTED BY IDOCK:   -4.08 KCAL/MOL
REMARK 924 INTRA-LIGAND FREE ENERGY PREDICTED BY IDOCK:    0.53 KCAL/MOL
REMARK 927      BINDING AFFINITY PREDICTED BY RF-SCORE:    0.00 PKD
ROOT
HETATM    1 CL   UNL     1      -5.634   8.661  65.932  1.00  0.00    -0.045 Cl 
HETATM    2  C   UNL     1      -6.549   7.371  65.235  1.00  0.00    -0.044 A  
HETATM    3  C   UNL     1      -7.682   6.824  65.897  1.00  0.00    -0.094 A  
HETATM    4  O   UNL     1      -6.663   2.273  62.852  1.00  0.00    -0.024 OA 
HETATM    5  C   UNL     1      -8.484   5.867  65.248  1.00  0.00    -0.144 A  
HETATM    6  C   UNL     1      -7.948   5.252  64.136  1.00  0.00    -0.112 A  
HETATM    7  N   UNL     1      -6.127   4.540  62.990  1.00  0.00    -0.017 NA 
HETATM    8  C   UNL     1      -8.342   3.951  63.504  1.00  0.00    -0.092 C  
HETATM    9  C   UNL     1      -6.028   6.746  64.104  1.00  0.00    -0.035 A  
HETATM   10  C   UNL     1      -6.689   5.619  63.669  1.00  0.00    -0.037 A  
HETATM   11  C   UNL     1      -6.973   3.432  63.065  1.00  0.00    -0.040 C  
ENDROOT
BRANCH   3  12
HETATM   12  C   UNL     1      -7.696   6.773  67.417  1.00  0.00    -0.110 C  
BRANCH  12  13
HETATM   13  C   UNL     1      -8.999   6.858  68.221  1.00  0.00    -0.124 C  
BRANCH  13  14
HETATM   14  N   UNL     1      -9.804   7.975  67.679  1.00  0.00    -0.158 NA 
HETATM   15  N   UNL     1      -9.815  10.554  69.208  1.00  0.00    -0.218 NA 
HETATM   16  C   UNL     1     -10.868   8.435  68.591  1.00  0.00     0.073 C  
HETATM   17  C   UNL     1      -9.029   9.147  67.214  1.00  0.00    -0.123 C  
HETATM   18  C   UNL     1      -8.768  10.351  68.186  1.00  0.00    -0.125 C  
HETATM   19  C   UNL     1     -10.325   9.287  69.747  1.00  0.00    -0.218 C  
BRANCH  15  20
HETATM   20  C   UNL     1     -10.757  11.557  69.074  1.00  0.00    -0.193 A  
HETATM   21  N   UNL     1     -11.430  12.038  70.111  1.00  0.00    -0.123 NA 
HETATM   22  S   UNL     1     -12.284  13.376  69.680  1.00  0.00    -0.157 SA 
HETATM   23  C   UNL     1     -11.765  13.396  68.047  1.00  0.00    -0.356 A  
HETATM   24  C   UNL     1     -12.068  14.339  67.056  1.00  0.00    -0.424 A  
HETATM   25  C   UNL     1     -11.536  14.143  65.779  1.00  0.00    -0.327 A  
HETATM   26  C   UNL     1     -10.741  13.035  65.518  1.00  0.00    -0.299 A  
HETATM   27  C   UNL     1     -10.425  12.113  66.518  1.00  0.00    -0.254 A  
HETATM   28  C   UNL     1     -10.966  12.274  67.832  1.00  0.00    -0.265 A  
ENDBRANCH  15  20
ENDBRANCH  13  14
ENDBRANCH  12  13
ENDBRANCH   3  12
TORSDOF 4
ENDMDL
MODEL      272
REMARK 921   NORMALIZED FREE ENERGY PREDICTED BY IDOCK:   -2.24 KCAL/MOL
REMARK 922        TOTAL FREE ENERGY PREDICTED BY IDOCK:   -3.29 KCAL/MOL
REMARK 923 INTER-LIGAND FREE ENERGY PREDICTED BY IDOCK:   -3.00 KCAL/MOL
REMARK 924 INTRA-LIGAND FREE ENERGY PREDICTED BY IDOCK:   -0.29 KCAL/MOL
REMARK 927      BINDING AFFINITY PREDICTED BY RF-SCORE:    0.00 PKD
ROOT
HETATM    1 CL   UNL     1      -7.045  10.257  65.531  1.00  0.00    -0.138 Cl 
HETATM    2  C   UNL     1      -8.222   9.905  66.745  1.00  0.00    -0.124 A  
HETATM    3  C   UNL     1      -8.067  10.361  68.083  1.00  0.00    -0.111 A  
HETATM    4  O   UNL     1     -11.421   6.118  69.412  1.00  0.00    -0.423 OA 
HETATM    5  C   UNL     1      -9.102  10.173  69.017  1.00  0.00    -0.176 A  
HETATM    6  C   UNL     1     -10.080   9.258  68.691  1.00  0.00    -0.207 A  
HETATM    7  N   UNL     1     -10.702   7.380  67.585  1.00  0.00    -0.229 NA 
HETATM    8  C   UNL     1     -11.034   8.542  69.599  1.00  0.00    -0.093 C  
HETATM    9  C   UNL     1      -9.225   8.991  66.428  1.00  0.00    -0.239 A  
HETATM   10  C   UNL     1     -10.048   8.604  67.462  1.00  0.00    -0.216 A  
HETATM   11  C   UNL     1     -11.106   7.182  68.907  1.00  0.00     0.012 C  
ENDROOT
BRANCH   3  12
HETATM   12  C   UNL     1      -6.667  10.476  68.666  1.00  0.00    -0.053 C  
BRANCH  12  13
HETATM   13  C   UNL     1      -5.941   9.274  69.283  1.00  0.00    -0.038 C  
BRANCH  13  14
HETATM   14  N   UNL     1      -6.835   8.664  70.293  1.00  0.00    -0.039 NA 
HETATM   15  N   UNL     1      -5.961   6.084  71.546  1.00  0.00    -0.033 NA 
HETATM   16  C   UNL     1      -7.311   7.317  69.923  1.00  0.00    -0.084 C  
HETATM   17  C   UNL     1      -6.298   8.623  71.671  1.00  0.00    -0.069 C  
HETATM   18  C   UNL     1      -5.534   7.349  72.178  1.00  0.00    -0.037 C  
HETATM   19  C   UNL     1      -6.235   6.239  70.111  1.00  0.00    -0.031 C  
BRANCH  15  20
HETATM   20  C   UNL     1      -6.789   5.198  72.210  1.00  0.00    -0.073 A  
HETATM   21  N   UNL     1      -7.366   5.501  73.366  1.00  0.00    -0.094 NA 
HETATM   22  S   UNL     1      -8.474   4.359  73.779  1.00  0.00    -0.099 SA 
HETATM   23  C   UNL     1      -8.253   3.389  72.384  1.00  0.00    -0.079 A  
HETATM   24  C   UNL     1      -8.945   2.223  72.023  1.00  0.00    -0.122 A  
HETATM   25  C   UNL     1      -8.581   1.587  70.834  1.00  0.00    -0.084 A  
HETATM   26  C   UNL     1      -7.558   2.104  70.052  1.00  0.00    -0.043 A  
HETATM   27  C   UNL     1      -6.890   3.277  70.407  1.00  0.00    -0.033 A  
HETATM   28  C   UNL     1      -7.225   3.946  71.626  1.00  0.00    -0.046 A  
ENDBRANCH  15  20
ENDBRANCH  13  14
ENDBRANCH  12  13
ENDBRANCH   3  12
TORSDOF 4
ENDMDL
MODEL      273
REMARK 921   NORMALIZED FREE ENERGY PREDICTED BY IDOCK:   -2.01 KCAL/MOL
REMARK 922        TOTAL FREE ENERGY PREDICTED BY IDOCK:   -3.00 KCAL/MOL
REMARK 923 INTER-LIGAND FREE ENERGY PREDICTED BY IDOCK:   -2.94 KCAL/MOL
REMARK 924 INTRA-LIGAND FREE ENERGY PREDICTED BY IDOCK:   -0.06 KCAL/MOL
REMARK 927      BINDING AFFINITY PREDICTED BY RF-SCORE:    0.00 PKD
ROOT
HETATM    1 CL   UNL     1     -10.096  15.625  66.123  1.00  0.00    -0.307 Cl 
HETATM    2  C   UNL     1     -10.450  13.949  65.905  1.00  0.00    -0.305 A  
HETATM    3  C   UNL     1     -11.494  13.311  66.630  1.00  0.00    -0.384 A  
HETATM    4  O   UNL     1      -8.642   8.623  65.677  1.00  0.00    -0.149 OA 
HETATM    5  C   UNL     1     -11.846  11.981  66.337  1.00  0.00    -0.232 A  
HETATM    6  C   UNL     1     -10.945  11.243  65.598  1.00  0.00    -0.201 A  
HETATM    7  N   UNL     1      -8.804  10.842  64.972  1.00  0.00    -0.195 NA 
HETATM    8  C   UNL     1     -10.821   9.754  65.487  1.00  0.00     1.068 C  
HETATM    9  C   UNL     1      -9.556  13.191  65.151  1.00  0.00     0.178 A  
HETATM   10  C   UNL     1      -9.772  11.831  65.132  1.00  0.00    -0.203 A  
HETATM   11  C   UNL     1      -9.303   9.609  65.398  1.00  0.00    -0.259 C  
ENDROOT
BRANCH   3  12
HETATM   12  C   UNL     1     -11.802  13.777  68.044  1.00  0.00    -0.408 C  
BRANCH  12  13
HETATM   13  C   UNL     1     -12.372  12.829  69.107  1.00  0.00     0.154 C  
BRANCH  13  14
HETATM   14  N   UNL     1     -11.246  12.310  69.915  1.00  0.00     0.010 NA 
HETATM   15  N   UNL     1     -10.212   9.573  69.261  1.00  0.00    -0.194 NA 
HETATM   16  C   UNL     1     -11.565  11.068  70.643  1.00  0.00    -0.167 C  
HETATM   17  C   UNL     1      -9.974  12.125  69.182  1.00  0.00     0.305 C  
HETATM   18  C   UNL     1      -9.628  10.729  68.551  1.00  0.00    -0.183 C  
HETATM   19  C   UNL     1     -11.579   9.835  69.730  1.00  0.00    -0.030 C  
BRANCH  15  20
HETATM   20  C   UNL     1      -9.443   8.788  70.101  1.00  0.00    -0.169 A  
HETATM   21  N   UNL     1      -8.339   9.243  70.677  1.00  0.00    -0.198 NA 
HETATM   22  S   UNL     1      -7.787   8.174  71.799  1.00  0.00    -0.122 SA 
HETATM   23  C   UNL     1      -9.046   7.031  71.585  1.00  0.00    -0.138 A  
HETATM   24  C   UNL     1      -9.257   5.836  72.288  1.00  0.00    -0.151 A  
HETATM   25  C   UNL     1     -10.353   5.049  71.929  1.00  0.00    -0.270 A  
HETATM   26  C   UNL     1     -11.191   5.451  70.897  1.00  0.00     0.145 A  
HETATM   27  C   UNL     1     -10.986   6.653  70.218  1.00  0.00    -0.355 A  
HETATM   28  C   UNL     1      -9.864   7.476  70.549  1.00  0.00    -0.183 A  
ENDBRANCH  15  20
ENDBRANCH  13  14
ENDBRANCH  12  13
ENDBRANCH   3  12
TORSDOF 4
ENDMDL
MODEL      274
REMARK 921   NORMALIZED FREE ENERGY PREDICTED BY IDOCK:   -1.69 KCAL/MOL
REMARK 922        TOTAL FREE ENERGY PREDICTED BY IDOCK:   -2.60 KCAL/MOL
REMARK 923 INTER-LIGAND FREE ENERGY PREDICTED BY IDOCK:   -2.59 KCAL/MOL
REMARK 924 INTRA-LIGAND FREE ENERGY PREDICTED BY IDOCK:   -0.01 KCAL/MOL
REMARK 927      BINDING AFFINITY PREDICTED BY RF-SCORE:    0.00 PKD
ROOT
HETATM    1 CL   UNL     1     -10.632  19.172  70.079  1.00  0.00     1.037 Cl 
HETATM    2  C   UNL     1      -9.811  19.361  68.571  1.00  0.00    -0.427 A  
HETATM    3  C   UNL     1      -9.805  18.328  67.595  1.00  0.00    -0.328 A  
HETATM    4  O   UNL     1      -5.128  20.735  65.766  1.00  0.00    -0.173 OA 
HETATM    5  C   UNL     1      -9.241  18.559  66.326  1.00  0.00    -0.231 A  
HETATM    6  C   UNL     1      -8.418  19.657  66.198  1.00  0.00    -0.354 A  
HETATM    7  N   UNL     1      -6.975  21.132  67.136  1.00  0.00    -0.471 NA 
HETATM    8  C   UNL     1      -7.373  19.928  65.158  1.00  0.00     0.074 C  
HETATM    9  C   UNL     1      -8.983  20.473  68.420  1.00  0.00     0.309 A  
HETATM   10  C   UNL     1      -8.215  20.512  67.279  1.00  0.00    -0.300 A  
HETATM   11  C   UNL     1      -6.319  20.640  66.006  1.00  0.00    -0.237 C  
ENDROOT
BRANCH   3  12
HETATM   12  C   UNL     1      -9.823  16.878  68.054  1.00  0.00    -0.264 C  
BRANCH  12  13
HETATM   13  C   UNL     1      -9.309  15.738  67.166  1.00  0.00    -0.213 C  
BRANCH  13  14
HETATM   14  N   UNL     1      -9.464  14.468  67.911  1.00  0.00    -0.208 NA 
HETATM   15  N   UNL     1      -7.458  12.300  67.394  1.00  0.00    -0.151 NA 
HETATM   16  C   UNL     1      -9.664  13.293  67.042  1.00  0.00    -0.238 C  
HETATM   17  C   UNL     1      -8.389  14.170  68.882  1.00  0.00    -0.003 C  
HETATM   18  C   UNL     1      -7.162  13.290  68.450  1.00  0.00    -0.110 C  
HETATM   19  C   UNL     1      -8.365  12.830  66.368  1.00  0.00     0.387 C  
BRANCH  15  20
HETATM   20  C   UNL     1      -7.632  10.962  67.699  1.00  0.00    -0.096 A  
HETATM   21  N   UNL     1      -8.289  10.135  66.897  1.00  0.00    -0.122 NA 
HETATM   22  S   UNL     1      -8.116   8.579  67.401  1.00  0.00    -0.106 SA 
HETATM   23  C   UNL     1      -7.106   8.939  68.738  1.00  0.00    -0.067 A  
HETATM   24  C   UNL     1      -6.501   8.043  69.630  1.00  0.00    -0.037 A  
HETATM   25  C   UNL     1      -5.722   8.571  70.662  1.00  0.00    -0.028 A  
HETATM   26  C   UNL     1      -5.572   9.945  70.789  1.00  0.00    -0.074 A  
HETATM   27  C   UNL     1      -6.160  10.829  69.883  1.00  0.00    -0.094 A  
HETATM   28  C   UNL     1      -6.977  10.324  68.823  1.00  0.00    -0.067 A  
ENDBRANCH  15  20
ENDBRANCH  13  14
ENDBRANCH  12  13
ENDBRANCH   3  12
TORSDOF 4
ENDMDL
MODEL      275
REMARK 921   NORMALIZED FREE ENERGY PREDICTED BY IDOCK:   -0.25 KCAL/MOL
REMARK 922        TOTAL FREE ENERGY PREDICTED BY IDOCK:   -0.83 KCAL/MOL
REMARK 923 INTER-LIGAND FREE ENERGY PREDICTED BY IDOCK:   -1.83 KCAL/MOL
REMARK 924 INTRA-LIGAND FREE ENERGY PREDICTED BY IDOCK:    1.01 KCAL/MOL
REMARK 927      BINDING AFFINITY PREDICTED BY RF-SCORE:    0.00 PKD
ROOT
HETATM    1 CL   UNL     1     -12.402  19.562  66.334  1.00  0.00     3.513 Cl 
HETATM    2  C   UNL     1     -10.715  19.194  66.365  1.00  0.00    -0.361 A  
HETATM    3  C   UNL     1     -10.230  17.980  66.924  1.00  0.00    -0.366 A  
HETATM    4  O   UNL     1      -5.456  20.762  67.616  1.00  0.00    -0.199 OA 
HETATM    5  C   UNL     1      -8.867  17.648  66.818  1.00  0.00    -0.275 A  
HETATM    6  C   UNL     1      -8.001  18.665  66.477  1.00  0.00    -0.296 A  
HETATM    7  N   UNL     1      -7.490  20.873  66.478  1.00  0.00    -0.039 NA 
HETATM    8  C   UNL     1      -6.519  18.744  66.690  1.00  0.00    -0.209 C  
HETATM    9  C   UNL     1      -9.825  20.207  66.011  1.00  0.00    -0.460 A  
HETATM   10  C   UNL     1      -8.488  19.941  66.204  1.00  0.00    -0.319 A  
HETATM   11  C   UNL     1      -6.365  20.232  67.001  1.00  0.00    -0.199 C  
ENDROOT
BRANCH   3  12
HETATM   12  C   UNL     1     -10.967  17.366  68.105  1.00  0.00    -0.160 C  
BRANCH  12  13
HETATM   13  C   UNL     1     -11.012  15.850  68.336  1.00  0.00    -0.331 C  
BRANCH  13  14
HETATM   14  N   UNL     1     -10.122  15.205  67.345  1.00  0.00    -0.228 NA 
HETATM   15  N   UNL     1      -9.193  12.413  67.919  1.00  0.00    -0.185 NA 
HETATM   16  C   UNL     1      -8.805  14.826  67.891  1.00  0.00    -0.167 C  
HETATM   17  C   UNL     1     -10.701  14.043  66.636  1.00  0.00    -0.281 C  
HETATM   18  C   UNL     1     -10.462  12.591  67.184  1.00  0.00    -0.224 C  
HETATM   19  C   UNL     1      -8.870  13.567  68.766  1.00  0.00     0.105 C  
BRANCH  15  20
HETATM   20  C   UNL     1      -8.107  11.795  67.327  1.00  0.00    -0.164 A  
HETATM   21  N   UNL     1      -6.858  12.096  67.655  1.00  0.00    -0.105 NA 
HETATM   22  S   UNL     1      -5.805  11.034  66.970  1.00  0.00    -0.081 SA 
HETATM   23  C   UNL     1      -7.000  10.076  66.201  1.00  0.00    -0.107 A  
HETATM   24  C   UNL     1      -6.817   8.907  65.449  1.00  0.00    -0.072 A  
HETATM   25  C   UNL     1      -7.948   8.296  64.902  1.00  0.00    -0.144 A  
HETATM   26  C   UNL     1      -9.205   8.852  65.100  1.00  0.00    -0.100 A  
HETATM   27  C   UNL     1      -9.379  10.004  65.869  1.00  0.00    -0.236 A  
HETATM   28  C   UNL     1      -8.242  10.664  66.431  1.00  0.00    -0.146 A  
ENDBRANCH  15  20
ENDBRANCH  13  14
ENDBRANCH  12  13
ENDBRANCH   3  12
TORSDOF 4
ENDMDL
MODEL      276
REMARK 921   NORMALIZED FREE ENERGY PREDICTED BY IDOCK:    0.25 KCAL/MOL
REMARK 922        TOTAL FREE ENERGY PREDICTED BY IDOCK:   -0.21 KCAL/MOL
REMARK 923 INTER-LIGAND FREE ENERGY PREDICTED BY IDOCK:   -0.71 KCAL/MOL
REMARK 924 INTRA-LIGAND FREE ENERGY PREDICTED BY IDOCK:    0.50 KCAL/MOL
REMARK 927      BINDING AFFINITY PREDICTED BY RF-SCORE:    0.00 PKD
ROOT
HETATM    1 CL   UNL     1      -7.184  10.604  64.561  1.00  0.00     0.107 Cl 
HETATM    2  C   UNL     1      -8.177   9.256  64.985  1.00  0.00    -0.145 A  
HETATM    3  C   UNL     1      -8.738   9.128  66.285  1.00  0.00    -0.159 A  
HETATM    4  O   UNL     1      -8.935   3.681  65.142  1.00  0.00    -0.123 OA 
HETATM    5  C   UNL     1      -9.647   8.091  66.562  1.00  0.00    -0.295 A  
HETATM    6  C   UNL     1      -9.696   7.045  65.664  1.00  0.00     0.693 A  
HETATM    7  N   UNL     1      -8.661   5.757  64.114  1.00  0.00     0.019 NA 
HETATM    8  C   UNL     1     -10.212   5.654  65.875  1.00  0.00     0.101 C  
HETATM    9  C   UNL     1      -8.248   8.196  64.083  1.00  0.00    -0.083 A  
HETATM   10  C   UNL     1      -8.908   7.068  64.517  1.00  0.00     0.672 A  
HETATM   11  C   UNL     1      -9.218   4.861  65.028  1.00  0.00    -0.102 C  
ENDROOT
BRANCH   3  12
HETATM   12  C   UNL     1      -7.961   9.659  67.480  1.00  0.00    -0.106 C  
BRANCH  12  13
HETATM   13  C   UNL     1      -7.757   8.827  68.753  1.00  0.00    -0.097 C  
BRANCH  13  14
HETATM   14  N   UNL     1      -8.332   9.577  69.891  1.00  0.00    -0.151 NA 
HETATM   15  N   UNL     1     -11.074  10.741  69.546  1.00  0.00    -0.258 NA 
HETATM   16  C   UNL     1      -8.642  10.985  69.576  1.00  0.00     0.351 C  
HETATM   17  C   UNL     1      -9.516   8.955  70.525  1.00  0.00    -0.204 C  
HETATM   18  C   UNL     1     -10.959   9.361  70.060  1.00  0.00    -0.239 C  
HETATM   19  C   UNL     1      -9.915  11.134  68.734  1.00  0.00    -0.198 C  
BRANCH  15  20
HETATM   20  C   UNL     1     -11.617  11.749  70.322  1.00  0.00    -0.119 A  
HETATM   21  N   UNL     1     -11.916  11.571  71.602  1.00  0.00     0.573 NA 
HETATM   22  S   UNL     1     -12.307  13.003  72.311  1.00  0.00     1.083 SA 
HETATM   23  C   UNL     1     -12.063  13.963  70.912  1.00  0.00    -0.313 A  
HETATM   24  C   UNL     1     -12.164  15.356  70.792  1.00  0.00    -0.430 A  
HETATM   25  C   UNL     1     -11.931  15.924  69.537  1.00  0.00    -0.274 A  
HETATM   26  C   UNL     1     -11.620  15.115  68.453  1.00  0.00    -0.356 A  
HETATM   27  C   UNL     1     -11.499  13.731  68.587  1.00  0.00    -0.336 A  
HETATM   28  C   UNL     1     -11.746  13.114  69.853  1.00  0.00    -0.327 A  
ENDBRANCH  15  20
ENDBRANCH  13  14
ENDBRANCH  12  13
ENDBRANCH   3  12
TORSDOF 4
ENDMDL
MODEL      277
REMARK 921   NORMALIZED FREE ENERGY PREDICTED BY IDOCK:    2.63 KCAL/MOL
REMARK 922        TOTAL FREE ENERGY PREDICTED BY IDOCK:    2.73 KCAL/MOL
REMARK 923 INTER-LIGAND FREE ENERGY PREDICTED BY IDOCK:   -0.27 KCAL/MOL
REMARK 924 INTRA-LIGAND FREE ENERGY PREDICTED BY IDOCK:    3.00 KCAL/MOL
REMARK 927      BINDING AFFINITY PREDICTED BY RF-SCORE:    0.00 PKD
ROOT
HETATM    1 CL   UNL     1      -7.084  12.870  67.259  1.00  0.00    -0.120 Cl 
HETATM    2  C   UNL     1      -7.439  14.541  66.997  1.00  0.00     0.222 A  
HETATM    3  C   UNL     1      -6.532  15.562  67.392  1.00  0.00    -0.143 A  
HETATM    4  O   UNL     1     -11.027  18.848  67.499  1.00  0.00    -0.422 OA 
HETATM    5  C   UNL     1      -6.786  16.902  67.049  1.00  0.00    -0.239 A  
HETATM    6  C   UNL     1      -8.067  17.212  66.642  1.00  0.00    -0.292 A  
HETATM    7  N   UNL     1     -10.291  16.780  66.708  1.00  0.00    -0.300 NA 
HETATM    8  C   UNL     1      -8.746  18.548  66.622  1.00  0.00    -0.294 C  
HETATM    9  C   UNL     1      -8.725  14.870  66.575  1.00  0.00    -0.204 A  
HETATM   10  C   UNL     1      -9.030  16.212  66.535  1.00  0.00    -0.287 A  
HETATM   11  C   UNL     1     -10.169  18.139  67.003  1.00  0.00    -0.365 C  
ENDROOT
BRANCH   3  12
HETATM   12  C   UNL     1      -5.676  15.351  68.631  1.00  0.00    -0.092 C  
BRANCH  12  13
HETATM   13  C   UNL     1      -5.221  13.956  69.078  1.00  0.00    -0.074 C  
BRANCH  13  14
HETATM   14  N   UNL     1      -6.280  13.377  69.934  1.00  0.00    -0.125 NA 
HETATM   15  N   UNL     1      -5.927  10.548  70.863  1.00  0.00    -0.283 NA 
HETATM   16  C   UNL     1      -6.928  12.188  69.350  1.00  0.00     0.043 C  
HETATM   17  C   UNL     1      -5.874  13.070  71.323  1.00  0.00     0.221 C  
HETATM   18  C   UNL     1      -5.362  11.632  71.692  1.00  0.00     0.179 C  
HETATM   19  C   UNL     1      -6.053  10.931  69.450  1.00  0.00    -0.056 C  
BRANCH  15  20
HETATM   20  C   UNL     1      -6.937   9.734  71.343  1.00  0.00     0.464 A  
HETATM   21  N   UNL     1      -8.133  10.208  71.666  1.00  0.00     2.042 NA 
HETATM   22  S   UNL     1      -9.183   8.977  71.966  1.00  0.00     0.283 SA 
HETATM   23  C   UNL     1      -8.069   7.715  71.644  1.00  0.00    -0.102 A  
HETATM   24  C   UNL     1      -8.305   6.333  71.649  1.00  0.00    -0.129 A  
HETATM   25  C   UNL     1      -7.232   5.484  71.366  1.00  0.00    -0.073 A  
HETATM   26  C   UNL     1      -5.976   6.013  71.100  1.00  0.00    -0.030 A  
HETATM   27  C   UNL     1      -5.757   7.391  71.074  1.00  0.00    -0.035 A  
HETATM   28  C   UNL     1      -6.828   8.290  71.375  1.00  0.00    -0.062 A  
ENDBRANCH  15  20
ENDBRANCH  13  14
ENDBRANCH  12  13
ENDBRANCH   3  12
TORSDOF 4
ENDMDL
MODEL      278
REMARK 921   NORMALIZED FREE ENERGY PREDICTED BY IDOCK:    3.34 KCAL/MOL
REMARK 922        TOTAL FREE ENERGY PREDICTED BY IDOCK:    3.60 KCAL/MOL
REMARK 923 INTER-LIGAND FREE ENERGY PREDICTED BY IDOCK:   -2.97 KCAL/MOL
REMARK 924 INTRA-LIGAND FREE ENERGY PREDICTED BY IDOCK:    6.57 KCAL/MOL
REMARK 927      BINDING AFFINITY PREDICTED BY RF-SCORE:    0.00 PKD
ROOT
HETATM    1 CL   UNL     1     -11.317   5.251  65.904  1.00  0.00     0.289 Cl 
HETATM    2  C   UNL     1     -10.418   5.951  67.203  1.00  0.00    -0.272 A  
HETATM    3  C   UNL     1      -9.439   5.204  67.914  1.00  0.00    -0.155 A  
HETATM    4  O   UNL     1     -10.374   8.819  72.046  1.00  0.00    -0.324 OA 
HETATM    5  C   UNL     1      -8.632   5.836  68.877  1.00  0.00    -0.106 A  
HETATM    6  C   UNL     1      -9.051   7.068  69.333  1.00  0.00    -0.145 A  
HETATM    7  N   UNL     1     -10.741   8.517  69.761  1.00  0.00    -0.228 NA 
HETATM    8  C   UNL     1      -8.676   7.775  70.601  1.00  0.00    -0.139 C  
HETATM    9  C   UNL     1     -10.821   7.201  67.669  1.00  0.00    -0.279 A  
HETATM   10  C   UNL     1     -10.197   7.659  68.807  1.00  0.00    -0.199 A  
HETATM   11  C   UNL     1     -10.005   8.446  70.946  1.00  0.00    -0.191 C  
ENDROOT
BRANCH   3  12
HETATM   12  C   UNL     1      -9.646   3.710  68.107  1.00  0.00    -0.166 C  
BRANCH  12  13
HETATM   13  C   UNL     1      -8.521   2.695  67.869  1.00  0.00    -0.085 C  
BRANCH  13  14
HETATM   14  N   UNL     1      -7.962   2.933  66.520  1.00  0.00    -0.080 NA 
HETATM   15  N   UNL     1      -6.480   5.499  66.061  1.00  0.00    -0.039 NA 
HETATM   16  C   UNL     1      -8.501   4.138  65.861  1.00  0.00    -0.109 C  
HETATM   17  C   UNL     1      -6.485   2.963  66.443  1.00  0.00    -0.032 C  
HETATM   18  C   UNL     1      -5.721   4.330  66.552  1.00  0.00    -0.018 C  
HETATM   19  C   UNL     1      -7.902   5.434  66.422  1.00  0.00    -0.100 C  
BRANCH  15  20
HETATM   20  C   UNL     1      -6.212   6.055  64.824  1.00  0.00    -0.030 A  
HETATM   21  N   UNL     1      -5.621   5.371  63.854  1.00  0.00    -0.013 NA 
HETATM   22  S   UNL     1      -5.663   6.211  62.441  1.00  0.00    -0.023 SA 
HETATM   23  C   UNL     1      -6.520   7.558  63.065  1.00  0.00    -0.058 A  
HETATM   24  C   UNL     1      -6.974   8.689  62.372  1.00  0.00    -0.094 A  
HETATM   25  C   UNL     1      -7.646   9.676  63.097  1.00  0.00    -0.117 A  
HETATM   26  C   UNL     1      -7.840   9.526  64.463  1.00  0.00    -0.126 A  
HETATM   27  C   UNL     1      -7.404   8.386  65.141  1.00  0.00    -0.081 A  
HETATM   28  C   UNL     1      -6.698   7.363  64.433  1.00  0.00    -0.047 A  
ENDBRANCH  15  20
ENDBRANCH  13  14
ENDBRANCH  12  13
ENDBRANCH   3  12
TORSDOF 4
ENDMDL
MODEL      279
REMARK 921   NORMALIZED FREE ENERGY PREDICTED BY IDOCK:    3.63 KCAL/MOL
REMARK 922        TOTAL FREE ENERGY PREDICTED BY IDOCK:    3.96 KCAL/MOL
REMARK 923 INTER-LIGAND FREE ENERGY PREDICTED BY IDOCK:   -1.22 KCAL/MOL
REMARK 924 INTRA-LIGAND FREE ENERGY PREDICTED BY IDOCK:    5.18 KCAL/MOL
REMARK 927      BINDING AFFINITY PREDICTED BY RF-SCORE:    0.00 PKD
ROOT
HETATM    1 CL   UNL     1     -11.985  11.498  67.279  1.00  0.00    -0.049 Cl 
HETATM    2  C   UNL     1     -10.752  12.348  68.140  1.00  0.00    -0.221 A  
HETATM    3  C   UNL     1     -10.775  13.764  68.262  1.00  0.00    -0.264 A  
HETATM    4  O   UNL     1      -5.278  13.309  69.035  1.00  0.00    -0.069 OA 
HETATM    5  C   UNL     1      -9.833  14.418  69.077  1.00  0.00    -0.106 A  
HETATM    6  C   UNL     1      -8.721  13.693  69.452  1.00  0.00     0.872 A  
HETATM    7  N   UNL     1      -7.235  12.037  69.018  1.00  0.00    -0.089 NA 
HETATM    8  C   UNL     1      -7.392  14.196  69.931  1.00  0.00     0.342 C  
HETATM    9  C   UNL     1      -9.626  11.628  68.537  1.00  0.00    -0.181 A  
HETATM   10  C   UNL     1      -8.590  12.360  69.070  1.00  0.00     0.457 A  
HETATM   11  C   UNL     1      -6.461  13.167  69.291  1.00  0.00    -0.107 C  
ENDROOT
BRANCH   3  12
HETATM   12  C   UNL     1     -11.348  14.594  67.124  1.00  0.00    -0.365 C  
BRANCH  12  13
HETATM   13  C   UNL     1     -10.451  15.323  66.116  1.00  0.00    -0.309 C  
BRANCH  13  14
HETATM   14  N   UNL     1     -10.295  14.456  64.926  1.00  0.00    -0.425 NA 
HETATM   15  N   UNL     1     -10.100  11.498  65.377  1.00  0.00    -0.248 NA 
HETATM   16  C   UNL     1      -9.052  13.662  64.932  1.00  0.00     1.853 C  
HETATM   17  C   UNL     1     -11.437  13.560  64.642  1.00  0.00    -0.358 C  
HETATM   18  C   UNL     1     -11.441  12.092  65.201  1.00  0.00    -0.323 C  
HETATM   19  C   UNL     1      -9.122  12.466  65.891  1.00  0.00     0.099 C  
BRANCH  15  20
HETATM   20  C   UNL     1      -9.601  10.584  64.468  1.00  0.00    -0.302 A  
HETATM   21  N   UNL     1      -9.454  10.874  63.182  1.00  0.00    -0.304 NA 
HETATM   22  S   UNL     1      -8.616   9.687  62.411  1.00  0.00    -0.223 SA 
HETATM   23  C   UNL     1      -8.378   8.711  63.799  1.00  0.00    -0.112 A  
HETATM   24  C   UNL     1      -7.659   7.512  63.899  1.00  0.00    -0.114 A  
HETATM   25  C   UNL     1      -7.610   6.879  65.144  1.00  0.00    -0.102 A  
HETATM   26  C   UNL     1      -8.268   7.432  66.234  1.00  0.00    -0.126 A  
HETATM   27  C   UNL     1      -8.962   8.639  66.130  1.00  0.00    -0.221 A  
HETATM   28  C   UNL     1      -9.046   9.306  64.868  1.00  0.00    -0.227 A  
ENDBRANCH  15  20
ENDBRANCH  13  14
ENDBRANCH  12  13
ENDBRANCH   3  12
TORSDOF 4
ENDMDL
MODEL      280
REMARK 921   NORMALIZED FREE ENERGY PREDICTED BY IDOCK:    4.24 KCAL/MOL
REMARK 922        TOTAL FREE ENERGY PREDICTED BY IDOCK:    4.72 KCAL/MOL
REMARK 923 INTER-LIGAND FREE ENERGY PREDICTED BY IDOCK:    1.60 KCAL/MOL
REMARK 924 INTRA-LIGAND FREE ENERGY PREDICTED BY IDOCK:    3.12 KCAL/MOL
REMARK 927      BINDING AFFINITY PREDICTED BY RF-SCORE:    0.00 PKD
ROOT
HETATM    1 CL   UNL     1      -5.753   8.394  67.594  1.00  0.00    -0.039 Cl 
HETATM    2  C   UNL     1      -7.162   7.512  67.125  1.00  0.00    -0.086 A  
HETATM    3  C   UNL     1      -8.290   7.405  67.983  1.00  0.00    -0.124 A  
HETATM    4  O   UNL     1      -9.444   2.780  65.102  1.00  0.00    -0.140 OA 
HETATM    5  C   UNL     1      -9.472   6.794  67.524  1.00  0.00    -0.139 A  
HETATM    6  C   UNL     1      -9.375   6.025  66.383  1.00  0.00    -0.171 A  
HETATM    7  N   UNL     1      -8.133   4.709  65.019  1.00  0.00    -0.099 NA 
HETATM    8  C   UNL     1     -10.298   4.947  65.900  1.00  0.00    -0.271 C  
HETATM    9  C   UNL     1      -7.086   6.739  65.967  1.00  0.00    -0.069 A  
HETATM   10  C   UNL     1      -8.162   5.920  65.708  1.00  0.00    -0.130 A  
HETATM   11  C   UNL     1      -9.290   3.975  65.289  1.00  0.00    -0.163 C  
ENDROOT
BRANCH   3  12
HETATM   12  C   UNL     1      -8.072   7.366  69.488  1.00  0.00    -0.129 C  
BRANCH  12  13
HETATM   13  C   UNL     1      -9.164   7.786  70.480  1.00  0.00    -0.162 C  
BRANCH  13  14
HETATM   14  N   UNL     1     -10.109   8.680  69.775  1.00  0.00    -0.194 NA 
HETATM   15  N   UNL     1      -9.450  11.603  69.675  1.00  0.00     0.953 NA 
HETATM   16  C   UNL     1     -10.688   9.727  70.637  1.00  0.00    -0.326 C  
HETATM   17  C   UNL     1      -9.586   9.307  68.541  1.00  0.00    -0.147 C  
HETATM   18  C   UNL     1      -8.928  10.731  68.603  1.00  0.00    -0.162 C  
HETATM   19  C   UNL     1      -9.702  10.868  70.921  1.00  0.00     3.554 C  
BRANCH  15  20
HETATM   20  C   UNL     1     -10.349  12.615  69.397  1.00  0.00     0.486 A  
HETATM   21  N   UNL     1     -10.908  13.346  70.352  1.00  0.00     1.079 NA 
HETATM   22  S   UNL     1     -11.729  14.616  69.706  1.00  0.00    -0.332 SA 
HETATM   23  C   UNL     1     -11.348  14.259  68.074  1.00  0.00    -0.294 A  
HETATM   24  C   UNL     1     -11.688  14.991  66.928  1.00  0.00    -0.181 A  
HETATM   25  C   UNL     1     -11.275  14.495  65.688  1.00  0.00    -0.335 A  
HETATM   26  C   UNL     1     -10.560  13.308  65.615  1.00  0.00    -0.291 A  
HETATM   27  C   UNL     1     -10.207  12.598  66.764  1.00  0.00    -0.246 A  
HETATM   28  C   UNL     1     -10.626  13.067  68.048  1.00  0.00    -0.246 A  
ENDBRANCH  15  20
ENDBRANCH  13  14
ENDBRANCH  12  13
ENDBRANCH   3  12
TORSDOF 4
ENDMDL
MODEL      281
REMARK 921   NORMALIZED FREE ENERGY PREDICTED BY IDOCK:    4.92 KCAL/MOL
REMARK 922        TOTAL FREE ENERGY PREDICTED BY IDOCK:    5.55 KCAL/MOL
REMARK 923 INTER-LIGAND FREE ENERGY PREDICTED BY IDOCK:    5.57 KCAL/MOL
REMARK 924 INTRA-LIGAND FREE ENERGY PREDICTED BY IDOCK:   -0.02 KCAL/MOL
REMARK 927      BINDING AFFINITY PREDICTED BY RF-SCORE:    0.00 PKD
ROOT
HETATM    1 CL   UNL     1     -13.758  16.685  70.223  1.00  0.00     4.941 Cl 
HETATM    2  C   UNL     1     -12.934  15.191  70.497  1.00  0.00    -0.321 A  
HETATM    3  C   UNL     1     -11.522  15.089  70.374  1.00  0.00    -0.321 A  
HETATM    4  O   UNL     1     -12.469   9.676  69.468  1.00  0.00     0.667 OA 
HETATM    5  C   UNL     1     -10.866  13.897  70.730  1.00  0.00     1.452 A  
HETATM    6  C   UNL     1     -11.648  12.768  70.861  1.00  0.00     0.887 A  
HETATM    7  N   UNL     1     -13.504  11.605  70.280  1.00  0.00     1.164 NA 
HETATM    8  C   UNL     1     -11.231  11.329  70.809  1.00  0.00     0.715 C  
HETATM    9  C   UNL     1     -13.710  14.042  70.644  1.00  0.00     0.431 A  
HETATM   10  C   UNL     1     -13.028  12.847  70.694  1.00  0.00     0.149 A  
HETATM   11  C   UNL     1     -12.439  10.719  70.100  1.00  0.00    -0.285 C  
ENDROOT
BRANCH   3  12
HETATM   12  C   UNL     1     -10.807  15.951  69.344  1.00  0.00    -0.288 C  
BRANCH  12  13
HETATM   13  C   UNL     1     -11.033  15.775  67.837  1.00  0.00    -0.324 C  
BRANCH  13  14
HETATM   14  N   UNL     1      -9.828  15.137  67.262  1.00  0.00    -0.227 NA 
HETATM   15  N   UNL     1     -10.122  12.374  66.134  1.00  0.00    -0.243 NA 
HETATM   16  C   UNL     1      -9.445  13.881  67.935  1.00  0.00    -0.212 C  
HETATM   17  C   UNL     1      -9.871  14.905  65.801  1.00  0.00    -0.348 C  
HETATM   18  C   UNL     1     -10.368  13.525  65.240  1.00  0.00    -0.331 C  
HETATM   19  C   UNL     1     -10.349  12.704  67.546  1.00  0.00    -0.218 C  
BRANCH  15  20
HETATM   20  C   UNL     1      -9.082  11.495  65.895  1.00  0.00    -0.177 A  
HETATM   21  N   UNL     1      -8.252  11.106  66.853  1.00  0.00    -0.143 NA 
HETATM   22  S   UNL     1      -7.288   9.882  66.324  1.00  0.00    -0.106 SA 
HETATM   23  C   UNL     1      -7.968   9.790  64.754  1.00  0.00    -0.138 A  
HETATM   24  C   UNL     1      -7.655   8.886  63.729  1.00  0.00    -0.121 A  
HETATM   25  C   UNL     1      -8.338   9.009  62.516  1.00  0.00    -0.195 A  
HETATM   26  C   UNL     1      -9.286  10.008  62.348  1.00  0.00    -0.286 A  
HETATM   27  C   UNL     1      -9.607  10.889  63.382  1.00  0.00    -0.364 A  
HETATM   28  C   UNL     1      -8.917  10.803  64.632  1.00  0.00    -0.191 A  
ENDBRANCH  15  20
ENDBRANCH  13  14
ENDBRANCH  12  13
ENDBRANCH   3  12
TORSDOF 4
ENDMDL
MODEL      282
REMARK 921   NORMALIZED FREE ENERGY PREDICTED BY IDOCK:    5.01 KCAL/MOL
REMARK 922        TOTAL FREE ENERGY PREDICTED BY IDOCK:    5.66 KCAL/MOL
REMARK 923 INTER-LIGAND FREE ENERGY PREDICTED BY IDOCK:    4.41 KCAL/MOL
REMARK 924 INTRA-LIGAND FREE ENERGY PREDICTED BY IDOCK:    1.26 KCAL/MOL
REMARK 927      BINDING AFFINITY PREDICTED BY RF-SCORE:    0.00 PKD
ROOT
HETATM    1 CL   UNL     1      -8.704   7.366  73.360  1.00  0.00    -0.181 Cl 
HETATM    2  C   UNL     1      -8.897   6.006  72.313  1.00  0.00    -0.138 A  
HETATM    3  C   UNL     1      -8.787   6.135  70.902  1.00  0.00    -0.136 A  
HETATM    4  O   UNL     1     -11.925   1.537  70.716  1.00  0.00     4.544 OA 
HETATM    5  C   UNL     1      -8.818   4.990  70.084  1.00  0.00    -0.138 A  
HETATM    6  C   UNL     1      -9.293   3.827  70.653  1.00  0.00    -0.225 A  
HETATM    7  N   UNL     1     -10.622   2.805  72.179  1.00  0.00     0.113 NA 
HETATM    8  C   UNL     1      -9.834   2.605  69.974  1.00  0.00     0.203 C  
HETATM    9  C   UNL     1      -9.365   4.819  72.874  1.00  0.00    -0.143 A  
HETATM   10  C   UNL     1      -9.668   3.805  71.994  1.00  0.00    -0.166 A  
HETATM   11  C   UNL     1     -10.938   2.211  70.955  1.00  0.00     2.797 C  
ENDROOT
BRANCH   3  12
HETATM   12  C   UNL     1      -9.238   7.428  70.241  1.00  0.00    -0.154 C  
BRANCH  12  13
HETATM   13  C   UNL     1      -9.672   7.483  68.771  1.00  0.00    -0.151 C  
BRANCH  13  14
HETATM   14  N   UNL     1     -10.341   8.782  68.535  1.00  0.00    -0.202 NA 
HETATM   15  N   UNL     1      -9.450  10.395  66.170  1.00  0.00    -0.174 NA 
HETATM   16  C   UNL     1      -9.421   9.935  68.571  1.00  0.00    -0.146 C  
HETATM   17  C   UNL     1     -11.160   8.858  67.306  1.00  0.00     0.408 C  
HETATM   18  C   UNL     1     -10.531   9.407  65.976  1.00  0.00     0.159 C  
HETATM   19  C   UNL     1      -8.573  10.053  67.297  1.00  0.00    -0.125 C  
BRANCH  15  20
HETATM   20  C   UNL     1      -9.680  11.748  65.994  1.00  0.00    -0.232 A  
HETATM   21  N   UNL     1     -10.402  12.216  64.985  1.00  0.00    -0.279 NA 
HETATM   22  S   UNL     1     -10.702  13.821  65.181  1.00  0.00    -0.381 SA 
HETATM   23  C   UNL     1      -9.883  13.970  66.679  1.00  0.00    -0.284 A  
HETATM   24  C   UNL     1      -9.775  15.104  67.496  1.00  0.00    -0.205 A  
HETATM   25  C   UNL     1      -9.039  14.993  68.679  1.00  0.00    -0.191 A  
HETATM   26  C   UNL     1      -8.434  13.789  69.012  1.00  0.00     0.251 A  
HETATM   27  C   UNL     1      -8.566  12.659  68.203  1.00  0.00    -0.188 A  
HETATM   28  C   UNL     1      -9.298  12.741  66.978  1.00  0.00    -0.229 A  
ENDBRANCH  15  20
ENDBRANCH  13  14
ENDBRANCH  12  13
ENDBRANCH   3  12
TORSDOF 4
ENDMDL
MODEL      283
REMARK 921   NORMALIZED FREE ENERGY PREDICTED BY IDOCK:    7.98 KCAL/MOL
REMARK 922        TOTAL FREE ENERGY PREDICTED BY IDOCK:    9.32 KCAL/MOL
REMARK 923 INTER-LIGAND FREE ENERGY PREDICTED BY IDOCK:    8.26 KCAL/MOL
REMARK 924 INTRA-LIGAND FREE ENERGY PREDICTED BY IDOCK:    1.06 KCAL/MOL
REMARK 927      BINDING AFFINITY PREDICTED BY RF-SCORE:    0.00 PKD
ROOT
HETATM    1 CL   UNL     1     -13.631   9.261  69.103  1.00  0.00     5.363 Cl 
HETATM    2  C   UNL     1     -12.553   8.514  70.228  1.00  0.00     0.912 A  
HETATM    3  C   UNL     1     -11.468   9.230  70.802  1.00  0.00    -0.351 A  
HETATM    4  O   UNL     1      -9.172   4.210  71.543  1.00  0.00    -0.121 OA 
HETATM    5  C   UNL     1     -10.687   8.638  71.812  1.00  0.00    -0.392 A  
HETATM    6  C   UNL     1     -10.792   7.272  71.964  1.00  0.00    -0.264 A  
HETATM    7  N   UNL     1     -11.211   5.237  71.058  1.00  0.00     0.159 NA 
HETATM    8  C   UNL     1      -9.831   6.325  72.618  1.00  0.00    -0.175 C  
HETATM    9  C   UNL     1     -12.654   7.135  70.403  1.00  0.00     0.149 A  
HETATM   10  C   UNL     1     -11.679   6.544  71.174  1.00  0.00    -0.335 A  
HETATM   11  C   UNL     1      -9.981   5.108  71.706  1.00  0.00    -0.187 C  
ENDROOT
BRANCH   3  12
HETATM   12  C   UNL     1     -10.774  10.305  69.979  1.00  0.00    -0.345 C  
BRANCH  12  13
HETATM   13  C   UNL     1      -9.965  11.434  70.630  1.00  0.00     3.657 C  
BRANCH  13  14
HETATM   14  N   UNL     1      -9.693  12.461  69.600  1.00  0.00     1.330 NA 
HETATM   15  N   UNL     1     -11.655  12.724  67.347  1.00  0.00    -0.336 NA 
HETATM   16  C   UNL     1      -9.531  11.907  68.242  1.00  0.00    -0.197 C  
HETATM   17  C   UNL     1     -10.660  13.579  69.551  1.00  0.00     0.295 C  
HETATM   18  C   UNL     1     -11.887  13.514  68.573  1.00  0.00    -0.362 C  
HETATM   19  C   UNL     1     -10.869  11.510  67.604  1.00  0.00    -0.227 C  
BRANCH  15  20
HETATM   20  C   UNL     1     -11.402  13.343  66.137  1.00  0.00    -0.303 A  
HETATM   21  N   UNL     1     -11.705  12.776  64.977  1.00  0.00    -0.335 NA 
HETATM   22  S   UNL     1     -11.516  13.846  63.742  1.00  0.00     0.286 SA 
HETATM   23  C   UNL     1     -11.033  15.164  64.724  1.00  0.00    -0.377 A  
HETATM   24  C   UNL     1     -10.749  16.479  64.328  1.00  0.00     1.141 A  
HETATM   25  C   UNL     1     -10.358  17.390  65.312  1.00  0.00     0.222 A  
HETATM   26  C   UNL     1     -10.250  16.983  66.635  1.00  0.00    -0.310 A  
HETATM   27  C   UNL     1     -10.556  15.678  67.023  1.00  0.00    -0.311 A  
HETATM   28  C   UNL     1     -10.945  14.715  66.040  1.00  0.00    -0.325 A  
ENDBRANCH  15  20
ENDBRANCH  13  14
ENDBRANCH  12  13
ENDBRANCH   3  12
TORSDOF 4
ENDMDL
MODEL      284
REMARK 921   NORMALIZED FREE ENERGY PREDICTED BY IDOCK:   10.06 KCAL/MOL
REMARK 922        TOTAL FREE ENERGY PREDICTED BY IDOCK:   11.89 KCAL/MOL
REMARK 923 INTER-LIGAND FREE ENERGY PREDICTED BY IDOCK:   11.53 KCAL/MOL
REMARK 924 INTRA-LIGAND FREE ENERGY PREDICTED BY IDOCK:    0.36 KCAL/MOL
REMARK 927      BINDING AFFINITY PREDICTED BY RF-SCORE:    0.00 PKD
ROOT
HETATM    1 CL   UNL     1     -13.638   9.264  69.102  1.00  0.00     5.363 Cl 
HETATM    2  C   UNL     1     -12.521   8.541  70.204  1.00  0.00     1.001 A  
HETATM    3  C   UNL     1     -11.475   9.297  70.801  1.00  0.00    -0.351 A  
HETATM    4  O   UNL     1      -8.909   4.388  71.384  1.00  0.00    -0.109 OA 
HETATM    5  C   UNL     1     -10.663   8.717  71.793  1.00  0.00    -0.392 A  
HETATM    6  C   UNL     1     -10.693   7.342  71.901  1.00  0.00    -0.247 A  
HETATM    7  N   UNL     1     -11.002   5.317  70.931  1.00  0.00    -0.053 NA 
HETATM    8  C   UNL     1      -9.682   6.429  72.525  1.00  0.00    -0.168 C  
HETATM    9  C   UNL     1     -12.546   7.154  70.335  1.00  0.00     0.149 A  
HETATM   10  C   UNL     1     -11.540   6.593  71.088  1.00  0.00    -0.332 A  
HETATM   11  C   UNL     1      -9.765   5.235  71.575  1.00  0.00    -0.162 C  
ENDROOT
BRANCH   3  12
HETATM   12  C   UNL     1     -10.841  10.433  70.013  1.00  0.00    -0.348 C  
BRANCH  12  13
HETATM   13  C   UNL     1     -10.086  11.577  70.700  1.00  0.00     3.699 C  
BRANCH  13  14
HETATM   14  N   UNL     1      -9.935  12.681  69.726  1.00  0.00     1.446 NA 
HETATM   15  N   UNL     1     -12.020  12.942  67.587  1.00  0.00    -0.332 NA 
HETATM   16  C   UNL     1      -9.804  12.224  68.330  1.00  0.00    -0.217 C  
HETATM   17  C   UNL     1     -10.976  13.730  69.793  1.00  0.00     0.122 C  
HETATM   18  C   UNL     1     -12.244  13.638  68.870  1.00  0.00    -0.186 C  
HETATM   19  C   UNL     1     -11.143  11.773  67.729  1.00  0.00    -0.243 C  
BRANCH  15  20
HETATM   20  C   UNL     1     -11.870  13.650  66.408  1.00  0.00    -0.398 A  
HETATM   21  N   UNL     1     -11.133  14.750  66.334  1.00  0.00    -0.336 NA 
HETATM   22  S   UNL     1     -10.948  15.219  64.768  1.00  0.00    -0.327 SA 
HETATM   23  C   UNL     1     -11.844  13.926  64.091  1.00  0.00    -0.385 A  
HETATM   24  C   UNL     1     -12.064  13.644  62.735  1.00  0.00     1.208 A  
HETATM   25  C   UNL     1     -12.846  12.531  62.415  1.00  0.00     2.407 A  
HETATM   26  C   UNL     1     -13.387  11.747  63.425  1.00  0.00     0.447 A  
HETATM   27  C   UNL     1     -13.144  12.022  64.771  1.00  0.00     0.799 A  
HETATM   28  C   UNL     1     -12.362  13.163  65.136  1.00  0.00    -0.525 A  
ENDBRANCH  15  20
ENDBRANCH  13  14
ENDBRANCH  12  13
ENDBRANCH   3  12
TORSDOF 4
ENDMDL
MODEL      285
REMARK 921   NORMALIZED FREE ENERGY PREDICTED BY IDOCK:   10.86 KCAL/MOL
REMARK 922        TOTAL FREE ENERGY PREDICTED BY IDOCK:   12.88 KCAL/MOL
REMARK 923 INTER-LIGAND FREE ENERGY PREDICTED BY IDOCK:    6.15 KCAL/MOL
REMARK 924 INTRA-LIGAND FREE ENERGY PREDICTED BY IDOCK:    6.73 KCAL/MOL
REMARK 927      BINDING AFFINITY PREDICTED BY RF-SCORE:    0.00 PKD
ROOT
HETATM    1 CL   UNL     1      -8.706   7.366  73.359  1.00  0.00    -0.181 Cl 
HETATM    2  C   UNL     1      -8.906   6.018  72.298  1.00  0.00    -0.138 A  
HETATM    3  C   UNL     1      -8.814   6.164  70.887  1.00  0.00    -0.136 A  
HETATM    4  O   UNL     1     -11.931   1.553  70.686  1.00  0.00     4.910 OA 
HETATM    5  C   UNL     1      -8.850   5.030  70.056  1.00  0.00    -0.130 A  
HETATM    6  C   UNL     1      -9.312   3.858  70.617  1.00  0.00    -0.225 A  
HETATM    7  N   UNL     1     -10.616   2.810  72.147  1.00  0.00     0.113 NA 
HETATM    8  C   UNL     1      -9.856   2.641  69.930  1.00  0.00     0.232 C  
HETATM    9  C   UNL     1      -9.361   4.822  72.851  1.00  0.00    -0.143 A  
HETATM   10  C   UNL     1      -9.670   3.817  71.962  1.00  0.00    -0.166 A  
HETATM   11  C   UNL     1     -10.944   2.230  70.921  1.00  0.00     2.925 C  
ENDROOT
BRANCH   3  12
HETATM   12  C   UNL     1      -9.280   7.463  70.248  1.00  0.00    -0.154 C  
BRANCH  12  13
HETATM   13  C   UNL     1      -9.733   7.533  68.784  1.00  0.00    -0.151 C  
BRANCH  13  14
HETATM   14  N   UNL     1      -8.797   6.724  67.972  1.00  0.00    -0.121 NA 
HETATM   15  N   UNL     1      -9.975   4.728  66.070  1.00  0.00    -0.214 NA 
HETATM   16  C   UNL     1      -8.916   5.272  68.205  1.00  0.00    -0.109 C  
HETATM   17  C   UNL     1      -8.837   6.983  66.516  1.00  0.00    -0.141 C  
HETATM   18  C   UNL     1      -9.752   6.107  65.588  1.00  0.00     0.420 C  
HETATM   19  C   UNL     1     -10.151   4.665  67.527  1.00  0.00    -0.075 C  
BRANCH  15  20
HETATM   20  C   UNL     1      -9.296   3.660  65.513  1.00  0.00    -0.160 A  
HETATM   21  N   UNL     1      -9.925   2.670  64.893  1.00  0.00     0.134 NA 
HETATM   22  S   UNL     1      -8.849   1.687  64.130  1.00  0.00    -0.093 SA 
HETATM   23  C   UNL     1      -7.453   2.573  64.580  1.00  0.00    -0.071 A  
HETATM   24  C   UNL     1      -6.121   2.331  64.216  1.00  0.00    -0.014 A  
HETATM   25  C   UNL     1      -5.138   3.187  64.718  1.00  0.00    -0.008 A  
HETATM   26  C   UNL     1      -5.489   4.234  65.559  1.00  0.00    -0.013 A  
HETATM   27  C   UNL     1      -6.821   4.481  65.898  1.00  0.00    -0.058 A  
HETATM   28  C   UNL     1      -7.851   3.616  65.415  1.00  0.00    -0.086 A  
ENDBRANCH  15  20
ENDBRANCH  13  14
ENDBRANCH  12  13
ENDBRANCH   3  12
TORSDOF 4
ENDMDL
MODEL      286
REMARK 921   NORMALIZED FREE ENERGY PREDICTED BY IDOCK:   13.63 KCAL/MOL
REMARK 922        TOTAL FREE ENERGY PREDICTED BY IDOCK:   16.30 KCAL/MOL
REMARK 923 INTER-LIGAND FREE ENERGY PREDICTED BY IDOCK:   11.37 KCAL/MOL
REMARK 924 INTRA-LIGAND FREE ENERGY PREDICTED BY IDOCK:    4.93 KCAL/MOL
REMARK 927      BINDING AFFINITY PREDICTED BY RF-SCORE:    0.00 PKD
ROOT
HETATM    1 CL   UNL     1     -13.341  16.225  72.796  1.00  0.00    -0.258 Cl 
HETATM    2  C   UNL     1     -12.465  14.880  72.155  1.00  0.00    -0.338 A  
HETATM    3  C   UNL     1     -11.115  15.010  71.730  1.00  0.00    -0.025 A  
HETATM    4  O   UNL     1     -12.197  10.580  68.533  1.00  0.00    -0.279 OA 
HETATM    5  C   UNL     1     -10.387  13.872  71.337  1.00  0.00     4.576 A  
HETATM    6  C   UNL     1     -11.111  12.733  71.055  1.00  0.00     2.887 A  
HETATM    7  N   UNL     1     -13.040  11.773  70.353  1.00  0.00     0.320 NA 
HETATM    8  C   UNL     1     -10.705  11.543  70.239  1.00  0.00     0.963 C  
HETATM    9  C   UNL     1     -13.180  13.717  71.876  1.00  0.00    -0.497 A  
HETATM   10  C   UNL     1     -12.494  12.723  71.214  1.00  0.00    -0.185 A  
HETATM   11  C   UNL     1     -12.036  11.202  69.569  1.00  0.00    -0.355 C  
ENDROOT
BRANCH   3  12
HETATM   12  C   UNL     1     -10.653  16.328  71.127  1.00  0.00     0.854 C  
BRANCH  12  13
HETATM   13  C   UNL     1     -11.352  16.957  69.916  1.00  0.00     0.489 C  
BRANCH  13  14
HETATM   14  N   UNL     1     -10.578  16.609  68.704  1.00  0.00    -0.315 NA 
HETATM   15  N   UNL     1     -10.316  13.705  68.007  1.00  0.00    -0.244 NA 
HETATM   16  C   UNL     1      -9.405  15.757  68.976  1.00  0.00    -0.244 C  
HETATM   17  C   UNL     1     -11.363  16.011  67.602  1.00  0.00    -0.109 C  
HETATM   18  C   UNL     1     -11.476  14.450  67.477  1.00  0.00    -0.349 C  
HETATM   19  C   UNL     1      -9.789  14.295  69.244  1.00  0.00     0.115 C  
BRANCH  15  20
HETATM   20  C   UNL     1      -9.364  13.171  67.159  1.00  0.00    -0.235 A  
HETATM   21  N   UNL     1      -9.540  13.114  65.846  1.00  0.00    -0.171 NA 
HETATM   22  S   UNL     1      -8.149  12.661  65.093  1.00  0.00     3.825 SA 
HETATM   23  C   UNL     1      -7.209  12.540  66.520  1.00  0.00     0.789 A  
HETATM   24  C   UNL     1      -5.845  12.238  66.633  1.00  0.00     0.455 A  
HETATM   25  C   UNL     1      -5.289  12.182  67.914  1.00  0.00    -0.065 A  
HETATM   26  C   UNL     1      -6.084  12.413  69.028  1.00  0.00    -0.077 A  
HETATM   27  C   UNL     1      -7.436  12.736  68.905  1.00  0.00     0.022 A  
HETATM   28  C   UNL     1      -8.042  12.786  67.610  1.00  0.00    -0.175 A  
ENDBRANCH  15  20
ENDBRANCH  13  14
ENDBRANCH  12  13
ENDBRANCH   3  12
TORSDOF 4
ENDMDL
MODEL      287
REMARK 921   NORMALIZED FREE ENERGY PREDICTED BY IDOCK:   14.69 KCAL/MOL
REMARK 922        TOTAL FREE ENERGY PREDICTED BY IDOCK:   17.61 KCAL/MOL
REMARK 923 INTER-LIGAND FREE ENERGY PREDICTED BY IDOCK:   11.27 KCAL/MOL
REMARK 924 INTRA-LIGAND FREE ENERGY PREDICTED BY IDOCK:    6.33 KCAL/MOL
REMARK 927      BINDING AFFINITY PREDICTED BY RF-SCORE:    0.00 PKD
ROOT
HETATM    1 CL   UNL     1      -9.261   4.200  67.966  1.00  0.00    -0.173 Cl 
HETATM    2  C   UNL     1      -9.401   5.263  69.321  1.00  0.00    -0.123 A  
HETATM    3  C   UNL     1     -10.515   6.135  69.468  1.00  0.00    -0.315 A  
HETATM    4  O   UNL     1      -7.099   9.190  72.632  1.00  0.00    -0.299 OA 
HETATM    5  C   UNL     1     -10.668   6.892  70.644  1.00  0.00    -0.267 A  
HETATM    6  C   UNL     1      -9.561   7.015  71.457  1.00  0.00    -0.159 A  
HETATM    7  N   UNL     1      -7.307   7.067  71.686  1.00  0.00    -0.082 NA 
HETATM    8  C   UNL     1      -9.278   8.051  72.502  1.00  0.00    -0.280 C  
HETATM    9  C   UNL     1      -8.296   5.391  70.160  1.00  0.00    -0.114 A  
HETATM   10  C   UNL     1      -8.374   6.364  71.130  1.00  0.00    -0.123 A  
HETATM   11  C   UNL     1      -7.770   8.222  72.319  1.00  0.00    -0.126 C  
ENDROOT
BRANCH   3  12
HETATM   12  C   UNL     1     -11.170   6.713  68.223  1.00  0.00    -0.208 C  
BRANCH  12  13
HETATM   13  C   UNL     1     -10.399   6.899  66.910  1.00  0.00    -0.262 C  
BRANCH  13  14
HETATM   14  N   UNL     1      -9.796   8.251  66.917  1.00  0.00    -0.222 NA 
HETATM   15  N   UNL     1      -7.455   8.720  68.731  1.00  0.00    -0.083 NA 
HETATM   16  C   UNL     1      -9.841   8.912  68.235  1.00  0.00    -0.167 C  
HETATM   17  C   UNL     1      -8.417   8.331  66.386  1.00  0.00    -0.121 C  
HETATM   18  C   UNL     1      -7.193   8.228  67.363  1.00  0.00    -0.084 C  
HETATM   19  C   UNL     1      -8.795   8.355  69.210  1.00  0.00    -0.142 C  
BRANCH  15  20
HETATM   20  C   UNL     1      -7.000   9.959  69.143  1.00  0.00    -0.057 A  
HETATM   21  N   UNL     1      -5.761  10.370  68.909  1.00  0.00    -0.041 NA 
HETATM   22  S   UNL     1      -5.595  11.961  69.293  1.00  0.00    -0.064 SA 
HETATM   23  C   UNL     1      -7.222  12.194  69.780  1.00  0.00     0.597 A  
HETATM   24  C   UNL     1      -7.837  13.382  70.198  1.00  0.00     2.254 A  
HETATM   25  C   UNL     1      -9.185  13.330  70.562  1.00  0.00     5.685 A  
HETATM   26  C   UNL     1      -9.873  12.125  70.513  1.00  0.00     4.985 A  
HETATM   27  C   UNL     1      -9.259  10.952  70.074  1.00  0.00     1.031 A  
HETATM   28  C   UNL     1      -7.876  10.965  69.709  1.00  0.00     0.234 A  
ENDBRANCH  15  20
ENDBRANCH  13  14
ENDBRANCH  12  13
ENDBRANCH   3  12
TORSDOF 4
ENDMDL
MODEL      288
REMARK 921   NORMALIZED FREE ENERGY PREDICTED BY IDOCK:   15.06 KCAL/MOL
REMARK 922        TOTAL FREE ENERGY PREDICTED BY IDOCK:   18.06 KCAL/MOL
REMARK 923 INTER-LIGAND FREE ENERGY PREDICTED BY IDOCK:    3.46 KCAL/MOL
REMARK 924 INTRA-LIGAND FREE ENERGY PREDICTED BY IDOCK:   14.60 KCAL/MOL
REMARK 927      BINDING AFFINITY PREDICTED BY RF-SCORE:    0.00 PKD
ROOT
HETATM    1 CL   UNL     1      -7.504  13.186  67.533  1.00  0.00    -0.161 Cl 
HETATM    2  C   UNL     1      -8.399  14.654  67.369  1.00  0.00    -0.206 A  
HETATM    3  C   UNL     1      -7.771  15.924  67.494  1.00  0.00    -0.183 A  
HETATM    4  O   UNL     1     -12.854  17.777  68.814  1.00  0.00     5.053 OA 
HETATM    5  C   UNL     1      -8.496  17.099  67.226  1.00  0.00    -0.211 A  
HETATM    6  C   UNL     1      -9.870  16.991  67.185  1.00  0.00    -0.269 A  
HETATM    7  N   UNL     1     -11.764  15.946  67.862  1.00  0.00    -0.108 NA 
HETATM    8  C   UNL     1     -10.900  18.069  67.345  1.00  0.00    -0.236 C  
HETATM    9  C   UNL     1      -9.789  14.562  67.314  1.00  0.00    -0.236 A  
HETATM   10  C   UNL     1     -10.482  15.751  67.353  1.00  0.00    -0.297 A  
HETATM   11  C   UNL     1     -11.983  17.304  68.104  1.00  0.00     1.627 C  
ENDROOT
BRANCH   3  12
HETATM   12  C   UNL     1      -6.599  16.077  68.451  1.00  0.00    -0.120 C  
BRANCH  12  13
HETATM   13  C   UNL     1      -5.772  14.875  68.925  1.00  0.00    -0.086 C  
BRANCH  13  14
HETATM   14  N   UNL     1      -6.662  13.979  69.697  1.00  0.00    -0.100 NA 
HETATM   15  N   UNL     1      -6.517  11.040  69.119  1.00  0.00    -0.059 NA 
HETATM   16  C   UNL     1      -7.604  13.214  68.857  1.00  0.00     0.040 C  
HETATM   17  C   UNL     1      -5.977  13.048  70.620  1.00  0.00    -0.044 C  
HETATM   18  C   UNL     1      -5.610  11.597  70.143  1.00  0.00    -0.127 C  
HETATM   19  C   UNL     1      -6.929  12.044  68.129  1.00  0.00    -0.079 C  
BRANCH  15  20
HETATM   20  C   UNL     1      -7.487  10.112  69.453  1.00  0.00    -0.119 A  
HETATM   21  N   UNL     1      -8.483  10.398  70.281  1.00  0.00     0.254 NA 
HETATM   22  S   UNL     1      -9.597   9.188  70.287  1.00  0.00    -0.231 SA 
HETATM   23  C   UNL     1      -8.797   8.207  69.133  1.00  0.00    -0.144 A  
HETATM   24  C   UNL     1      -9.226   6.988  68.589  1.00  0.00    -0.131 A  
HETATM   25  C   UNL     1      -8.393   6.354  67.664  1.00  0.00    -0.117 A  
HETATM   26  C   UNL     1      -7.177   6.925  67.314  1.00  0.00    -0.089 A  
HETATM   27  C   UNL     1      -6.769   8.151  67.844  1.00  0.00    -0.065 A  
HETATM   28  C   UNL     1      -7.588   8.820  68.806  1.00  0.00    -0.095 A  
ENDBRANCH  15  20
ENDBRANCH  13  14
ENDBRANCH  12  13
ENDBRANCH   3  12
TORSDOF 4
ENDMDL
MODEL      289
REMARK 921   NORMALIZED FREE ENERGY PREDICTED BY IDOCK:   15.90 KCAL/MOL
REMARK 922        TOTAL FREE ENERGY PREDICTED BY IDOCK:   19.10 KCAL/MOL
REMARK 923 INTER-LIGAND FREE ENERGY PREDICTED BY IDOCK:    6.71 KCAL/MOL
REMARK 924 INTRA-LIGAND FREE ENERGY PREDICTED BY IDOCK:   12.39 KCAL/MOL
REMARK 927      BINDING AFFINITY PREDICTED BY RF-SCORE:    0.00 PKD
ROOT
HETATM    1 CL   UNL     1      -9.463  13.528  67.537  1.00  0.00    -0.215 Cl 
HETATM    2  C   UNL     1     -10.265  14.337  68.836  1.00  0.00    -0.200 A  
HETATM    3  C   UNL     1      -9.722  15.509  69.428  1.00  0.00    -0.283 A  
HETATM    4  O   UNL     1     -12.740  14.079  73.885  1.00  0.00     0.040 OA 
HETATM    5  C   UNL     1     -10.459  16.219  70.393  1.00  0.00     0.154 A  
HETATM    6  C   UNL     1     -11.527  15.565  70.970  1.00  0.00    -0.426 A  
HETATM    7  N   UNL     1     -12.512  13.626  71.607  1.00  0.00    -0.238 NA 
HETATM    8  C   UNL     1     -12.216  15.861  72.268  1.00  0.00    -0.585 C  
HETATM    9  C   UNL     1     -11.354  13.695  69.423  1.00  0.00    -0.303 A  
HETATM   10  C   UNL     1     -11.869  14.279  70.558  1.00  0.00    -0.294 A  
HETATM   11  C   UNL     1     -12.536  14.443  72.739  1.00  0.00    -0.186 C  
ENDROOT
BRANCH   3  12
HETATM   12  C   UNL     1      -8.211  15.662  69.511  1.00  0.00    -0.175 C  
BRANCH  12  13
HETATM   13  C   UNL     1      -7.405  15.144  70.709  1.00  0.00     1.143 C  
BRANCH  13  14
HETATM   14  N   UNL     1      -6.938  13.775  70.393  1.00  0.00     0.505 NA 
HETATM   15  N   UNL     1      -8.619  12.126  68.536  1.00  0.00    -0.124 NA 
HETATM   16  C   UNL     1      -7.889  12.720  70.793  1.00  0.00     5.930 C  
HETATM   17  C   UNL     1      -6.535  13.552  68.987  1.00  0.00    -0.107 C  
HETATM   18  C   UNL     1      -7.575  12.993  67.952  1.00  0.00    -0.144 C  
HETATM   19  C   UNL     1      -9.087  12.614  69.840  1.00  0.00     3.034 C  
BRANCH  15  20
HETATM   20  C   UNL     1      -8.556  10.751  68.412  1.00  0.00    -0.141 A  
HETATM   21  N   UNL     1      -8.026  10.161  67.348  1.00  0.00    -0.109 NA 
HETATM   22  S   UNL     1      -7.871   8.543  67.598  1.00  0.00    -0.103 SA 
HETATM   23  C   UNL     1      -8.495   8.552  69.194  1.00  0.00    -0.125 A  
HETATM   24  C   UNL     1      -8.611   7.474  70.082  1.00  0.00    -0.141 A  
HETATM   25  C   UNL     1      -9.168   7.718  71.340  1.00  0.00    -0.156 A  
HETATM   26  C   UNL     1      -9.596   8.995  71.677  1.00  0.00    -0.319 A  
HETATM   27  C   UNL     1      -9.456  10.067  70.794  1.00  0.00     0.490 A  
HETATM   28  C   UNL     1      -8.905   9.850  69.492  1.00  0.00    -0.208 A  
ENDBRANCH  15  20
ENDBRANCH  13  14
ENDBRANCH  12  13
ENDBRANCH   3  12
TORSDOF 4
ENDMDL
MODEL      290
REMARK 921   NORMALIZED FREE ENERGY PREDICTED BY IDOCK:   22.40 KCAL/MOL
REMARK 922        TOTAL FREE ENERGY PREDICTED BY IDOCK:   27.12 KCAL/MOL
REMARK 923 INTER-LIGAND FREE ENERGY PREDICTED BY IDOCK:   -1.63 KCAL/MOL
REMARK 924 INTRA-LIGAND FREE ENERGY PREDICTED BY IDOCK:   28.74 KCAL/MOL
REMARK 927      BINDING AFFINITY PREDICTED BY RF-SCORE:    0.00 PKD
ROOT
HETATM    1 CL   UNL     1      -9.434   4.620  67.572  1.00  0.00    -0.165 Cl 
HETATM    2  C   UNL     1      -9.453   4.475  69.294  1.00  0.00    -0.172 A  
HETATM    3  C   UNL     1     -10.380   5.203  70.089  1.00  0.00    -0.340 A  
HETATM    4  O   UNL     1      -6.650   4.559  74.175  1.00  0.00    -0.058 OA 
HETATM    5  C   UNL     1     -10.460   4.967  71.474  1.00  0.00    -0.225 A  
HETATM    6  C   UNL     1      -9.408   4.290  72.054  1.00  0.00    -0.180 A  
HETATM    7  N   UNL     1      -7.209   3.741  72.061  1.00  0.00    -0.052 NA 
HETATM    8  C   UNL     1      -8.997   4.256  73.496  1.00  0.00    -0.092 C  
HETATM    9  C   UNL     1      -8.404   3.784  69.897  1.00  0.00    -0.080 A  
HETATM   10  C   UNL     1      -8.354   3.826  71.272  1.00  0.00    -0.072 A  
HETATM   11  C   UNL     1      -7.477   4.215  73.347  1.00  0.00    -0.076 C  
ENDROOT
BRANCH   3  12
HETATM   12  C   UNL     1     -10.821   6.585  69.631  1.00  0.00    -0.359 C  
BRANCH  12  13
HETATM   13  C   UNL     1      -9.814   7.697  69.312  1.00  0.00    -0.168 C  
BRANCH  13  14
HETATM   14  N   UNL     1      -9.266   7.450  67.959  1.00  0.00    -0.133 NA 
HETATM   15  N   UNL     1     -10.589   5.343  66.286  1.00  0.00    -0.250 NA 
HETATM   16  C   UNL     1      -8.781   6.071  67.761  1.00  0.00    -0.104 C  
HETATM   17  C   UNL     1     -10.162   7.810  66.838  1.00  0.00    -0.303 C  
HETATM   18  C   UNL     1     -11.105   6.725  66.207  1.00  0.00     1.099 C  
HETATM   19  C   UNL     1      -9.924   5.066  67.566  1.00  0.00    -0.167 C  
BRANCH  15  20
HETATM   20  C   UNL     1     -10.025   4.727  65.184  1.00  0.00     0.011 A  
HETATM   21  N   UNL     1     -10.506   4.891  63.960  1.00  0.00     0.773 NA 
HETATM   22  S   UNL     1      -9.487   4.242  62.843  1.00  0.00    -0.097 SA 
HETATM   23  C   UNL     1      -8.306   3.719  63.969  1.00  0.00    -0.091 A  
HETATM   24  C   UNL     1      -7.074   3.104  63.705  1.00  0.00    -0.049 A  
HETATM   25  C   UNL     1      -6.272   2.750  64.793  1.00  0.00    -0.019 A  
HETATM   26  C   UNL     1      -6.704   3.001  66.088  1.00  0.00    -0.047 A  
HETATM   27  C   UNL     1      -7.921   3.635  66.340  1.00  0.00    -0.089 A  
HETATM   28  C   UNL     1      -8.776   3.996  65.251  1.00  0.00    -0.120 A  
ENDBRANCH  15  20
ENDBRANCH  13  14
ENDBRANCH  12  13
ENDBRANCH   3  12
TORSDOF 4
ENDMDL
MODEL      291
REMARK 921   NORMALIZED FREE ENERGY PREDICTED BY IDOCK:   29.18 KCAL/MOL
REMARK 922        TOTAL FREE ENERGY PREDICTED BY IDOCK:   35.49 KCAL/MOL
REMARK 923 INTER-LIGAND FREE ENERGY PREDICTED BY IDOCK:   33.34 KCAL/MOL
REMARK 924 INTRA-LIGAND FREE ENERGY PREDICTED BY IDOCK:    2.15 KCAL/MOL
REMARK 927      BINDING AFFINITY PREDICTED BY RF-SCORE:    0.00 PKD
ROOT
HETATM    1 CL   UNL     1     -13.764  11.260  63.482  1.00  0.00     1.508 Cl 
HETATM    2  C   UNL     1     -12.539  10.844  64.626  1.00  0.00     3.531 A  
HETATM    3  C   UNL     1     -11.474  11.735  64.930  1.00  0.00    -0.269 A  
HETATM    4  O   UNL     1      -8.711   7.152  66.470  1.00  0.00    -0.122 OA 
HETATM    5  C   UNL     1     -10.566  11.426  65.959  1.00  0.00    -0.319 A  
HETATM    6  C   UNL     1     -10.543  10.120  66.401  1.00  0.00    -0.155 A  
HETATM    7  N   UNL     1     -10.862   7.915  65.985  1.00  0.00     1.751 NA 
HETATM    8  C   UNL     1      -9.455   9.401  67.140  1.00  0.00    -0.185 C  
HETATM    9  C   UNL     1     -12.508   9.531  65.093  1.00  0.00    12.828 A  
HETATM   10  C   UNL     1     -11.427   9.184  65.871  1.00  0.00     4.260 A  
HETATM   11  C   UNL     1      -9.576   8.009  66.521  1.00  0.00    -0.226 C  
ENDROOT
BRANCH   3  12
HETATM   12  C   UNL     1     -10.943  12.650  63.837  1.00  0.00    -0.468 C  
BRANCH  12  13
HETATM   13  C   UNL     1      -9.442  12.794  63.554  1.00  0.00     1.482 C  
BRANCH  13  14
HETATM   14  N   UNL     1      -8.947  13.983  64.283  1.00  0.00     3.572 NA 
HETATM   15  N   UNL     1     -10.118  14.544  66.986  1.00  0.00    -0.252 NA 
HETATM   16  C   UNL     1      -9.998  14.974  64.582  1.00  0.00     0.481 C  
HETATM   17  C   UNL     1      -8.191  13.696  65.522  1.00  0.00     3.440 C  
HETATM   18  C   UNL     1      -8.933  13.666  66.906  1.00  0.00    -0.218 C  
HETATM   19  C   UNL     1     -10.902  14.541  65.745  1.00  0.00    -0.315 C  
BRANCH  15  20
HETATM   20  C   UNL     1     -10.062  15.759  67.644  1.00  0.00    -0.247 A  
HETATM   21  N   UNL     1      -9.560  16.847  67.076  1.00  0.00    -0.241 NA 
HETATM   22  S   UNL     1      -9.855  18.174  68.002  1.00  0.00    -0.344 SA 
HETATM   23  C   UNL     1     -10.716  17.343  69.228  1.00  0.00     0.039 A  
HETATM   24  C   UNL     1     -11.342  17.882  70.361  1.00  0.00     3.094 A  
HETATM   25  C   UNL     1     -11.980  17.002  71.238  1.00  0.00     1.744 A  
HETATM   26  C   UNL     1     -11.975  15.638  70.983  1.00  0.00    -0.445 A  
HETATM   27  C   UNL     1     -11.369  15.112  69.841  1.00  0.00    -0.309 A  
HETATM   28  C   UNL     1     -10.692  15.982  68.929  1.00  0.00    -0.275 A  
ENDBRANCH  15  20
ENDBRANCH  13  14
ENDBRANCH  12  13
ENDBRANCH   3  12
TORSDOF 4
ENDMDL
MODEL      292
REMARK 921   NORMALIZED FREE ENERGY PREDICTED BY IDOCK:   29.51 KCAL/MOL
REMARK 922        TOTAL FREE ENERGY PREDICTED BY IDOCK:   35.89 KCAL/MOL
REMARK 923 INTER-LIGAND FREE ENERGY PREDICTED BY IDOCK:   36.27 KCAL/MOL
REMARK 924 INTRA-LIGAND FREE ENERGY PREDICTED BY IDOCK:   -0.37 KCAL/MOL
REMARK 927      BINDING AFFINITY PREDICTED BY RF-SCORE:    0.00 PKD
ROOT
HETATM    1 CL   UNL     1      -6.121  12.131  73.803  1.00  0.00     2.501 Cl 
HETATM    2  C   UNL     1      -6.596  13.096  72.450  1.00  0.00     4.051 A  
HETATM    3  C   UNL     1      -7.867  12.936  71.835  1.00  0.00    12.010 A  
HETATM    4  O   UNL     1      -5.435  15.135  67.333  1.00  0.00    -0.341 OA 
HETATM    5  C   UNL     1      -8.278  13.822  70.822  1.00  0.00     4.520 A  
HETATM    6  C   UNL     1      -7.299  14.595  70.233  1.00  0.00     0.400 A  
HETATM    7  N   UNL     1      -5.131  14.870  69.632  1.00  0.00    -0.089 NA 
HETATM    8  C   UNL     1      -7.326  15.286  68.903  1.00  0.00    -0.146 C  
HETATM    9  C   UNL     1      -5.622  13.892  71.850  1.00  0.00    -0.198 A  
HETATM   10  C   UNL     1      -5.982  14.519  70.678  1.00  0.00    -0.184 A  
HETATM   11  C   UNL     1      -5.870  15.109  68.472  1.00  0.00    -0.095 C  
ENDROOT
BRANCH   3  12
HETATM   12  C   UNL     1      -8.501  11.554  71.798  1.00  0.00    13.294 C  
BRANCH  12  13
HETATM   13  C   UNL     1      -8.286  10.592  70.623  1.00  0.00     2.215 C  
BRANCH  13  14
HETATM   14  N   UNL     1      -7.510   9.431  71.113  1.00  0.00    -0.326 NA 
HETATM   15  N   UNL     1      -8.722   6.709  70.782  1.00  0.00    -0.142 NA 
HETATM   16  C   UNL     1      -8.202   8.658  72.162  1.00  0.00    -0.062 C  
HETATM   17  C   UNL     1      -7.033   8.501  70.066  1.00  0.00    -0.043 C  
HETATM   18  C   UNL     1      -7.892   7.243  69.683  1.00  0.00    -0.118 C  
HETATM   19  C   UNL     1      -9.321   7.771  71.600  1.00  0.00    -0.140 C  
BRANCH  15  20
HETATM   20  C   UNL     1      -8.341   5.576  71.477  1.00  0.00    -0.123 A  
HETATM   21  N   UNL     1      -7.700   5.640  72.636  1.00  0.00    -0.101 NA 
HETATM   22  S   UNL     1      -7.606   4.152  73.331  1.00  0.00    -0.078 SA 
HETATM   23  C   UNL     1      -8.463   3.329  72.097  1.00  0.00    -0.078 A  
HETATM   24  C   UNL     1      -8.826   1.975  72.053  1.00  0.00    -0.103 A  
HETATM   25  C   UNL     1      -9.519   1.518  70.929  1.00  0.00    -0.186 A  
HETATM   26  C   UNL     1      -9.822   2.393  69.895  1.00  0.00     0.225 A  
HETATM   27  C   UNL     1      -9.478   3.744  69.958  1.00  0.00    -0.264 A  
HETATM   28  C   UNL     1      -8.753   4.243  71.086  1.00  0.00    -0.134 A  
ENDBRANCH  15  20
ENDBRANCH  13  14
ENDBRANCH  12  13
ENDBRANCH   3  12
TORSDOF 4
ENDMDL
MODEL      293
REMARK 921   NORMALIZED FREE ENERGY PREDICTED BY IDOCK:   29.66 KCAL/MOL
REMARK 922        TOTAL FREE ENERGY PREDICTED BY IDOCK:   36.08 KCAL/MOL
REMARK 923 INTER-LIGAND FREE ENERGY PREDICTED BY IDOCK:   35.84 KCAL/MOL
REMARK 924 INTRA-LIGAND FREE ENERGY PREDICTED BY IDOCK:    0.23 KCAL/MOL
REMARK 927      BINDING AFFINITY PREDICTED BY RF-SCORE:    0.00 PKD
ROOT
HETATM    1 CL   UNL     1     -12.186  14.856  69.695  1.00  0.00    -0.322 Cl 
HETATM    2  C   UNL     1     -11.386  13.543  70.483  1.00  0.00     0.472 A  
HETATM    3  C   UNL     1     -10.163  13.731  71.182  1.00  0.00     4.703 A  
HETATM    4  O   UNL     1      -9.353   8.299  70.260  1.00  0.00    -0.157 OA 
HETATM    5  C   UNL     1      -9.604  12.674  71.924  1.00  0.00    17.445 A  
HETATM    6  C   UNL     1     -10.084  11.407  71.666  1.00  0.00     8.992 A  
HETATM    7  N   UNL     1     -11.018   9.933  70.221  1.00  0.00    -0.285 NA 
HETATM    8  C   UNL     1      -9.438  10.085  71.952  1.00  0.00     3.456 C  
HETATM    9  C   UNL     1     -11.866  12.256  70.244  1.00  0.00    -0.324 A  
HETATM   10  C   UNL     1     -11.113  11.220  70.747  1.00  0.00     1.072 A  
HETATM   11  C   UNL     1      -9.889   9.288  70.729  1.00  0.00    -0.283 C  
ENDROOT
BRANCH   3  12
HETATM   12  C   UNL     1      -9.178  14.775  70.679  1.00  0.00     1.830 C  
BRANCH  12  13
HETATM   13  C   UNL     1      -9.118  15.193  69.204  1.00  0.00    -0.215 C  
BRANCH  13  14
HETATM   14  N   UNL     1      -7.997  14.468  68.565  1.00  0.00    -0.136 NA 
HETATM   15  N   UNL     1      -8.668  12.093  66.863  1.00  0.00    -0.192 NA 
HETATM   16  C   UNL     1      -7.897  13.055  68.974  1.00  0.00     0.249 C  
HETATM   17  C   UNL     1      -7.954  14.545  67.088  1.00  0.00    -0.138 C  
HETATM   18  C   UNL     1      -8.632  13.423  66.223  1.00  0.00     0.539 C  
HETATM   19  C   UNL     1      -8.955  12.170  68.301  1.00  0.00    -0.186 C  
BRANCH  15  20
HETATM   20  C   UNL     1      -7.780  11.099  66.493  1.00  0.00    -0.146 A  
HETATM   21  N   UNL     1      -6.998  10.488  67.373  1.00  0.00    -0.083 NA 
HETATM   22  S   UNL     1      -6.243   9.200  66.681  1.00  0.00    -0.066 SA 
HETATM   23  C   UNL     1      -6.964   9.383  65.138  1.00  0.00    -0.092 A  
HETATM   24  C   UNL     1      -6.815   8.561  64.012  1.00  0.00    -0.075 A  
HETATM   25  C   UNL     1      -7.497   8.917  62.846  1.00  0.00    -0.106 A  
HETATM   26  C   UNL     1      -8.285  10.059  62.820  1.00  0.00    -0.154 A  
HETATM   27  C   UNL     1      -8.446  10.859  63.953  1.00  0.00     0.108 A  
HETATM   28  C   UNL     1      -7.750  10.534  65.160  1.00  0.00    -0.062 A  
ENDBRANCH  15  20
ENDBRANCH  13  14
ENDBRANCH  12  13
ENDBRANCH   3  12
TORSDOF 4
ENDMDL
MODEL      294
REMARK 921   NORMALIZED FREE ENERGY PREDICTED BY IDOCK:   36.51 KCAL/MOL
REMARK 922        TOTAL FREE ENERGY PREDICTED BY IDOCK:   44.52 KCAL/MOL
REMARK 923 INTER-LIGAND FREE ENERGY PREDICTED BY IDOCK:   42.07 KCAL/MOL
REMARK 924 INTRA-LIGAND FREE ENERGY PREDICTED BY IDOCK:    2.45 KCAL/MOL
REMARK 927      BINDING AFFINITY PREDICTED BY RF-SCORE:    0.00 PKD
ROOT
HETATM    1 CL   UNL     1     -10.718  13.775  64.942  1.00  0.00    -0.383 Cl 
HETATM    2  C   UNL     1      -9.766  12.347  65.140  1.00  0.00    -0.050 A  
HETATM    3  C   UNL     1      -8.366  12.348  64.894  1.00  0.00     2.450 A  
HETATM    4  O   UNL     1      -8.989   6.878  64.055  1.00  0.00     0.733 OA 
HETATM    5  C   UNL     1      -7.596  11.208  65.188  1.00  0.00     0.521 A  
HETATM    6  C   UNL     1      -8.279  10.026  65.382  1.00  0.00    -0.149 A  
HETATM    7  N   UNL     1     -10.088   8.728  64.960  1.00  0.00     1.316 NA 
HETATM    8  C   UNL     1      -7.764   8.621  65.289  1.00  0.00    -0.092 C  
HETATM    9  C   UNL     1     -10.440  11.144  65.348  1.00  0.00    -0.321 A  
HETATM   10  C   UNL     1      -9.670  10.003  65.335  1.00  0.00    -0.302 A  
HETATM   11  C   UNL     1      -8.981   7.921  64.686  1.00  0.00     0.632 C  
ENDROOT
BRANCH   3  12
HETATM   12  C   UNL     1      -7.808  13.257  63.810  1.00  0.00    11.567 C  
BRANCH  12  13
HETATM   13  C   UNL     1      -7.716  14.778  63.990  1.00  0.00    17.771 C  
BRANCH  13  14
HETATM   14  N   UNL     1      -7.586  15.064  65.436  1.00  0.00     5.172 NA 
HETATM   15  N   UNL     1      -8.277  17.826  66.375  1.00  0.00    -0.338 NA 
HETATM   16  C   UNL     1      -6.624  16.140  65.742  1.00  0.00     3.260 C  
HETATM   17  C   UNL     1      -8.856  15.339  66.143  1.00  0.00    -0.131 C  
HETATM   18  C   UNL     1      -9.355  16.818  66.314  1.00  0.00    -0.279 C  
HETATM   19  C   UNL     1      -7.185  17.535  65.437  1.00  0.00     0.926 C  
BRANCH  15  20
HETATM   20  C   UNL     1      -7.886  18.381  67.579  1.00  0.00    -0.231 A  
HETATM   21  N   UNL     1      -8.530  19.402  68.129  1.00  0.00    -0.322 NA 
HETATM   22  S   UNL     1      -7.989  19.675  69.658  1.00  0.00     0.547 SA 
HETATM   23  C   UNL     1      -6.856  18.390  69.674  1.00  0.00     0.039 A  
HETATM   24  C   UNL     1      -6.035  17.974  70.732  1.00  0.00     0.416 A  
HETATM   25  C   UNL     1      -5.171  16.900  70.509  1.00  0.00    -0.228 A  
HETATM   26  C   UNL     1      -5.135  16.281  69.266  1.00  0.00    -0.111 A  
HETATM   27  C   UNL     1      -5.972  16.687  68.226  1.00  0.00    -0.121 A  
HETATM   28  C   UNL     1      -6.857  17.794  68.414  1.00  0.00    -0.221 A  
ENDBRANCH  15  20
ENDBRANCH  13  14
ENDBRANCH  12  13
ENDBRANCH   3  12
TORSDOF 4
ENDMDL
MODEL      295
REMARK 921   NORMALIZED FREE ENERGY PREDICTED BY IDOCK:   41.66 KCAL/MOL
REMARK 922        TOTAL FREE ENERGY PREDICTED BY IDOCK:   50.88 KCAL/MOL
REMARK 923 INTER-LIGAND FREE ENERGY PREDICTED BY IDOCK:   39.56 KCAL/MOL
REMARK 924 INTRA-LIGAND FREE ENERGY PREDICTED BY IDOCK:   11.32 KCAL/MOL
REMARK 927      BINDING AFFINITY PREDICTED BY RF-SCORE:    0.00 PKD
ROOT
HETATM    1 CL   UNL     1     -12.546  15.513  73.926  1.00  0.00    -0.704 Cl 
HETATM    2  C   UNL     1     -12.126  14.364  72.705  1.00  0.00     0.096 A  
HETATM    3  C   UNL     1     -10.776  14.159  72.313  1.00  0.00     3.857 A  
HETATM    4  O   UNL     1     -12.947  12.303  67.532  1.00  0.00     1.729 OA 
HETATM    5  C   UNL     1     -10.451  13.127  71.413  1.00  0.00     6.798 A  
HETATM    6  C   UNL     1     -11.489  12.578  70.690  1.00  0.00     0.743 A  
HETATM    7  N   UNL     1     -13.532  12.803  69.735  1.00  0.00     2.134 NA 
HETATM    8  C   UNL     1     -11.431  11.806  69.407  1.00  0.00    -0.371 C  
HETATM    9  C   UNL     1     -13.164  13.791  71.972  1.00  0.00    -0.520 A  
HETATM   10  C   UNL     1     -12.796  13.010  70.900  1.00  0.00    -0.143 A  
HETATM   11  C   UNL     1     -12.705  12.305  68.727  1.00  0.00     1.342 C  
ENDROOT
BRANCH   3  12
HETATM   12  C   UNL     1      -9.812  15.335  72.341  1.00  0.00     4.523 C  
BRANCH  12  13
HETATM   13  C   UNL     1     -10.298  16.782  72.484  1.00  0.00     5.421 C  
BRANCH  13  14
HETATM   14  N   UNL     1     -10.837  17.220  71.177  1.00  0.00     1.147 NA 
HETATM   15  N   UNL     1     -11.888  15.106  69.329  1.00  0.00    -0.319 NA 
HETATM   16  C   UNL     1     -10.122  16.648  70.021  1.00  0.00     0.337 C  
HETATM   17  C   UNL     1     -12.291  17.015  70.993  1.00  0.00     3.401 C  
HETATM   18  C   UNL     1     -12.818  15.704  70.308  1.00  0.00    -0.114 C  
HETATM   19  C   UNL     1     -10.489  15.179  69.768  1.00  0.00    -0.233 C  
BRANCH  15  20
HETATM   20  C   UNL     1     -12.086  15.261  67.969  1.00  0.00     0.122 A  
HETATM   21  N   UNL     1     -13.221  15.732  67.470  1.00  0.00     3.687 NA 
HETATM   22  S   UNL     1     -13.067  16.032  65.860  1.00  0.00     4.496 SA 
HETATM   23  C   UNL     1     -11.423  15.560  65.751  1.00  0.00     0.064 A  
HETATM   24  C   UNL     1     -10.582  15.610  64.630  1.00  0.00    -0.043 A  
HETATM   25  C   UNL     1      -9.269  15.156  64.775  1.00  0.00     2.373 A  
HETATM   26  C   UNL     1      -8.832  14.665  65.998  1.00  0.00     0.292 A  
HETATM   27  C   UNL     1      -9.670  14.641  67.115  1.00  0.00    -0.235 A  
HETATM   28  C   UNL     1     -11.025  15.083  66.999  1.00  0.00    -0.318 A  
ENDBRANCH  15  20
ENDBRANCH  13  14
ENDBRANCH  12  13
ENDBRANCH   3  12
TORSDOF 4
ENDMDL
MODEL      296
REMARK 921   NORMALIZED FREE ENERGY PREDICTED BY IDOCK:   43.69 KCAL/MOL
REMARK 922        TOTAL FREE ENERGY PREDICTED BY IDOCK:   53.39 KCAL/MOL
REMARK 923 INTER-LIGAND FREE ENERGY PREDICTED BY IDOCK:   52.56 KCAL/MOL
REMARK 924 INTRA-LIGAND FREE ENERGY PREDICTED BY IDOCK:    0.82 KCAL/MOL
REMARK 927      BINDING AFFINITY PREDICTED BY RF-SCORE:    0.00 PKD
ROOT
HETATM    1 CL   UNL     1      -7.695  12.192  66.781  1.00  0.00    -0.040 Cl 
HETATM    2  C   UNL     1      -9.207  12.847  67.301  1.00  0.00    -0.208 A  
HETATM    3  C   UNL     1      -9.402  14.249  67.429  1.00  0.00    -0.203 A  
HETATM    4  O   UNL     1     -13.429  12.875  71.022  1.00  0.00     0.113 OA 
HETATM    5  C   UNL     1     -10.679  14.760  67.727  1.00  0.00    -0.268 A  
HETATM    6  C   UNL     1     -11.611  13.867  68.215  1.00  0.00    -0.372 A  
HETATM    7  N   UNL     1     -12.077  11.964  69.353  1.00  0.00    -0.256 NA 
HETATM    8  C   UNL     1     -12.859  14.150  68.995  1.00  0.00     0.914 C  
HETATM    9  C   UNL     1     -10.164  11.958  67.786  1.00  0.00    -0.211 A  
HETATM   10  C   UNL     1     -11.290  12.519  68.346  1.00  0.00    -0.291 A  
HETATM   11  C   UNL     1     -12.869  12.951  69.942  1.00  0.00     0.598 C  
ENDROOT
BRANCH   3  12
HETATM   12  C   UNL     1      -8.230  15.123  67.849  1.00  0.00    -0.152 C  
BRANCH  12  13
HETATM   13  C   UNL     1      -7.872  16.416  67.107  1.00  0.00    -0.189 C  
BRANCH  13  14
HETATM   14  N   UNL     1      -8.852  17.456  67.491  1.00  0.00    -0.222 NA 
HETATM   15  N   UNL     1      -8.381  18.929  70.060  1.00  0.00     1.149 NA 
HETATM   16  C   UNL     1      -9.523  17.189  68.777  1.00  0.00    -0.263 C  
HETATM   17  C   UNL     1      -8.334  18.842  67.497  1.00  0.00    -0.273 C  
HETATM   18  C   UNL     1      -7.772  19.464  68.825  1.00  0.00    -0.362 C  
HETATM   19  C   UNL     1      -8.622  17.482  69.984  1.00  0.00     2.141 C  
BRANCH  15  20
HETATM   20  C   UNL     1      -9.336  19.649  70.754  1.00  0.00     1.905 A  
HETATM   21  N   UNL     1      -9.932  20.714  70.236  1.00  0.00     0.909 NA 
HETATM   22  S   UNL     1     -11.181  21.201  71.189  1.00  0.00     9.656 SA 
HETATM   23  C   UNL     1     -11.000  19.964  72.360  1.00  0.00     6.685 A  
HETATM   24  C   UNL     1     -11.799  19.716  73.485  1.00  0.00     9.743 A  
HETATM   25  C   UNL     1     -11.450  18.647  74.314  1.00  0.00     2.453 A  
HETATM   26  C   UNL     1     -10.336  17.872  74.020  1.00  0.00     5.385 A  
HETATM   27  C   UNL     1      -9.561  18.112  72.885  1.00  0.00     9.847 A  
HETATM   28  C   UNL     1      -9.879  19.208  72.023  1.00  0.00     4.378 A  
ENDBRANCH  15  20
ENDBRANCH  13  14
ENDBRANCH  12  13
ENDBRANCH   3  12
TORSDOF 4
ENDMDL
MODEL      297
REMARK 921   NORMALIZED FREE ENERGY PREDICTED BY IDOCK:   44.78 KCAL/MOL
REMARK 922        TOTAL FREE ENERGY PREDICTED BY IDOCK:   54.73 KCAL/MOL
REMARK 923 INTER-LIGAND FREE ENERGY PREDICTED BY IDOCK:   53.75 KCAL/MOL
REMARK 924 INTRA-LIGAND FREE ENERGY PREDICTED BY IDOCK:    0.98 KCAL/MOL
REMARK 927      BINDING AFFINITY PREDICTED BY RF-SCORE:    0.00 PKD
ROOT
HETATM    1 CL   UNL     1     -14.123  19.956  65.379  1.00  0.00    16.511 Cl 
HETATM    2  C   UNL     1     -12.856  19.343  66.382  1.00  0.00     7.525 A  
HETATM    3  C   UNL     1     -12.719  17.952  66.636  1.00  0.00     7.458 A  
HETATM    4  O   UNL     1     -10.021  19.545  71.240  1.00  0.00     1.692 OA 
HETATM    5  C   UNL     1     -11.604  17.470  67.346  1.00  0.00     1.140 A  
HETATM    6  C   UNL     1     -10.868  18.395  68.057  1.00  0.00    -0.170 A  
HETATM    7  N   UNL     1     -10.772  20.358  69.186  1.00  0.00     0.351 NA 
HETATM    8  C   UNL     1      -9.931  18.164  69.203  1.00  0.00    -0.204 C  
HETATM    9  C   UNL     1     -12.094  20.265  67.098  1.00  0.00     3.143 A  
HETATM   10  C   UNL     1     -11.206  19.745  68.012  1.00  0.00     0.664 A  
HETATM   11  C   UNL     1     -10.213  19.409  70.044  1.00  0.00     0.738 C  
ENDROOT
BRANCH   3  12
HETATM   12  C   UNL     1     -13.969  17.088  66.710  1.00  0.00    11.748 C  
BRANCH  12  13
HETATM   13  C   UNL     1     -13.962  15.609  66.302  1.00  0.00     6.234 C  
BRANCH  13  14
HETATM   14  N   UNL     1     -12.562  15.212  66.031  1.00  0.00     0.592 NA 
HETATM   15  N   UNL     1     -11.941  12.281  65.935  1.00  0.00    -0.597 NA 
HETATM   16  C   UNL     1     -11.951  14.421  67.116  1.00  0.00    -0.389 C  
HETATM   17  C   UNL     1     -12.339  14.517  64.744  1.00  0.00    -0.391 C  
HETATM   18  C   UNL     1     -12.362  12.948  64.686  1.00  0.00    -0.439 C  
HETATM   19  C   UNL     1     -12.441  12.967  67.133  1.00  0.00     0.331 C  
BRANCH  15  20
HETATM   20  C   UNL     1     -10.680  11.727  66.057  1.00  0.00    -0.279 A  
HETATM   21  N   UNL     1     -10.152  11.427  67.236  1.00  0.00    -0.190 NA 
HETATM   22  S   UNL     1      -8.764  10.565  67.048  1.00  0.00    -0.130 SA 
HETATM   23  C   UNL     1      -8.813  10.527  65.335  1.00  0.00    -0.187 A  
HETATM   24  C   UNL     1      -7.929   9.880  64.460  1.00  0.00    -0.145 A  
HETATM   25  C   UNL     1      -8.162   9.998  63.088  1.00  0.00    -0.159 A  
HETATM   26  C   UNL     1      -9.237  10.745  62.625  1.00  0.00    -0.349 A  
HETATM   27  C   UNL     1     -10.125  11.367  63.505  1.00  0.00    -0.437 A  
HETATM   28  C   UNL     1      -9.907  11.281  64.916  1.00  0.00    -0.310 A  
ENDBRANCH  15  20
ENDBRANCH  13  14
ENDBRANCH  12  13
ENDBRANCH   3  12
TORSDOF 4
ENDMDL
MODEL      298
REMARK 921   NORMALIZED FREE ENERGY PREDICTED BY IDOCK:   67.89 KCAL/MOL
REMARK 922        TOTAL FREE ENERGY PREDICTED BY IDOCK:   83.24 KCAL/MOL
REMARK 923 INTER-LIGAND FREE ENERGY PREDICTED BY IDOCK:   80.12 KCAL/MOL
REMARK 924 INTRA-LIGAND FREE ENERGY PREDICTED BY IDOCK:    3.12 KCAL/MOL
REMARK 927      BINDING AFFINITY PREDICTED BY RF-SCORE:    0.00 PKD
ROOT
HETATM    1 CL   UNL     1      -7.705  12.396  67.112  1.00  0.00    -0.151 Cl 
HETATM    2  C   UNL     1      -9.093  13.084  67.877  1.00  0.00    -0.207 A  
HETATM    3  C   UNL     1      -9.005  14.285  68.632  1.00  0.00    -0.154 A  
HETATM    4  O   UNL     1     -13.582  12.437  71.212  1.00  0.00     0.186 OA 
HETATM    5  C   UNL     1     -10.172  14.892  69.132  1.00  0.00    -0.243 A  
HETATM    6  C   UNL     1     -11.314  14.120  69.162  1.00  0.00    -0.318 A  
HETATM    7  N   UNL     1     -12.283  12.076  69.307  1.00  0.00    -0.159 NA 
HETATM    8  C   UNL     1     -12.551  14.308  69.988  1.00  0.00    -0.277 C  
HETATM    9  C   UNL     1     -10.260  12.322  67.905  1.00  0.00    -0.202 A  
HETATM   10  C   UNL     1     -11.296  12.820  68.663  1.00  0.00    -0.294 A  
HETATM   11  C   UNL     1     -12.909  12.853  70.284  1.00  0.00     0.278 C  
ENDROOT
BRANCH   3  12
HETATM   12  C   UNL     1      -7.727  14.582  69.401  1.00  0.00    -0.000 C  
BRANCH  12  13
HETATM   13  C   UNL     1      -6.793  15.735  69.015  1.00  0.00    -0.148 C  
BRANCH  13  14
HETATM   14  N   UNL     1      -7.553  17.001  69.125  1.00  0.00    -0.195 NA 
HETATM   15  N   UNL     1      -7.864  18.202  71.854  1.00  0.00     9.394 NA 
HETATM   16  C   UNL     1      -8.748  16.900  69.983  1.00  0.00     1.743 C  
HETATM   17  C   UNL     1      -6.761  18.180  69.539  1.00  0.00    -0.096 C  
HETATM   18  C   UNL     1      -6.678  18.576  71.057  1.00  0.00     2.084 C  
HETATM   19  C   UNL     1      -8.401  16.888  71.478  1.00  0.00     9.428 C  
BRANCH  15  20
HETATM   20  C   UNL     1      -8.812  19.145  72.208  1.00  0.00     7.120 A  
HETATM   21  N   UNL     1      -8.599  20.035  73.167  1.00  0.00     3.053 NA 
HETATM   22  S   UNL     1      -9.794  21.165  73.187  1.00  0.00     8.300 SA 
HETATM   23  C   UNL     1     -10.666  20.520  71.861  1.00  0.00     6.210 A  
HETATM   24  C   UNL     1     -11.823  21.032  71.257  1.00  0.00    12.655 A  
HETATM   25  C   UNL     1     -12.372  20.322  70.186  1.00  0.00    10.426 A  
HETATM   26  C   UNL     1     -11.780  19.143  69.754  1.00  0.00     6.665 A  
HETATM   27  C   UNL     1     -10.615  18.653  70.347  1.00  0.00     1.986 A  
HETATM   28  C   UNL     1     -10.035  19.345  71.456  1.00  0.00     3.035 A  
ENDBRANCH  15  20
ENDBRANCH  13  14
ENDBRANCH  12  13
ENDBRANCH   3  12
TORSDOF 4
ENDMDL
