MODEL        1
REMARK 921   NORMALIZED FREE ENERGY PREDICTED BY IDOCK:   -8.20 KCAL/MOL
REMARK 922        TOTAL FREE ENERGY PREDICTED BY IDOCK:  -11.77 KCAL/MOL
REMARK 923 INTER-LIGAND FREE ENERGY PREDICTED BY IDOCK:  -10.60 KCAL/MOL
REMARK 924 INTRA-LIGAND FREE ENERGY PREDICTED BY IDOCK:   -1.17 KCAL/MOL
REMARK 927      BINDING AFFINITY PREDICTED BY RF-SCORE:    0.00 PKD
ROOT
HETATM    1  C   UNL     1      -8.610   9.561  65.839  1.00  0.00    -0.144 C  
HETATM    2  C   UNL     1      -9.547  10.315  66.791  1.00  0.00    -0.214 C  
HETATM    3  C   UNL     1     -10.375   9.390  67.695  1.00  0.00    -0.246 C  
HETATM    4  C   UNL     1     -10.526  11.156  65.983  1.00  0.00    -0.256 C  
HETATM    5  O   UNL     1     -11.004  10.744  64.927  1.00  0.00    -0.102 OA 
HETATM    6  C   UNL     1     -11.630  13.818  64.456  1.00  0.00    -0.392 C  
HETATM    7  N   UNL     1     -10.862  12.411  66.440  1.00  0.00    -0.250 N  
HETATM    8  C   UNL     1     -10.396  13.076  67.649  1.00  0.00    -0.222 C  
HETATM    9  C   UNL     1     -11.958  13.178  65.813  1.00  0.00    -0.423 C  
HETATM   10  C   UNL     1     -11.584  13.918  68.112  1.00  0.00    -0.335 C  
HETATM   11  C   UNL     1     -12.283  14.304  66.809  1.00  0.00    -0.384 C  
HETATM   12  O   UNL     1     -10.387  13.568  63.989  1.00  0.00    -0.298 OA 
HETATM   13  O   UNL     1     -12.412  14.542  63.847  1.00  0.00    -0.814 OA 
ENDROOT
BRANCH   3  14
HETATM   14  S   UNL     1      -9.300   8.354  68.723  1.00  0.00    -0.143 SA 
BRANCH  14  15
HETATM   15  C   UNL     1      -9.335   9.236  70.247  1.00  0.00    -0.239 C  
HETATM   16  O   UNL     1      -8.338   9.787  70.695  1.00  0.00    -0.224 OA 
BRANCH  15  17
HETATM   17  C   UNL     1     -10.654   9.307  70.942  1.00  0.00    -0.366 A  
HETATM   18  C   UNL     1     -11.529  10.393  70.782  1.00  0.00    -0.422 A  
HETATM   19  C   UNL     1     -12.748  10.425  71.461  1.00  0.00    -0.564 A  
HETATM   20  C   UNL     1     -13.107   9.371  72.297  1.00  0.00    -0.509 A  
HETATM   21  C   UNL     1     -11.030   8.245  71.775  1.00  0.00    -0.342 A  
HETATM   22  C   UNL     1     -12.251   8.281  72.454  1.00  0.00    -0.412 A  
ENDBRANCH  15  17
ENDBRANCH  14  15
ENDBRANCH   3  14
BRANCH  10  23
HETATM   23  S   UNL     1     -10.991  15.335  69.106  1.00  0.00    -0.269 SA 
BRANCH  23  24
HETATM   24  C   UNL     1     -11.822  15.114  70.671  1.00  0.00    -0.325 A  
HETATM   25  C   UNL     1     -11.666  15.988  71.751  1.00  0.00    -0.593 A  
HETATM   26  C   UNL     1     -13.237  14.694  73.060  1.00  0.00    -0.587 A  
HETATM   27  C   UNL     1     -12.364  15.774  72.943  1.00  0.00    -0.570 A  
HETATM   28  C   UNL     1     -13.417  13.829  71.984  1.00  0.00    -0.559 A  
HETATM   29  C   UNL     1     -12.715  14.041  70.795  1.00  0.00    -0.396 A  
ENDBRANCH  23  24
ENDBRANCH  10  23
TORSDOF 5
ENDMDL
MODEL        2
REMARK 921   NORMALIZED FREE ENERGY PREDICTED BY IDOCK:   -8.11 KCAL/MOL
REMARK 922        TOTAL FREE ENERGY PREDICTED BY IDOCK:  -11.64 KCAL/MOL
REMARK 923 INTER-LIGAND FREE ENERGY PREDICTED BY IDOCK:  -10.39 KCAL/MOL
REMARK 924 INTRA-LIGAND FREE ENERGY PREDICTED BY IDOCK:   -1.25 KCAL/MOL
REMARK 927      BINDING AFFINITY PREDICTED BY RF-SCORE:    0.00 PKD
ROOT
HETATM    1  C   UNL     1      -8.562   9.432  66.100  1.00  0.00    -0.147 C  
HETATM    2  C   UNL     1      -9.525  10.199  67.014  1.00  0.00    -0.197 C  
HETATM    3  C   UNL     1     -10.346   9.290  67.940  1.00  0.00    -0.227 C  
HETATM    4  C   UNL     1     -10.511  10.991  66.166  1.00  0.00    -0.244 C  
HETATM    5  O   UNL     1     -10.968  10.532  65.119  1.00  0.00     0.069 OA 
HETATM    6  C   UNL     1     -11.650  13.575  64.533  1.00  0.00    -0.381 C  
HETATM    7  N   UNL     1     -10.878  12.255  66.573  1.00  0.00    -0.250 N  
HETATM    8  C   UNL     1     -10.440  12.970  67.763  1.00  0.00    -0.228 C  
HETATM    9  C   UNL     1     -11.981  12.976  65.908  1.00  0.00    -0.435 C  
HETATM   10  C   UNL     1     -11.650  13.804  68.183  1.00  0.00    -0.335 C  
HETATM   11  C   UNL     1     -12.341  14.130  66.859  1.00  0.00    -0.293 C  
HETATM   12  O   UNL     1     -10.396  13.334  64.088  1.00  0.00    -0.407 OA 
HETATM   13  O   UNL     1     -12.439  14.260  63.890  1.00  0.00    -0.773 OA 
ENDROOT
BRANCH   3  14
HETATM   14  S   UNL     1      -9.262   8.313  69.017  1.00  0.00    -0.147 SA 
BRANCH  14  15
HETATM   15  C   UNL     1      -9.681   8.962  70.599  1.00  0.00    -0.212 C  
HETATM   16  O   UNL     1      -8.846   9.496  71.317  1.00  0.00    -0.235 OA 
BRANCH  15  17
HETATM   17  C   UNL     1     -11.115   8.860  71.000  1.00  0.00    -0.340 A  
HETATM   18  C   UNL     1     -11.782   7.628  71.098  1.00  0.00    -0.311 A  
HETATM   19  C   UNL     1     -13.127   7.579  71.465  1.00  0.00    -0.402 A  
HETATM   20  C   UNL     1     -13.816   8.757  71.747  1.00  0.00    -0.469 A  
HETATM   21  C   UNL     1     -11.813  10.039  71.298  1.00  0.00    -0.471 A  
HETATM   22  C   UNL     1     -13.160   9.985  71.665  1.00  0.00    -0.547 A  
ENDBRANCH  15  17
ENDBRANCH  14  15
ENDBRANCH   3  14
BRANCH  10  23
HETATM   23  S   UNL     1     -11.098  15.267  69.133  1.00  0.00    -0.283 SA 
BRANCH  23  24
HETATM   24  C   UNL     1     -11.874  15.038  70.725  1.00  0.00    -0.320 A  
HETATM   25  C   UNL     1     -12.621  13.904  71.056  1.00  0.00    -0.444 A  
HETATM   26  C   UNL     1     -12.988  14.764  73.288  1.00  0.00    -0.608 A  
HETATM   27  C   UNL     1     -13.183  13.772  72.330  1.00  0.00    -0.563 A  
HETATM   28  C   UNL     1     -12.228  15.888  72.976  1.00  0.00    -0.609 A  
HETATM   29  C   UNL     1     -11.671  16.021  71.703  1.00  0.00    -0.583 A  
ENDBRANCH  23  24
ENDBRANCH  10  23
TORSDOF 5
ENDMDL
MODEL        3
REMARK 921   NORMALIZED FREE ENERGY PREDICTED BY IDOCK:   -7.57 KCAL/MOL
REMARK 922        TOTAL FREE ENERGY PREDICTED BY IDOCK:  -10.95 KCAL/MOL
REMARK 923 INTER-LIGAND FREE ENERGY PREDICTED BY IDOCK:  -10.06 KCAL/MOL
REMARK 924 INTRA-LIGAND FREE ENERGY PREDICTED BY IDOCK:   -0.89 KCAL/MOL
REMARK 927      BINDING AFFINITY PREDICTED BY RF-SCORE:    0.00 PKD
ROOT
HETATM    1  C   UNL     1     -11.770  11.594  63.790  1.00  0.00    -0.403 C  
HETATM    2  C   UNL     1     -11.490  12.063  65.222  1.00  0.00    -0.358 C  
HETATM    3  C   UNL     1     -10.881  13.471  65.298  1.00  0.00    -0.310 C  
HETATM    4  C   UNL     1     -10.509  11.108  65.889  1.00  0.00    -0.253 C  
HETATM    5  O   UNL     1      -9.574  10.611  65.263  1.00  0.00    -0.205 OA 
HETATM    6  C   UNL     1      -9.578   8.530  67.658  1.00  0.00    -0.153 C  
HETATM    7  N   UNL     1     -10.691  10.781  67.215  1.00  0.00    -0.257 N  
HETATM    8  C   UNL     1     -11.737  11.251  68.113  1.00  0.00    -0.253 C  
HETATM    9  C   UNL     1      -9.659  10.034  67.961  1.00  0.00    -0.138 C  
HETATM   10  C   UNL     1     -11.065  11.329  69.484  1.00  0.00    -0.238 C  
HETATM   11  C   UNL     1     -10.030  10.205  69.444  1.00  0.00    -0.247 C  
HETATM   12  O   UNL     1     -10.441   8.087  66.717  1.00  0.00    -0.330 OA 
HETATM   13  O   UNL     1      -8.822   7.765  68.247  1.00  0.00    -0.130 OA 
ENDROOT
BRANCH   3  14
HETATM   14  S   UNL     1     -11.986  14.697  64.549  1.00  0.00    -0.422 SA 
BRANCH  14  15
HETATM   15  C   UNL     1     -11.136  16.193  64.923  1.00  0.00    -0.325 C  
HETATM   16  O   UNL     1     -11.314  17.214  64.270  1.00  0.00    -1.126 OA 
BRANCH  15  17
HETATM   17  C   UNL     1     -10.219  16.160  66.100  1.00  0.00    -0.351 A  
HETATM   18  C   UNL     1      -8.837  15.951  65.970  1.00  0.00    -0.298 A  
HETATM   19  C   UNL     1      -8.018  15.915  67.099  1.00  0.00    -0.243 A  
HETATM   20  C   UNL     1      -8.569  16.097  68.365  1.00  0.00    -0.189 A  
HETATM   21  C   UNL     1     -10.763  16.356  67.377  1.00  0.00    -0.278 A  
HETATM   22  C   UNL     1      -9.939  16.318  68.506  1.00  0.00    -0.234 A  
ENDBRANCH  15  17
ENDBRANCH  14  15
ENDBRANCH   3  14
BRANCH  10  23
HETATM   23  S   UNL     1     -12.321  11.160  70.803  1.00  0.00    -0.399 SA 
BRANCH  23  24
HETATM   24  C   UNL     1     -12.790  12.850  71.141  1.00  0.00    -0.238 A  
HETATM   25  C   UNL     1     -13.651  13.212  72.181  1.00  0.00    -0.637 A  
HETATM   26  C   UNL     1     -13.399  15.551  71.612  1.00  0.00    -0.585 A  
HETATM   27  C   UNL     1     -13.961  14.556  72.410  1.00  0.00    -0.580 A  
HETATM   28  C   UNL     1     -12.523  15.203  70.587  1.00  0.00    -0.442 A  
HETATM   29  C   UNL     1     -12.218  13.860  70.356  1.00  0.00    -0.438 A  
ENDBRANCH  23  24
ENDBRANCH  10  23
TORSDOF 5
ENDMDL
MODEL        4
REMARK 921   NORMALIZED FREE ENERGY PREDICTED BY IDOCK:   -7.50 KCAL/MOL
REMARK 922        TOTAL FREE ENERGY PREDICTED BY IDOCK:  -10.85 KCAL/MOL
REMARK 923 INTER-LIGAND FREE ENERGY PREDICTED BY IDOCK:   -9.99 KCAL/MOL
REMARK 924 INTRA-LIGAND FREE ENERGY PREDICTED BY IDOCK:   -0.87 KCAL/MOL
REMARK 927      BINDING AFFINITY PREDICTED BY RF-SCORE:    0.00 PKD
ROOT
HETATM    1  C   UNL     1      -9.442   9.109  69.357  1.00  0.00    -0.161 C  
HETATM    2  C   UNL     1     -10.511  10.207  69.393  1.00  0.00    -0.254 C  
HETATM    3  C   UNL     1     -11.857   9.733  69.960  1.00  0.00    -0.008 C  
HETATM    4  C   UNL     1     -10.768  10.716  67.980  1.00  0.00    -0.233 C  
HETATM    5  O   UNL     1     -10.773   9.951  67.016  1.00  0.00    -0.231 OA 
HETATM    6  C   UNL     1     -10.367  12.635  65.373  1.00  0.00    -0.291 C  
HETATM    7  N   UNL     1     -10.976  12.063  67.783  1.00  0.00    -0.220 N  
HETATM    8  C   UNL     1     -10.994  13.119  68.785  1.00  0.00    -0.262 C  
HETATM    9  C   UNL     1     -11.435  12.576  66.476  1.00  0.00    -0.362 C  
HETATM   10  C   UNL     1     -12.026  14.123  68.273  1.00  0.00    -0.332 C  
HETATM   11  C   UNL     1     -11.917  14.010  66.753  1.00  0.00    -0.473 C  
HETATM   12  O   UNL     1      -9.148  12.174  65.729  1.00  0.00    -0.096 OA 
HETATM   13  O   UNL     1     -10.577  13.102  64.258  1.00  0.00    -0.403 OA 
ENDROOT
BRANCH   3  14
HETATM   14  S   UNL     1     -11.668   9.126  71.658  1.00  0.00    -0.398 SA 
BRANCH  14  15
HETATM   15  C   UNL     1     -12.425   7.541  71.538  1.00  0.00    -0.346 C  
HETATM   16  O   UNL     1     -13.640   7.401  71.608  1.00  0.00    -0.370 OA 
BRANCH  15  17
HETATM   17  C   UNL     1     -11.511   6.384  71.309  1.00  0.00    -0.371 A  
HETATM   18  C   UNL     1     -11.039   5.580  72.358  1.00  0.00    -0.312 A  
HETATM   19  C   UNL     1     -10.175   4.515  72.100  1.00  0.00    -0.256 A  
HETATM   20  C   UNL     1      -9.783   4.237  70.793  1.00  0.00    -0.274 A  
HETATM   21  C   UNL     1     -11.121   6.089  69.995  1.00  0.00    -0.451 A  
HETATM   22  C   UNL     1     -10.255   5.022  69.741  1.00  0.00    -0.336 A  
ENDBRANCH  15  17
ENDBRANCH  14  15
ENDBRANCH   3  14
BRANCH  10  23
HETATM   23  S   UNL     1     -11.659  15.787  68.941  1.00  0.00    -0.382 SA 
BRANCH  23  24
HETATM   24  C   UNL     1     -12.315  15.716  70.600  1.00  0.00    -0.413 A  
HETATM   25  C   UNL     1     -11.614  16.170  71.721  1.00  0.00    -0.503 A  
HETATM   26  C   UNL     1     -13.484  15.612  73.152  1.00  0.00    -0.620 A  
HETATM   27  C   UNL     1     -12.192  16.110  72.993  1.00  0.00    -0.641 A  
HETATM   28  C   UNL     1     -14.200  15.176  72.040  1.00  0.00    -0.673 A  
HETATM   29  C   UNL     1     -13.620  15.232  70.771  1.00  0.00    -0.313 A  
ENDBRANCH  23  24
ENDBRANCH  10  23
TORSDOF 5
ENDMDL
MODEL        5
REMARK 921   NORMALIZED FREE ENERGY PREDICTED BY IDOCK:   -7.43 KCAL/MOL
REMARK 922        TOTAL FREE ENERGY PREDICTED BY IDOCK:  -10.76 KCAL/MOL
REMARK 923 INTER-LIGAND FREE ENERGY PREDICTED BY IDOCK:   -9.82 KCAL/MOL
REMARK 924 INTRA-LIGAND FREE ENERGY PREDICTED BY IDOCK:   -0.94 KCAL/MOL
REMARK 927      BINDING AFFINITY PREDICTED BY RF-SCORE:    0.00 PKD
ROOT
HETATM    1  C   UNL     1      -9.877   9.084  67.319  1.00  0.00    -0.252 C  
HETATM    2  C   UNL     1      -9.681  10.495  67.885  1.00  0.00    -0.171 C  
HETATM    3  C   UNL     1      -9.554  10.529  69.415  1.00  0.00    -0.148 C  
HETATM    4  C   UNL     1     -10.872  11.366  67.509  1.00  0.00    -0.244 C  
HETATM    5  O   UNL     1     -12.016  10.915  67.498  1.00  0.00    -0.442 OA 
HETATM    6  C   UNL     1     -12.591  13.459  65.692  1.00  0.00    -0.438 C  
HETATM    7  N   UNL     1     -10.654  12.679  67.155  1.00  0.00    -0.234 N  
HETATM    8  C   UNL     1      -9.382  13.387  67.094  1.00  0.00    -0.240 C  
HETATM    9  C   UNL     1     -11.781  13.618  66.987  1.00  0.00    -0.384 C  
HETATM   10  C   UNL     1      -9.717  14.823  67.497  1.00  0.00    -0.213 C  
HETATM   11  C   UNL     1     -11.144  15.018  66.987  1.00  0.00    -0.334 C  
HETATM   12  O   UNL     1     -12.189  12.454  64.882  1.00  0.00    -0.436 OA 
HETATM   13  O   UNL     1     -13.511  14.208  65.378  1.00  0.00    -0.648 OA 
ENDROOT
BRANCH   3  14
HETATM   14  S   UNL     1      -8.143   9.536  69.972  1.00  0.00    -0.182 SA 
BRANCH  14  15
HETATM   15  C   UNL     1      -8.790   8.821  71.445  1.00  0.00    -0.225 C  
HETATM   16  O   UNL     1      -8.178   8.865  72.504  1.00  0.00    -0.384 OA 
BRANCH  15  17
HETATM   17  C   UNL     1     -10.141   8.194  71.341  1.00  0.00    -0.248 A  
HETATM   18  C   UNL     1     -11.231   8.628  72.110  1.00  0.00    -0.438 A  
HETATM   19  C   UNL     1     -12.475   8.004  71.990  1.00  0.00    -0.357 A  
HETATM   20  C   UNL     1     -12.641   6.951  71.095  1.00  0.00    -0.366 A  
HETATM   21  C   UNL     1     -10.321   7.141  70.433  1.00  0.00    -0.216 A  
HETATM   22  C   UNL     1     -11.567   6.519  70.317  1.00  0.00    -0.473 A  
ENDBRANCH  15  17
ENDBRANCH  14  15
ENDBRANCH   3  14
BRANCH  10  23
HETATM   23  S   UNL     1      -8.489  15.973  66.780  1.00  0.00    -0.289 SA 
BRANCH  23  24
HETATM   24  C   UNL     1      -9.134  17.582  67.211  1.00  0.00    -0.239 A  
HETATM   25  C   UNL     1      -8.934  18.178  68.459  1.00  0.00    -0.309 A  
HETATM   26  C   UNL     1     -10.145  20.147  67.744  1.00  0.00    -0.540 A  
HETATM   27  C   UNL     1      -9.445  19.452  68.727  1.00  0.00    -0.464 A  
HETATM   28  C   UNL     1     -10.333  19.572  66.490  1.00  0.00    -0.583 A  
HETATM   29  C   UNL     1      -9.826  18.298  66.224  1.00  0.00    -0.323 A  
ENDBRANCH  23  24
ENDBRANCH  10  23
TORSDOF 5
ENDMDL
MODEL        6
REMARK 921   NORMALIZED FREE ENERGY PREDICTED BY IDOCK:   -7.30 KCAL/MOL
REMARK 922        TOTAL FREE ENERGY PREDICTED BY IDOCK:  -10.60 KCAL/MOL
REMARK 923 INTER-LIGAND FREE ENERGY PREDICTED BY IDOCK:   -9.78 KCAL/MOL
REMARK 924 INTRA-LIGAND FREE ENERGY PREDICTED BY IDOCK:   -0.82 KCAL/MOL
REMARK 927      BINDING AFFINITY PREDICTED BY RF-SCORE:    0.00 PKD
ROOT
HETATM    1  C   UNL     1     -11.119   8.056  72.701  1.00  0.00    -0.453 C  
HETATM    2  C   UNL     1     -11.422   8.369  71.231  1.00  0.00    -0.325 C  
HETATM    3  C   UNL     1     -12.849   8.886  70.996  1.00  0.00    -0.028 C  
HETATM    4  C   UNL     1     -11.254   7.106  70.396  1.00  0.00    -0.287 C  
HETATM    5  O   UNL     1     -11.599   6.005  70.824  1.00  0.00    -0.259 OA 
HETATM    6  C   UNL     1      -9.681   4.941  68.532  1.00  0.00    -0.155 C  
HETATM    7  N   UNL     1     -10.684   7.203  69.145  1.00  0.00    -0.216 N  
HETATM    8  C   UNL     1     -10.204   8.404  68.475  1.00  0.00    -0.201 C  
HETATM    9  C   UNL     1     -10.691   6.055  68.218  1.00  0.00    -0.279 C  
HETATM   10  C   UNL     1     -10.486   8.160  66.993  1.00  0.00    -0.326 C  
HETATM   11  C   UNL     1     -10.340   6.646  66.842  1.00  0.00    -0.324 C  
HETATM   12  O   UNL     1      -8.936   5.137  69.642  1.00  0.00    -0.103 OA 
HETATM   13  O   UNL     1      -9.518   3.959  67.815  1.00  0.00    -0.174 OA 
ENDROOT
BRANCH   3  14
HETATM   14  S   UNL     1     -13.149  10.409  71.932  1.00  0.00    -0.398 SA 
BRANCH  14  15
HETATM   15  C   UNL     1     -12.603  11.627  70.783  1.00  0.00    -0.273 C  
HETATM   16  O   UNL     1     -12.159  11.320  69.684  1.00  0.00    -0.315 OA 
BRANCH  15  17
HETATM   17  C   UNL     1     -12.746  13.051  71.206  1.00  0.00    -0.385 A  
HETATM   18  C   UNL     1     -12.046  14.094  70.579  1.00  0.00    -0.420 A  
HETATM   19  C   UNL     1     -12.200  15.411  71.015  1.00  0.00    -0.431 A  
HETATM   20  C   UNL     1     -13.059  15.698  72.072  1.00  0.00    -0.541 A  
HETATM   21  C   UNL     1     -13.618  13.351  72.261  1.00  0.00    -0.703 A  
HETATM   22  C   UNL     1     -13.769  14.671  72.695  1.00  0.00    -0.545 A  
ENDBRANCH  15  17
ENDBRANCH  14  15
ENDBRANCH   3  14
BRANCH  10  23
HETATM   23  S   UNL     1      -9.329   9.141  65.970  1.00  0.00    -0.256 SA 
BRANCH  23  24
HETATM   24  C   UNL     1     -10.314  10.546  65.473  1.00  0.00    -0.217 A  
HETATM   25  C   UNL     1     -11.014  11.349  66.378  1.00  0.00    -0.315 A  
HETATM   26  C   UNL     1     -11.774  12.769  64.572  1.00  0.00    -0.420 A  
HETATM   27  C   UNL     1     -11.748  12.451  65.928  1.00  0.00    -0.476 A  
HETATM   28  C   UNL     1     -11.064  11.989  63.664  1.00  0.00    -0.525 A  
HETATM   29  C   UNL     1     -10.334  10.886  64.113  1.00  0.00    -0.432 A  
ENDBRANCH  23  24
ENDBRANCH  10  23
TORSDOF 5
ENDMDL
MODEL        7
REMARK 921   NORMALIZED FREE ENERGY PREDICTED BY IDOCK:   -7.26 KCAL/MOL
REMARK 922        TOTAL FREE ENERGY PREDICTED BY IDOCK:  -10.55 KCAL/MOL
REMARK 923 INTER-LIGAND FREE ENERGY PREDICTED BY IDOCK:   -9.41 KCAL/MOL
REMARK 924 INTRA-LIGAND FREE ENERGY PREDICTED BY IDOCK:   -1.14 KCAL/MOL
REMARK 927      BINDING AFFINITY PREDICTED BY RF-SCORE:    0.00 PKD
ROOT
HETATM    1  C   UNL     1      -9.124   8.667  66.515  1.00  0.00    -0.206 C  
HETATM    2  C   UNL     1      -9.449   9.450  67.793  1.00  0.00    -0.152 C  
HETATM    3  C   UNL     1      -8.381  10.489  68.163  1.00  0.00    -0.119 C  
HETATM    4  C   UNL     1      -9.570   8.487  68.965  1.00  0.00    -0.167 C  
HETATM    5  O   UNL     1      -8.826   7.512  69.072  1.00  0.00    -0.133 OA 
HETATM    6  C   UNL     1     -11.086   6.486  71.049  1.00  0.00    -0.288 C  
HETATM    7  N   UNL     1     -10.548   8.704  69.911  1.00  0.00    -0.223 N  
HETATM    8  C   UNL     1     -11.526   9.783  69.951  1.00  0.00    -0.140 C  
HETATM    9  C   UNL     1     -10.574   7.929  71.167  1.00  0.00    -0.213 C  
HETATM   10  C   UNL     1     -11.732  10.065  71.439  1.00  0.00    -0.334 C  
HETATM   11  C   UNL     1     -11.527   8.701  72.097  1.00  0.00    -0.443 C  
HETATM   12  O   UNL     1     -11.415   6.094  69.798  1.00  0.00    -0.433 OA 
HETATM   13  O   UNL     1     -11.232   5.742  72.013  1.00  0.00    -0.265 OA 
ENDROOT
BRANCH   3  14
HETATM   14  S   UNL     1      -8.173  11.707  66.836  1.00  0.00    -0.161 SA 
BRANCH  14  15
HETATM   15  C   UNL     1      -9.698  12.582  66.936  1.00  0.00    -0.232 C  
HETATM   16  O   UNL     1      -9.995  13.246  67.920  1.00  0.00    -0.220 OA 
BRANCH  15  17
HETATM   17  C   UNL     1     -10.589  12.502  65.741  1.00  0.00    -0.299 A  
HETATM   18  C   UNL     1     -11.929  12.918  65.775  1.00  0.00    -0.496 A  
HETATM   19  C   UNL     1     -12.731  12.814  64.637  1.00  0.00    -0.439 A  
HETATM   20  C   UNL     1     -12.200  12.303  63.455  1.00  0.00    -0.669 A  
HETATM   21  C   UNL     1     -10.059  12.001  64.543  1.00  0.00    -0.293 A  
HETATM   22  C   UNL     1     -10.866  11.898  63.407  1.00  0.00    -0.469 A  
ENDBRANCH  15  17
ENDBRANCH  14  15
ENDBRANCH   3  14
BRANCH  10  23
HETATM   23  S   UNL     1     -13.385  10.799  71.709  1.00  0.00    -0.237 SA 
BRANCH  23  24
HETATM   24  C   UNL     1     -13.078  12.554  71.586  1.00  0.00    -0.315 A  
HETATM   25  C   UNL     1     -12.198  13.114  70.655  1.00  0.00    -0.402 A  
HETATM   26  C   UNL     1     -12.732  15.338  71.447  1.00  0.00    -0.462 A  
HETATM   27  C   UNL     1     -12.019  14.500  70.592  1.00  0.00    -0.387 A  
HETATM   28  C   UNL     1     -13.627  14.793  72.363  1.00  0.00    -0.550 A  
HETATM   29  C   UNL     1     -13.802  13.409  72.429  1.00  0.00    -0.665 A  
ENDBRANCH  23  24
ENDBRANCH  10  23
TORSDOF 5
ENDMDL
MODEL        8
REMARK 921   NORMALIZED FREE ENERGY PREDICTED BY IDOCK:   -7.21 KCAL/MOL
REMARK 922        TOTAL FREE ENERGY PREDICTED BY IDOCK:  -10.49 KCAL/MOL
REMARK 923 INTER-LIGAND FREE ENERGY PREDICTED BY IDOCK:   -9.91 KCAL/MOL
REMARK 924 INTRA-LIGAND FREE ENERGY PREDICTED BY IDOCK:   -0.57 KCAL/MOL
REMARK 927      BINDING AFFINITY PREDICTED BY RF-SCORE:    0.00 PKD
ROOT
HETATM    1  C   UNL     1     -10.607  12.590  64.183  1.00  0.00    -0.425 C  
HETATM    2  C   UNL     1     -10.522  12.743  65.706  1.00  0.00    -0.294 C  
HETATM    3  C   UNL     1      -9.668  13.937  66.156  1.00  0.00    -0.272 C  
HETATM    4  C   UNL     1      -9.904  11.490  66.311  1.00  0.00    -0.217 C  
HETATM    5  O   UNL     1      -8.984  10.895  65.749  1.00  0.00    -0.183 OA 
HETATM    6  C   UNL     1      -9.875   8.515  67.649  1.00  0.00    -0.174 C  
HETATM    7  N   UNL     1     -10.402  11.005  67.500  1.00  0.00    -0.191 N  
HETATM    8  C   UNL     1     -11.486  11.556  68.303  1.00  0.00    -0.299 C  
HETATM    9  C   UNL     1      -9.707   9.927  68.231  1.00  0.00    -0.144 C  
HETATM   10  C   UNL     1     -11.091  11.252  69.748  1.00  0.00    -0.167 C  
HETATM   11  C   UNL     1     -10.318   9.938  69.643  1.00  0.00    -0.265 C  
HETATM   12  O   UNL     1     -10.610   8.444  66.516  1.00  0.00    -0.204 OA 
HETATM   13  O   UNL     1      -9.418   7.509  68.182  1.00  0.00    -0.143 OA 
ENDROOT
BRANCH   3  14
HETATM   14  S   UNL     1     -10.335  15.493  65.506  1.00  0.00    -0.409 SA 
BRANCH  14  15
HETATM   15  C   UNL     1     -10.851  16.287  66.991  1.00  0.00    -0.173 C  
HETATM   16  O   UNL     1     -11.442  15.679  67.874  1.00  0.00    -0.329 OA 
BRANCH  15  17
HETATM   17  C   UNL     1     -10.495  17.730  67.130  1.00  0.00    -0.338 A  
HETATM   18  C   UNL     1     -10.150  18.302  68.365  1.00  0.00    -0.412 A  
HETATM   19  C   UNL     1      -9.836  19.659  68.452  1.00  0.00    -0.531 A  
HETATM   20  C   UNL     1      -9.855  20.453  67.309  1.00  0.00    -0.597 A  
HETATM   21  C   UNL     1     -10.499  18.534  65.982  1.00  0.00    -0.433 A  
HETATM   22  C   UNL     1     -10.185  19.893  66.074  1.00  0.00    -0.591 A  
ENDBRANCH  15  17
ENDBRANCH  14  15
ENDBRANCH   3  14
BRANCH  10  23
HETATM   23  S   UNL     1     -12.588  11.171  70.797  1.00  0.00    -0.332 SA 
BRANCH  23  24
HETATM   24  C   UNL     1     -12.830  12.869  71.295  1.00  0.00    -0.270 A  
HETATM   25  C   UNL     1     -13.710  13.250  72.313  1.00  0.00    -0.686 A  
HETATM   26  C   UNL     1     -13.073  15.568  72.033  1.00  0.00    -0.535 A  
HETATM   27  C   UNL     1     -13.838  14.595  72.674  1.00  0.00    -0.490 A  
HETATM   28  C   UNL     1     -12.178  15.198  71.033  1.00  0.00    -0.393 A  
HETATM   29  C   UNL     1     -12.055  13.855  70.669  1.00  0.00    -0.417 A  
ENDBRANCH  23  24
ENDBRANCH  10  23
TORSDOF 5
ENDMDL
MODEL        9
REMARK 921   NORMALIZED FREE ENERGY PREDICTED BY IDOCK:   -7.19 KCAL/MOL
REMARK 922        TOTAL FREE ENERGY PREDICTED BY IDOCK:  -10.46 KCAL/MOL
REMARK 923 INTER-LIGAND FREE ENERGY PREDICTED BY IDOCK:   -9.22 KCAL/MOL
REMARK 924 INTRA-LIGAND FREE ENERGY PREDICTED BY IDOCK:   -1.25 KCAL/MOL
REMARK 927      BINDING AFFINITY PREDICTED BY RF-SCORE:    0.00 PKD
ROOT
HETATM    1  C   UNL     1      -8.055   8.033  67.574  1.00  0.00    -0.123 C  
HETATM    2  C   UNL     1      -9.153   8.942  68.139  1.00  0.00    -0.142 C  
HETATM    3  C   UNL     1     -10.158   8.204  69.036  1.00  0.00    -0.205 C  
HETATM    4  C   UNL     1      -9.939   9.565  66.993  1.00  0.00    -0.213 C  
HETATM    5  O   UNL     1     -10.202   8.925  65.975  1.00  0.00    -0.199 OA 
HETATM    6  C   UNL     1     -10.680  11.811  64.747  1.00  0.00    -0.302 C  
HETATM    7  N   UNL     1     -10.344  10.877  67.096  1.00  0.00    -0.210 N  
HETATM    8  C   UNL     1     -10.120  11.795  68.204  1.00  0.00    -0.192 C  
HETATM    9  C   UNL     1     -11.281  11.461  66.116  1.00  0.00    -0.137 C  
HETATM   10  C   UNL     1     -11.365  12.681  68.233  1.00  0.00    -0.295 C  
HETATM   11  C   UNL     1     -11.784  12.762  66.765  1.00  0.00    -0.459 C  
HETATM   12  O   UNL     1      -9.372  11.505  64.600  1.00  0.00    -0.151 OA 
HETATM   13  O   UNL     1     -11.314  12.366  63.856  1.00  0.00    -0.362 OA 
ENDROOT
BRANCH   3  14
HETATM   14  S   UNL     1      -9.324   7.441  70.453  1.00  0.00    -0.161 SA 
BRANCH  14  15
HETATM   15  C   UNL     1     -10.096   8.282  71.794  1.00  0.00    -0.224 C  
HETATM   16  O   UNL     1      -9.441   8.821  72.677  1.00  0.00    -0.269 OA 
BRANCH  15  17
HETATM   17  C   UNL     1     -11.587   8.335  71.775  1.00  0.00    -0.356 A  
HETATM   18  C   UNL     1     -12.297   9.543  71.866  1.00  0.00    -0.450 A  
HETATM   19  C   UNL     1     -13.692   9.546  71.857  1.00  0.00    -0.410 A  
HETATM   20  C   UNL     1     -14.390   8.346  71.748  1.00  0.00    -0.558 A  
HETATM   21  C   UNL     1     -12.298   7.133  71.653  1.00  0.00    -0.398 A  
HETATM   22  C   UNL     1     -13.695   7.140  71.645  1.00  0.00    -0.406 A  
ENDBRANCH  15  17
ENDBRANCH  14  15
ENDBRANCH   3  14
BRANCH  10  23
HETATM   23  S   UNL     1     -10.965  14.292  69.000  1.00  0.00    -0.262 SA 
BRANCH  23  24
HETATM   24  C   UNL     1     -11.962  14.299  70.482  1.00  0.00    -0.331 A  
HETATM   25  C   UNL     1     -12.678  13.185  70.928  1.00  0.00    -0.313 A  
HETATM   26  C   UNL     1     -13.443  14.417  72.865  1.00  0.00    -0.516 A  
HETATM   27  C   UNL     1     -13.422  13.246  72.110  1.00  0.00    -0.655 A  
HETATM   28  C   UNL     1     -12.717  15.527  72.442  1.00  0.00    -0.488 A  
HETATM   29  C   UNL     1     -11.977  15.466  71.258  1.00  0.00    -0.431 A  
ENDBRANCH  23  24
ENDBRANCH  10  23
TORSDOF 5
ENDMDL
MODEL       10
REMARK 921   NORMALIZED FREE ENERGY PREDICTED BY IDOCK:   -7.09 KCAL/MOL
REMARK 922        TOTAL FREE ENERGY PREDICTED BY IDOCK:  -10.33 KCAL/MOL
REMARK 923 INTER-LIGAND FREE ENERGY PREDICTED BY IDOCK:   -9.75 KCAL/MOL
REMARK 924 INTRA-LIGAND FREE ENERGY PREDICTED BY IDOCK:   -0.58 KCAL/MOL
REMARK 927      BINDING AFFINITY PREDICTED BY RF-SCORE:    0.00 PKD
ROOT
HETATM    1  C   UNL     1     -10.405   9.663  66.991  1.00  0.00    -0.315 C  
HETATM    2  C   UNL     1     -10.387  11.009  67.724  1.00  0.00    -0.218 C  
HETATM    3  C   UNL     1     -11.043  10.960  69.112  1.00  0.00    -0.245 C  
HETATM    4  C   UNL     1     -11.140  12.048  66.903  1.00  0.00    -0.302 C  
HETATM    5  O   UNL     1     -12.161  11.755  66.282  1.00  0.00    -0.446 OA 
HETATM    6  C   UNL     1     -11.507  14.429  64.705  1.00  0.00    -0.387 C  
HETATM    7  N   UNL     1     -10.650  13.334  66.842  1.00  0.00    -0.263 N  
HETATM    8  C   UNL     1      -9.460  13.866  67.490  1.00  0.00    -0.216 C  
HETATM    9  C   UNL     1     -11.447  14.421  66.240  1.00  0.00    -0.359 C  
HETATM   10  C   UNL     1      -9.815  15.315  67.823  1.00  0.00    -0.220 C  
HETATM   11  C   UNL     1     -10.767  15.722  66.699  1.00  0.00    -0.287 C  
HETATM   12  O   UNL     1     -10.851  13.414  64.099  1.00  0.00    -0.390 OA 
HETATM   13  O   UNL     1     -12.070  15.306  64.058  1.00  0.00    -0.565 OA 
ENDROOT
BRANCH   3  14
HETATM   14  S   UNL     1     -10.203   9.763  70.185  1.00  0.00    -0.281 SA 
BRANCH  14  15
HETATM   15  C   UNL     1     -11.566   9.082  71.066  1.00  0.00    -0.300 C  
HETATM   16  O   UNL     1     -12.689   9.565  70.989  1.00  0.00    -0.303 OA 
BRANCH  15  17
HETATM   17  C   UNL     1     -11.288   7.862  71.880  1.00  0.00    -0.324 A  
HETATM   18  C   UNL     1     -11.957   6.647  71.665  1.00  0.00    -0.395 A  
HETATM   19  C   UNL     1     -11.674   5.534  72.458  1.00  0.00    -0.222 A  
HETATM   20  C   UNL     1     -10.716   5.621  73.465  1.00  0.00    -0.311 A  
HETATM   21  C   UNL     1     -10.315   7.937  72.887  1.00  0.00    -0.413 A  
HETATM   22  C   UNL     1     -10.036   6.820  73.679  1.00  0.00    -0.324 A  
ENDBRANCH  15  17
ENDBRANCH  14  15
ENDBRANCH   3  14
BRANCH  10  23
HETATM   23  S   UNL     1      -8.290  16.320  67.929  1.00  0.00    -0.168 SA 
BRANCH  23  24
HETATM   24  C   UNL     1      -8.872  17.981  67.625  1.00  0.00    -0.254 A  
HETATM   25  C   UNL     1      -8.581  18.692  66.457  1.00  0.00    -0.307 A  
HETATM   26  C   UNL     1      -9.903  20.564  67.235  1.00  0.00    -0.581 A  
HETATM   27  C   UNL     1      -9.088  19.982  66.266  1.00  0.00    -0.402 A  
HETATM   28  C   UNL     1     -10.217  19.857  68.392  1.00  0.00    -0.557 A  
HETATM   29  C   UNL     1      -9.707  18.571  68.584  1.00  0.00    -0.398 A  
ENDBRANCH  23  24
ENDBRANCH  10  23
TORSDOF 5
ENDMDL
MODEL       11
REMARK 921   NORMALIZED FREE ENERGY PREDICTED BY IDOCK:   -6.97 KCAL/MOL
REMARK 922        TOTAL FREE ENERGY PREDICTED BY IDOCK:  -10.17 KCAL/MOL
REMARK 923 INTER-LIGAND FREE ENERGY PREDICTED BY IDOCK:   -9.84 KCAL/MOL
REMARK 924 INTRA-LIGAND FREE ENERGY PREDICTED BY IDOCK:   -0.33 KCAL/MOL
REMARK 927      BINDING AFFINITY PREDICTED BY RF-SCORE:    0.00 PKD
ROOT
HETATM    1  C   UNL     1      -9.804   9.317  66.826  1.00  0.00    -0.289 C  
HETATM    2  C   UNL     1      -9.839  10.721  67.441  1.00  0.00    -0.204 C  
HETATM    3  C   UNL     1     -10.264  10.733  68.917  1.00  0.00    -0.203 C  
HETATM    4  C   UNL     1     -10.831  11.588  66.677  1.00  0.00    -0.287 C  
HETATM    5  O   UNL     1     -11.891  11.128  66.256  1.00  0.00    -0.009 OA 
HETATM    6  C   UNL     1     -11.821  13.695  64.392  1.00  0.00    -0.424 C  
HETATM    7  N   UNL     1     -10.518  12.908  66.438  1.00  0.00    -0.263 N  
HETATM    8  C   UNL     1      -9.317  13.627  66.840  1.00  0.00    -0.257 C  
HETATM    9  C   UNL     1     -11.525  13.840  65.893  1.00  0.00    -0.322 C  
HETATM   10  C   UNL     1      -9.792  15.054  67.115  1.00  0.00    -0.233 C  
HETATM   11  C   UNL     1     -10.948  15.245  66.134  1.00  0.00    -0.307 C  
HETATM   12  O   UNL     1     -11.146  12.706  63.767  1.00  0.00    -0.402 OA 
HETATM   13  O   UNL     1     -12.580  14.441  63.781  1.00  0.00    -0.829 OA 
ENDROOT
BRANCH   3  14
HETATM   14  S   UNL     1      -9.128   9.743  69.926  1.00  0.00    -0.214 SA 
BRANCH  14  15
HETATM   15  C   UNL     1     -10.094   8.297  70.204  1.00  0.00    -0.191 C  
HETATM   16  O   UNL     1      -9.687   7.183  69.898  1.00  0.00    -0.170 OA 
BRANCH  15  17
HETATM   17  C   UNL     1     -11.416   8.498  70.867  1.00  0.00    -0.302 A  
HETATM   18  C   UNL     1     -11.811   9.738  71.394  1.00  0.00    -0.488 A  
HETATM   19  C   UNL     1     -13.052   9.879  72.017  1.00  0.00    -0.545 A  
HETATM   20  C   UNL     1     -13.911   8.787  72.112  1.00  0.00    -0.522 A  
HETATM   21  C   UNL     1     -12.293   7.408  70.955  1.00  0.00    -0.303 A  
HETATM   22  C   UNL     1     -13.534   7.554  71.581  1.00  0.00    -0.429 A  
ENDBRANCH  15  17
ENDBRANCH  14  15
ENDBRANCH   3  14
BRANCH  10  23
HETATM   23  S   UNL     1      -8.404  16.225  66.893  1.00  0.00    -0.261 SA 
BRANCH  23  24
HETATM   24  C   UNL     1      -9.150  17.812  67.227  1.00  0.00    -0.246 A  
HETATM   25  C   UNL     1      -9.610  18.669  66.222  1.00  0.00    -0.295 A  
HETATM   26  C   UNL     1     -10.368  20.257  67.884  1.00  0.00    -0.395 A  
HETATM   27  C   UNL     1     -10.208  19.890  66.549  1.00  0.00    -0.611 A  
HETATM   28  C   UNL     1      -9.933  19.402  68.893  1.00  0.00    -0.519 A  
HETATM   29  C   UNL     1      -9.332  18.185  68.566  1.00  0.00    -0.321 A  
ENDBRANCH  23  24
ENDBRANCH  10  23
TORSDOF 5
ENDMDL
MODEL       12
REMARK 921   NORMALIZED FREE ENERGY PREDICTED BY IDOCK:   -6.89 KCAL/MOL
REMARK 922        TOTAL FREE ENERGY PREDICTED BY IDOCK:  -10.07 KCAL/MOL
REMARK 923 INTER-LIGAND FREE ENERGY PREDICTED BY IDOCK:   -9.24 KCAL/MOL
REMARK 924 INTRA-LIGAND FREE ENERGY PREDICTED BY IDOCK:   -0.82 KCAL/MOL
REMARK 927      BINDING AFFINITY PREDICTED BY RF-SCORE:    0.00 PKD
ROOT
HETATM    1  C   UNL     1     -11.716  12.425  65.801  1.00  0.00    -0.470 C  
HETATM    2  C   UNL     1     -11.361  12.161  67.269  1.00  0.00    -0.398 C  
HETATM    3  C   UNL     1     -10.627  13.330  67.942  1.00  0.00    -0.238 C  
HETATM    4  C   UNL     1     -10.454  10.941  67.363  1.00  0.00    -0.224 C  
HETATM    5  O   UNL     1      -9.582  10.726  66.521  1.00  0.00    -0.176 OA 
HETATM    6  C   UNL     1      -9.715   7.782  67.696  1.00  0.00    -0.155 C  
HETATM    7  N   UNL     1     -10.632  10.054  68.401  1.00  0.00    -0.208 N  
HETATM    8  C   UNL     1     -11.610  10.127  69.478  1.00  0.00    -0.118 C  
HETATM    9  C   UNL     1      -9.654   8.978  68.657  1.00  0.00    -0.153 C  
HETATM   10  C   UNL     1     -10.901   9.519  70.688  1.00  0.00    -0.306 C  
HETATM   11  C   UNL     1      -9.973   8.472  70.074  1.00  0.00    -0.191 C  
HETATM   12  O   UNL     1     -10.636   7.882  66.712  1.00  0.00    -0.326 OA 
HETATM   13  O   UNL     1      -9.016   6.782  67.821  1.00  0.00    -0.118 OA 
ENDROOT
BRANCH   3  14
HETATM   14  S   UNL     1     -11.635  14.836  67.906  1.00  0.00    -0.343 SA 
BRANCH  14  15
HETATM   15  C   UNL     1     -11.101  15.638  69.380  1.00  0.00    -0.303 C  
HETATM   16  O   UNL     1     -10.105  16.350  69.400  1.00  0.00    -0.258 OA 
BRANCH  15  17
HETATM   17  C   UNL     1     -11.948  15.434  70.592  1.00  0.00    -0.396 A  
HETATM   18  C   UNL     1     -12.994  14.499  70.628  1.00  0.00    -0.358 A  
HETATM   19  C   UNL     1     -13.770  14.350  71.779  1.00  0.00    -0.504 A  
HETATM   20  C   UNL     1     -13.502  15.124  72.904  1.00  0.00    -0.589 A  
HETATM   21  C   UNL     1     -11.677  16.200  71.734  1.00  0.00    -0.568 A  
HETATM   22  C   UNL     1     -12.456  16.048  72.884  1.00  0.00    -0.596 A  
ENDBRANCH  15  17
ENDBRANCH  14  15
ENDBRANCH   3  14
BRANCH  10  23
HETATM   23  S   UNL     1     -12.136   8.847  71.859  1.00  0.00    -0.388 SA 
BRANCH  23  24
HETATM   24  C   UNL     1     -11.259   7.511  72.657  1.00  0.00    -0.348 A  
HETATM   25  C   UNL     1     -10.223   7.715  73.573  1.00  0.00    -0.332 A  
HETATM   26  C   UNL     1     -10.001   5.327  73.895  1.00  0.00    -0.202 A  
HETATM   27  C   UNL     1      -9.591   6.627  74.183  1.00  0.00    -0.281 A  
HETATM   28  C   UNL     1     -11.046   5.113  73.000  1.00  0.00    -0.379 A  
HETATM   29  C   UNL     1     -11.673   6.200  72.388  1.00  0.00    -0.319 A  
ENDBRANCH  23  24
ENDBRANCH  10  23
TORSDOF 5
ENDMDL
MODEL       13
REMARK 921   NORMALIZED FREE ENERGY PREDICTED BY IDOCK:   -6.87 KCAL/MOL
REMARK 922        TOTAL FREE ENERGY PREDICTED BY IDOCK:  -10.05 KCAL/MOL
REMARK 923 INTER-LIGAND FREE ENERGY PREDICTED BY IDOCK:   -8.94 KCAL/MOL
REMARK 924 INTRA-LIGAND FREE ENERGY PREDICTED BY IDOCK:   -1.10 KCAL/MOL
REMARK 927      BINDING AFFINITY PREDICTED BY RF-SCORE:    0.00 PKD
ROOT
HETATM    1  C   UNL     1     -11.029   8.061  72.712  1.00  0.00    -0.449 C  
HETATM    2  C   UNL     1     -11.352   8.344  71.240  1.00  0.00    -0.314 C  
HETATM    3  C   UNL     1     -12.784   8.851  71.014  1.00  0.00    -0.063 C  
HETATM    4  C   UNL     1     -11.190   7.066  70.428  1.00  0.00    -0.299 C  
HETATM    5  O   UNL     1     -11.526   5.972  70.882  1.00  0.00    -0.284 OA 
HETATM    6  C   UNL     1      -9.633   4.869  68.587  1.00  0.00    -0.154 C  
HETATM    7  N   UNL     1     -10.636   7.140  69.169  1.00  0.00    -0.214 N  
HETATM    8  C   UNL     1     -10.169   8.328  68.469  1.00  0.00    -0.208 C  
HETATM    9  C   UNL     1     -10.650   5.973  68.264  1.00  0.00    -0.261 C  
HETATM   10  C   UNL     1     -10.468   8.054  66.996  1.00  0.00    -0.340 C  
HETATM   11  C   UNL     1     -10.319   6.538  66.872  1.00  0.00    -0.311 C  
HETATM   12  O   UNL     1      -8.875   5.090  69.684  1.00  0.00    -0.092 OA 
HETATM   13  O   UNL     1      -9.476   3.873  67.888  1.00  0.00    -0.172 OA 
ENDROOT
BRANCH   3  14
HETATM   14  S   UNL     1     -13.078  10.392  71.923  1.00  0.00    -0.398 SA 
BRANCH  14  15
HETATM   15  C   UNL     1     -12.379  11.575  70.822  1.00  0.00    -0.375 C  
HETATM   16  O   UNL     1     -11.671  11.238  69.880  1.00  0.00    -0.293 OA 
BRANCH  15  17
HETATM   17  C   UNL     1     -12.726  13.004  71.074  1.00  0.00    -0.347 A  
HETATM   18  C   UNL     1     -12.334  14.036  70.208  1.00  0.00    -0.425 A  
HETATM   19  C   UNL     1     -12.670  15.362  70.489  1.00  0.00    -0.455 A  
HETATM   20  C   UNL     1     -13.407  15.666  71.630  1.00  0.00    -0.543 A  
HETATM   21  C   UNL     1     -13.478  13.319  72.214  1.00  0.00    -0.679 A  
HETATM   22  C   UNL     1     -13.812  14.647  72.492  1.00  0.00    -0.561 A  
ENDBRANCH  15  17
ENDBRANCH  14  15
ENDBRANCH   3  14
BRANCH  10  23
HETATM   23  S   UNL     1      -9.328   9.019  65.939  1.00  0.00    -0.236 SA 
BRANCH  23  24
HETATM   24  C   UNL     1      -9.737  10.712  66.336  1.00  0.00    -0.196 A  
HETATM   25  C   UNL     1      -8.784  11.660  66.722  1.00  0.00    -0.189 A  
HETATM   26  C   UNL     1     -10.497  13.363  66.870  1.00  0.00    -0.273 A  
HETATM   27  C   UNL     1      -9.164  12.977  66.996  1.00  0.00    -0.232 A  
HETATM   28  C   UNL     1     -11.451  12.433  66.466  1.00  0.00    -0.427 A  
HETATM   29  C   UNL     1     -11.072  11.116  66.196  1.00  0.00    -0.152 A  
ENDBRANCH  23  24
ENDBRANCH  10  23
TORSDOF 5
ENDMDL
MODEL       14
REMARK 921   NORMALIZED FREE ENERGY PREDICTED BY IDOCK:   -6.74 KCAL/MOL
REMARK 922        TOTAL FREE ENERGY PREDICTED BY IDOCK:   -9.87 KCAL/MOL
REMARK 923 INTER-LIGAND FREE ENERGY PREDICTED BY IDOCK:   -9.16 KCAL/MOL
REMARK 924 INTRA-LIGAND FREE ENERGY PREDICTED BY IDOCK:   -0.71 KCAL/MOL
REMARK 927      BINDING AFFINITY PREDICTED BY RF-SCORE:    0.00 PKD
ROOT
HETATM    1  C   UNL     1     -11.250  15.602  68.324  1.00  0.00    -0.353 C  
HETATM    2  C   UNL     1     -10.265  14.618  67.682  1.00  0.00    -0.232 C  
HETATM    3  C   UNL     1      -8.849  15.188  67.518  1.00  0.00    -0.182 C  
HETATM    4  C   UNL     1     -10.762  14.230  66.295  1.00  0.00    -0.297 C  
HETATM    5  O   UNL     1     -11.304  15.053  65.557  1.00  0.00    -0.347 OA 
HETATM    6  C   UNL     1     -12.370  12.453  64.082  1.00  0.00    -0.467 C  
HETATM    7  N   UNL     1     -10.618  12.927  65.874  1.00  0.00    -0.266 N  
HETATM    8  C   UNL     1     -10.021  11.816  66.601  1.00  0.00    -0.200 C  
HETATM    9  C   UNL     1     -10.887  12.549  64.472  1.00  0.00    -0.328 C  
HETATM   10  C   UNL     1      -9.360  10.957  65.524  1.00  0.00    -0.206 C  
HETATM   11  C   UNL     1     -10.256  11.156  64.302  1.00  0.00    -0.399 C  
HETATM   12  O   UNL     1     -13.243  12.764  65.066  1.00  0.00    -0.768 OA 
HETATM   13  O   UNL     1     -12.752  12.083  62.977  1.00  0.00    -0.492 OA 
ENDROOT
BRANCH   3  14
HETATM   14  S   UNL     1      -8.150  15.662  69.122  1.00  0.00    -0.249 SA 
BRANCH  14  15
HETATM   15  C   UNL     1      -7.473  17.242  68.744  1.00  0.00    -0.260 C  
HETATM   16  O   UNL     1      -6.303  17.514  68.982  1.00  0.00    -0.196 OA 
BRANCH  15  17
HETATM   17  C   UNL     1      -8.390  18.218  68.085  1.00  0.00    -0.296 A  
HETATM   18  C   UNL     1      -9.564  18.680  68.702  1.00  0.00    -0.407 A  
HETATM   19  C   UNL     1     -10.400  19.583  68.044  1.00  0.00    -0.564 A  
HETATM   20  C   UNL     1     -10.067  20.040  66.771  1.00  0.00    -0.607 A  
HETATM   21  C   UNL     1      -8.057  18.693  66.809  1.00  0.00    -0.275 A  
HETATM   22  C   UNL     1      -8.897  19.596  66.153  1.00  0.00    -0.367 A  
ENDBRANCH  15  17
ENDBRANCH  14  15
ENDBRANCH   3  14
BRANCH  10  23
HETATM   23  S   UNL     1      -9.234   9.225  66.100  1.00  0.00    -0.214 SA 
BRANCH  23  24
HETATM   24  C   UNL     1      -9.531   9.355  67.856  1.00  0.00    -0.132 A  
HETATM   25  C   UNL     1     -10.809   9.302  68.422  1.00  0.00    -0.125 A  
HETATM   26  C   UNL     1      -9.864   9.504  70.641  1.00  0.00    -0.328 A  
HETATM   27  C   UNL     1     -10.975   9.385  69.808  1.00  0.00    -0.234 A  
HETATM   28  C   UNL     1      -8.586   9.535  70.090  1.00  0.00    -0.250 A  
HETATM   29  C   UNL     1      -8.421   9.457  68.705  1.00  0.00    -0.119 A  
ENDBRANCH  23  24
ENDBRANCH  10  23
TORSDOF 5
ENDMDL
MODEL       15
REMARK 921   NORMALIZED FREE ENERGY PREDICTED BY IDOCK:   -6.65 KCAL/MOL
REMARK 922        TOTAL FREE ENERGY PREDICTED BY IDOCK:   -9.76 KCAL/MOL
REMARK 923 INTER-LIGAND FREE ENERGY PREDICTED BY IDOCK:   -8.90 KCAL/MOL
REMARK 924 INTRA-LIGAND FREE ENERGY PREDICTED BY IDOCK:   -0.86 KCAL/MOL
REMARK 927      BINDING AFFINITY PREDICTED BY RF-SCORE:    0.00 PKD
ROOT
HETATM    1  C   UNL     1      -8.285   9.650  65.869  1.00  0.00    -0.119 C  
HETATM    2  C   UNL     1      -9.401  10.256  66.728  1.00  0.00    -0.187 C  
HETATM    3  C   UNL     1     -10.198   9.212  67.523  1.00  0.00    -0.245 C  
HETATM    4  C   UNL     1     -10.387  10.997  65.835  1.00  0.00    -0.257 C  
HETATM    5  O   UNL     1     -10.699  10.561  64.727  1.00  0.00    -0.159 OA 
HETATM    6  C   UNL     1     -11.647  13.550  64.244  1.00  0.00    -0.397 C  
HETATM    7  N   UNL     1     -10.922  12.188  66.273  1.00  0.00    -0.282 N  
HETATM    8  C   UNL     1     -10.668  12.868  67.536  1.00  0.00    -0.226 C  
HETATM    9  C   UNL     1     -12.032  12.835  65.547  1.00  0.00    -0.449 C  
HETATM   10  C   UNL     1     -11.992  13.547  67.884  1.00  0.00    -0.337 C  
HETATM   11  C   UNL     1     -12.595  13.884  66.521  1.00  0.00    -0.245 C  
HETATM   12  O   UNL     1     -10.341  13.466  63.907  1.00  0.00    -0.275 OA 
HETATM   13  O   UNL     1     -12.445  14.191  63.567  1.00  0.00    -0.817 OA 
ENDROOT
BRANCH   3  14
HETATM   14  S   UNL     1      -9.116   8.284  68.643  1.00  0.00    -0.139 SA 
BRANCH  14  15
HETATM   15  C   UNL     1      -9.214   9.265  70.101  1.00  0.00    -0.225 C  
HETATM   16  O   UNL     1      -8.229   9.822  70.569  1.00  0.00    -0.209 OA 
BRANCH  15  17
HETATM   17  C   UNL     1     -10.567   9.412  70.713  1.00  0.00    -0.371 A  
HETATM   18  C   UNL     1     -11.372  10.541  70.492  1.00  0.00    -0.400 A  
HETATM   19  C   UNL     1     -12.627  10.644  71.094  1.00  0.00    -0.526 A  
HETATM   20  C   UNL     1     -13.093   9.618  71.912  1.00  0.00    -0.530 A  
HETATM   21  C   UNL     1     -11.050   8.379  71.528  1.00  0.00    -0.329 A  
HETATM   22  C   UNL     1     -12.307   8.486  72.129  1.00  0.00    -0.444 A  
ENDBRANCH  15  17
ENDBRANCH  14  15
ENDBRANCH   3  14
BRANCH  10  23
HETATM   23  S   UNL     1     -11.685  14.995  68.959  1.00  0.00    -0.321 SA 
BRANCH  23  24
HETATM   24  C   UNL     1     -10.308  15.809  68.166  1.00  0.00    -0.242 A  
HETATM   25  C   UNL     1      -8.984  15.662  68.590  1.00  0.00    -0.202 A  
HETATM   26  C   UNL     1      -8.220  17.090  66.791  1.00  0.00    -0.273 A  
HETATM   27  C   UNL     1      -7.946  16.307  67.911  1.00  0.00    -0.153 A  
HETATM   28  C   UNL     1      -9.533  17.227  66.347  1.00  0.00    -0.282 A  
HETATM   29  C   UNL     1     -10.570  16.586  67.029  1.00  0.00    -0.255 A  
ENDBRANCH  23  24
ENDBRANCH  10  23
TORSDOF 5
ENDMDL
MODEL       16
REMARK 921   NORMALIZED FREE ENERGY PREDICTED BY IDOCK:   -6.63 KCAL/MOL
REMARK 922        TOTAL FREE ENERGY PREDICTED BY IDOCK:   -9.74 KCAL/MOL
REMARK 923 INTER-LIGAND FREE ENERGY PREDICTED BY IDOCK:   -7.71 KCAL/MOL
REMARK 924 INTRA-LIGAND FREE ENERGY PREDICTED BY IDOCK:   -2.03 KCAL/MOL
REMARK 927      BINDING AFFINITY PREDICTED BY RF-SCORE:    0.00 PKD
ROOT
HETATM    1  C   UNL     1      -9.826  13.375  67.636  1.00  0.00    -0.226 C  
HETATM    2  C   UNL     1     -10.508  12.079  68.092  1.00  0.00    -0.218 C  
HETATM    3  C   UNL     1     -11.067  11.240  66.934  1.00  0.00    -0.275 C  
HETATM    4  C   UNL     1     -11.673  12.414  69.014  1.00  0.00    -0.323 C  
HETATM    5  O   UNL     1     -12.393  13.390  68.807  1.00  0.00    -0.205 OA 
HETATM    6  C   UNL     1     -13.172  12.980  71.855  1.00  0.00    -0.430 C  
HETATM    7  N   UNL     1     -11.907  11.615  70.112  1.00  0.00    -0.347 N  
HETATM    8  C   UNL     1     -11.165  10.434  70.529  1.00  0.00    -0.314 C  
HETATM    9  C   UNL     1     -13.139  11.768  70.912  1.00  0.00     0.128 C  
HETATM   10  C   UNL     1     -12.215   9.519  71.160  1.00  0.00    -0.338 C  
HETATM   11  C   UNL     1     -13.224  10.492  71.768  1.00  0.00    -0.522 C  
HETATM   12  O   UNL     1     -12.081  13.776  71.806  1.00  0.00    -0.070 OA 
HETATM   13  O   UNL     1     -14.094  13.201  72.633  1.00  0.00    -0.701 OA 
ENDROOT
BRANCH   3  14
HETATM   14  S   UNL     1      -9.750  10.765  65.782  1.00  0.00    -0.244 SA 
BRANCH  14  15
HETATM   15  C   UNL     1      -8.888   9.559  66.732  1.00  0.00    -0.131 C  
HETATM   16  O   UNL     1      -7.946   9.862  67.454  1.00  0.00    -0.105 OA 
BRANCH  15  17
HETATM   17  C   UNL     1      -9.390   8.156  66.638  1.00  0.00    -0.250 A  
HETATM   18  C   UNL     1      -8.641   7.129  66.042  1.00  0.00    -0.158 A  
HETATM   19  C   UNL     1      -9.155   5.834  65.964  1.00  0.00    -0.163 A  
HETATM   20  C   UNL     1     -10.413   5.551  66.489  1.00  0.00    -0.331 A  
HETATM   21  C   UNL     1     -10.650   7.859  67.175  1.00  0.00    -0.383 A  
HETATM   22  C   UNL     1     -11.160   6.561  67.095  1.00  0.00    -0.434 A  
ENDBRANCH  15  17
ENDBRANCH  14  15
ENDBRANCH   3  14
BRANCH  10  23
HETATM   23  S   UNL     1     -11.418   8.398  72.367  1.00  0.00    -0.352 SA 
BRANCH  23  24
HETATM   24  C   UNL     1     -10.419   7.333  71.339  1.00  0.00    -0.203 A  
HETATM   25  C   UNL     1      -9.172   7.709  70.831  1.00  0.00    -0.150 A  
HETATM   26  C   UNL     1      -8.913   5.541  69.787  1.00  0.00    -0.143 A  
HETATM   27  C   UNL     1      -8.426   6.820  70.051  1.00  0.00    -0.140 A  
HETATM   28  C   UNL     1     -10.143   5.148  70.306  1.00  0.00    -0.338 A  
HETATM   29  C   UNL     1     -10.890   6.038  71.081  1.00  0.00    -0.338 A  
ENDBRANCH  23  24
ENDBRANCH  10  23
TORSDOF 5
ENDMDL
MODEL       17
REMARK 921   NORMALIZED FREE ENERGY PREDICTED BY IDOCK:   -6.58 KCAL/MOL
REMARK 922        TOTAL FREE ENERGY PREDICTED BY IDOCK:   -9.67 KCAL/MOL
REMARK 923 INTER-LIGAND FREE ENERGY PREDICTED BY IDOCK:   -9.06 KCAL/MOL
REMARK 924 INTRA-LIGAND FREE ENERGY PREDICTED BY IDOCK:   -0.61 KCAL/MOL
REMARK 927      BINDING AFFINITY PREDICTED BY RF-SCORE:    0.00 PKD
ROOT
HETATM    1  C   UNL     1     -11.471  12.523  65.468  1.00  0.00    -0.389 C  
HETATM    2  C   UNL     1     -11.172  12.322  66.958  1.00  0.00    -0.367 C  
HETATM    3  C   UNL     1     -10.434  13.506  67.600  1.00  0.00    -0.238 C  
HETATM    4  C   UNL     1     -10.297  11.090  67.141  1.00  0.00    -0.220 C  
HETATM    5  O   UNL     1      -9.402  10.816  66.341  1.00  0.00    -0.167 OA 
HETATM    6  C   UNL     1      -9.643   7.935  67.649  1.00  0.00    -0.150 C  
HETATM    7  N   UNL     1     -10.531  10.257  68.213  1.00  0.00    -0.187 N  
HETATM    8  C   UNL     1     -11.542  10.403  69.251  1.00  0.00    -0.176 C  
HETATM    9  C   UNL     1      -9.586   9.175  68.553  1.00  0.00    -0.148 C  
HETATM   10  C   UNL     1     -10.888   9.839  70.512  1.00  0.00    -0.323 C  
HETATM   11  C   UNL     1      -9.964   8.744  69.981  1.00  0.00    -0.196 C  
HETATM   12  O   UNL     1     -10.528   8.007  66.630  1.00  0.00    -0.303 OA 
HETATM   13  O   UNL     1      -8.971   6.927  67.846  1.00  0.00    -0.123 OA 
ENDROOT
BRANCH   3  14
HETATM   14  S   UNL     1     -11.406  15.030  67.458  1.00  0.00    -0.315 SA 
BRANCH  14  15
HETATM   15  C   UNL     1     -10.297  16.058  66.556  1.00  0.00    -0.299 C  
HETATM   16  O   UNL     1      -9.668  15.636  65.594  1.00  0.00    -0.334 OA 
BRANCH  15  17
HETATM   17  C   UNL     1     -10.196  17.479  67.003  1.00  0.00    -0.327 A  
HETATM   18  C   UNL     1      -9.894  17.829  68.328  1.00  0.00    -0.340 A  
HETATM   19  C   UNL     1      -9.821  19.171  68.705  1.00  0.00    -0.502 A  
HETATM   20  C   UNL     1     -10.039  20.172  67.763  1.00  0.00    -0.540 A  
HETATM   21  C   UNL     1     -10.401  18.494  66.058  1.00  0.00    -0.423 A  
HETATM   22  C   UNL     1     -10.328  19.836  66.440  1.00  0.00    -0.619 A  
ENDBRANCH  15  17
ENDBRANCH  14  15
ENDBRANCH   3  14
BRANCH  10  23
HETATM   23  S   UNL     1     -12.177   9.251  71.670  1.00  0.00    -0.393 SA 
BRANCH  23  24
HETATM   24  C   UNL     1     -11.444   7.790  72.391  1.00  0.00    -0.363 A  
HETATM   25  C   UNL     1     -10.408   7.837  73.329  1.00  0.00    -0.364 A  
HETATM   26  C   UNL     1     -10.419   5.423  73.502  1.00  0.00    -0.282 A  
HETATM   27  C   UNL     1      -9.891   6.658  73.875  1.00  0.00    -0.292 A  
HETATM   28  C   UNL     1     -11.465   5.366  72.585  1.00  0.00    -0.305 A  
HETATM   29  C   UNL     1     -11.977   6.544  72.036  1.00  0.00    -0.372 A  
ENDBRANCH  23  24
ENDBRANCH  10  23
TORSDOF 5
ENDMDL
MODEL       18
REMARK 921   NORMALIZED FREE ENERGY PREDICTED BY IDOCK:   -6.56 KCAL/MOL
REMARK 922        TOTAL FREE ENERGY PREDICTED BY IDOCK:   -9.65 KCAL/MOL
REMARK 923 INTER-LIGAND FREE ENERGY PREDICTED BY IDOCK:   -8.35 KCAL/MOL
REMARK 924 INTRA-LIGAND FREE ENERGY PREDICTED BY IDOCK:   -1.30 KCAL/MOL
REMARK 927      BINDING AFFINITY PREDICTED BY RF-SCORE:    0.00 PKD
ROOT
HETATM    1  C   UNL     1      -9.640   6.229  71.492  1.00  0.00    -0.168 C  
HETATM    2  C   UNL     1     -10.172   7.275  70.506  1.00  0.00    -0.203 C  
HETATM    3  C   UNL     1     -11.651   7.627  70.726  1.00  0.00    -0.265 C  
HETATM    4  C   UNL     1     -10.037   6.750  69.083  1.00  0.00    -0.171 C  
HETATM    5  O   UNL     1     -10.239   5.566  68.816  1.00  0.00    -0.175 OA 
HETATM    6  C   UNL     1      -8.600   6.275  66.194  1.00  0.00    -0.143 C  
HETATM    7  N   UNL     1      -9.661   7.619  68.083  1.00  0.00    -0.150 N  
HETATM    8  C   UNL     1      -9.367   9.041  68.201  1.00  0.00    -0.142 C  
HETATM    9  C   UNL     1      -9.720   7.215  66.664  1.00  0.00    -0.170 C  
HETATM   10  C   UNL     1      -9.841   9.646  66.880  1.00  0.00    -0.200 C  
HETATM   11  C   UNL     1      -9.612   8.526  65.866  1.00  0.00    -0.164 C  
HETATM   12  O   UNL     1      -7.719   5.907  67.150  1.00  0.00    -0.098 OA 
HETATM   13  O   UNL     1      -8.474   5.909  65.029  1.00  0.00    -0.150 OA 
ENDROOT
BRANCH   3  14
HETATM   14  S   UNL     1     -11.920   8.288  72.392  1.00  0.00    -0.348 SA 
BRANCH  14  15
HETATM   15  C   UNL     1     -13.233   9.423  72.100  1.00  0.00    -0.460 C  
HETATM   16  O   UNL     1     -14.380   9.186  72.457  1.00  0.00    -0.529 OA 
BRANCH  15  17
HETATM   17  C   UNL     1     -12.866  10.705  71.429  1.00  0.00    -0.556 A  
HETATM   18  C   UNL     1     -13.208  11.957  71.963  1.00  0.00    -0.461 A  
HETATM   19  C   UNL     1     -12.856  13.131  71.296  1.00  0.00    -0.384 A  
HETATM   20  C   UNL     1     -12.152  13.066  70.096  1.00  0.00    -0.377 A  
HETATM   21  C   UNL     1     -12.146  10.649  70.227  1.00  0.00    -0.423 A  
HETATM   22  C   UNL     1     -11.796  11.827  69.562  1.00  0.00    -0.402 A  
ENDBRANCH  15  17
ENDBRANCH  14  15
ENDBRANCH   3  14
BRANCH  10  23
HETATM   23  S   UNL     1      -8.915  11.186  66.534  1.00  0.00    -0.183 SA 
BRANCH  23  24
HETATM   24  C   UNL     1     -10.201  12.420  66.417  1.00  0.00    -0.234 A  
HETATM   25  C   UNL     1     -11.452  12.170  65.846  1.00  0.00    -0.418 A  
HETATM   26  C   UNL     1     -12.165  14.426  66.354  1.00  0.00    -0.363 A  
HETATM   27  C   UNL     1     -12.427  13.172  65.806  1.00  0.00    -0.441 A  
HETATM   28  C   UNL     1     -10.930  14.680  66.944  1.00  0.00    -0.324 A  
HETATM   29  C   UNL     1      -9.955  13.680  66.979  1.00  0.00    -0.248 A  
ENDBRANCH  23  24
ENDBRANCH  10  23
TORSDOF 5
ENDMDL
MODEL       19
REMARK 921   NORMALIZED FREE ENERGY PREDICTED BY IDOCK:   -6.56 KCAL/MOL
REMARK 922        TOTAL FREE ENERGY PREDICTED BY IDOCK:   -9.64 KCAL/MOL
REMARK 923 INTER-LIGAND FREE ENERGY PREDICTED BY IDOCK:   -8.94 KCAL/MOL
REMARK 924 INTRA-LIGAND FREE ENERGY PREDICTED BY IDOCK:   -0.70 KCAL/MOL
REMARK 927      BINDING AFFINITY PREDICTED BY RF-SCORE:    0.00 PKD
ROOT
HETATM    1  C   UNL     1      -5.966  13.313  67.823  1.00  0.00    -0.145 C  
HETATM    2  C   UNL     1      -7.455  13.678  67.838  1.00  0.00    -0.158 C  
HETATM    3  C   UNL     1      -8.261  13.009  66.715  1.00  0.00     0.124 C  
HETATM    4  C   UNL     1      -7.614  15.184  67.675  1.00  0.00    -0.174 C  
HETATM    5  O   UNL     1      -6.880  15.826  66.924  1.00  0.00    -0.248 OA 
HETATM    6  C   UNL     1      -7.910  18.283  68.648  1.00  0.00    -0.296 C  
HETATM    7  N   UNL     1      -8.585  15.836  68.401  1.00  0.00    -0.166 N  
HETATM    8  C   UNL     1      -9.533  15.258  69.344  1.00  0.00    -0.231 C  
HETATM    9  C   UNL     1      -8.918  17.248  68.126  1.00  0.00    -0.254 C  
HETATM   10  C   UNL     1     -10.797  16.104  69.191  1.00  0.00    -0.298 C  
HETATM   11  C   UNL     1     -10.263  17.490  68.833  1.00  0.00    -0.353 C  
HETATM   12  O   UNL     1      -6.824  17.766  69.263  1.00  0.00    -0.249 OA 
HETATM   13  O   UNL     1      -8.083  19.494  68.559  1.00  0.00    -0.337 OA 
ENDROOT
BRANCH   3  14
HETATM   14  S   UNL     1      -8.159  11.202  66.831  1.00  0.00    -0.155 SA 
BRANCH  14  15
HETATM   15  C   UNL     1      -9.863  10.762  66.782  1.00  0.00    -0.193 C  
HETATM   16  O   UNL     1     -10.358  10.012  67.614  1.00  0.00    -0.193 OA 
BRANCH  15  17
HETATM   17  C   UNL     1     -10.679  11.382  65.696  1.00  0.00    -0.301 A  
HETATM   18  C   UNL     1     -10.435  11.130  64.337  1.00  0.00    -0.418 A  
HETATM   19  C   UNL     1     -11.214  11.741  63.353  1.00  0.00    -0.440 A  
HETATM   20  C   UNL     1     -12.248  12.600  63.718  1.00  0.00    -0.600 A  
HETATM   21  C   UNL     1     -11.729  12.238  66.054  1.00  0.00    -0.451 A  
HETATM   22  C   UNL     1     -12.507  12.849  65.066  1.00  0.00    -0.553 A  
ENDBRANCH  15  17
ENDBRANCH  14  15
ENDBRANCH   3  14
BRANCH  10  23
HETATM   23  S   UNL     1     -11.776  16.041  70.735  1.00  0.00    -0.324 SA 
BRANCH  23  24
HETATM   24  C   UNL     1     -12.210  14.315  70.876  1.00  0.00    -0.355 A  
HETATM   25  C   UNL     1     -11.808  13.347  69.951  1.00  0.00    -0.385 A  
HETATM   26  C   UNL     1     -12.900  11.617  71.245  1.00  0.00    -0.430 A  
HETATM   27  C   UNL     1     -12.160  12.005  70.129  1.00  0.00    -0.377 A  
HETATM   28  C   UNL     1     -13.287  12.569  72.184  1.00  0.00    -0.540 A  
HETATM   29  C   UNL     1     -12.940  13.910  72.002  1.00  0.00    -0.438 A  
ENDBRANCH  23  24
ENDBRANCH  10  23
TORSDOF 5
ENDMDL
MODEL       20
REMARK 921   NORMALIZED FREE ENERGY PREDICTED BY IDOCK:   -6.53 KCAL/MOL
REMARK 922        TOTAL FREE ENERGY PREDICTED BY IDOCK:   -9.61 KCAL/MOL
REMARK 923 INTER-LIGAND FREE ENERGY PREDICTED BY IDOCK:   -7.87 KCAL/MOL
REMARK 924 INTRA-LIGAND FREE ENERGY PREDICTED BY IDOCK:   -1.73 KCAL/MOL
REMARK 927      BINDING AFFINITY PREDICTED BY RF-SCORE:    0.00 PKD
ROOT
HETATM    1  C   UNL     1     -12.207  14.287  64.895  1.00  0.00    -0.449 C  
HETATM    2  C   UNL     1     -11.408  13.356  65.815  1.00  0.00    -0.322 C  
HETATM    3  C   UNL     1     -10.718  14.087  66.976  1.00  0.00    -0.284 C  
HETATM    4  C   UNL     1     -10.322  12.653  65.012  1.00  0.00    -0.299 C  
HETATM    5  O   UNL     1      -9.704  13.238  64.123  1.00  0.00    -0.063 OA 
HETATM    6  C   UNL     1      -9.003  10.286  63.197  1.00  0.00    -0.241 C  
HETATM    7  N   UNL     1     -10.046  11.330  65.276  1.00  0.00    -0.253 N  
HETATM    8  C   UNL     1     -10.673  10.470  66.270  1.00  0.00    -0.069 C  
HETATM    9  C   UNL     1      -8.870  10.666  64.679  1.00  0.00    -0.177 C  
HETATM   10  C   UNL     1      -9.557   9.534  66.733  1.00  0.00    -0.176 C  
HETATM   11  C   UNL     1      -8.682   9.373  65.490  1.00  0.00    -0.190 C  
HETATM   12  O   UNL     1     -10.170  10.641  62.615  1.00  0.00    -0.040 OA 
HETATM   13  O   UNL     1      -8.141   9.668  62.581  1.00  0.00    -0.118 OA 
ENDROOT
BRANCH   3  14
HETATM   14  S   UNL     1     -11.931  14.944  68.016  1.00  0.00    -0.074 SA 
BRANCH  14  15
HETATM   15  C   UNL     1     -11.331  14.556  69.626  1.00  0.00    -0.273 C  
HETATM   16  O   UNL     1     -10.483  15.244  70.179  1.00  0.00    -0.284 OA 
BRANCH  15  17
HETATM   17  C   UNL     1     -11.941  13.369  70.294  1.00  0.00    -0.378 A  
HETATM   18  C   UNL     1     -11.746  12.061  69.824  1.00  0.00    -0.390 A  
HETATM   19  C   UNL     1     -12.345  10.980  70.472  1.00  0.00    -0.462 A  
HETATM   20  C   UNL     1     -13.135  11.194  71.598  1.00  0.00    -0.529 A  
HETATM   21  C   UNL     1     -12.727  13.574  71.436  1.00  0.00    -0.423 A  
HETATM   22  C   UNL     1     -13.326  12.489  72.081  1.00  0.00    -0.540 A  
ENDBRANCH  15  17
ENDBRANCH  14  15
ENDBRANCH   3  14
BRANCH  10  23
HETATM   23  S   UNL     1     -10.275   7.974  67.364  1.00  0.00    -0.287 SA 
BRANCH  23  24
HETATM   24  C   UNL     1     -10.171   8.163  69.137  1.00  0.00    -0.214 A  
HETATM   25  C   UNL     1     -10.962   7.437  70.032  1.00  0.00    -0.264 A  
HETATM   26  C   UNL     1      -9.866   8.504  71.908  1.00  0.00    -0.358 A  
HETATM   27  C   UNL     1     -10.816   7.613  71.411  1.00  0.00    -0.250 A  
HETATM   28  C   UNL     1      -9.059   9.217  71.026  1.00  0.00    -0.305 A  
HETATM   29  C   UNL     1      -9.208   9.044  69.648  1.00  0.00    -0.160 A  
ENDBRANCH  23  24
ENDBRANCH  10  23
TORSDOF 5
ENDMDL
MODEL       21
REMARK 921   NORMALIZED FREE ENERGY PREDICTED BY IDOCK:   -6.51 KCAL/MOL
REMARK 922        TOTAL FREE ENERGY PREDICTED BY IDOCK:   -9.58 KCAL/MOL
REMARK 923 INTER-LIGAND FREE ENERGY PREDICTED BY IDOCK:   -8.61 KCAL/MOL
REMARK 924 INTRA-LIGAND FREE ENERGY PREDICTED BY IDOCK:   -0.97 KCAL/MOL
REMARK 927      BINDING AFFINITY PREDICTED BY RF-SCORE:    0.00 PKD
ROOT
HETATM    1  C   UNL     1      -8.371   9.768  68.884  1.00  0.00    -0.120 C  
HETATM    2  C   UNL     1      -9.709  10.276  68.334  1.00  0.00    -0.165 C  
HETATM    3  C   UNL     1     -10.930   9.610  68.983  1.00  0.00    -0.132 C  
HETATM    4  C   UNL     1      -9.783  10.000  66.838  1.00  0.00    -0.189 C  
HETATM    5  O   UNL     1      -9.330   8.963  66.355  1.00  0.00    -0.170 OA 
HETATM    6  C   UNL     1      -9.422  10.632  63.658  1.00  0.00    -0.299 C  
HETATM    7  N   UNL     1     -10.352  10.944  66.012  1.00  0.00    -0.249 N  
HETATM    8  C   UNL     1     -10.927  12.228  66.388  1.00  0.00    -0.287 C  
HETATM    9  C   UNL     1     -10.638  10.640  64.596  1.00  0.00    -0.096 C  
HETATM   10  C   UNL     1     -12.077  12.442  65.404  1.00  0.00    -0.365 C  
HETATM   11  C   UNL     1     -11.595  11.750  64.130  1.00  0.00    -0.394 C  
HETATM   12  O   UNL     1      -8.234  10.870  64.257  1.00  0.00     0.036 OA 
HETATM   13  O   UNL     1      -9.508  10.465  62.446  1.00  0.00    -0.280 OA 
ENDROOT
BRANCH   3  14
HETATM   14  S   UNL     1     -10.952   9.899  70.773  1.00  0.00    -0.313 SA 
BRANCH  14  15
HETATM   15  C   UNL     1     -12.596  10.488  71.002  1.00  0.00    -0.400 C  
HETATM   16  O   UNL     1     -13.554   9.726  71.025  1.00  0.00    -0.320 OA 
BRANCH  15  17
HETATM   17  C   UNL     1     -12.753  11.958  71.205  1.00  0.00    -0.384 A  
HETATM   18  C   UNL     1     -12.074  12.901  70.417  1.00  0.00    -0.385 A  
HETATM   19  C   UNL     1     -12.241  14.268  70.649  1.00  0.00    -0.427 A  
HETATM   20  C   UNL     1     -13.092  14.703  71.661  1.00  0.00    -0.423 A  
HETATM   21  C   UNL     1     -13.618  12.406  72.213  1.00  0.00    -0.371 A  
HETATM   22  C   UNL     1     -13.781  13.775  72.442  1.00  0.00    -0.692 A  
ENDBRANCH  15  17
ENDBRANCH  14  15
ENDBRANCH   3  14
BRANCH  10  23
HETATM   23  S   UNL     1     -12.411  14.231  65.219  1.00  0.00    -0.396 SA 
BRANCH  23  24
HETATM   24  C   UNL     1     -11.049  14.995  66.086  1.00  0.00    -0.329 A  
HETATM   25  C   UNL     1      -9.839  15.327  65.469  1.00  0.00    -0.362 A  
HETATM   26  C   UNL     1      -9.005  16.254  67.544  1.00  0.00    -0.193 A  
HETATM   27  C   UNL     1      -8.818  15.946  66.198  1.00  0.00    -0.363 A  
HETATM   28  C   UNL     1     -10.214  15.946  68.163  1.00  0.00    -0.232 A  
HETATM   29  C   UNL     1     -11.231  15.324  67.436  1.00  0.00    -0.311 A  
ENDBRANCH  23  24
ENDBRANCH  10  23
TORSDOF 5
ENDMDL
MODEL       22
REMARK 921   NORMALIZED FREE ENERGY PREDICTED BY IDOCK:   -6.50 KCAL/MOL
REMARK 922        TOTAL FREE ENERGY PREDICTED BY IDOCK:   -9.56 KCAL/MOL
REMARK 923 INTER-LIGAND FREE ENERGY PREDICTED BY IDOCK:   -8.86 KCAL/MOL
REMARK 924 INTRA-LIGAND FREE ENERGY PREDICTED BY IDOCK:   -0.70 KCAL/MOL
REMARK 927      BINDING AFFINITY PREDICTED BY RF-SCORE:    0.00 PKD
ROOT
HETATM    1  C   UNL     1     -13.432  15.531  71.472  1.00  0.00    -0.582 C  
HETATM    2  C   UNL     1     -12.786  14.510  70.528  1.00  0.00    -0.404 C  
HETATM    3  C   UNL     1     -12.343  13.219  71.232  1.00  0.00    -0.160 C  
HETATM    4  C   UNL     1     -11.550  15.122  69.883  1.00  0.00    -0.300 C  
HETATM    5  O   UNL     1     -10.798  15.863  70.516  1.00  0.00    -0.316 OA 
HETATM    6  C   UNL     1      -9.848  16.739  67.618  1.00  0.00    -0.261 C  
HETATM    7  N   UNL     1     -11.285  14.854  68.558  1.00  0.00    -0.266 N  
HETATM    8  C   UNL     1     -12.056  14.021  67.646  1.00  0.00    -0.309 C  
HETATM    9  C   UNL     1     -10.000  15.246  67.946  1.00  0.00    -0.228 C  
HETATM   10  C   UNL     1     -11.015  13.391  66.721  1.00  0.00    -0.288 C  
HETATM   11  C   UNL     1      -9.923  14.455  66.629  1.00  0.00    -0.278 C  
HETATM   12  O   UNL     1     -10.899  17.513  67.966  1.00  0.00    -0.378 OA 
HETATM   13  O   UNL     1      -8.868  17.205  67.045  1.00  0.00    -0.217 OA 
ENDROOT
BRANCH   3  14
HETATM   14  S   UNL     1     -13.752  12.392  72.019  1.00  0.00     0.098 SA 
BRANCH  14  15
HETATM   15  C   UNL     1     -13.278  10.703  71.876  1.00  0.00    -0.423 C  
HETATM   16  O   UNL     1     -13.899   9.811  72.439  1.00  0.00    -0.330 OA 
BRANCH  15  17
HETATM   17  C   UNL     1     -12.102  10.414  71.002  1.00  0.00    -0.488 A  
HETATM   18  C   UNL     1     -12.059  10.795  69.652  1.00  0.00    -0.361 A  
HETATM   19  C   UNL     1     -10.945  10.494  68.867  1.00  0.00    -0.291 A  
HETATM   20  C   UNL     1      -9.862   9.820  69.426  1.00  0.00    -0.217 A  
HETATM   21  C   UNL     1     -11.002   9.748  71.559  1.00  0.00    -0.139 A  
HETATM   22  C   UNL     1      -9.889   9.447  70.770  1.00  0.00    -0.348 A  
ENDBRANCH  15  17
ENDBRANCH  14  15
ENDBRANCH   3  14
BRANCH  10  23
HETATM   23  S   UNL     1     -11.787  12.953  65.122  1.00  0.00    -0.407 SA 
BRANCH  23  24
HETATM   24  C   UNL     1     -10.648  11.765  64.428  1.00  0.00    -0.317 A  
HETATM   25  C   UNL     1     -10.188  11.825  63.109  1.00  0.00    -0.376 A  
HETATM   26  C   UNL     1      -8.803   9.875  63.475  1.00  0.00    -0.251 A  
HETATM   27  C   UNL     1      -9.276  10.879  62.632  1.00  0.00    -0.357 A  
HETATM   28  C   UNL     1      -9.238   9.818  64.796  1.00  0.00    -0.319 A  
HETATM   29  C   UNL     1     -10.152  10.761  65.271  1.00  0.00    -0.353 A  
ENDBRANCH  23  24
ENDBRANCH  10  23
TORSDOF 5
ENDMDL
MODEL       23
REMARK 921   NORMALIZED FREE ENERGY PREDICTED BY IDOCK:   -6.44 KCAL/MOL
REMARK 922        TOTAL FREE ENERGY PREDICTED BY IDOCK:   -9.49 KCAL/MOL
REMARK 923 INTER-LIGAND FREE ENERGY PREDICTED BY IDOCK:   -8.85 KCAL/MOL
REMARK 924 INTRA-LIGAND FREE ENERGY PREDICTED BY IDOCK:   -0.64 KCAL/MOL
REMARK 927      BINDING AFFINITY PREDICTED BY RF-SCORE:    0.00 PKD
ROOT
HETATM    1  C   UNL     1     -11.050  12.934  66.078  1.00  0.00    -0.308 C  
HETATM    2  C   UNL     1     -10.193  13.656  67.124  1.00  0.00    -0.244 C  
HETATM    3  C   UNL     1     -10.332  13.074  68.538  1.00  0.00    -0.239 C  
HETATM    4  C   UNL     1     -10.602  15.121  67.195  1.00  0.00    -0.295 C  
HETATM    5  O   UNL     1     -11.781  15.462  67.094  1.00  0.00    -0.157 OA 
HETATM    6  C   UNL     1     -10.507  18.293  66.441  1.00  0.00    -0.366 C  
HETATM    7  N   UNL     1      -9.627  16.081  67.353  1.00  0.00    -0.224 N  
HETATM    8  C   UNL     1      -8.190  15.880  67.476  1.00  0.00    -0.159 C  
HETATM    9  C   UNL     1      -9.983  17.485  67.638  1.00  0.00    -0.309 C  
HETATM   10  C   UNL     1      -7.722  16.987  68.420  1.00  0.00    -0.230 C  
HETATM   11  C   UNL     1      -8.680  18.141  68.126  1.00  0.00    -0.285 C  
HETATM   12  O   UNL     1     -10.610  17.604  65.283  1.00  0.00    -0.663 OA 
HETATM   13  O   UNL     1     -10.777  19.489  66.503  1.00  0.00    -0.449 OA 
ENDROOT
BRANCH   3  14
HETATM   14  S   UNL     1      -9.843  11.328  68.571  1.00  0.00    -0.196 SA 
BRANCH  14  15
HETATM   15  C   UNL     1     -11.281  10.586  69.266  1.00  0.00    -0.262 C  
HETATM   16  O   UNL     1     -12.392  10.762  68.784  1.00  0.00    -0.435 OA 
BRANCH  15  17
HETATM   17  C   UNL     1     -11.066   9.701  70.448  1.00  0.00    -0.346 A  
HETATM   18  C   UNL     1      -9.785   9.311  70.871  1.00  0.00    -0.346 A  
HETATM   19  C   UNL     1      -9.631   8.472  71.976  1.00  0.00    -0.371 A  
HETATM   20  C   UNL     1     -10.750   8.023  72.672  1.00  0.00    -0.426 A  
HETATM   21  C   UNL     1     -12.186   9.255  71.163  1.00  0.00    -0.373 A  
HETATM   22  C   UNL     1     -12.027   8.414  72.268  1.00  0.00    -0.455 A  
ENDBRANCH  15  17
ENDBRANCH  14  15
ENDBRANCH   3  14
BRANCH  10  23
HETATM   23  S   UNL     1      -5.959  17.365  68.109  1.00  0.00    -0.157 SA 
BRANCH  23  24
HETATM   24  C   UNL     1      -6.029  18.779  67.020  1.00  0.00    -0.162 A  
HETATM   25  C   UNL     1      -5.805  20.089  67.452  1.00  0.00    -0.197 A  
HETATM   26  C   UNL     1      -6.101  20.913  65.196  1.00  0.00    -0.283 A  
HETATM   27  C   UNL     1      -5.850  21.153  66.545  1.00  0.00    -0.329 A  
HETATM   28  C   UNL     1      -6.304  19.609  64.751  1.00  0.00    -0.286 A  
HETATM   29  C   UNL     1      -6.264  18.548  65.658  1.00  0.00    -0.294 A  
ENDBRANCH  23  24
ENDBRANCH  10  23
TORSDOF 5
ENDMDL
MODEL       24
REMARK 921   NORMALIZED FREE ENERGY PREDICTED BY IDOCK:   -6.41 KCAL/MOL
REMARK 922        TOTAL FREE ENERGY PREDICTED BY IDOCK:   -9.45 KCAL/MOL
REMARK 923 INTER-LIGAND FREE ENERGY PREDICTED BY IDOCK:   -8.68 KCAL/MOL
REMARK 924 INTRA-LIGAND FREE ENERGY PREDICTED BY IDOCK:   -0.77 KCAL/MOL
REMARK 927      BINDING AFFINITY PREDICTED BY RF-SCORE:    0.00 PKD
ROOT
HETATM    1  C   UNL     1     -10.020   9.283  69.676  1.00  0.00    -0.201 C  
HETATM    2  C   UNL     1     -10.949  10.500  69.756  1.00  0.00    -0.350 C  
HETATM    3  C   UNL     1     -12.375  10.153  70.210  1.00  0.00    -0.138 C  
HETATM    4  C   UNL     1     -11.056  11.152  68.385  1.00  0.00    -0.247 C  
HETATM    5  O   UNL     1     -11.094  10.477  67.356  1.00  0.00    -0.303 OA 
HETATM    6  C   UNL     1     -10.267  13.216  65.985  1.00  0.00    -0.286 C  
HETATM    7  N   UNL     1     -11.087  12.527  68.299  1.00  0.00    -0.240 N  
HETATM    8  C   UNL     1     -11.038  13.490  69.391  1.00  0.00    -0.119 C  
HETATM    9  C   UNL     1     -11.400  13.200  67.023  1.00  0.00    -0.312 C  
HETATM   10  C   UNL     1     -11.909  14.654  68.920  1.00  0.00    -0.309 C  
HETATM   11  C   UNL     1     -11.721  14.656  67.403  1.00  0.00    -0.413 C  
HETATM   12  O   UNL     1      -9.137  12.578  66.359  1.00  0.00    -0.208 OA 
HETATM   13  O   UNL     1     -10.351  13.797  64.908  1.00  0.00    -0.388 OA 
ENDROOT
BRANCH   3  14
HETATM   14  S   UNL     1     -12.365   9.388  71.854  1.00  0.00    -0.362 SA 
BRANCH  14  15
HETATM   15  C   UNL     1     -13.000   7.787  71.487  1.00  0.00    -0.325 C  
HETATM   16  O   UNL     1     -14.203   7.572  71.422  1.00  0.00    -0.430 OA 
BRANCH  15  17
HETATM   17  C   UNL     1     -11.993   6.718  71.221  1.00  0.00    -0.414 A  
HETATM   18  C   UNL     1     -11.383   5.988  72.254  1.00  0.00    -0.353 A  
HETATM   19  C   UNL     1     -10.437   5.004  71.961  1.00  0.00    -0.269 A  
HETATM   20  C   UNL     1     -10.099   4.735  70.637  1.00  0.00    -0.288 A  
HETATM   21  C   UNL     1     -11.656   6.431  69.891  1.00  0.00    -0.422 A  
HETATM   22  C   UNL     1     -10.708   5.446  69.603  1.00  0.00    -0.267 A  
ENDBRANCH  15  17
ENDBRANCH  14  15
ENDBRANCH   3  14
BRANCH  10  23
HETATM   23  S   UNL     1     -11.385  16.197  69.752  1.00  0.00    -0.285 SA 
BRANCH  23  24
HETATM   24  C   UNL     1     -10.264  16.938  68.575  1.00  0.00    -0.310 A  
HETATM   25  C   UNL     1     -10.648  17.938  67.677  1.00  0.00    -0.398 A  
HETATM   26  C   UNL     1      -8.390  18.070  66.816  1.00  0.00    -0.271 A  
HETATM   27  C   UNL     1      -9.717  18.495  66.795  1.00  0.00    -0.345 A  
HETATM   28  C   UNL     1      -7.992  17.089  67.721  1.00  0.00    -0.192 A  
HETATM   29  C   UNL     1      -8.924  16.530  68.598  1.00  0.00    -0.236 A  
ENDBRANCH  23  24
ENDBRANCH  10  23
TORSDOF 5
ENDMDL
MODEL       25
REMARK 921   NORMALIZED FREE ENERGY PREDICTED BY IDOCK:   -6.36 KCAL/MOL
REMARK 922        TOTAL FREE ENERGY PREDICTED BY IDOCK:   -9.39 KCAL/MOL
REMARK 923 INTER-LIGAND FREE ENERGY PREDICTED BY IDOCK:   -8.54 KCAL/MOL
REMARK 924 INTRA-LIGAND FREE ENERGY PREDICTED BY IDOCK:   -0.85 KCAL/MOL
REMARK 927      BINDING AFFINITY PREDICTED BY RF-SCORE:    0.00 PKD
ROOT
HETATM    1  C   UNL     1     -10.861  12.380  65.095  1.00  0.00    -0.333 C  
HETATM    2  C   UNL     1     -10.618  11.746  66.469  1.00  0.00    -0.289 C  
HETATM    3  C   UNL     1     -10.427  12.775  67.593  1.00  0.00    -0.220 C  
HETATM    4  C   UNL     1      -9.360  10.889  66.421  1.00  0.00    -0.176 C  
HETATM    5  O   UNL     1      -8.372  11.238  65.776  1.00  0.00    -0.106 OA 
HETATM    6  C   UNL     1      -7.609   8.168  66.010  1.00  0.00    -0.082 C  
HETATM    7  N   UNL     1      -9.342   9.689  67.098  1.00  0.00    -0.137 N  
HETATM    8  C   UNL     1     -10.408   9.101  67.898  1.00  0.00    -0.232 C  
HETATM    9  C   UNL     1      -8.089   8.926  67.257  1.00  0.00    -0.104 C  
HETATM   10  C   UNL     1      -9.684   8.352  69.016  1.00  0.00    -0.171 C  
HETATM   11  C   UNL     1      -8.381   7.896  68.362  1.00  0.00    -0.124 C  
HETATM   12  O   UNL     1      -8.380   8.324  64.911  1.00  0.00    -0.159 OA 
HETATM   13  O   UNL     1      -6.625   7.435  66.006  1.00  0.00    -0.047 OA 
ENDROOT
BRANCH   3  14
HETATM   14  S   UNL     1     -11.887  13.838  67.754  1.00  0.00    -0.360 SA 
BRANCH  14  15
HETATM   15  C   UNL     1     -11.491  14.741  69.213  1.00  0.00    -0.296 C  
HETATM   16  O   UNL     1     -10.572  15.551  69.239  1.00  0.00    -0.209 OA 
BRANCH  15  17
HETATM   17  C   UNL     1     -12.358  14.495  70.402  1.00  0.00    -0.400 A  
HETATM   18  C   UNL     1     -12.532  13.215  70.952  1.00  0.00    -0.407 A  
HETATM   19  C   UNL     1     -13.363  13.028  72.058  1.00  0.00    -0.588 A  
HETATM   20  C   UNL     1     -14.017  14.116  72.630  1.00  0.00    -0.412 A  
HETATM   21  C   UNL     1     -13.010  15.586  70.993  1.00  0.00    -0.550 A  
HETATM   22  C   UNL     1     -13.841  15.394  72.100  1.00  0.00    -0.636 A  
ENDBRANCH  15  17
ENDBRANCH  14  15
ENDBRANCH   3  14
BRANCH  10  23
HETATM   23  S   UNL     1     -10.739   6.991  69.636  1.00  0.00    -0.245 SA 
BRANCH  23  24
HETATM   24  C   UNL     1     -11.888   7.825  70.720  1.00  0.00    -0.187 A  
HETATM   25  C   UNL     1     -11.742   9.160  71.109  1.00  0.00    -0.380 A  
HETATM   26  C   UNL     1     -13.800   9.044  72.377  1.00  0.00    -0.540 A  
HETATM   27  C   UNL     1     -12.689   9.764  71.941  1.00  0.00    -0.501 A  
HETATM   28  C   UNL     1     -13.967   7.721  71.979  1.00  0.00    -0.329 A  
HETATM   29  C   UNL     1     -13.017   7.116  71.151  1.00  0.00    -0.316 A  
ENDBRANCH  23  24
ENDBRANCH  10  23
TORSDOF 5
ENDMDL
MODEL       26
REMARK 921   NORMALIZED FREE ENERGY PREDICTED BY IDOCK:   -6.34 KCAL/MOL
REMARK 922        TOTAL FREE ENERGY PREDICTED BY IDOCK:   -9.36 KCAL/MOL
REMARK 923 INTER-LIGAND FREE ENERGY PREDICTED BY IDOCK:   -8.74 KCAL/MOL
REMARK 924 INTRA-LIGAND FREE ENERGY PREDICTED BY IDOCK:   -0.61 KCAL/MOL
REMARK 927      BINDING AFFINITY PREDICTED BY RF-SCORE:    0.00 PKD
ROOT
HETATM    1  C   UNL     1     -11.092  11.617  63.953  1.00  0.00    -0.477 C  
HETATM    2  C   UNL     1     -10.985  11.947  65.447  1.00  0.00    -0.352 C  
HETATM    3  C   UNL     1     -10.629  13.415  65.725  1.00  0.00    -0.282 C  
HETATM    4  C   UNL     1      -9.900  11.089  66.083  1.00  0.00    -0.225 C  
HETATM    5  O   UNL     1      -8.857  10.829  65.484  1.00  0.00    -0.182 OA 
HETATM    6  C   UNL     1      -8.656   8.500  67.629  1.00  0.00    -0.133 C  
HETATM    7  N   UNL     1     -10.105  10.579  67.345  1.00  0.00    -0.188 N  
HETATM    8  C   UNL     1     -11.269  10.761  68.202  1.00  0.00    -0.302 C  
HETATM    9  C   UNL     1      -9.010   9.923  68.087  1.00  0.00    -0.118 C  
HETATM   10  C   UNL     1     -10.706  10.780  69.623  1.00  0.00    -0.211 C  
HETATM   11  C   UNL     1      -9.496   9.851  69.544  1.00  0.00    -0.239 C  
HETATM   12  O   UNL     1      -9.372   8.040  66.578  1.00  0.00    -0.180 OA 
HETATM   13  O   UNL     1      -7.819   7.801  68.190  1.00  0.00    -0.116 OA 
ENDROOT
BRANCH   3  14
HETATM   14  S   UNL     1     -11.878  14.529  65.027  1.00  0.00    -0.397 SA 
BRANCH  14  15
HETATM   15  C   UNL     1     -11.021  16.066  65.065  1.00  0.00    -0.380 C  
HETATM   16  O   UNL     1     -11.184  16.915  64.198  1.00  0.00    -1.176 OA 
BRANCH  15  17
HETATM   17  C   UNL     1     -10.116  16.294  66.230  1.00  0.00    -0.340 A  
HETATM   18  C   UNL     1      -8.721  16.368  66.094  1.00  0.00    -0.347 A  
HETATM   19  C   UNL     1      -7.911  16.570  67.213  1.00  0.00    -0.191 A  
HETATM   20  C   UNL     1      -8.487  16.709  68.473  1.00  0.00    -0.233 A  
HETATM   21  C   UNL     1     -10.687  16.448  67.501  1.00  0.00    -0.298 A  
HETATM   22  C   UNL     1      -9.873  16.649  68.619  1.00  0.00    -0.252 A  
ENDBRANCH  15  17
ENDBRANCH  14  15
ENDBRANCH   3  14
BRANCH  10  23
HETATM   23  S   UNL     1     -11.995  10.252  70.809  1.00  0.00    -0.389 SA 
BRANCH  23  24
HETATM   24  C   UNL     1     -11.452   8.624  71.305  1.00  0.00    -0.283 A  
HETATM   25  C   UNL     1     -10.856   8.359  72.541  1.00  0.00    -0.375 A  
HETATM   26  C   UNL     1     -10.702   6.007  71.995  1.00  0.00    -0.281 A  
HETATM   27  C   UNL     1     -10.474   7.058  72.881  1.00  0.00    -0.283 A  
HETATM   28  C   UNL     1     -11.315   6.255  70.769  1.00  0.00    -0.397 A  
HETATM   29  C   UNL     1     -11.691   7.557  70.429  1.00  0.00    -0.116 A  
ENDBRANCH  23  24
ENDBRANCH  10  23
TORSDOF 5
ENDMDL
MODEL       27
REMARK 921   NORMALIZED FREE ENERGY PREDICTED BY IDOCK:   -6.33 KCAL/MOL
REMARK 922        TOTAL FREE ENERGY PREDICTED BY IDOCK:   -9.35 KCAL/MOL
REMARK 923 INTER-LIGAND FREE ENERGY PREDICTED BY IDOCK:   -8.76 KCAL/MOL
REMARK 924 INTRA-LIGAND FREE ENERGY PREDICTED BY IDOCK:   -0.58 KCAL/MOL
REMARK 927      BINDING AFFINITY PREDICTED BY RF-SCORE:    0.00 PKD
ROOT
HETATM    1  C   UNL     1     -11.714  11.861  64.998  1.00  0.00    -0.253 C  
HETATM    2  C   UNL     1     -10.912  12.591  66.082  1.00  0.00    -0.318 C  
HETATM    3  C   UNL     1     -11.209  12.091  67.504  1.00  0.00    -0.294 C  
HETATM    4  C   UNL     1     -11.241  14.078  66.046  1.00  0.00    -0.310 C  
HETATM    5  O   UNL     1     -12.384  14.475  65.823  1.00  0.00    -0.336 OA 
HETATM    6  C   UNL     1     -10.895  17.196  65.155  1.00  0.00     0.001 C  
HETATM    7  N   UNL     1     -10.229  14.990  66.247  1.00  0.00    -0.281 N  
HETATM    8  C   UNL     1      -8.823  14.719  66.510  1.00  0.00    -0.188 C  
HETATM    9  C   UNL     1     -10.527  16.425  66.431  1.00  0.00    -0.286 C  
HETATM   10  C   UNL     1      -8.376  15.848  67.438  1.00  0.00    -0.171 C  
HETATM   11  C   UNL     1      -9.236  17.035  67.004  1.00  0.00    -0.247 C  
HETATM   12  O   UNL     1     -10.936  16.454  64.027  1.00  0.00    -0.592 OA 
HETATM   13  O   UNL     1     -11.100  18.406  65.135  1.00  0.00    -0.499 OA 
ENDROOT
BRANCH   3  14
HETATM   14  S   UNL     1     -10.827  10.326  67.664  1.00  0.00    -0.297 SA 
BRANCH  14  15
HETATM   15  C   UNL     1     -10.221  10.258  69.316  1.00  0.00    -0.227 C  
HETATM   16  O   UNL     1      -9.034  10.415  69.572  1.00  0.00    -0.182 OA 
BRANCH  15  17
HETATM   17  C   UNL     1     -11.237  10.038  70.387  1.00  0.00    -0.393 A  
HETATM   18  C   UNL     1     -12.321  10.907  70.584  1.00  0.00    -0.470 A  
HETATM   19  C   UNL     1     -13.241  10.669  71.607  1.00  0.00    -0.495 A  
HETATM   20  C   UNL     1     -13.092   9.559  72.434  1.00  0.00    -0.430 A  
HETATM   21  C   UNL     1     -11.102   8.916  71.217  1.00  0.00    -0.367 A  
HETATM   22  C   UNL     1     -12.025   8.682  72.240  1.00  0.00    -0.438 A  
ENDBRANCH  15  17
ENDBRANCH  14  15
ENDBRANCH   3  14
BRANCH  10  23
HETATM   23  S   UNL     1      -6.574  16.114  67.272  1.00  0.00    -0.177 SA 
BRANCH  23  24
HETATM   24  C   UNL     1      -6.359  17.807  67.799  1.00  0.00    -0.175 A  
HETATM   25  C   UNL     1      -6.156  18.866  66.909  1.00  0.00    -0.179 A  
HETATM   26  C   UNL     1      -6.102  20.438  68.748  1.00  0.00    -0.366 A  
HETATM   27  C   UNL     1      -6.019  20.175  67.382  1.00  0.00    -0.209 A  
HETATM   28  C   UNL     1      -6.325  19.394  69.642  1.00  0.00    -0.333 A  
HETATM   29  C   UNL     1      -6.457  18.087  69.169  1.00  0.00    -0.249 A  
ENDBRANCH  23  24
ENDBRANCH  10  23
TORSDOF 5
ENDMDL
MODEL       28
REMARK 921   NORMALIZED FREE ENERGY PREDICTED BY IDOCK:   -6.32 KCAL/MOL
REMARK 922        TOTAL FREE ENERGY PREDICTED BY IDOCK:   -9.34 KCAL/MOL
REMARK 923 INTER-LIGAND FREE ENERGY PREDICTED BY IDOCK:   -8.75 KCAL/MOL
REMARK 924 INTRA-LIGAND FREE ENERGY PREDICTED BY IDOCK:   -0.59 KCAL/MOL
REMARK 927      BINDING AFFINITY PREDICTED BY RF-SCORE:    0.00 PKD
ROOT
HETATM    1  C   UNL     1     -11.506  11.942  65.858  1.00  0.00    -0.340 C  
HETATM    2  C   UNL     1     -10.742  12.820  66.856  1.00  0.00    -0.272 C  
HETATM    3  C   UNL     1     -11.060  12.499  68.323  1.00  0.00    -0.257 C  
HETATM    4  C   UNL     1     -11.097  14.283  66.625  1.00  0.00    -0.321 C  
HETATM    5  O   UNL     1     -12.242  14.625  66.331  1.00  0.00    -0.300 OA 
HETATM    6  C   UNL     1     -10.791  17.270  65.352  1.00  0.00    -0.021 C  
HETATM    7  N   UNL     1     -10.108  15.235  66.728  1.00  0.00    -0.252 N  
HETATM    8  C   UNL     1      -8.702  15.030  67.050  1.00  0.00    -0.237 C  
HETATM    9  C   UNL     1     -10.436  16.675  66.723  1.00  0.00    -0.261 C  
HETATM   10  C   UNL     1      -8.298  16.276  67.836  1.00  0.00    -0.166 C  
HETATM   11  C   UNL     1      -9.170  17.380  67.238  1.00  0.00    -0.234 C  
HETATM   12  O   UNL     1     -10.792  16.390  64.326  1.00  0.00    -0.681 OA 
HETATM   13  O   UNL     1     -11.017  18.463  65.175  1.00  0.00    -0.604 OA 
ENDROOT
BRANCH   3  14
HETATM   14  S   UNL     1     -10.649  10.776  68.714  1.00  0.00    -0.215 SA 
BRANCH  14  15
HETATM   15  C   UNL     1     -11.532  10.549  70.220  1.00  0.00    -0.333 C  
HETATM   16  O   UNL     1     -12.520  11.219  70.493  1.00  0.00    -0.321 OA 
BRANCH  15  17
HETATM   17  C   UNL     1     -11.036   9.471  71.125  1.00  0.00    -0.450 A  
HETATM   18  C   UNL     1     -11.891   8.753  71.976  1.00  0.00    -0.442 A  
HETATM   19  C   UNL     1     -11.382   7.760  72.815  1.00  0.00    -0.446 A  
HETATM   20  C   UNL     1     -10.020   7.471  72.806  1.00  0.00    -0.280 A  
HETATM   21  C   UNL     1      -9.669   9.164  71.112  1.00  0.00    -0.360 A  
HETATM   22  C   UNL     1      -9.163   8.170  71.955  1.00  0.00    -0.253 A  
ENDBRANCH  15  17
ENDBRANCH  14  15
ENDBRANCH   3  14
BRANCH  10  23
HETATM   23  S   UNL     1      -6.497  16.558  67.673  1.00  0.00    -0.162 SA 
BRANCH  23  24
HETATM   24  C   UNL     1      -6.327  18.309  67.978  1.00  0.00    -0.185 A  
HETATM   25  C   UNL     1      -6.551  18.894  69.227  1.00  0.00    -0.311 A  
HETATM   26  C   UNL     1      -5.961  21.069  68.346  1.00  0.00    -0.349 A  
HETATM   27  C   UNL     1      -6.378  20.270  69.408  1.00  0.00    -0.324 A  
HETATM   28  C   UNL     1      -5.714  20.494  67.102  1.00  0.00    -0.211 A  
HETATM   29  C   UNL     1      -5.892  19.121  66.921  1.00  0.00    -0.159 A  
ENDBRANCH  23  24
ENDBRANCH  10  23
TORSDOF 5
ENDMDL
MODEL       29
REMARK 921   NORMALIZED FREE ENERGY PREDICTED BY IDOCK:   -6.32 KCAL/MOL
REMARK 922        TOTAL FREE ENERGY PREDICTED BY IDOCK:   -9.33 KCAL/MOL
REMARK 923 INTER-LIGAND FREE ENERGY PREDICTED BY IDOCK:   -8.29 KCAL/MOL
REMARK 924 INTRA-LIGAND FREE ENERGY PREDICTED BY IDOCK:   -1.04 KCAL/MOL
REMARK 927      BINDING AFFINITY PREDICTED BY RF-SCORE:    0.00 PKD
ROOT
HETATM    1  C   UNL     1     -10.363  10.718  65.939  1.00  0.00    -0.302 C  
HETATM    2  C   UNL     1     -10.111  10.319  67.398  1.00  0.00    -0.246 C  
HETATM    3  C   UNL     1      -9.773  11.507  68.310  1.00  0.00    -0.198 C  
HETATM    4  C   UNL     1      -8.941   9.347  67.467  1.00  0.00    -0.121 C  
HETATM    5  O   UNL     1      -7.958   9.478  66.737  1.00  0.00    -0.107 OA 
HETATM    6  C   UNL     1      -7.466   6.438  67.503  1.00  0.00    -0.092 C  
HETATM    7  N   UNL     1      -8.999   8.292  68.349  1.00  0.00    -0.137 N  
HETATM    8  C   UNL     1     -10.072   7.963  69.277  1.00  0.00    -0.197 C  
HETATM    9  C   UNL     1      -7.813   7.450  68.605  1.00  0.00    -0.122 C  
HETATM   10  C   UNL     1      -9.366   7.358  70.490  1.00  0.00    -0.157 C  
HETATM   11  C   UNL     1      -8.143   6.667  69.888  1.00  0.00    -0.125 C  
HETATM   12  O   UNL     1      -8.272   6.471  66.418  1.00  0.00    -0.109 OA 
HETATM   13  O   UNL     1      -6.554   5.623  67.600  1.00  0.00    -0.049 OA 
ENDROOT
BRANCH   3  14
HETATM   14  S   UNL     1     -11.121  12.721  68.320  1.00  0.00    -0.276 SA 
BRANCH  14  15
HETATM   15  C   UNL     1     -12.052  12.182  69.714  1.00  0.00    -0.237 C  
HETATM   16  O   UNL     1     -12.226  10.993  69.950  1.00  0.00    -0.325 OA 
BRANCH  15  17
HETATM   17  C   UNL     1     -12.584  13.250  70.610  1.00  0.00    -0.305 A  
HETATM   18  C   UNL     1     -12.465  14.615  70.304  1.00  0.00    -0.401 A  
HETATM   19  C   UNL     1     -12.966  15.582  71.178  1.00  0.00    -0.560 A  
HETATM   20  C   UNL     1     -13.597  15.194  72.357  1.00  0.00    -0.575 A  
HETATM   21  C   UNL     1     -13.231  12.869  71.794  1.00  0.00    -0.479 A  
HETATM   22  C   UNL     1     -13.731  13.841  72.666  1.00  0.00    -0.566 A  
ENDBRANCH  15  17
ENDBRANCH  14  15
ENDBRANCH   3  14
BRANCH  10  23
HETATM   23  S   UNL     1     -10.508   6.240  71.380  1.00  0.00    -0.226 SA 
BRANCH  23  24
HETATM   24  C   UNL     1     -11.887   7.300  71.784  1.00  0.00    -0.295 A  
HETATM   25  C   UNL     1     -11.740   8.542  72.409  1.00  0.00    -0.429 A  
HETATM   26  C   UNL     1     -14.131   8.907  72.307  1.00  0.00    -0.512 A  
HETATM   27  C   UNL     1     -12.858   9.338  72.677  1.00  0.00    -0.245 A  
HETATM   28  C   UNL     1     -14.287   7.681  71.665  1.00  0.00    -0.613 A  
HETATM   29  C   UNL     1     -13.170   6.885  71.402  1.00  0.00    -0.287 A  
ENDBRANCH  23  24
ENDBRANCH  10  23
TORSDOF 5
ENDMDL
MODEL       30
REMARK 921   NORMALIZED FREE ENERGY PREDICTED BY IDOCK:   -6.28 KCAL/MOL
REMARK 922        TOTAL FREE ENERGY PREDICTED BY IDOCK:   -9.28 KCAL/MOL
REMARK 923 INTER-LIGAND FREE ENERGY PREDICTED BY IDOCK:   -8.56 KCAL/MOL
REMARK 924 INTRA-LIGAND FREE ENERGY PREDICTED BY IDOCK:   -0.73 KCAL/MOL
REMARK 927      BINDING AFFINITY PREDICTED BY RF-SCORE:    0.00 PKD
ROOT
HETATM    1  C   UNL     1     -10.787   9.280  69.078  1.00  0.00    -0.136 C  
HETATM    2  C   UNL     1     -10.946  10.792  68.884  1.00  0.00    -0.289 C  
HETATM    3  C   UNL     1     -12.220  11.362  69.526  1.00  0.00    -0.235 C  
HETATM    4  C   UNL     1     -11.006  11.112  67.396  1.00  0.00    -0.290 C  
HETATM    5  O   UNL     1     -11.595  10.374  66.607  1.00  0.00     0.199 OA 
HETATM    6  C   UNL     1      -9.834  11.907  64.458  1.00  0.00    -0.178 C  
HETATM    7  N   UNL     1     -10.369  12.240  66.929  1.00  0.00    -0.216 N  
HETATM    8  C   UNL     1      -9.615  13.221  67.697  1.00  0.00    -0.213 C  
HETATM    9  C   UNL     1     -10.571  12.706  65.543  1.00  0.00    -0.276 C  
HETATM   10  C   UNL     1      -9.869  14.550  66.986  1.00  0.00    -0.249 C  
HETATM   11  C   UNL     1     -10.037  14.149  65.521  1.00  0.00    -0.360 C  
HETATM   12  O   UNL     1      -9.120  10.851  64.908  1.00  0.00    -0.197 OA 
HETATM   13  O   UNL     1      -9.847  12.214  63.270  1.00  0.00    -0.385 OA 
ENDROOT
BRANCH   3  14
HETATM   14  S   UNL     1     -12.238  11.055  71.313  1.00  0.00    -0.185 SA 
BRANCH  14  15
HETATM   15  C   UNL     1     -13.164  12.439  71.886  1.00  0.00    -0.382 C  
HETATM   16  O   UNL     1     -14.227  12.301  72.477  1.00  0.00     0.068 OA 
BRANCH  15  17
HETATM   17  C   UNL     1     -12.564  13.784  71.646  1.00  0.00    -0.370 A  
HETATM   18  C   UNL     1     -11.913  14.113  70.447  1.00  0.00    -0.400 A  
HETATM   19  C   UNL     1     -11.355  15.380  70.269  1.00  0.00    -0.332 A  
HETATM   20  C   UNL     1     -11.451  16.331  71.282  1.00  0.00    -0.369 A  
HETATM   21  C   UNL     1     -12.667  14.753  72.654  1.00  0.00    -0.473 A  
HETATM   22  C   UNL     1     -12.107  16.020  72.473  1.00  0.00    -0.635 A  
ENDBRANCH  15  17
ENDBRANCH  14  15
ENDBRANCH   3  14
BRANCH  10  23
HETATM   23  S   UNL     1      -8.484  15.701  67.305  1.00  0.00    -0.208 SA 
BRANCH  23  24
HETATM   24  C   UNL     1      -9.278  17.301  67.327  1.00  0.00    -0.232 A  
HETATM   25  C   UNL     1      -9.932  17.846  66.218  1.00  0.00    -0.333 A  
HETATM   26  C   UNL     1     -10.546  19.800  67.507  1.00  0.00    -0.544 A  
HETATM   27  C   UNL     1     -10.556  19.094  66.305  1.00  0.00    -0.521 A  
HETATM   28  C   UNL     1      -9.916  19.257  68.624  1.00  0.00    -0.506 A  
HETATM   29  C   UNL     1      -9.289  18.012  68.534  1.00  0.00    -0.312 A  
ENDBRANCH  23  24
ENDBRANCH  10  23
TORSDOF 5
ENDMDL
MODEL       31
REMARK 921   NORMALIZED FREE ENERGY PREDICTED BY IDOCK:   -6.25 KCAL/MOL
REMARK 922        TOTAL FREE ENERGY PREDICTED BY IDOCK:   -9.25 KCAL/MOL
REMARK 923 INTER-LIGAND FREE ENERGY PREDICTED BY IDOCK:   -8.32 KCAL/MOL
REMARK 924 INTRA-LIGAND FREE ENERGY PREDICTED BY IDOCK:   -0.92 KCAL/MOL
REMARK 927      BINDING AFFINITY PREDICTED BY RF-SCORE:    0.00 PKD
ROOT
HETATM    1  C   UNL     1     -12.052  12.637  65.654  1.00  0.00    -0.502 C  
HETATM    2  C   UNL     1     -11.227  12.445  66.932  1.00  0.00    -0.359 C  
HETATM    3  C   UNL     1     -10.526  13.726  67.407  1.00  0.00    -0.256 C  
HETATM    4  C   UNL     1     -10.147  11.400  66.690  1.00  0.00    -0.212 C  
HETATM    5  O   UNL     1      -9.550  11.333  65.615  1.00  0.00    -0.214 OA 
HETATM    6  C   UNL     1      -8.830   8.416  66.634  1.00  0.00    -0.142 C  
HETATM    7  N   UNL     1      -9.850  10.500  67.690  1.00  0.00    -0.164 N  
HETATM    8  C   UNL     1     -10.450  10.410  69.014  1.00  0.00    -0.219 C  
HETATM    9  C   UNL     1      -8.677   9.610  67.587  1.00  0.00    -0.126 C  
HETATM   10  C   UNL     1      -9.316   9.939  69.923  1.00  0.00    -0.216 C  
HETATM   11  C   UNL     1      -8.459   9.064  69.009  1.00  0.00    -0.132 C  
HETATM   12  O   UNL     1     -10.011   8.351  65.980  1.00  0.00    -0.153 OA 
HETATM   13  O   UNL     1      -7.971   7.551  66.495  1.00  0.00    -0.102 OA 
ENDROOT
BRANCH   3  14
HETATM   14  S   UNL     1     -11.732  15.036  67.749  1.00  0.00    -0.189 SA 
BRANCH  14  15
HETATM   15  C   UNL     1     -11.371  15.398  69.434  1.00  0.00    -0.307 C  
HETATM   16  O   UNL     1     -10.456  16.148  69.749  1.00  0.00    -0.282 OA 
BRANCH  15  17
HETATM   17  C   UNL     1     -12.264  14.773  70.453  1.00  0.00    -0.395 A  
HETATM   18  C   UNL     1     -13.124  15.531  71.265  1.00  0.00    -0.581 A  
HETATM   19  C   UNL     1     -13.933  14.906  72.214  1.00  0.00    -0.602 A  
HETATM   20  C   UNL     1     -13.899  13.521  72.356  1.00  0.00    -0.687 A  
HETATM   21  C   UNL     1     -12.246  13.378  70.594  1.00  0.00    -0.427 A  
HETATM   22  C   UNL     1     -13.058  12.757  71.547  1.00  0.00    -0.380 A  
ENDBRANCH  15  17
ENDBRANCH  14  15
ENDBRANCH   3  14
BRANCH  10  23
HETATM   23  S   UNL     1     -10.004   9.071  71.379  1.00  0.00    -0.307 SA 
BRANCH  23  24
HETATM   24  C   UNL     1      -9.997   7.358  70.876  1.00  0.00    -0.184 A  
HETATM   25  C   UNL     1      -9.146   6.399  71.435  1.00  0.00    -0.145 A  
HETATM   26  C   UNL     1     -10.128   4.678  70.045  1.00  0.00    -0.267 A  
HETATM   27  C   UNL     1      -9.205   5.067  71.014  1.00  0.00    -0.191 A  
HETATM   28  C   UNL     1     -10.995   5.620  69.497  1.00  0.00    -0.266 A  
HETATM   29  C   UNL     1     -10.932   6.951  69.914  1.00  0.00    -0.318 A  
ENDBRANCH  23  24
ENDBRANCH  10  23
TORSDOF 5
ENDMDL
MODEL       32
REMARK 921   NORMALIZED FREE ENERGY PREDICTED BY IDOCK:   -6.24 KCAL/MOL
REMARK 922        TOTAL FREE ENERGY PREDICTED BY IDOCK:   -9.23 KCAL/MOL
REMARK 923 INTER-LIGAND FREE ENERGY PREDICTED BY IDOCK:   -7.68 KCAL/MOL
REMARK 924 INTRA-LIGAND FREE ENERGY PREDICTED BY IDOCK:   -1.55 KCAL/MOL
REMARK 927      BINDING AFFINITY PREDICTED BY RF-SCORE:    0.00 PKD
ROOT
HETATM    1  C   UNL     1      -7.405  10.195  64.126  1.00  0.00    -0.108 C  
HETATM    2  C   UNL     1      -8.587  10.072  65.095  1.00  0.00    -0.170 C  
HETATM    3  C   UNL     1      -9.161   8.651  65.184  1.00  0.00     0.017 C  
HETATM    4  C   UNL     1      -9.715  10.990  64.643  1.00  0.00    -0.266 C  
HETATM    5  O   UNL     1      -9.974  11.145  63.450  1.00  0.00    -0.314 OA 
HETATM    6  C   UNL     1     -11.457  13.744  64.505  1.00  0.00    -0.384 C  
HETATM    7  N   UNL     1     -10.442  11.673  65.593  1.00  0.00    -0.259 N  
HETATM    8  C   UNL     1     -10.279  11.633  67.039  1.00  0.00    -0.212 C  
HETATM    9  C   UNL     1     -11.671  12.405  65.226  1.00  0.00    -0.390 C  
HETATM   10  C   UNL     1     -11.693  11.800  67.594  1.00  0.00    -0.250 C  
HETATM   11  C   UNL     1     -12.384  12.687  66.559  1.00  0.00     0.093 C  
HETATM   12  O   UNL     1     -10.167  14.067  64.264  1.00  0.00    -0.222 OA 
HETATM   13  O   UNL     1     -12.376  14.498  64.200  1.00  0.00    -0.622 OA 
ENDROOT
BRANCH   3  14
HETATM   14  S   UNL     1      -7.898   7.475  65.740  1.00  0.00    -0.114 SA 
BRANCH  14  15
HETATM   15  C   UNL     1      -7.894   7.775  67.475  1.00  0.00    -0.122 C  
HETATM   16  O   UNL     1      -7.120   8.573  67.988  1.00  0.00    -0.082 OA 
BRANCH  15  17
HETATM   17  C   UNL     1      -8.910   7.035  68.280  1.00  0.00    -0.126 A  
HETATM   18  C   UNL     1     -10.261   6.963  67.902  1.00  0.00    -0.212 A  
HETATM   19  C   UNL     1     -11.180   6.270  68.690  1.00  0.00    -0.328 A  
HETATM   20  C   UNL     1     -10.758   5.635  69.856  1.00  0.00    -0.399 A  
HETATM   21  C   UNL     1      -8.493   6.382  69.448  1.00  0.00    -0.126 A  
HETATM   22  C   UNL     1      -9.417   5.689  70.235  1.00  0.00    -0.202 A  
ENDBRANCH  15  17
ENDBRANCH  14  15
ENDBRANCH   3  14
BRANCH  10  23
HETATM   23  S   UNL     1     -11.620  12.512  69.278  1.00  0.00    -0.318 SA 
BRANCH  23  24
HETATM   24  C   UNL     1     -11.833  11.087  70.334  1.00  0.00    -0.367 A  
HETATM   25  C   UNL     1     -10.930  10.020  70.371  1.00  0.00    -0.384 A  
HETATM   26  C   UNL     1     -12.244   8.932  72.088  1.00  0.00    -0.437 A  
HETATM   27  C   UNL     1     -11.140   8.943  71.238  1.00  0.00    -0.367 A  
HETATM   28  C   UNL     1     -13.139   9.999  72.075  1.00  0.00    -0.541 A  
HETATM   29  C   UNL     1     -12.931  11.072  71.205  1.00  0.00    -0.472 A  
ENDBRANCH  23  24
ENDBRANCH  10  23
TORSDOF 5
ENDMDL
MODEL       33
REMARK 921   NORMALIZED FREE ENERGY PREDICTED BY IDOCK:   -6.24 KCAL/MOL
REMARK 922        TOTAL FREE ENERGY PREDICTED BY IDOCK:   -9.23 KCAL/MOL
REMARK 923 INTER-LIGAND FREE ENERGY PREDICTED BY IDOCK:   -8.42 KCAL/MOL
REMARK 924 INTRA-LIGAND FREE ENERGY PREDICTED BY IDOCK:   -0.80 KCAL/MOL
REMARK 927      BINDING AFFINITY PREDICTED BY RF-SCORE:    0.00 PKD
ROOT
HETATM    1  C   UNL     1      -9.355   5.158  67.866  1.00  0.00    -0.139 C  
HETATM    2  C   UNL     1      -9.601   6.455  68.646  1.00  0.00    -0.121 C  
HETATM    3  C   UNL     1      -8.626   7.584  68.280  1.00  0.00    -0.124 C  
HETATM    4  C   UNL     1      -9.451   6.190  70.138  1.00  0.00    -0.159 C  
HETATM    5  O   UNL     1      -8.587   5.426  70.568  1.00  0.00    -0.118 OA 
HETATM    6  C   UNL     1     -10.428   5.416  73.152  1.00  0.00    -0.217 C  
HETATM    7  N   UNL     1     -10.315   6.805  71.016  1.00  0.00    -0.205 N  
HETATM    8  C   UNL     1     -11.401   7.723  70.703  1.00  0.00    -0.264 C  
HETATM    9  C   UNL     1     -10.082   6.750  72.473  1.00  0.00    -0.172 C  
HETATM   10  C   UNL     1     -11.442   8.693  71.884  1.00  0.00    -0.348 C  
HETATM   11  C   UNL     1     -10.990   7.840  73.068  1.00  0.00    -0.442 C  
HETATM   12  O   UNL     1     -10.869   4.446  72.321  1.00  0.00    -0.068 OA 
HETATM   13  O   UNL     1     -10.355   5.239  74.364  1.00  0.00    -0.254 OA 
ENDROOT
BRANCH   3  14
HETATM   14  S   UNL     1      -8.743   7.997  66.519  1.00  0.00    -0.153 SA 
BRANCH  14  15
HETATM   15  C   UNL     1      -9.950   9.278  66.550  1.00  0.00    -0.274 C  
HETATM   16  O   UNL     1     -10.685   9.447  67.515  1.00  0.00    -0.280 OA 
BRANCH  15  17
HETATM   17  C   UNL     1     -10.003  10.170  65.354  1.00  0.00    -0.377 A  
HETATM   18  C   UNL     1      -9.366   9.844  64.146  1.00  0.00    -0.295 A  
HETATM   19  C   UNL     1      -9.431  10.714  63.056  1.00  0.00    -0.363 A  
HETATM   20  C   UNL     1     -10.139  11.908  63.159  1.00  0.00    -0.341 A  
HETATM   21  C   UNL     1     -10.725  11.368  65.444  1.00  0.00    -0.313 A  
HETATM   22  C   UNL     1     -10.786  12.236  64.350  1.00  0.00    -0.370 A  
ENDBRANCH  15  17
ENDBRANCH  14  15
ENDBRANCH   3  14
BRANCH  10  23
HETATM   23  S   UNL     1     -13.122   9.398  72.051  1.00  0.00    -0.452 SA 
BRANCH  23  24
HETATM   24  C   UNL     1     -12.913  11.087  71.508  1.00  0.00    -0.448 A  
HETATM   25  C   UNL     1     -13.477  12.180  72.173  1.00  0.00    -0.383 A  
HETATM   26  C   UNL     1     -12.455  13.703  70.593  1.00  0.00    -0.417 A  
HETATM   27  C   UNL     1     -13.256  13.482  71.712  1.00  0.00    -0.490 A  
HETATM   28  C   UNL     1     -11.871  12.623  69.936  1.00  0.00    -0.364 A  
HETATM   29  C   UNL     1     -12.096  11.323  70.394  1.00  0.00    -0.474 A  
ENDBRANCH  23  24
ENDBRANCH  10  23
TORSDOF 5
ENDMDL
MODEL       34
REMARK 921   NORMALIZED FREE ENERGY PREDICTED BY IDOCK:   -6.22 KCAL/MOL
REMARK 922        TOTAL FREE ENERGY PREDICTED BY IDOCK:   -9.21 KCAL/MOL
REMARK 923 INTER-LIGAND FREE ENERGY PREDICTED BY IDOCK:   -7.25 KCAL/MOL
REMARK 924 INTRA-LIGAND FREE ENERGY PREDICTED BY IDOCK:   -1.96 KCAL/MOL
REMARK 927      BINDING AFFINITY PREDICTED BY RF-SCORE:    0.00 PKD
ROOT
HETATM    1  C   UNL     1     -11.901  10.722  68.925  1.00  0.00    -0.287 C  
HETATM    2  C   UNL     1     -10.745  10.791  67.921  1.00  0.00    -0.282 C  
HETATM    3  C   UNL     1      -9.398  11.156  68.561  1.00  0.00    -0.190 C  
HETATM    4  C   UNL     1     -11.047  11.847  66.866  1.00  0.00    -0.305 C  
HETATM    5  O   UNL     1     -11.606  12.903  67.161  1.00  0.00    -0.322 OA 
HETATM    6  C   UNL     1     -12.196  13.014  64.046  1.00  0.00    -0.417 C  
HETATM    7  N   UNL     1     -10.706  11.600  65.555  1.00  0.00    -0.276 N  
HETATM    8  C   UNL     1     -10.057  10.414  65.011  1.00  0.00    -0.309 C  
HETATM    9  C   UNL     1     -10.783  12.666  64.537  1.00  0.00    -0.341 C  
HETATM   10  C   UNL     1      -9.191  10.937  63.866  1.00  0.00    -0.203 C  
HETATM   11  C   UNL     1      -9.976  12.138  63.339  1.00  0.00    -0.305 C  
HETATM   12  O   UNL     1     -13.196  12.323  64.636  1.00  0.00    -0.763 OA 
HETATM   13  O   UNL     1     -12.417  13.827  63.153  1.00  0.00    -0.786 OA 
ENDROOT
BRANCH   3  14
HETATM   14  S   UNL     1      -8.928   9.942  69.823  1.00  0.00    -0.199 SA 
BRANCH  14  15
HETATM   15  C   UNL     1      -8.099   8.737  68.843  1.00  0.00    -0.114 C  
HETATM   16  O   UNL     1      -6.880   8.734  68.723  1.00  0.00    -0.060 OA 
BRANCH  15  17
HETATM   17  C   UNL     1      -8.956   7.700  68.199  1.00  0.00    -0.126 A  
HETATM   18  C   UNL     1      -8.575   7.035  67.023  1.00  0.00    -0.122 A  
HETATM   19  C   UNL     1      -9.413   6.079  66.447  1.00  0.00    -0.174 A  
HETATM   20  C   UNL     1     -10.633   5.773  67.044  1.00  0.00    -0.373 A  
HETATM   21  C   UNL     1     -10.180   7.376  68.800  1.00  0.00    -0.199 A  
HETATM   22  C   UNL     1     -11.017   6.419  68.219  1.00  0.00    -0.396 A  
ENDBRANCH  15  17
ENDBRANCH  14  15
ENDBRANCH   3  14
BRANCH  10  23
HETATM   23  S   UNL     1      -8.917   9.609  62.637  1.00  0.00    -0.241 SA 
BRANCH  23  24
HETATM   24  C   UNL     1      -7.674   8.586  63.411  1.00  0.00    -0.139 A  
HETATM   25  C   UNL     1      -6.661   9.098  64.227  1.00  0.00    -0.084 A  
HETATM   26  C   UNL     1      -5.816   6.866  64.624  1.00  0.00    -0.036 A  
HETATM   27  C   UNL     1      -5.730   8.242  64.824  1.00  0.00    -0.044 A  
HETATM   28  C   UNL     1      -6.833   6.343  63.831  1.00  0.00    -0.041 A  
HETATM   29  C   UNL     1      -7.759   7.199  63.231  1.00  0.00    -0.116 A  
ENDBRANCH  23  24
ENDBRANCH  10  23
TORSDOF 5
ENDMDL
MODEL       35
REMARK 921   NORMALIZED FREE ENERGY PREDICTED BY IDOCK:   -6.22 KCAL/MOL
REMARK 922        TOTAL FREE ENERGY PREDICTED BY IDOCK:   -9.21 KCAL/MOL
REMARK 923 INTER-LIGAND FREE ENERGY PREDICTED BY IDOCK:   -8.06 KCAL/MOL
REMARK 924 INTRA-LIGAND FREE ENERGY PREDICTED BY IDOCK:   -1.15 KCAL/MOL
REMARK 927      BINDING AFFINITY PREDICTED BY RF-SCORE:    0.00 PKD
ROOT
HETATM    1  C   UNL     1      -8.733   4.669  71.020  1.00  0.00    -0.140 C  
HETATM    2  C   UNL     1      -9.553   5.790  70.372  1.00  0.00    -0.210 C  
HETATM    3  C   UNL     1     -11.033   5.782  70.781  1.00  0.00    -0.242 C  
HETATM    4  C   UNL     1      -9.501   5.650  68.857  1.00  0.00    -0.126 C  
HETATM    5  O   UNL     1      -9.525   4.545  68.315  1.00  0.00    -0.134 OA 
HETATM    6  C   UNL     1      -8.360   6.157  65.843  1.00  0.00    -0.140 C  
HETATM    7  N   UNL     1      -9.404   6.786  68.083  1.00  0.00    -0.124 N  
HETATM    8  C   UNL     1      -9.349   8.169  68.534  1.00  0.00    -0.138 C  
HETATM    9  C   UNL     1      -9.561   6.721  66.617  1.00  0.00    -0.163 C  
HETATM   10  C   UNL     1     -10.076   8.961  67.447  1.00  0.00    -0.227 C  
HETATM   11  C   UNL     1      -9.779   8.176  66.170  1.00  0.00    -0.154 C  
HETATM   12  O   UNL     1      -7.320   5.757  66.609  1.00  0.00    -0.079 OA 
HETATM   13  O   UNL     1      -8.312   6.106  64.619  1.00  0.00    -0.123 OA 
ENDROOT
BRANCH   3  14
HETATM   14  S   UNL     1     -11.211   5.968  72.576  1.00  0.00    -0.294 SA 
BRANCH  14  15
HETATM   15  C   UNL     1     -10.695   7.637  72.797  1.00  0.00    -0.345 C  
HETATM   16  O   UNL     1      -9.692   7.920  73.440  1.00  0.00    -0.293 OA 
BRANCH  15  17
HETATM   17  C   UNL     1     -11.522   8.683  72.126  1.00  0.00    -0.443 A  
HETATM   18  C   UNL     1     -12.906   8.793  72.334  1.00  0.00    -0.434 A  
HETATM   19  C   UNL     1     -13.643   9.779  71.676  1.00  0.00    -0.371 A  
HETATM   20  C   UNL     1     -13.005  10.667  70.814  1.00  0.00    -0.396 A  
HETATM   21  C   UNL     1     -10.886   9.590  71.267  1.00  0.00    -0.413 A  
HETATM   22  C   UNL     1     -11.629  10.574  70.610  1.00  0.00    -0.445 A  
ENDBRANCH  15  17
ENDBRANCH  14  15
ENDBRANCH   3  14
BRANCH  10  23
HETATM   23  S   UNL     1      -9.479  10.690  67.433  1.00  0.00    -0.154 SA 
BRANCH  23  24
HETATM   24  C   UNL     1     -10.366  11.418  66.065  1.00  0.00    -0.249 A  
HETATM   25  C   UNL     1      -9.944  11.312  64.736  1.00  0.00    -0.327 A  
HETATM   26  C   UNL     1     -11.885  12.552  63.993  1.00  0.00    -0.510 A  
HETATM   27  C   UNL     1     -10.696  11.885  63.705  1.00  0.00    -0.476 A  
HETATM   28  C   UNL     1     -12.326  12.646  65.310  1.00  0.00    -0.528 A  
HETATM   29  C   UNL     1     -11.572  12.078  66.339  1.00  0.00    -0.381 A  
ENDBRANCH  23  24
ENDBRANCH  10  23
TORSDOF 5
ENDMDL
MODEL       36
REMARK 921   NORMALIZED FREE ENERGY PREDICTED BY IDOCK:   -6.22 KCAL/MOL
REMARK 922        TOTAL FREE ENERGY PREDICTED BY IDOCK:   -9.21 KCAL/MOL
REMARK 923 INTER-LIGAND FREE ENERGY PREDICTED BY IDOCK:   -8.65 KCAL/MOL
REMARK 924 INTRA-LIGAND FREE ENERGY PREDICTED BY IDOCK:   -0.56 KCAL/MOL
REMARK 927      BINDING AFFINITY PREDICTED BY RF-SCORE:    0.00 PKD
ROOT
HETATM    1  C   UNL     1      -8.289   9.204  65.456  1.00  0.00    -0.138 C  
HETATM    2  C   UNL     1      -9.284   9.824  66.444  1.00  0.00    -0.200 C  
HETATM    3  C   UNL     1     -10.055   8.785  67.271  1.00  0.00    -0.236 C  
HETATM    4  C   UNL     1     -10.312  10.650  65.682  1.00  0.00    -0.216 C  
HETATM    5  O   UNL     1     -10.751  10.280  64.594  1.00  0.00     0.092 OA 
HETATM    6  C   UNL     1     -11.584  13.330  64.325  1.00  0.00    -0.400 C  
HETATM    7  N   UNL     1     -10.739  11.845  66.218  1.00  0.00    -0.260 N  
HETATM    8  C   UNL     1     -10.331  12.455  67.476  1.00  0.00    -0.215 C  
HETATM    9  C   UNL     1     -11.879  12.576  65.630  1.00  0.00    -0.438 C  
HETATM   10  C   UNL     1     -11.579  13.180  67.979  1.00  0.00    -0.334 C  
HETATM   11  C   UNL     1     -12.291  13.606  66.696  1.00  0.00    -0.381 C  
HETATM   12  O   UNL     1     -10.322  13.198  63.859  1.00  0.00    -0.354 OA 
HETATM   13  O   UNL     1     -12.409  14.038  63.756  1.00  0.00    -0.684 OA 
ENDROOT
BRANCH   3  14
HETATM   14  S   UNL     1      -8.920   7.757  68.242  1.00  0.00    -0.130 SA 
BRANCH  14  15
HETATM   15  C   UNL     1      -9.937   7.331  69.615  1.00  0.00    -0.176 C  
HETATM   16  O   UNL     1     -10.728   8.129  70.101  1.00  0.00    -0.238 OA 
BRANCH  15  17
HETATM   17  C   UNL     1      -9.810   5.936  70.128  1.00  0.00    -0.226 A  
HETATM   18  C   UNL     1      -9.375   4.874  69.318  1.00  0.00    -0.185 A  
HETATM   19  C   UNL     1      -9.283   3.582  69.836  1.00  0.00    -0.217 A  
HETATM   20  C   UNL     1      -9.613   3.339  71.167  1.00  0.00    -0.230 A  
HETATM   21  C   UNL     1     -10.127   5.685  71.470  1.00  0.00    -0.253 A  
HETATM   22  C   UNL     1     -10.034   4.389  71.984  1.00  0.00    -0.252 A  
ENDBRANCH  15  17
ENDBRANCH  14  15
ENDBRANCH   3  14
BRANCH  10  23
HETATM   23  S   UNL     1     -11.095  14.563  69.075  1.00  0.00    -0.273 SA 
BRANCH  23  24
HETATM   24  C   UNL     1     -12.172  14.363  70.486  1.00  0.00    -0.341 A  
HETATM   25  C   UNL     1     -12.645  13.120  70.918  1.00  0.00    -0.377 A  
HETATM   26  C   UNL     1     -13.808  14.173  72.761  1.00  0.00    -0.356 A  
HETATM   27  C   UNL     1     -13.467  13.026  72.045  1.00  0.00    -0.584 A  
HETATM   28  C   UNL     1     -13.325  15.413  72.352  1.00  0.00    -0.557 A  
HETATM   29  C   UNL     1     -12.508  15.506  71.223  1.00  0.00    -0.486 A  
ENDBRANCH  23  24
ENDBRANCH  10  23
TORSDOF 5
ENDMDL
MODEL       37
REMARK 921   NORMALIZED FREE ENERGY PREDICTED BY IDOCK:   -6.21 KCAL/MOL
REMARK 922        TOTAL FREE ENERGY PREDICTED BY IDOCK:   -9.19 KCAL/MOL
REMARK 923 INTER-LIGAND FREE ENERGY PREDICTED BY IDOCK:   -8.17 KCAL/MOL
REMARK 924 INTRA-LIGAND FREE ENERGY PREDICTED BY IDOCK:   -1.03 KCAL/MOL
REMARK 927      BINDING AFFINITY PREDICTED BY RF-SCORE:    0.00 PKD
ROOT
HETATM    1  C   UNL     1      -7.319  10.373  68.621  1.00  0.00    -0.085 C  
HETATM    2  C   UNL     1      -7.783  11.396  67.577  1.00  0.00    -0.125 C  
HETATM    3  C   UNL     1      -7.542  10.946  66.129  1.00  0.00    -0.119 C  
HETATM    4  C   UNL     1      -7.032  12.705  67.776  1.00  0.00    -0.125 C  
HETATM    5  O   UNL     1      -5.842  12.718  68.093  1.00  0.00    -0.066 OA 
HETATM    6  C   UNL     1      -6.501  15.699  68.955  1.00  0.00    -0.126 C  
HETATM    7  N   UNL     1      -7.708  13.894  67.619  1.00  0.00    -0.169 N  
HETATM    8  C   UNL     1      -9.107  14.084  67.263  1.00  0.00    -0.220 C  
HETATM    9  C   UNL     1      -6.984  15.181  67.593  1.00  0.00    -0.182 C  
HETATM   10  C   UNL     1      -9.126  15.366  66.431  1.00  0.00    -0.314 C  
HETATM   11  C   UNL     1      -7.988  16.197  67.022  1.00  0.00    -0.254 C  
HETATM   12  O   UNL     1      -6.769  14.891  70.005  1.00  0.00    -0.175 OA 
HETATM   13  O   UNL     1      -5.948  16.784  69.105  1.00  0.00    -0.148 OA 
ENDROOT
BRANCH   3  14
HETATM   14  S   UNL     1      -8.418   9.398  65.776  1.00  0.00    -0.139 SA 
BRANCH  14  15
HETATM   15  C   UNL     1     -10.064   9.828  66.229  1.00  0.00    -0.243 C  
HETATM   16  O   UNL     1     -10.638   9.281  67.161  1.00  0.00    -0.258 OA 
BRANCH  15  17
HETATM   17  C   UNL     1     -10.706  10.921  65.441  1.00  0.00    -0.189 A  
HETATM   18  C   UNL     1     -10.546  11.039  64.051  1.00  0.00    -0.395 A  
HETATM   19  C   UNL     1     -11.154  12.084  63.355  1.00  0.00    -0.476 A  
HETATM   20  C   UNL     1     -11.934  13.014  64.037  1.00  0.00    -0.523 A  
HETATM   21  C   UNL     1     -11.503  11.855  66.117  1.00  0.00    -0.352 A  
HETATM   22  C   UNL     1     -12.110  12.901  65.417  1.00  0.00    -0.501 A  
ENDBRANCH  15  17
ENDBRANCH  14  15
ENDBRANCH   3  14
BRANCH  10  23
HETATM   23  S   UNL     1     -10.775  16.151  66.536  1.00  0.00    -0.155 SA 
BRANCH  23  24
HETATM   24  C   UNL     1     -10.405  17.810  67.084  1.00  0.00    -0.353 A  
HETATM   25  C   UNL     1     -10.263  18.158  68.431  1.00  0.00    -0.401 A  
HETATM   26  C   UNL     1      -9.754  20.443  67.816  1.00  0.00    -0.487 A  
HETATM   27  C   UNL     1      -9.948  19.471  68.796  1.00  0.00    -0.547 A  
HETATM   28  C   UNL     1      -9.872  20.103  66.471  1.00  0.00    -0.574 A  
HETATM   29  C   UNL     1     -10.192  18.793  66.108  1.00  0.00    -0.462 A  
ENDBRANCH  23  24
ENDBRANCH  10  23
TORSDOF 5
ENDMDL
MODEL       38
REMARK 921   NORMALIZED FREE ENERGY PREDICTED BY IDOCK:   -6.21 KCAL/MOL
REMARK 922        TOTAL FREE ENERGY PREDICTED BY IDOCK:   -9.18 KCAL/MOL
REMARK 923 INTER-LIGAND FREE ENERGY PREDICTED BY IDOCK:   -8.04 KCAL/MOL
REMARK 924 INTRA-LIGAND FREE ENERGY PREDICTED BY IDOCK:   -1.14 KCAL/MOL
REMARK 927      BINDING AFFINITY PREDICTED BY RF-SCORE:    0.00 PKD
ROOT
HETATM    1  C   UNL     1      -8.195   5.682  69.126  1.00  0.00    -0.100 C  
HETATM    2  C   UNL     1      -9.188   6.823  68.874  1.00  0.00    -0.131 C  
HETATM    3  C   UNL     1     -10.629   6.482  69.283  1.00  0.00    -0.247 C  
HETATM    4  C   UNL     1      -9.206   7.166  67.391  1.00  0.00    -0.127 C  
HETATM    5  O   UNL     1      -9.119   6.290  66.531  1.00  0.00    -0.143 OA 
HETATM    6  C   UNL     1      -8.314   8.733  64.673  1.00  0.00    -0.166 C  
HETATM    7  N   UNL     1      -9.299   8.487  67.012  1.00  0.00    -0.153 N  
HETATM    8  C   UNL     1      -9.395   9.657  67.873  1.00  0.00    -0.128 C  
HETATM    9  C   UNL     1      -9.531   8.857  65.601  1.00  0.00    -0.159 C  
HETATM   10  C   UNL     1     -10.278  10.636  67.100  1.00  0.00    -0.216 C  
HETATM   11  C   UNL     1      -9.958  10.334  65.637  1.00  0.00    -0.347 C  
HETATM   12  O   UNL     1      -7.190   8.264  65.259  1.00  0.00    -0.076 OA 
HETATM   13  O   UNL     1      -8.331   9.069  63.493  1.00  0.00    -0.175 OA 
ENDROOT
BRANCH   3  14
HETATM   14  S   UNL     1     -10.725   6.079  71.048  1.00  0.00    -0.275 SA 
BRANCH  14  15
HETATM   15  C   UNL     1     -10.245   7.610  71.773  1.00  0.00    -0.188 C  
HETATM   16  O   UNL     1      -9.151   7.756  72.302  1.00  0.00    -0.131 OA 
BRANCH  15  17
HETATM   17  C   UNL     1     -11.227   8.729  71.673  1.00  0.00    -0.394 A  
HETATM   18  C   UNL     1     -12.469   8.700  72.328  1.00  0.00    -0.460 A  
HETATM   19  C   UNL     1     -13.363   9.764  72.197  1.00  0.00    -0.527 A  
HETATM   20  C   UNL     1     -13.022  10.868  71.421  1.00  0.00    -0.527 A  
HETATM   21  C   UNL     1     -10.888   9.851  70.904  1.00  0.00    -0.357 A  
HETATM   22  C   UNL     1     -11.786  10.914  70.775  1.00  0.00    -0.424 A  
ENDBRANCH  15  17
ENDBRANCH  14  15
ENDBRANCH   3  14
BRANCH  10  23
HETATM   23  S   UNL     1      -9.909  12.351  67.621  1.00  0.00    -0.202 SA 
BRANCH  23  24
HETATM   24  C   UNL     1     -10.789  13.341  66.423  1.00  0.00    -0.288 A  
HETATM   25  C   UNL     1     -12.147  13.170  66.138  1.00  0.00    -0.479 A  
HETATM   26  C   UNL     1     -12.076  15.008  64.565  1.00  0.00    -0.373 A  
HETATM   27  C   UNL     1     -12.786  13.994  65.206  1.00  0.00    -0.468 A  
HETATM   28  C   UNL     1     -10.729  15.201  64.856  1.00  0.00    -0.421 A  
HETATM   29  C   UNL     1     -10.090  14.374  65.784  1.00  0.00    -0.361 A  
ENDBRANCH  23  24
ENDBRANCH  10  23
TORSDOF 5
ENDMDL
MODEL       39
REMARK 921   NORMALIZED FREE ENERGY PREDICTED BY IDOCK:   -6.16 KCAL/MOL
REMARK 922        TOTAL FREE ENERGY PREDICTED BY IDOCK:   -9.13 KCAL/MOL
REMARK 923 INTER-LIGAND FREE ENERGY PREDICTED BY IDOCK:   -8.24 KCAL/MOL
REMARK 924 INTRA-LIGAND FREE ENERGY PREDICTED BY IDOCK:   -0.88 KCAL/MOL
REMARK 927      BINDING AFFINITY PREDICTED BY RF-SCORE:    0.00 PKD
ROOT
HETATM    1  C   UNL     1     -10.958  16.089  65.005  1.00  0.00    -0.393 C  
HETATM    2  C   UNL     1     -10.250  16.092  66.366  1.00  0.00    -0.315 C  
HETATM    3  C   UNL     1     -11.131  15.579  67.515  1.00  0.00    -0.305 C  
HETATM    4  C   UNL     1      -9.825  17.511  66.717  1.00  0.00    -0.306 C  
HETATM    5  O   UNL     1     -10.537  18.477  66.448  1.00  0.00    -0.393 OA 
HETATM    6  C   UNL     1      -7.835  20.092  66.845  1.00  0.00    -0.315 C  
HETATM    7  N   UNL     1      -8.608  17.711  67.330  1.00  0.00    -0.224 N  
HETATM    8  C   UNL     1      -7.626  16.706  67.714  1.00  0.00    -0.159 C  
HETATM    9  C   UNL     1      -8.243  19.032  67.879  1.00  0.00    -0.280 C  
HETATM   10  C   UNL     1      -6.988  17.254  68.990  1.00  0.00    -0.235 C  
HETATM   11  C   UNL     1      -7.036  18.769  68.796  1.00  0.00    -0.335 C  
HETATM   12  O   UNL     1      -7.897  19.690  65.556  1.00  0.00    -0.398 OA 
HETATM   13  O   UNL     1      -7.439  21.213  67.150  1.00  0.00    -0.380 OA 
ENDROOT
BRANCH   3  14
HETATM   14  S   UNL     1     -11.675  13.878  67.206  1.00  0.00    -0.407 SA 
BRANCH  14  15
HETATM   15  C   UNL     1     -10.893  13.025  68.533  1.00  0.00    -0.258 C  
HETATM   16  O   UNL     1      -9.707  12.723  68.493  1.00  0.00    -0.206 OA 
BRANCH  15  17
HETATM   17  C   UNL     1     -11.743  12.725  69.723  1.00  0.00    -0.352 A  
HETATM   18  C   UNL     1     -12.031  11.412  70.128  1.00  0.00    -0.460 A  
HETATM   19  C   UNL     1     -12.841  11.177  71.241  1.00  0.00    -0.515 A  
HETATM   20  C   UNL     1     -13.360  12.249  71.962  1.00  0.00    -0.491 A  
HETATM   21  C   UNL     1     -12.259  13.797  70.464  1.00  0.00    -0.440 A  
HETATM   22  C   UNL     1     -13.070  13.557  71.576  1.00  0.00    -0.427 A  
ENDBRANCH  15  17
ENDBRANCH  14  15
ENDBRANCH   3  14
BRANCH  10  23
HETATM   23  S   UNL     1      -5.304  16.566  69.188  1.00  0.00    -0.131 SA 
BRANCH  23  24
HETATM   24  C   UNL     1      -5.560  14.805  69.033  1.00  0.00    -0.092 A  
HETATM   25  C   UNL     1      -6.217  14.040  70.001  1.00  0.00    -0.142 A  
HETATM   26  C   UNL     1      -5.960  12.053  68.644  1.00  0.00    -0.054 A  
HETATM   27  C   UNL     1      -6.408  12.667  69.811  1.00  0.00    -0.070 A  
HETATM   28  C   UNL     1      -5.323  12.809  67.663  1.00  0.00    -0.112 A  
HETATM   29  C   UNL     1      -5.128  14.179  67.856  1.00  0.00    -0.050 A  
ENDBRANCH  23  24
ENDBRANCH  10  23
TORSDOF 5
ENDMDL
MODEL       40
REMARK 921   NORMALIZED FREE ENERGY PREDICTED BY IDOCK:   -6.14 KCAL/MOL
REMARK 922        TOTAL FREE ENERGY PREDICTED BY IDOCK:   -9.10 KCAL/MOL
REMARK 923 INTER-LIGAND FREE ENERGY PREDICTED BY IDOCK:   -8.09 KCAL/MOL
REMARK 924 INTRA-LIGAND FREE ENERGY PREDICTED BY IDOCK:   -1.02 KCAL/MOL
REMARK 927      BINDING AFFINITY PREDICTED BY RF-SCORE:    0.00 PKD
ROOT
HETATM    1  C   UNL     1      -8.272   9.661  64.978  1.00  0.00    -0.137 C  
HETATM    2  C   UNL     1      -9.244  10.147  66.059  1.00  0.00    -0.198 C  
HETATM    3  C   UNL     1      -9.954   9.005  66.802  1.00  0.00    -0.263 C  
HETATM    4  C   UNL     1     -10.323  11.014  65.424  1.00  0.00    -0.268 C  
HETATM    5  O   UNL     1     -10.794  10.743  64.320  1.00  0.00    -0.221 OA 
HETATM    6  C   UNL     1     -11.719  13.777  64.396  1.00  0.00    -0.408 C  
HETATM    7  N   UNL     1     -10.761  12.135  66.095  1.00  0.00    -0.263 N  
HETATM    8  C   UNL     1     -10.320  12.625  67.394  1.00  0.00    -0.220 C  
HETATM    9  C   UNL     1     -11.942  12.886  65.627  1.00  0.00    -0.440 C  
HETATM   10  C   UNL     1     -11.566  13.257  68.013  1.00  0.00    -0.336 C  
HETATM   11  C   UNL     1     -12.339  13.790  66.807  1.00  0.00    -0.365 C  
HETATM   12  O   UNL     1     -10.473  13.733  63.874  1.00  0.00    -0.018 OA 
HETATM   13  O   UNL     1     -12.583  14.514  63.933  1.00  0.00    -0.827 OA 
ENDROOT
BRANCH   3  14
HETATM   14  S   UNL     1      -8.754   7.919  67.620  1.00  0.00    -0.126 SA 
BRANCH  14  15
HETATM   15  C   UNL     1      -8.726   8.604  69.242  1.00  0.00    -0.133 C  
HETATM   16  O   UNL     1      -9.650   8.434  70.028  1.00  0.00    -0.166 OA 
BRANCH  15  17
HETATM   17  C   UNL     1      -7.501   9.369  69.619  1.00  0.00    -0.084 A  
HETATM   18  C   UNL     1      -6.394   8.760  70.229  1.00  0.00    -0.038 A  
HETATM   19  C   UNL     1      -5.273   9.516  70.576  1.00  0.00    -0.032 A  
HETATM   20  C   UNL     1      -5.244  10.882  70.308  1.00  0.00    -0.063 A  
HETATM   21  C   UNL     1      -7.458  10.743  69.342  1.00  0.00    -0.124 A  
HETATM   22  C   UNL     1      -6.334  11.496  69.691  1.00  0.00    -0.133 A  
ENDBRANCH  15  17
ENDBRANCH  14  15
ENDBRANCH   3  14
BRANCH  10  23
HETATM   23  S   UNL     1     -11.077  14.535  69.228  1.00  0.00    -0.275 SA 
BRANCH  23  24
HETATM   24  C   UNL     1     -12.265  14.324  70.545  1.00  0.00    -0.356 A  
HETATM   25  C   UNL     1     -13.003  15.380  71.087  1.00  0.00    -0.545 A  
HETATM   26  C   UNL     1     -14.152  13.852  72.570  1.00  0.00    -0.487 A  
HETATM   27  C   UNL     1     -13.936  15.146  72.101  1.00  0.00    -0.635 A  
HETATM   28  C   UNL     1     -13.438  12.789  72.023  1.00  0.00    -0.540 A  
HETATM   29  C   UNL     1     -12.503  13.024  71.013  1.00  0.00    -0.385 A  
ENDBRANCH  23  24
ENDBRANCH  10  23
TORSDOF 5
ENDMDL
MODEL       41
REMARK 921   NORMALIZED FREE ENERGY PREDICTED BY IDOCK:   -6.04 KCAL/MOL
REMARK 922        TOTAL FREE ENERGY PREDICTED BY IDOCK:   -8.97 KCAL/MOL
REMARK 923 INTER-LIGAND FREE ENERGY PREDICTED BY IDOCK:   -7.18 KCAL/MOL
REMARK 924 INTRA-LIGAND FREE ENERGY PREDICTED BY IDOCK:   -1.79 KCAL/MOL
REMARK 927      BINDING AFFINITY PREDICTED BY RF-SCORE:    0.00 PKD
ROOT
HETATM    1  C   UNL     1     -11.253  16.021  64.478  1.00  0.00    -0.309 C  
HETATM    2  C   UNL     1     -10.526  15.632  65.771  1.00  0.00    -0.383 C  
HETATM    3  C   UNL     1     -11.449  15.009  66.828  1.00  0.00    -0.251 C  
HETATM    4  C   UNL     1      -9.893  16.870  66.392  1.00  0.00    -0.305 C  
HETATM    5  O   UNL     1     -10.463  17.960  66.369  1.00  0.00    -0.362 OA 
HETATM    6  C   UNL     1      -7.549  19.065  66.962  1.00  0.00    -0.228 C  
HETATM    7  N   UNL     1      -8.648  16.764  66.972  1.00  0.00    -0.199 N  
HETATM    8  C   UNL     1      -7.816  15.575  67.086  1.00  0.00    -0.221 C  
HETATM    9  C   UNL     1      -8.086  17.873  67.769  1.00  0.00    -0.231 C  
HETATM   10  C   UNL     1      -7.080  15.741  68.415  1.00  0.00    -0.116 C  
HETATM   11  C   UNL     1      -6.913  17.254  68.548  1.00  0.00    -0.209 C  
HETATM   12  O   UNL     1      -7.693  18.963  65.623  1.00  0.00    -0.478 OA 
HETATM   13  O   UNL     1      -6.989  20.028  67.477  1.00  0.00    -0.231 OA 
ENDROOT
BRANCH   3  14
HETATM   14  S   UNL     1     -12.240  13.506  66.195  1.00  0.00    -0.418 SA 
BRANCH  14  15
HETATM   15  C   UNL     1     -11.722  12.321  67.390  1.00  0.00    -0.335 C  
HETATM   16  O   UNL     1     -11.990  12.445  68.578  1.00  0.00    -0.318 OA 
BRANCH  15  17
HETATM   17  C   UNL     1     -10.973  11.138  66.871  1.00  0.00    -0.333 A  
HETATM   18  C   UNL     1     -10.209  11.191  65.694  1.00  0.00    -0.310 A  
HETATM   19  C   UNL     1      -9.534  10.057  65.238  1.00  0.00    -0.323 A  
HETATM   20  C   UNL     1      -9.609   8.866  65.956  1.00  0.00    -0.320 A  
HETATM   21  C   UNL     1     -11.032   9.939  67.594  1.00  0.00    -0.263 A  
HETATM   22  C   UNL     1     -10.356   8.806  67.133  1.00  0.00    -0.364 A  
ENDBRANCH  15  17
ENDBRANCH  14  15
ENDBRANCH   3  14
BRANCH  10  23
HETATM   23  S   UNL     1      -5.510  14.803  68.378  1.00  0.00    -0.118 SA 
BRANCH  23  24
HETATM   24  C   UNL     1      -6.046  13.116  68.137  1.00  0.00    -0.103 A  
HETATM   25  C   UNL     1      -5.435  12.240  67.236  1.00  0.00    -0.113 A  
HETATM   26  C   UNL     1      -6.941  10.465  67.896  1.00  0.00    -0.082 A  
HETATM   27  C   UNL     1      -5.886  10.923  67.109  1.00  0.00    -0.058 A  
HETATM   28  C   UNL     1      -7.544  11.323  68.813  1.00  0.00    -0.130 A  
HETATM   29  C   UNL     1      -7.096  12.640  68.935  1.00  0.00    -0.069 A  
ENDBRANCH  23  24
ENDBRANCH  10  23
TORSDOF 5
ENDMDL
MODEL       42
REMARK 921   NORMALIZED FREE ENERGY PREDICTED BY IDOCK:   -6.03 KCAL/MOL
REMARK 922        TOTAL FREE ENERGY PREDICTED BY IDOCK:   -8.95 KCAL/MOL
REMARK 923 INTER-LIGAND FREE ENERGY PREDICTED BY IDOCK:   -7.50 KCAL/MOL
REMARK 924 INTRA-LIGAND FREE ENERGY PREDICTED BY IDOCK:   -1.45 KCAL/MOL
REMARK 927      BINDING AFFINITY PREDICTED BY RF-SCORE:    0.00 PKD
ROOT
HETATM    1  C   UNL     1      -7.467  10.328  65.077  1.00  0.00    -0.120 C  
HETATM    2  C   UNL     1      -8.788  10.343  65.857  1.00  0.00    -0.179 C  
HETATM    3  C   UNL     1      -9.620   9.066  65.676  1.00  0.00    -0.167 C  
HETATM    4  C   UNL     1      -9.644  11.512  65.388  1.00  0.00    -0.224 C  
HETATM    5  O   UNL     1      -9.681  11.843  64.203  1.00  0.00    -0.215 OA 
HETATM    6  C   UNL     1     -10.806  14.560  65.396  1.00  0.00    -0.354 C  
HETATM    7  N   UNL     1     -10.371  12.223  66.317  1.00  0.00    -0.228 N  
HETATM    8  C   UNL     1     -10.445  11.996  67.754  1.00  0.00    -0.203 C  
HETATM    9  C   UNL     1     -11.372  13.222  65.895  1.00  0.00    -0.311 C  
HETATM   10  C   UNL     1     -11.873  12.385  68.135  1.00  0.00    -0.315 C  
HETATM   11  C   UNL     1     -12.220  13.498  67.148  1.00  0.00    -0.328 C  
HETATM   12  O   UNL     1      -9.457  14.640  65.372  1.00  0.00    -0.134 OA 
HETATM   13  O   UNL     1     -11.512  15.512  65.077  1.00  0.00    -0.307 OA 
ENDROOT
BRANCH   3  14
HETATM   14  S   UNL     1      -8.698   7.606  66.230  1.00  0.00    -0.157 SA 
BRANCH  14  15
HETATM   15  C   UNL     1      -9.879   6.837  67.284  1.00  0.00    -0.145 C  
HETATM   16  O   UNL     1     -10.932   6.387  66.849  1.00  0.00    -0.370 OA 
BRANCH  15  17
HETATM   17  C   UNL     1      -9.512   6.728  68.726  1.00  0.00    -0.130 A  
HETATM   18  C   UNL     1     -10.023   5.719  69.557  1.00  0.00    -0.250 A  
HETATM   19  C   UNL     1      -9.662   5.662  70.904  1.00  0.00    -0.223 A  
HETATM   20  C   UNL     1      -8.781   6.604  71.430  1.00  0.00    -0.129 A  
HETATM   21  C   UNL     1      -8.616   7.665  69.261  1.00  0.00    -0.136 A  
HETATM   22  C   UNL     1      -8.258   7.604  70.610  1.00  0.00    -0.113 A  
ENDBRANCH  15  17
ENDBRANCH  14  15
ENDBRANCH   3  14
BRANCH  10  23
HETATM   23  S   UNL     1     -11.934  12.882  69.895  1.00  0.00    -0.248 SA 
BRANCH  23  24
HETATM   24  C   UNL     1     -12.210  11.338  70.748  1.00  0.00    -0.380 A  
HETATM   25  C   UNL     1     -13.209  11.162  71.709  1.00  0.00    -0.486 A  
HETATM   26  C   UNL     1     -12.586   8.838  71.972  1.00  0.00    -0.447 A  
HETATM   27  C   UNL     1     -13.391   9.920  72.325  1.00  0.00    -0.429 A  
HETATM   28  C   UNL     1     -11.601   8.996  71.001  1.00  0.00    -0.360 A  
HETATM   29  C   UNL     1     -11.417  10.239  70.389  1.00  0.00    -0.415 A  
ENDBRANCH  23  24
ENDBRANCH  10  23
TORSDOF 5
ENDMDL
MODEL       43
REMARK 921   NORMALIZED FREE ENERGY PREDICTED BY IDOCK:   -6.01 KCAL/MOL
REMARK 922        TOTAL FREE ENERGY PREDICTED BY IDOCK:   -8.94 KCAL/MOL
REMARK 923 INTER-LIGAND FREE ENERGY PREDICTED BY IDOCK:   -8.15 KCAL/MOL
REMARK 924 INTRA-LIGAND FREE ENERGY PREDICTED BY IDOCK:   -0.79 KCAL/MOL
REMARK 927      BINDING AFFINITY PREDICTED BY RF-SCORE:    0.00 PKD
ROOT
HETATM    1  C   UNL     1     -10.732  12.590  68.526  1.00  0.00    -0.263 C  
HETATM    2  C   UNL     1     -10.436  11.126  68.875  1.00  0.00    -0.233 C  
HETATM    3  C   UNL     1     -10.160  10.248  67.646  1.00  0.00    -0.191 C  
HETATM    4  C   UNL     1     -11.630  10.524  69.604  1.00  0.00    -0.271 C  
HETATM    5  O   UNL     1     -12.784  10.808  69.285  1.00  0.00    -0.254 OA 
HETATM    6  C   UNL     1     -13.451   9.685  72.177  1.00  0.00    -0.429 C  
HETATM    7  N   UNL     1     -11.406   9.661  70.654  1.00  0.00    -0.288 N  
HETATM    8  C   UNL     1     -10.124   9.217  71.185  1.00  0.00    -0.314 C  
HETATM    9  C   UNL     1     -12.514   8.891  71.253  1.00  0.00    -0.272 C  
HETATM   10  C   UNL     1     -10.373   7.781  71.648  1.00  0.00    -0.197 C  
HETATM   11  C   UNL     1     -11.836   7.792  72.089  1.00  0.00    -0.370 C  
HETATM   12  O   UNL     1     -13.162  11.000  72.295  1.00  0.00    -0.405 OA 
HETATM   13  O   UNL     1     -14.373   9.171  72.802  1.00  0.00    -0.563 OA 
ENDROOT
BRANCH   3  14
HETATM   14  S   UNL     1      -8.733  10.866  66.714  1.00  0.00    -0.152 SA 
BRANCH  14  15
HETATM   15  C   UNL     1      -9.368  10.852  65.072  1.00  0.00    -0.226 C  
HETATM   16  O   UNL     1      -9.082   9.963  64.279  1.00  0.00    -0.222 OA 
BRANCH  15  17
HETATM   17  C   UNL     1     -10.303  11.958  64.711  1.00  0.00    -0.323 A  
HETATM   18  C   UNL     1     -10.173  13.252  65.239  1.00  0.00    -0.303 A  
HETATM   19  C   UNL     1     -11.078  14.255  64.883  1.00  0.00    -0.396 A  
HETATM   20  C   UNL     1     -12.111  13.976  63.993  1.00  0.00    -0.413 A  
HETATM   21  C   UNL     1     -11.339  11.690  63.806  1.00  0.00    -0.482 A  
HETATM   22  C   UNL     1     -12.243  12.697  63.453  1.00  0.00    -0.610 A  
ENDBRANCH  15  17
ENDBRANCH  14  15
ENDBRANCH   3  14
BRANCH  10  23
HETATM   23  S   UNL     1      -9.184   7.339  72.967  1.00  0.00    -0.164 SA 
BRANCH  23  24
HETATM   24  C   UNL     1      -9.000   5.573  72.775  1.00  0.00    -0.121 A  
HETATM   25  C   UNL     1      -9.616   4.845  71.753  1.00  0.00    -0.210 A  
HETATM   26  C   UNL     1      -8.577   2.806  72.542  1.00  0.00    -0.081 A  
HETATM   27  C   UNL     1      -9.412   3.466  71.642  1.00  0.00    -0.219 A  
HETATM   28  C   UNL     1      -7.941   3.525  73.551  1.00  0.00    -0.074 A  
HETATM   29  C   UNL     1      -8.148   4.901  73.663  1.00  0.00    -0.106 A  
ENDBRANCH  23  24
ENDBRANCH  10  23
TORSDOF 5
ENDMDL
MODEL       44
REMARK 921   NORMALIZED FREE ENERGY PREDICTED BY IDOCK:   -6.00 KCAL/MOL
REMARK 922        TOTAL FREE ENERGY PREDICTED BY IDOCK:   -8.92 KCAL/MOL
REMARK 923 INTER-LIGAND FREE ENERGY PREDICTED BY IDOCK:   -8.07 KCAL/MOL
REMARK 924 INTRA-LIGAND FREE ENERGY PREDICTED BY IDOCK:   -0.85 KCAL/MOL
REMARK 927      BINDING AFFINITY PREDICTED BY RF-SCORE:    0.00 PKD
ROOT
HETATM    1  C   UNL     1     -12.786  10.669  69.140  1.00  0.00     0.794 C  
HETATM    2  C   UNL     1     -11.731  11.781  69.091  1.00  0.00    -0.388 C  
HETATM    3  C   UNL     1     -10.289  11.261  69.185  1.00  0.00    -0.129 C  
HETATM    4  C   UNL     1     -11.945  12.740  70.254  1.00  0.00    -0.280 C  
HETATM    5  O   UNL     1     -12.287  12.333  71.364  1.00  0.00    -0.178 OA 
HETATM    6  C   UNL     1     -13.132  15.362  71.789  1.00  0.00    -0.445 C  
HETATM    7  N   UNL     1     -11.771  14.090  70.047  1.00  0.00    -0.286 N  
HETATM    8  C   UNL     1     -11.385  14.761  68.814  1.00  0.00    -0.282 C  
HETATM    9  C   UNL     1     -11.759  15.036  71.181  1.00  0.00    -0.337 C  
HETATM   10  C   UNL     1     -10.551  15.959  69.268  1.00  0.00    -0.252 C  
HETATM   11  C   UNL     1     -11.165  16.337  70.615  1.00  0.00    -0.310 C  
HETATM   12  O   UNL     1     -14.176  14.711  71.231  1.00  0.00    -0.397 OA 
HETATM   13  O   UNL     1     -13.292  16.181  72.688  1.00  0.00    -0.414 OA 
ENDROOT
BRANCH   3  14
HETATM   14  S   UNL     1      -9.919  10.122  67.824  1.00  0.00    -0.176 SA 
BRANCH  14  15
HETATM   15  C   UNL     1      -9.334  11.239  66.595  1.00  0.00    -0.180 C  
HETATM   16  O   UNL     1      -8.187  11.668  66.609  1.00  0.00    -0.170 OA 
BRANCH  15  17
HETATM   17  C   UNL     1     -10.299  11.605  65.517  1.00  0.00    -0.309 A  
HETATM   18  C   UNL     1     -10.006  11.430  64.155  1.00  0.00    -0.335 A  
HETATM   19  C   UNL     1     -10.933  11.797  63.179  1.00  0.00    -0.275 A  
HETATM   20  C   UNL     1     -12.163  12.332  63.553  1.00  0.00    -0.669 A  
HETATM   21  C   UNL     1     -11.545  12.133  65.884  1.00  0.00    -0.425 A  
HETATM   22  C   UNL     1     -12.470  12.500  64.903  1.00  0.00    -0.524 A  
ENDBRANCH  15  17
ENDBRANCH  14  15
ENDBRANCH   3  14
BRANCH  10  23
HETATM   23  S   UNL     1     -10.619  17.279  68.003  1.00  0.00    -0.374 SA 
BRANCH  23  24
HETATM   24  C   UNL     1      -9.015  18.055  68.135  1.00  0.00    -0.283 A  
HETATM   25  C   UNL     1      -8.757  19.358  67.699  1.00  0.00    -0.350 A  
HETATM   26  C   UNL     1      -6.465  19.187  68.458  1.00  0.00    -0.273 A  
HETATM   27  C   UNL     1      -7.485  19.918  67.852  1.00  0.00    -0.328 A  
HETATM   28  C   UNL     1      -6.717  17.896  68.915  1.00  0.00    -0.244 A  
HETATM   29  C   UNL     1      -7.986  17.335  68.757  1.00  0.00    -0.250 A  
ENDBRANCH  23  24
ENDBRANCH  10  23
TORSDOF 5
ENDMDL
MODEL       45
REMARK 921   NORMALIZED FREE ENERGY PREDICTED BY IDOCK:   -5.98 KCAL/MOL
REMARK 922        TOTAL FREE ENERGY PREDICTED BY IDOCK:   -8.90 KCAL/MOL
REMARK 923 INTER-LIGAND FREE ENERGY PREDICTED BY IDOCK:   -6.56 KCAL/MOL
REMARK 924 INTRA-LIGAND FREE ENERGY PREDICTED BY IDOCK:   -2.34 KCAL/MOL
REMARK 927      BINDING AFFINITY PREDICTED BY RF-SCORE:    0.00 PKD
ROOT
HETATM    1  C   UNL     1      -6.158  14.319  70.639  1.00  0.00    -0.181 C  
HETATM    2  C   UNL     1      -6.699  14.391  69.206  1.00  0.00    -0.126 C  
HETATM    3  C   UNL     1      -6.031  13.393  68.249  1.00  0.00    -0.093 C  
HETATM    4  C   UNL     1      -6.465  15.786  68.643  1.00  0.00    -0.111 C  
HETATM    5  O   UNL     1      -5.435  16.413  68.892  1.00  0.00    -0.121 OA 
HETATM    6  C   UNL     1      -7.178  18.895  67.962  1.00  0.00    -0.244 C  
HETATM    7  N   UNL     1      -7.438  16.361  67.856  1.00  0.00    -0.137 N  
HETATM    8  C   UNL     1      -8.719  15.790  67.462  1.00  0.00    -0.176 C  
HETATM    9  C   UNL     1      -7.176  17.612  67.117  1.00  0.00    -0.180 C  
HETATM   10  C   UNL     1      -8.974  16.340  66.059  1.00  0.00    -0.290 C  
HETATM   11  C   UNL     1      -8.311  17.716  66.085  1.00  0.00    -0.183 C  
HETATM   12  O   UNL     1      -7.384  18.712  69.285  1.00  0.00    -0.216 OA 
HETATM   13  O   UNL     1      -7.045  20.016  67.482  1.00  0.00    -0.245 OA 
ENDROOT
BRANCH   3  14
HETATM   14  S   UNL     1      -6.272  11.688  68.818  1.00  0.00    -0.057 SA 
BRANCH  14  15
HETATM   15  C   UNL     1      -7.215  11.017  67.491  1.00  0.00    -0.096 C  
HETATM   16  O   UNL     1      -6.681  10.566  66.486  1.00  0.00    -0.090 OA 
BRANCH  15  17
HETATM   17  C   UNL     1      -8.696  10.993  67.675  1.00  0.00    -0.128 A  
HETATM   18  C   UNL     1      -9.419  12.120  68.098  1.00  0.00    -0.205 A  
HETATM   19  C   UNL     1     -10.802  12.050  68.268  1.00  0.00    -0.263 A  
HETATM   20  C   UNL     1     -11.476  10.860  68.009  1.00  0.00    -0.356 A  
HETATM   21  C   UNL     1      -9.385   9.803  67.403  1.00  0.00    -0.155 A  
HETATM   22  C   UNL     1     -10.770   9.737  67.576  1.00  0.00    -0.327 A  
ENDBRANCH  15  17
ENDBRANCH  14  15
ENDBRANCH   3  14
BRANCH  10  23
HETATM   23  S   UNL     1     -10.772  16.368  65.720  1.00  0.00    -0.175 SA 
BRANCH  23  24
HETATM   24  C   UNL     1     -11.140  14.667  65.319  1.00  0.00    -0.360 A  
HETATM   25  C   UNL     1     -12.423  14.120  65.406  1.00  0.00    -0.488 A  
HETATM   26  C   UNL     1     -11.601  11.993  64.595  1.00  0.00    -0.364 A  
HETATM   27  C   UNL     1     -12.651  12.786  65.054  1.00  0.00    -0.538 A  
HETATM   28  C   UNL     1     -10.323  12.533  64.484  1.00  0.00    -0.362 A  
HETATM   29  C   UNL     1     -10.095  13.864  64.841  1.00  0.00    -0.294 A  
ENDBRANCH  23  24
ENDBRANCH  10  23
TORSDOF 5
ENDMDL
MODEL       46
REMARK 921   NORMALIZED FREE ENERGY PREDICTED BY IDOCK:   -5.98 KCAL/MOL
REMARK 922        TOTAL FREE ENERGY PREDICTED BY IDOCK:   -8.89 KCAL/MOL
REMARK 923 INTER-LIGAND FREE ENERGY PREDICTED BY IDOCK:   -8.04 KCAL/MOL
REMARK 924 INTRA-LIGAND FREE ENERGY PREDICTED BY IDOCK:   -0.85 KCAL/MOL
REMARK 927      BINDING AFFINITY PREDICTED BY RF-SCORE:    0.00 PKD
ROOT
HETATM    1  C   UNL     1     -13.390   9.764  70.409  1.00  0.00     0.265 C  
HETATM    2  C   UNL     1     -12.254  10.726  70.040  1.00  0.00    -0.409 C  
HETATM    3  C   UNL     1     -10.855  10.127  70.241  1.00  0.00    -0.310 C  
HETATM    4  C   UNL     1     -12.342  11.975  70.906  1.00  0.00    -0.285 C  
HETATM    5  O   UNL     1     -12.666  11.910  72.091  1.00  0.00    -0.130 OA 
HETATM    6  C   UNL     1     -13.251  15.004  71.704  1.00  0.00    -0.377 C  
HETATM    7  N   UNL     1     -12.071  13.201  70.340  1.00  0.00    -0.350 N  
HETATM    8  C   UNL     1     -11.687  13.483  68.964  1.00  0.00    -0.327 C  
HETATM    9  C   UNL     1     -11.936  14.410  71.177  1.00  0.00    -0.316 C  
HETATM   10  C   UNL     1     -10.743  14.680  69.062  1.00  0.00    -0.249 C  
HETATM   11  C   UNL     1     -11.267  15.456  70.269  1.00  0.00    -0.328 C  
HETATM   12  O   UNL     1     -14.366  14.322  71.363  1.00  0.00    -0.324 OA 
HETATM   13  O   UNL     1     -13.307  16.044  72.352  1.00  0.00    -0.420 OA 
ENDROOT
BRANCH   3  14
HETATM   14  S   UNL     1     -10.635   8.638  69.229  1.00  0.00    -0.148 SA 
BRANCH  14  15
HETATM   15  C   UNL     1      -9.358   7.810  70.116  1.00  0.00    -0.153 C  
HETATM   16  O   UNL     1      -8.281   7.548  69.597  1.00  0.00    -0.125 OA 
BRANCH  15  17
HETATM   17  C   UNL     1      -9.647   7.481  71.543  1.00  0.00    -0.171 A  
HETATM   18  C   UNL     1      -8.894   8.011  72.602  1.00  0.00    -0.264 A  
HETATM   19  C   UNL     1      -9.190   7.667  73.922  1.00  0.00    -0.303 A  
HETATM   20  C   UNL     1     -10.245   6.800  74.195  1.00  0.00    -0.370 A  
HETATM   21  C   UNL     1     -10.715   6.620  71.828  1.00  0.00    -0.257 A  
HETATM   22  C   UNL     1     -11.008   6.277  73.151  1.00  0.00    -0.251 A  
ENDBRANCH  15  17
ENDBRANCH  14  15
ENDBRANCH   3  14
BRANCH  10  23
HETATM   23  S   UNL     1     -10.761  15.617  67.490  1.00  0.00    -0.304 SA 
BRANCH  23  24
HETATM   24  C   UNL     1      -9.837  17.094  67.882  1.00  0.00    -0.283 A  
HETATM   25  C   UNL     1      -8.463  17.091  68.139  1.00  0.00    -0.227 A  
HETATM   26  C   UNL     1      -8.484  19.495  68.423  1.00  0.00    -0.387 A  
HETATM   27  C   UNL     1      -7.791  18.286  68.417  1.00  0.00    -0.318 A  
HETATM   28  C   UNL     1      -9.849  19.512  68.148  1.00  0.00    -0.506 A  
HETATM   29  C   UNL     1     -10.520  18.318  67.875  1.00  0.00    -0.408 A  
ENDBRANCH  23  24
ENDBRANCH  10  23
TORSDOF 5
ENDMDL
MODEL       47
REMARK 921   NORMALIZED FREE ENERGY PREDICTED BY IDOCK:   -5.95 KCAL/MOL
REMARK 922        TOTAL FREE ENERGY PREDICTED BY IDOCK:   -8.85 KCAL/MOL
REMARK 923 INTER-LIGAND FREE ENERGY PREDICTED BY IDOCK:   -7.02 KCAL/MOL
REMARK 924 INTRA-LIGAND FREE ENERGY PREDICTED BY IDOCK:   -1.84 KCAL/MOL
REMARK 927      BINDING AFFINITY PREDICTED BY RF-SCORE:    0.00 PKD
ROOT
HETATM    1  C   UNL     1     -10.128   5.772  66.604  1.00  0.00    -0.235 C  
HETATM    2  C   UNL     1      -9.802   7.162  67.165  1.00  0.00    -0.235 C  
HETATM    3  C   UNL     1      -8.343   7.586  66.939  1.00  0.00    -0.125 C  
HETATM    4  C   UNL     1     -10.052   7.177  68.667  1.00  0.00    -0.173 C  
HETATM    5  O   UNL     1      -9.782   6.204  69.370  1.00  0.00    -0.141 OA 
HETATM    6  C   UNL     1     -11.763   7.614  71.409  1.00  0.00    -0.283 C  
HETATM    7  N   UNL     1     -10.612   8.298  69.239  1.00  0.00    -0.211 N  
HETATM    8  C   UNL     1     -11.010   9.533  68.578  1.00  0.00    -0.065 C  
HETATM    9  C   UNL     1     -10.680   8.447  70.706  1.00  0.00    -0.212 C  
HETATM   10  C   UNL     1     -10.742  10.629  69.608  1.00  0.00    -0.244 C  
HETATM   11  C   UNL     1     -10.988   9.935  70.947  1.00  0.00    -0.392 C  
HETATM   12  O   UNL     1     -12.495   6.820  70.596  1.00  0.00    -0.320 OA 
HETATM   13  O   UNL     1     -11.989   7.683  72.613  1.00  0.00    -0.264 OA 
ENDROOT
BRANCH   3  14
HETATM   14  S   UNL     1      -7.944   7.624  65.171  1.00  0.00    -0.134 SA 
BRANCH  14  15
HETATM   15  C   UNL     1      -7.625   9.338  64.932  1.00  0.00    -0.108 C  
HETATM   16  O   UNL     1      -6.512   9.816  65.108  1.00  0.00    -0.083 OA 
BRANCH  15  17
HETATM   17  C   UNL     1      -8.774  10.169  64.465  1.00  0.00    -0.211 A  
HETATM   18  C   UNL     1      -8.948  10.520  63.118  1.00  0.00    -0.240 A  
HETATM   19  C   UNL     1     -10.032  11.309  62.727  1.00  0.00    -0.197 A  
HETATM   20  C   UNL     1     -10.953  11.745  63.675  1.00  0.00    -0.513 A  
HETATM   21  C   UNL     1      -9.715  10.602  65.411  1.00  0.00    -0.306 A  
HETATM   22  C   UNL     1     -10.797  11.392  65.015  1.00  0.00    -0.311 A  
ENDBRANCH  15  17
ENDBRANCH  14  15
ENDBRANCH   3  14
BRANCH  10  23
HETATM   23  S   UNL     1     -11.828  12.065  69.285  1.00  0.00    -0.298 SA 
BRANCH  23  24
HETATM   24  C   UNL     1     -10.856  13.074  68.178  1.00  0.00    -0.247 A  
HETATM   25  C   UNL     1      -9.463  12.988  68.088  1.00  0.00    -0.218 A  
HETATM   26  C   UNL     1      -9.444  14.668  66.347  1.00  0.00    -0.325 A  
HETATM   27  C   UNL     1      -8.760  13.788  67.183  1.00  0.00    -0.231 A  
HETATM   28  C   UNL     1     -10.833  14.747  66.412  1.00  0.00    -0.322 A  
HETATM   29  C   UNL     1     -11.534  13.950  67.320  1.00  0.00    -0.369 A  
ENDBRANCH  23  24
ENDBRANCH  10  23
TORSDOF 5
ENDMDL
MODEL       48
REMARK 921   NORMALIZED FREE ENERGY PREDICTED BY IDOCK:   -5.95 KCAL/MOL
REMARK 922        TOTAL FREE ENERGY PREDICTED BY IDOCK:   -8.85 KCAL/MOL
REMARK 923 INTER-LIGAND FREE ENERGY PREDICTED BY IDOCK:   -6.94 KCAL/MOL
REMARK 924 INTRA-LIGAND FREE ENERGY PREDICTED BY IDOCK:   -1.91 KCAL/MOL
REMARK 927      BINDING AFFINITY PREDICTED BY RF-SCORE:    0.00 PKD
ROOT
HETATM    1  C   UNL     1      -9.878  13.688  67.504  1.00  0.00    -0.227 C  
HETATM    2  C   UNL     1     -10.574  12.398  67.956  1.00  0.00    -0.238 C  
HETATM    3  C   UNL     1     -11.202  11.604  66.802  1.00  0.00    -0.308 C  
HETATM    4  C   UNL     1     -11.692  12.737  68.934  1.00  0.00    -0.326 C  
HETATM    5  O   UNL     1     -12.393  13.737  68.781  1.00  0.00    -0.284 OA 
HETATM    6  C   UNL     1     -13.058  13.266  71.848  1.00  0.00    -0.388 C  
HETATM    7  N   UNL     1     -11.901  11.916  70.020  1.00  0.00    -0.337 N  
HETATM    8  C   UNL     1     -11.174  10.707  70.377  1.00  0.00    -0.252 C  
HETATM    9  C   UNL     1     -13.094  12.079  70.874  1.00  0.00     0.163 C  
HETATM   10  C   UNL     1     -12.220   9.802  71.027  1.00  0.00    -0.347 C  
HETATM   11  C   UNL     1     -13.178  10.784  71.700  1.00  0.00    -0.487 C  
HETATM   12  O   UNL     1     -11.950  14.036  71.773  1.00  0.00    -0.113 OA 
HETATM   13  O   UNL     1     -13.942  13.490  72.669  1.00  0.00    -0.752 OA 
ENDROOT
BRANCH   3  14
HETATM   14  S   UNL     1      -9.946  11.126  65.585  1.00  0.00    -0.262 SA 
BRANCH  14  15
HETATM   15  C   UNL     1      -9.381   9.601  66.260  1.00  0.00    -0.185 C  
HETATM   16  O   UNL     1      -9.720   8.524  65.787  1.00  0.00    -0.118 OA 
BRANCH  15  17
HETATM   17  C   UNL     1      -8.437   9.694  67.412  1.00  0.00    -0.125 A  
HETATM   18  C   UNL     1      -7.394  10.633  67.455  1.00  0.00    -0.093 A  
HETATM   19  C   UNL     1      -6.526  10.677  68.547  1.00  0.00    -0.054 A  
HETATM   20  C   UNL     1      -6.698   9.793  69.609  1.00  0.00    -0.055 A  
HETATM   21  C   UNL     1      -8.610   8.817  68.492  1.00  0.00    -0.134 A  
HETATM   22  C   UNL     1      -7.739   8.864  69.583  1.00  0.00    -0.078 A  
ENDBRANCH  15  17
ENDBRANCH  14  15
ENDBRANCH   3  14
BRANCH  10  23
HETATM   23  S   UNL     1     -11.403   8.631  72.172  1.00  0.00    -0.338 SA 
BRANCH  23  24
HETATM   24  C   UNL     1     -11.003   7.243  71.121  1.00  0.00    -0.247 A  
HETATM   25  C   UNL     1     -11.528   7.080  69.835  1.00  0.00    -0.223 A  
HETATM   26  C   UNL     1     -10.244   5.050  69.539  1.00  0.00    -0.286 A  
HETATM   27  C   UNL     1     -11.156   5.984  69.051  1.00  0.00    -0.377 A  
HETATM   28  C   UNL     1      -9.699   5.213  70.810  1.00  0.00    -0.255 A  
HETATM   29  C   UNL     1     -10.074   6.307  71.594  1.00  0.00    -0.214 A  
ENDBRANCH  23  24
ENDBRANCH  10  23
TORSDOF 5
ENDMDL
MODEL       49
REMARK 921   NORMALIZED FREE ENERGY PREDICTED BY IDOCK:   -5.93 KCAL/MOL
REMARK 922        TOTAL FREE ENERGY PREDICTED BY IDOCK:   -8.83 KCAL/MOL
REMARK 923 INTER-LIGAND FREE ENERGY PREDICTED BY IDOCK:   -8.35 KCAL/MOL
REMARK 924 INTRA-LIGAND FREE ENERGY PREDICTED BY IDOCK:   -0.47 KCAL/MOL
REMARK 927      BINDING AFFINITY PREDICTED BY RF-SCORE:    0.00 PKD
ROOT
HETATM    1  C   UNL     1     -12.396  13.825  65.102  1.00  0.00    -0.476 C  
HETATM    2  C   UNL     1     -11.508  13.029  66.065  1.00  0.00    -0.374 C  
HETATM    3  C   UNL     1     -10.961  13.867  67.229  1.00  0.00    -0.290 C  
HETATM    4  C   UNL     1     -10.311  12.467  65.309  1.00  0.00    -0.287 C  
HETATM    5  O   UNL     1      -9.750  13.116  64.426  1.00  0.00    -0.030 OA 
HETATM    6  C   UNL     1      -8.625  10.271  63.584  1.00  0.00    -0.195 C  
HETATM    7  N   UNL     1      -9.866  11.199  65.609  1.00  0.00    -0.223 N  
HETATM    8  C   UNL     1     -10.402  10.278  66.603  1.00  0.00    -0.219 C  
HETATM    9  C   UNL     1      -8.593  10.692  65.061  1.00  0.00    -0.160 C  
HETATM   10  C   UNL     1      -9.184   9.512  67.118  1.00  0.00    -0.134 C  
HETATM   11  C   UNL     1      -8.256   9.451  65.906  1.00  0.00    -0.115 C  
HETATM   12  O   UNL     1      -9.811  10.453  62.961  1.00  0.00    -0.293 OA 
HETATM   13  O   UNL     1      -7.667   9.766  63.007  1.00  0.00    -0.124 OA 
ENDROOT
BRANCH   3  14
HETATM   14  S   UNL     1     -12.312  14.568  68.215  1.00  0.00     0.222 SA 
BRANCH  14  15
HETATM   15  C   UNL     1     -11.443  15.104  69.649  1.00  0.00    -0.293 C  
HETATM   16  O   UNL     1     -10.227  15.244  69.649  1.00  0.00    -0.239 OA 
BRANCH  15  17
HETATM   17  C   UNL     1     -12.273  15.416  70.850  1.00  0.00    -0.425 A  
HETATM   18  C   UNL     1     -13.643  15.117  70.914  1.00  0.00    -0.397 A  
HETATM   19  C   UNL     1     -14.384  15.437  72.054  1.00  0.00    -0.653 A  
HETATM   20  C   UNL     1     -13.762  16.048  73.140  1.00  0.00    -0.441 A  
HETATM   21  C   UNL     1     -11.653  16.018  71.954  1.00  0.00    -0.524 A  
HETATM   22  C   UNL     1     -12.399  16.338  73.092  1.00  0.00    -0.598 A  
ENDBRANCH  15  17
ENDBRANCH  14  15
ENDBRANCH   3  14
BRANCH  10  23
HETATM   23  S   UNL     1      -9.703   7.880  67.761  1.00  0.00    -0.163 SA 
BRANCH  23  24
HETATM   24  C   UNL     1     -10.454   8.278  69.331  1.00  0.00    -0.220 A  
HETATM   25  C   UNL     1     -10.553   9.583  69.824  1.00  0.00    -0.257 A  
HETATM   26  C   UNL     1     -11.719   8.784  71.788  1.00  0.00    -0.416 A  
HETATM   27  C   UNL     1     -11.175   9.834  71.051  1.00  0.00    -0.451 A  
HETATM   28  C   UNL     1     -11.646   7.483  71.297  1.00  0.00    -0.305 A  
HETATM   29  C   UNL     1     -11.020   7.233  70.074  1.00  0.00    -0.273 A  
ENDBRANCH  23  24
ENDBRANCH  10  23
TORSDOF 5
ENDMDL
MODEL       50
REMARK 921   NORMALIZED FREE ENERGY PREDICTED BY IDOCK:   -5.91 KCAL/MOL
REMARK 922        TOTAL FREE ENERGY PREDICTED BY IDOCK:   -8.81 KCAL/MOL
REMARK 923 INTER-LIGAND FREE ENERGY PREDICTED BY IDOCK:   -7.20 KCAL/MOL
REMARK 924 INTRA-LIGAND FREE ENERGY PREDICTED BY IDOCK:   -1.61 KCAL/MOL
REMARK 927      BINDING AFFINITY PREDICTED BY RF-SCORE:    0.00 PKD
ROOT
HETATM    1  C   UNL     1     -11.387  16.324  64.526  1.00  0.00    -0.209 C  
HETATM    2  C   UNL     1     -10.736  15.567  65.690  1.00  0.00    -0.378 C  
HETATM    3  C   UNL     1     -11.688  14.589  66.394  1.00  0.00    -0.363 C  
HETATM    4  C   UNL     1     -10.251  16.561  66.737  1.00  0.00    -0.295 C  
HETATM    5  O   UNL     1     -10.899  17.571  67.010  1.00  0.00    -0.215 OA 
HETATM    6  C   UNL     1      -8.134  18.556  68.213  1.00  0.00    -0.303 C  
HETATM    7  N   UNL     1      -9.051  16.330  67.372  1.00  0.00    -0.194 N  
HETATM    8  C   UNL     1      -8.140  15.210  67.179  1.00  0.00    -0.214 C  
HETATM    9  C   UNL     1      -8.639  17.141  68.535  1.00  0.00    -0.258 C  
HETATM   10  C   UNL     1      -7.526  14.966  68.557  1.00  0.00    -0.118 C  
HETATM   11  C   UNL     1      -7.487  16.358  69.186  1.00  0.00    -0.228 C  
HETATM   12  O   UNL     1      -8.164  18.893  66.905  1.00  0.00    -0.254 OA 
HETATM   13  O   UNL     1      -7.692  19.322  69.063  1.00  0.00    -0.351 OA 
ENDROOT
BRANCH   3  14
HETATM   14  S   UNL     1     -12.309  13.341  65.235  1.00  0.00    -0.493 SA 
BRANCH  14  15
HETATM   15  C   UNL     1     -10.847  12.412  64.921  1.00  0.00    -0.297 C  
HETATM   16  O   UNL     1     -10.042  12.750  64.062  1.00  0.00    -0.365 OA 
BRANCH  15  17
HETATM   17  C   UNL     1     -10.623  11.214  65.783  1.00  0.00    -0.289 A  
HETATM   18  C   UNL     1     -11.118  11.130  67.094  1.00  0.00    -0.352 A  
HETATM   19  C   UNL     1     -10.874   9.995  67.869  1.00  0.00    -0.323 A  
HETATM   20  C   UNL     1     -10.145   8.933  67.341  1.00  0.00    -0.288 A  
HETATM   21  C   UNL     1      -9.901  10.135  65.254  1.00  0.00    -0.388 A  
HETATM   22  C   UNL     1      -9.659   9.001  66.035  1.00  0.00    -0.342 A  
ENDBRANCH  15  17
ENDBRANCH  14  15
ENDBRANCH   3  14
BRANCH  10  23
HETATM   23  S   UNL     1      -5.891  14.166  68.376  1.00  0.00    -0.114 SA 
BRANCH  23  24
HETATM   24  C   UNL     1      -6.298  12.437  68.194  1.00  0.00    -0.065 A  
HETATM   25  C   UNL     1      -6.140  11.735  66.996  1.00  0.00    -0.152 A  
HETATM   26  C   UNL     1      -6.913   9.700  68.053  1.00  0.00    -0.078 A  
HETATM   27  C   UNL     1      -6.454  10.374  66.923  1.00  0.00    -0.076 A  
HETATM   28  C   UNL     1      -7.055  10.384  69.258  1.00  0.00    -0.090 A  
HETATM   29  C   UNL     1      -6.745  11.744  69.328  1.00  0.00    -0.110 A  
ENDBRANCH  23  24
ENDBRANCH  10  23
TORSDOF 5
ENDMDL
MODEL       51
REMARK 921   NORMALIZED FREE ENERGY PREDICTED BY IDOCK:   -5.91 KCAL/MOL
REMARK 922        TOTAL FREE ENERGY PREDICTED BY IDOCK:   -8.80 KCAL/MOL
REMARK 923 INTER-LIGAND FREE ENERGY PREDICTED BY IDOCK:   -7.96 KCAL/MOL
REMARK 924 INTRA-LIGAND FREE ENERGY PREDICTED BY IDOCK:   -0.84 KCAL/MOL
REMARK 927      BINDING AFFINITY PREDICTED BY RF-SCORE:    0.00 PKD
ROOT
HETATM    1  C   UNL     1     -13.829  12.738  72.116  1.00  0.00    -0.326 C  
HETATM    2  C   UNL     1     -12.920  12.302  70.961  1.00  0.00    -0.152 C  
HETATM    3  C   UNL     1     -11.973  11.150  71.328  1.00  0.00     0.054 C  
HETATM    4  C   UNL     1     -12.056  13.476  70.520  1.00  0.00    -0.335 C  
HETATM    5  O   UNL     1     -11.592  14.271  71.337  1.00  0.00    -0.126 OA 
HETATM    6  C   UNL     1     -11.261  16.115  68.777  1.00  0.00    -0.365 C  
HETATM    7  N   UNL     1     -11.811  13.658  69.177  1.00  0.00    -0.329 N  
HETATM    8  C   UNL     1     -12.278  12.840  68.066  1.00  0.00     0.074 C  
HETATM    9  C   UNL     1     -10.816  14.646  68.715  1.00  0.00    -0.255 C  
HETATM   10  C   UNL     1     -11.149  12.900  67.038  1.00  0.00    -0.275 C  
HETATM   11  C   UNL     1     -10.547  14.289  67.243  1.00  0.00    -0.278 C  
HETATM   12  O   UNL     1     -12.497  16.320  69.283  1.00  0.00     0.085 OA 
HETATM   13  O   UNL     1     -10.574  17.044  68.363  1.00  0.00    -0.341 OA 
ENDROOT
BRANCH   3  14
HETATM   14  S   UNL     1     -12.905   9.684  71.847  1.00  0.00    -0.432 SA 
BRANCH  14  15
HETATM   15  C   UNL     1     -11.647   8.453  71.818  1.00  0.00    -0.308 C  
HETATM   16  O   UNL     1     -11.146   8.021  72.848  1.00  0.00    -0.392 OA 
BRANCH  15  17
HETATM   17  C   UNL     1     -11.252   7.938  70.474  1.00  0.00    -0.259 A  
HETATM   18  C   UNL     1     -10.658   8.757  69.501  1.00  0.00    -0.224 A  
HETATM   19  C   UNL     1     -10.315   8.237  68.252  1.00  0.00    -0.242 A  
HETATM   20  C   UNL     1     -10.554   6.895  67.967  1.00  0.00    -0.273 A  
HETATM   21  C   UNL     1     -11.477   6.585  70.183  1.00  0.00    -0.477 A  
HETATM   22  C   UNL     1     -11.133   6.069  68.931  1.00  0.00    -0.349 A  
ENDBRANCH  15  17
ENDBRANCH  14  15
ENDBRANCH   3  14
BRANCH  10  23
HETATM   23  S   UNL     1     -11.818  12.600  65.362  1.00  0.00    -0.447 SA 
BRANCH  23  24
HETATM   24  C   UNL     1     -10.624  11.486  64.638  1.00  0.00    -0.311 A  
HETATM   25  C   UNL     1     -10.031  10.436  65.344  1.00  0.00    -0.362 A  
HETATM   26  C   UNL     1      -8.809   9.760  63.367  1.00  0.00    -0.258 A  
HETATM   27  C   UNL     1      -9.120   9.582  64.714  1.00  0.00    -0.271 A  
HETATM   28  C   UNL     1      -9.410  10.789  62.648  1.00  0.00    -0.340 A  
HETATM   29  C   UNL     1     -10.316  11.645  63.280  1.00  0.00    -0.444 A  
ENDBRANCH  23  24
ENDBRANCH  10  23
TORSDOF 5
ENDMDL
MODEL       52
REMARK 921   NORMALIZED FREE ENERGY PREDICTED BY IDOCK:   -5.91 KCAL/MOL
REMARK 922        TOTAL FREE ENERGY PREDICTED BY IDOCK:   -8.80 KCAL/MOL
REMARK 923 INTER-LIGAND FREE ENERGY PREDICTED BY IDOCK:   -8.02 KCAL/MOL
REMARK 924 INTRA-LIGAND FREE ENERGY PREDICTED BY IDOCK:   -0.78 KCAL/MOL
REMARK 927      BINDING AFFINITY PREDICTED BY RF-SCORE:    0.00 PKD
ROOT
HETATM    1  C   UNL     1      -7.103  10.928  69.328  1.00  0.00    -0.124 C  
HETATM    2  C   UNL     1      -7.785  12.059  68.550  1.00  0.00    -0.127 C  
HETATM    3  C   UNL     1      -8.013  11.733  67.067  1.00  0.00    -0.164 C  
HETATM    4  C   UNL     1      -6.923  13.313  68.611  1.00  0.00    -0.101 C  
HETATM    5  O   UNL     1      -5.695  13.248  68.557  1.00  0.00    -0.074 OA 
HETATM    6  C   UNL     1      -5.869  16.164  69.795  1.00  0.00    -0.174 C  
HETATM    7  N   UNL     1      -7.535  14.539  68.752  1.00  0.00    -0.126 N  
HETATM    8  C   UNL     1      -8.961  14.818  68.847  1.00  0.00    -0.167 C  
HETATM    9  C   UNL     1      -6.767  15.791  68.605  1.00  0.00    -0.117 C  
HETATM   10  C   UNL     1      -9.139  16.170  68.156  1.00  0.00    -0.189 C  
HETATM   11  C   UNL     1      -7.825  16.896  68.439  1.00  0.00    -0.229 C  
HETATM   12  O   UNL     1      -5.869  15.276  70.814  1.00  0.00    -0.096 OA 
HETATM   13  O   UNL     1      -5.226  17.207  69.852  1.00  0.00    -0.165 OA 
ENDROOT
BRANCH   3  14
HETATM   14  S   UNL     1      -9.055  10.261  66.879  1.00  0.00    -0.143 SA 
BRANCH  14  15
HETATM   15  C   UNL     1     -10.662  10.958  67.058  1.00  0.00    -0.271 C  
HETATM   16  O   UNL     1     -11.328  10.787  68.072  1.00  0.00    -0.302 OA 
BRANCH  15  17
HETATM   17  C   UNL     1     -11.152  11.797  65.926  1.00  0.00    -0.355 A  
HETATM   18  C   UNL     1     -10.850  11.502  64.587  1.00  0.00    -0.372 A  
HETATM   19  C   UNL     1     -11.319  12.322  63.559  1.00  0.00    -0.549 A  
HETATM   20  C   UNL     1     -12.100  13.435  63.858  1.00  0.00    -0.514 A  
HETATM   21  C   UNL     1     -11.950  12.913  66.216  1.00  0.00    -0.472 A  
HETATM   22  C   UNL     1     -12.417  13.731  65.184  1.00  0.00    -0.483 A  
ENDBRANCH  15  17
ENDBRANCH  14  15
ENDBRANCH   3  14
BRANCH  10  23
HETATM   23  S   UNL     1     -10.628  17.010  68.809  1.00  0.00    -0.323 SA 
BRANCH  23  24
HETATM   24  C   UNL     1     -11.334  15.795  69.911  1.00  0.00    -0.349 A  
HETATM   25  C   UNL     1     -11.472  15.998  71.287  1.00  0.00    -0.475 A  
HETATM   26  C   UNL     1     -12.523  13.832  71.529  1.00  0.00    -0.364 A  
HETATM   27  C   UNL     1     -12.056  15.017  72.094  1.00  0.00    -0.456 A  
HETATM   28  C   UNL     1     -12.410  13.627  70.157  1.00  0.00    -0.372 A  
HETATM   29  C   UNL     1     -11.822  14.606  69.352  1.00  0.00    -0.368 A  
ENDBRANCH  23  24
ENDBRANCH  10  23
TORSDOF 5
ENDMDL
MODEL       53
REMARK 921   NORMALIZED FREE ENERGY PREDICTED BY IDOCK:   -5.90 KCAL/MOL
REMARK 922        TOTAL FREE ENERGY PREDICTED BY IDOCK:   -8.78 KCAL/MOL
REMARK 923 INTER-LIGAND FREE ENERGY PREDICTED BY IDOCK:   -8.44 KCAL/MOL
REMARK 924 INTRA-LIGAND FREE ENERGY PREDICTED BY IDOCK:   -0.34 KCAL/MOL
REMARK 927      BINDING AFFINITY PREDICTED BY RF-SCORE:    0.00 PKD
ROOT
HETATM    1  C   UNL     1     -12.658  13.464  65.151  1.00  0.00    -0.495 C  
HETATM    2  C   UNL     1     -11.202  13.584  65.618  1.00  0.00    -0.304 C  
HETATM    3  C   UNL     1     -10.343  12.360  65.267  1.00  0.00    -0.282 C  
HETATM    4  C   UNL     1     -11.163  13.747  67.131  1.00  0.00    -0.311 C  
HETATM    5  O   UNL     1     -11.944  13.136  67.861  1.00  0.00    -0.349 OA 
HETATM    6  C   UNL     1     -11.115  15.361  69.965  1.00  0.00    -0.303 C  
HETATM    7  N   UNL     1     -10.248  14.614  67.687  1.00  0.00    -0.232 N  
HETATM    8  C   UNL     1      -9.260  15.430  66.996  1.00  0.00    -0.225 C  
HETATM    9  C   UNL     1     -10.027  14.651  69.146  1.00  0.00    -0.143 C  
HETATM   10  C   UNL     1      -8.067  15.485  67.949  1.00  0.00    -0.139 C  
HETATM   11  C   UNL     1      -8.708  15.419  69.335  1.00  0.00    -0.252 C  
HETATM   12  O   UNL     1     -12.159  15.832  69.248  1.00  0.00    -0.350 OA 
HETATM   13  O   UNL     1     -11.039  15.534  71.178  1.00  0.00    -0.351 OA 
ENDROOT
BRANCH   3  14
HETATM   14  S   UNL     1     -10.302  12.089  63.475  1.00  0.00    -0.442 SA 
BRANCH  14  15
HETATM   15  C   UNL     1      -9.563  10.492  63.391  1.00  0.00    -0.331 C  
HETATM   16  O   UNL     1      -9.535   9.851  62.348  1.00  0.00    -0.278 OA 
BRANCH  15  17
HETATM   17  C   UNL     1      -8.941   9.981  64.647  1.00  0.00    -0.249 A  
HETATM   18  C   UNL     1      -7.560  10.060  64.887  1.00  0.00    -0.139 A  
HETATM   19  C   UNL     1      -7.018   9.558  66.072  1.00  0.00    -0.091 A  
HETATM   20  C   UNL     1      -7.850   8.983  67.029  1.00  0.00    -0.098 A  
HETATM   21  C   UNL     1      -9.772   9.412  65.623  1.00  0.00    -0.336 A  
HETATM   22  C   UNL     1      -9.225   8.910  66.806  1.00  0.00    -0.201 A  
ENDBRANCH  15  17
ENDBRANCH  14  15
ENDBRANCH   3  14
BRANCH  10  23
HETATM   23  S   UNL     1      -7.089  16.999  67.635  1.00  0.00    -0.151 SA 
BRANCH  23  24
HETATM   24  C   UNL     1      -8.335  18.271  67.504  1.00  0.00    -0.245 A  
HETATM   25  C   UNL     1      -9.101  18.708  68.589  1.00  0.00    -0.344 A  
HETATM   26  C   UNL     1     -10.219  20.329  67.182  1.00  0.00    -0.500 A  
HETATM   27  C   UNL     1     -10.045  19.726  68.427  1.00  0.00    -0.568 A  
HETATM   28  C   UNL     1      -9.447  19.917  66.100  1.00  0.00    -0.466 A  
HETATM   29  C   UNL     1      -8.507  18.897  66.261  1.00  0.00    -0.268 A  
ENDBRANCH  23  24
ENDBRANCH  10  23
TORSDOF 5
ENDMDL
MODEL       54
REMARK 921   NORMALIZED FREE ENERGY PREDICTED BY IDOCK:   -5.89 KCAL/MOL
REMARK 922        TOTAL FREE ENERGY PREDICTED BY IDOCK:   -8.78 KCAL/MOL
REMARK 923 INTER-LIGAND FREE ENERGY PREDICTED BY IDOCK:   -7.67 KCAL/MOL
REMARK 924 INTRA-LIGAND FREE ENERGY PREDICTED BY IDOCK:   -1.11 KCAL/MOL
REMARK 927      BINDING AFFINITY PREDICTED BY RF-SCORE:    0.00 PKD
ROOT
HETATM    1  C   UNL     1     -12.282  12.799  70.701  1.00  0.00    -0.374 C  
HETATM    2  C   UNL     1     -11.657  11.774  69.748  1.00  0.00    -0.372 C  
HETATM    3  C   UNL     1     -12.138  11.914  68.297  1.00  0.00     0.008 C  
HETATM    4  C   UNL     1     -12.010  10.367  70.209  1.00  0.00    -0.302 C  
HETATM    5  O   UNL     1     -13.119  10.105  70.674  1.00  0.00    -0.341 OA 
HETATM    6  C   UNL     1     -11.612   7.561  71.824  1.00  0.00    -0.270 C  
HETATM    7  N   UNL     1     -11.057   9.376  70.122  1.00  0.00    -0.243 N  
HETATM    8  C   UNL     1      -9.695   9.491  69.618  1.00  0.00    -0.200 C  
HETATM    9  C   UNL     1     -11.409   7.961  70.355  1.00  0.00    -0.194 C  
HETATM   10  C   UNL     1      -9.409   8.140  68.963  1.00  0.00    -0.147 C  
HETATM   11  C   UNL     1     -10.225   7.153  69.797  1.00  0.00    -0.215 C  
HETATM   12  O   UNL     1     -11.477   8.566  72.717  1.00  0.00    -0.296 OA 
HETATM   13  O   UNL     1     -11.839   6.409  72.182  1.00  0.00    -0.315 OA 
ENDROOT
BRANCH   3  14
HETATM   14  S   UNL     1     -11.744  13.556  67.637  1.00  0.00    -0.370 SA 
BRANCH  14  15
HETATM   15  C   UNL     1     -12.053  13.317  65.921  1.00  0.00    -0.441 C  
HETATM   16  O   UNL     1     -12.921  13.948  65.330  1.00  0.00    -0.747 OA 
BRANCH  15  17
HETATM   17  C   UNL     1     -11.177  12.334  65.218  1.00  0.00    -0.372 A  
HETATM   18  C   UNL     1     -10.564  11.263  65.887  1.00  0.00    -0.309 A  
HETATM   19  C   UNL     1      -9.742  10.374  65.193  1.00  0.00    -0.353 A  
HETATM   20  C   UNL     1      -9.532  10.540  63.827  1.00  0.00    -0.342 A  
HETATM   21  C   UNL     1     -10.971  12.486  63.840  1.00  0.00    -0.471 A  
HETATM   22  C   UNL     1     -10.146  11.594  63.150  1.00  0.00    -0.409 A  
ENDBRANCH  15  17
ENDBRANCH  14  15
ENDBRANCH   3  14
BRANCH  10  23
HETATM   23  S   UNL     1      -7.607   7.821  68.957  1.00  0.00    -0.102 SA 
BRANCH  23  24
HETATM   24  C   UNL     1      -7.036   8.728  67.528  1.00  0.00    -0.075 A  
HETATM   25  C   UNL     1      -6.723  10.090  67.560  1.00  0.00    -0.072 A  
HETATM   26  C   UNL     1      -6.083  10.027  65.227  1.00  0.00    -0.104 A  
HETATM   27  C   UNL     1      -6.257  10.739  66.412  1.00  0.00    -0.119 A  
HETATM   28  C   UNL     1      -6.370   8.665  65.189  1.00  0.00    -0.060 A  
HETATM   29  C   UNL     1      -6.841   8.019  66.335  1.00  0.00    -0.062 A  
ENDBRANCH  23  24
ENDBRANCH  10  23
TORSDOF 5
ENDMDL
MODEL       55
REMARK 921   NORMALIZED FREE ENERGY PREDICTED BY IDOCK:   -5.88 KCAL/MOL
REMARK 922        TOTAL FREE ENERGY PREDICTED BY IDOCK:   -8.77 KCAL/MOL
REMARK 923 INTER-LIGAND FREE ENERGY PREDICTED BY IDOCK:   -7.23 KCAL/MOL
REMARK 924 INTRA-LIGAND FREE ENERGY PREDICTED BY IDOCK:   -1.54 KCAL/MOL
REMARK 927      BINDING AFFINITY PREDICTED BY RF-SCORE:    0.00 PKD
ROOT
HETATM    1  C   UNL     1     -14.075   9.535  71.674  1.00  0.00    -0.095 C  
HETATM    2  C   UNL     1     -12.860  10.122  70.946  1.00  0.00    -0.442 C  
HETATM    3  C   UNL     1     -11.538   9.426  71.302  1.00  0.00    -0.364 C  
HETATM    4  C   UNL     1     -12.710  11.593  71.309  1.00  0.00    -0.340 C  
HETATM    5  O   UNL     1     -12.937  11.998  72.448  1.00  0.00    -0.200 OA 
HETATM    6  C   UNL     1     -13.146  14.810  70.995  1.00  0.00    -0.375 C  
HETATM    7  N   UNL     1     -12.332  12.487  70.331  1.00  0.00    -0.279 N  
HETATM    8  C   UNL     1     -12.034  12.206  68.933  1.00  0.00    -0.242 C  
HETATM    9  C   UNL     1     -11.970  13.877  70.673  1.00  0.00    -0.292 C  
HETATM   10  C   UNL     1     -10.938  13.204  68.562  1.00  0.00    -0.263 C  
HETATM   11  C   UNL     1     -11.251  14.424  69.428  1.00  0.00    -0.317 C  
HETATM   12  O   UNL     1     -14.366  14.230  70.960  1.00  0.00    -0.052 OA 
HETATM   13  O   UNL     1     -13.011  16.007  71.228  1.00  0.00    -0.410 OA 
ENDROOT
BRANCH   3  14
HETATM   14  S   UNL     1     -11.601   7.662  70.885  1.00  0.00    -0.260 SA 
BRANCH  14  15
HETATM   15  C   UNL     1      -9.929   7.363  70.422  1.00  0.00    -0.188 C  
HETATM   16  O   UNL     1      -9.022   7.376  71.245  1.00  0.00    -0.138 OA 
BRANCH  15  17
HETATM   17  C   UNL     1      -9.683   7.054  68.983  1.00  0.00    -0.145 A  
HETATM   18  C   UNL     1     -10.722   6.727  68.097  1.00  0.00    -0.295 A  
HETATM   19  C   UNL     1     -10.446   6.433  66.761  1.00  0.00    -0.304 A  
HETATM   20  C   UNL     1      -9.135   6.472  66.296  1.00  0.00    -0.168 A  
HETATM   21  C   UNL     1      -8.367   7.104  68.503  1.00  0.00    -0.125 A  
HETATM   22  C   UNL     1      -8.096   6.808  67.164  1.00  0.00    -0.117 A  
ENDBRANCH  15  17
ENDBRANCH  14  15
ENDBRANCH   3  14
BRANCH  10  23
HETATM   23  S   UNL     1     -10.970  13.521  66.761  1.00  0.00    -0.295 SA 
BRANCH  23  24
HETATM   24  C   UNL     1     -10.157  12.086  66.077  1.00  0.00    -0.230 A  
HETATM   25  C   UNL     1      -9.044  11.481  66.670  1.00  0.00    -0.193 A  
HETATM   26  C   UNL     1      -9.007   9.789  64.940  1.00  0.00    -0.257 A  
HETATM   27  C   UNL     1      -8.466  10.343  66.099  1.00  0.00    -0.149 A  
HETATM   28  C   UNL     1     -10.128  10.370  64.353  1.00  0.00    -0.342 A  
HETATM   29  C   UNL     1     -10.701  11.510  64.921  1.00  0.00    -0.357 A  
ENDBRANCH  23  24
ENDBRANCH  10  23
TORSDOF 5
ENDMDL
MODEL       56
REMARK 921   NORMALIZED FREE ENERGY PREDICTED BY IDOCK:   -5.85 KCAL/MOL
REMARK 922        TOTAL FREE ENERGY PREDICTED BY IDOCK:   -8.72 KCAL/MOL
REMARK 923 INTER-LIGAND FREE ENERGY PREDICTED BY IDOCK:   -7.93 KCAL/MOL
REMARK 924 INTRA-LIGAND FREE ENERGY PREDICTED BY IDOCK:   -0.80 KCAL/MOL
REMARK 927      BINDING AFFINITY PREDICTED BY RF-SCORE:    0.00 PKD
ROOT
HETATM    1  C   UNL     1      -9.073   9.722  68.939  1.00  0.00    -0.148 C  
HETATM    2  C   UNL     1     -10.075  10.660  68.257  1.00  0.00    -0.176 C  
HETATM    3  C   UNL     1     -11.514  10.497  68.770  1.00  0.00    -0.224 C  
HETATM    4  C   UNL     1     -10.094  10.385  66.760  1.00  0.00    -0.214 C  
HETATM    5  O   UNL     1      -9.998   9.241  66.318  1.00  0.00    -0.269 OA 
HETATM    6  C   UNL     1      -9.212  10.751  63.641  1.00  0.00    -0.248 C  
HETATM    7  N   UNL     1     -10.199  11.446  65.887  1.00  0.00    -0.238 N  
HETATM    8  C   UNL     1     -10.307  12.861  66.213  1.00  0.00    -0.268 C  
HETATM    9  C   UNL     1     -10.432  11.223  64.446  1.00  0.00    -0.345 C  
HETATM   10  C   UNL     1     -11.197  13.445  65.116  1.00  0.00    -0.305 C  
HETATM   11  C   UNL     1     -10.872  12.589  63.893  1.00  0.00    -0.472 C  
HETATM   12  O   UNL     1      -8.085  10.564  64.362  1.00  0.00    -0.138 OA 
HETATM   13  O   UNL     1      -9.230  10.591  62.424  1.00  0.00    -0.255 OA 
ENDROOT
BRANCH   3  14
HETATM   14  S   UNL     1     -11.609  10.827  70.550  1.00  0.00    -0.281 SA 
BRANCH  14  15
HETATM   15  C   UNL     1     -12.426   9.376  71.122  1.00  0.00    -0.293 C  
HETATM   16  O   UNL     1     -13.641   9.335  71.264  1.00  0.00    -0.341 OA 
BRANCH  15  17
HETATM   17  C   UNL     1     -11.561   8.188  71.386  1.00  0.00    -0.314 A  
HETATM   18  C   UNL     1     -10.878   8.012  72.600  1.00  0.00    -0.436 A  
HETATM   19  C   UNL     1     -10.070   6.891  72.801  1.00  0.00    -0.199 A  
HETATM   20  C   UNL     1      -9.945   5.934  71.797  1.00  0.00    -0.200 A  
HETATM   21  C   UNL     1     -11.440   7.213  70.387  1.00  0.00    -0.317 A  
HETATM   22  C   UNL     1     -10.629   6.093  70.591  1.00  0.00    -0.307 A  
ENDBRANCH  15  17
ENDBRANCH  14  15
ENDBRANCH   3  14
BRANCH  10  23
HETATM   23  S   UNL     1     -10.844  15.228  64.912  1.00  0.00    -0.379 SA 
BRANCH  23  24
HETATM   24  C   UNL     1     -10.301  15.727  66.539  1.00  0.00    -0.294 A  
HETATM   25  C   UNL     1     -11.151  15.778  67.647  1.00  0.00    -0.283 A  
HETATM   26  C   UNL     1      -9.310  16.464  69.061  1.00  0.00    -0.248 A  
HETATM   27  C   UNL     1     -10.659  16.154  68.902  1.00  0.00    -0.275 A  
HETATM   28  C   UNL     1      -8.450  16.395  67.968  1.00  0.00    -0.183 A  
HETATM   29  C   UNL     1      -8.943  16.025  66.715  1.00  0.00    -0.275 A  
ENDBRANCH  23  24
ENDBRANCH  10  23
TORSDOF 5
ENDMDL
MODEL       57
REMARK 921   NORMALIZED FREE ENERGY PREDICTED BY IDOCK:   -5.82 KCAL/MOL
REMARK 922        TOTAL FREE ENERGY PREDICTED BY IDOCK:   -8.69 KCAL/MOL
REMARK 923 INTER-LIGAND FREE ENERGY PREDICTED BY IDOCK:   -7.63 KCAL/MOL
REMARK 924 INTRA-LIGAND FREE ENERGY PREDICTED BY IDOCK:   -1.07 KCAL/MOL
REMARK 927      BINDING AFFINITY PREDICTED BY RF-SCORE:    0.00 PKD
ROOT
HETATM    1  C   UNL     1     -12.394  13.075  70.305  1.00  0.00    -0.311 C  
HETATM    2  C   UNL     1     -11.325  13.246  69.219  1.00  0.00    -0.311 C  
HETATM    3  C   UNL     1     -11.592  14.430  68.278  1.00  0.00    -0.328 C  
HETATM    4  C   UNL     1     -11.264  11.990  68.361  1.00  0.00    -0.262 C  
HETATM    5  O   UNL     1     -12.285  11.371  68.060  1.00  0.00    -0.607 OA 
HETATM    6  C   UNL     1     -10.227   9.033  67.457  1.00  0.00    -0.241 C  
HETATM    7  N   UNL     1     -10.038  11.530  67.935  1.00  0.00    -0.184 N  
HETATM    8  C   UNL     1      -8.728  12.111  68.197  1.00  0.00    -0.185 C  
HETATM    9  C   UNL     1      -9.939  10.448  66.935  1.00  0.00    -0.206 C  
HETATM   10  C   UNL     1      -7.915  11.819  66.936  1.00  0.00    -0.149 C  
HETATM   11  C   UNL     1      -8.483  10.489  66.440  1.00  0.00    -0.143 C  
HETATM   12  O   UNL     1     -10.571   8.960  68.762  1.00  0.00    -0.214 OA 
HETATM   13  O   UNL     1     -10.116   8.025  66.765  1.00  0.00    -0.253 OA 
ENDROOT
BRANCH   3  14
HETATM   14  S   UNL     1     -11.660  15.989  69.201  1.00  0.00    -0.294 SA 
BRANCH  14  15
HETATM   15  C   UNL     1      -9.976  16.499  69.132  1.00  0.00    -0.275 C  
HETATM   16  O   UNL     1      -9.077  15.813  69.602  1.00  0.00    -0.251 OA 
BRANCH  15  17
HETATM   17  C   UNL     1      -9.700  17.790  68.436  1.00  0.00    -0.333 A  
HETATM   18  C   UNL     1      -8.464  18.448  68.535  1.00  0.00    -0.346 A  
HETATM   19  C   UNL     1      -8.253  19.661  67.878  1.00  0.00    -0.344 A  
HETATM   20  C   UNL     1      -9.270  20.222  67.109  1.00  0.00    -0.519 A  
HETATM   21  C   UNL     1     -10.713  18.356  67.650  1.00  0.00    -0.390 A  
HETATM   22  C   UNL     1     -10.498  19.571  66.994  1.00  0.00    -0.587 A  
ENDBRANCH  15  17
ENDBRANCH  14  15
ENDBRANCH   3  14
BRANCH  10  23
HETATM   23  S   UNL     1      -6.131  11.779  67.341  1.00  0.00    -0.124 SA 
BRANCH  23  24
HETATM   24  C   UNL     1      -5.947  13.121  68.505  1.00  0.00    -0.081 A  
HETATM   25  C   UNL     1      -5.784  12.925  69.880  1.00  0.00    -0.122 A  
HETATM   26  C   UNL     1      -5.599  15.313  70.226  1.00  0.00    -0.140 A  
HETATM   27  C   UNL     1      -5.620  14.017  70.738  1.00  0.00    -0.177 A  
HETATM   28  C   UNL     1      -5.739  15.519  68.856  1.00  0.00    -0.102 A  
HETATM   29  C   UNL     1      -5.907  14.428  68.001  1.00  0.00    -0.149 A  
ENDBRANCH  23  24
ENDBRANCH  10  23
TORSDOF 5
ENDMDL
MODEL       58
REMARK 921   NORMALIZED FREE ENERGY PREDICTED BY IDOCK:   -5.81 KCAL/MOL
REMARK 922        TOTAL FREE ENERGY PREDICTED BY IDOCK:   -8.67 KCAL/MOL
REMARK 923 INTER-LIGAND FREE ENERGY PREDICTED BY IDOCK:   -7.75 KCAL/MOL
REMARK 924 INTRA-LIGAND FREE ENERGY PREDICTED BY IDOCK:   -0.92 KCAL/MOL
REMARK 927      BINDING AFFINITY PREDICTED BY RF-SCORE:    0.00 PKD
ROOT
HETATM    1  C   UNL     1      -9.452  11.960  68.391  1.00  0.00    -0.189 C  
HETATM    2  C   UNL     1     -10.160  10.631  68.102  1.00  0.00    -0.179 C  
HETATM    3  C   UNL     1     -11.354  10.769  67.145  1.00  0.00    -0.028 C  
HETATM    4  C   UNL     1     -10.686  10.039  69.402  1.00  0.00    -0.233 C  
HETATM    5  O   UNL     1     -11.161  10.754  70.284  1.00  0.00    -0.298 OA 
HETATM    6  C   UNL     1     -10.609   8.215  72.105  1.00  0.00    -0.290 C  
HETATM    7  N   UNL     1     -10.606   8.678  69.598  1.00  0.00    -0.222 N  
HETATM    8  C   UNL     1     -10.070   7.677  68.687  1.00  0.00    -0.190 C  
HETATM    9  C   UNL     1     -11.287   8.034  70.739  1.00  0.00    -0.272 C  
HETATM   10  C   UNL     1     -10.927   6.434  68.927  1.00  0.00    -0.346 C  
HETATM   11  C   UNL     1     -11.300   6.533  70.406  1.00  0.00    -0.443 C  
HETATM   12  O   UNL     1      -9.491   8.974  72.096  1.00  0.00    -0.340 OA 
HETATM   13  O   UNL     1     -11.015   7.683  73.133  1.00  0.00    -0.392 OA 
ENDROOT
BRANCH   3  14
HETATM   14  S   UNL     1     -10.830  11.446  65.547  1.00  0.00    -0.175 SA 
BRANCH  14  15
HETATM   15  C   UNL     1     -11.854  12.875  65.433  1.00  0.00    -0.403 C  
HETATM   16  O   UNL     1     -12.964  12.831  64.918  1.00  0.00    -0.805 OA 
BRANCH  15  17
HETATM   17  C   UNL     1     -11.311  14.130  66.031  1.00  0.00    -0.330 A  
HETATM   18  C   UNL     1     -11.594  14.517  67.350  1.00  0.00    -0.406 A  
HETATM   19  C   UNL     1     -11.076  15.706  67.865  1.00  0.00    -0.324 A  
HETATM   20  C   UNL     1     -10.264  16.513  67.073  1.00  0.00    -0.288 A  
HETATM   21  C   UNL     1     -10.482  14.942  65.244  1.00  0.00    -0.427 A  
HETATM   22  C   UNL     1      -9.966  16.132  65.764  1.00  0.00    -0.370 A  
ENDBRANCH  15  17
ENDBRANCH  14  15
ENDBRANCH   3  14
BRANCH  10  23
HETATM   23  S   UNL     1      -9.985   4.932  68.478  1.00  0.00    -0.075 SA 
BRANCH  23  24
HETATM   24  C   UNL     1      -9.102   4.539  69.980  1.00  0.00    -0.102 A  
HETATM   25  C   UNL     1      -8.015   5.284  70.446  1.00  0.00    -0.091 A  
HETATM   26  C   UNL     1      -7.838   3.858  72.394  1.00  0.00    -0.080 A  
HETATM   27  C   UNL     1      -7.380   4.939  71.644  1.00  0.00    -0.074 A  
HETATM   28  C   UNL     1      -8.932   3.121  71.950  1.00  0.00    -0.141 A  
HETATM   29  C   UNL     1      -9.563   3.463  70.751  1.00  0.00    -0.236 A  
ENDBRANCH  23  24
ENDBRANCH  10  23
TORSDOF 5
ENDMDL
MODEL       59
REMARK 921   NORMALIZED FREE ENERGY PREDICTED BY IDOCK:   -5.77 KCAL/MOL
REMARK 922        TOTAL FREE ENERGY PREDICTED BY IDOCK:   -8.62 KCAL/MOL
REMARK 923 INTER-LIGAND FREE ENERGY PREDICTED BY IDOCK:   -7.75 KCAL/MOL
REMARK 924 INTRA-LIGAND FREE ENERGY PREDICTED BY IDOCK:   -0.87 KCAL/MOL
REMARK 927      BINDING AFFINITY PREDICTED BY RF-SCORE:    0.00 PKD
ROOT
HETATM    1  C   UNL     1      -9.045  11.464  68.069  1.00  0.00    -0.171 C  
HETATM    2  C   UNL     1      -9.666  10.090  67.794  1.00  0.00    -0.174 C  
HETATM    3  C   UNL     1     -10.645  10.085  66.612  1.00  0.00    -0.125 C  
HETATM    4  C   UNL     1     -10.436   9.623  69.023  1.00  0.00    -0.213 C  
HETATM    5  O   UNL     1     -11.086  10.412  69.708  1.00  0.00    -0.254 OA 
HETATM    6  C   UNL     1     -10.883   8.102  71.873  1.00  0.00    -0.270 C  
HETATM    7  N   UNL     1     -10.382   8.294  69.380  1.00  0.00    -0.219 N  
HETATM    8  C   UNL     1      -9.663   7.219  68.711  1.00  0.00    -0.151 C  
HETATM    9  C   UNL     1     -11.271   7.754  70.428  1.00  0.00    -0.237 C  
HETATM   10  C   UNL     1     -10.538   5.982  68.913  1.00  0.00    -0.290 C  
HETATM   11  C   UNL     1     -11.201   6.226  70.268  1.00  0.00    -0.455 C  
HETATM   12  O   UNL     1      -9.794   8.892  72.001  1.00  0.00    -0.325 OA 
HETATM   13  O   UNL     1     -11.481   7.670  72.853  1.00  0.00    -0.354 OA 
ENDROOT
BRANCH   3  14
HETATM   14  S   UNL     1      -9.820  10.605  65.084  1.00  0.00    -0.308 SA 
BRANCH  14  15
HETATM   15  C   UNL     1     -10.918  11.856  64.512  1.00  0.00    -0.322 C  
HETATM   16  O   UNL     1     -11.571  11.719  63.485  1.00  0.00    -0.434 OA 
BRANCH  15  17
HETATM   17  C   UNL     1     -11.040  13.074  65.367  1.00  0.00    -0.300 A  
HETATM   18  C   UNL     1     -10.213  14.196  65.197  1.00  0.00    -0.411 A  
HETATM   19  C   UNL     1     -10.353  15.310  66.026  1.00  0.00    -0.327 A  
HETATM   20  C   UNL     1     -11.323  15.317  67.025  1.00  0.00    -0.230 A  
HETATM   21  C   UNL     1     -12.023  13.096  66.366  1.00  0.00    -0.462 A  
HETATM   22  C   UNL     1     -12.159  14.213  67.195  1.00  0.00    -0.432 A  
ENDBRANCH  15  17
ENDBRANCH  14  15
ENDBRANCH   3  14
BRANCH  10  23
HETATM   23  S   UNL     1      -9.509   4.472  68.830  1.00  0.00    -0.161 SA 
BRANCH  23  24
HETATM   24  C   UNL     1      -9.637   3.983  67.117  1.00  0.00    -0.196 A  
HETATM   25  C   UNL     1     -10.390   4.688  66.174  1.00  0.00    -0.310 A  
HETATM   26  C   UNL     1      -9.706   3.149  64.436  1.00  0.00    -0.154 A  
HETATM   27  C   UNL     1     -10.431   4.268  64.841  1.00  0.00    -0.176 A  
HETATM   28  C   UNL     1      -8.935   2.451  65.362  1.00  0.00    -0.127 A  
HETATM   29  C   UNL     1      -8.898   2.869  66.695  1.00  0.00    -0.157 A  
ENDBRANCH  23  24
ENDBRANCH  10  23
TORSDOF 5
ENDMDL
MODEL       60
REMARK 921   NORMALIZED FREE ENERGY PREDICTED BY IDOCK:   -5.76 KCAL/MOL
REMARK 922        TOTAL FREE ENERGY PREDICTED BY IDOCK:   -8.61 KCAL/MOL
REMARK 923 INTER-LIGAND FREE ENERGY PREDICTED BY IDOCK:   -6.98 KCAL/MOL
REMARK 924 INTRA-LIGAND FREE ENERGY PREDICTED BY IDOCK:   -1.64 KCAL/MOL
REMARK 927      BINDING AFFINITY PREDICTED BY RF-SCORE:    0.00 PKD
ROOT
HETATM    1  C   UNL     1      -5.655  12.876  69.456  1.00  0.00    -0.089 C  
HETATM    2  C   UNL     1      -6.670  12.851  68.308  1.00  0.00    -0.093 C  
HETATM    3  C   UNL     1      -6.293  11.883  67.178  1.00  0.00    -0.151 C  
HETATM    4  C   UNL     1      -6.783  14.241  67.696  1.00  0.00    -0.169 C  
HETATM    5  O   UNL     1      -5.795  14.964  67.563  1.00  0.00    -0.325 OA 
HETATM    6  C   UNL     1      -7.980  17.250  67.308  1.00  0.00    -0.187 C  
HETATM    7  N   UNL     1      -8.021  14.701  67.305  1.00  0.00    -0.200 N  
HETATM    8  C   UNL     1      -9.298  14.006  67.392  1.00  0.00    -0.220 C  
HETATM    9  C   UNL     1      -8.155  15.944  66.519  1.00  0.00    -0.235 C  
HETATM   10  C   UNL     1     -10.083  14.482  66.170  1.00  0.00    -0.305 C  
HETATM   11  C   UNL     1      -9.587  15.912  65.956  1.00  0.00    -0.385 C  
HETATM   12  O   UNL     1      -7.688  17.095  68.618  1.00  0.00    -0.240 OA 
HETATM   13  O   UNL     1      -8.132  18.361  66.810  1.00  0.00    -0.235 OA 
ENDROOT
BRANCH   3  14
HETATM   14  S   UNL     1      -6.155  10.184  67.797  1.00  0.00    -0.056 SA 
BRANCH  14  15
HETATM   15  C   UNL     1      -7.728   9.531  67.350  1.00  0.00    -0.095 C  
HETATM   16  O   UNL     1      -8.059   9.395  66.179  1.00  0.00    -0.109 OA 
BRANCH  15  17
HETATM   17  C   UNL     1      -8.619   9.117  68.474  1.00  0.00    -0.129 A  
HETATM   18  C   UNL     1      -8.488   9.643  69.769  1.00  0.00    -0.200 A  
HETATM   19  C   UNL     1      -9.335   9.218  70.794  1.00  0.00    -0.322 A  
HETATM   20  C   UNL     1     -10.325   8.274  70.532  1.00  0.00    -0.217 A  
HETATM   21  C   UNL     1      -9.626   8.177  68.217  1.00  0.00    -0.154 A  
HETATM   22  C   UNL     1     -10.472   7.754  69.246  1.00  0.00    -0.221 A  
ENDBRANCH  15  17
ENDBRANCH  14  15
ENDBRANCH   3  14
BRANCH  10  23
HETATM   23  S   UNL     1     -11.879  14.341  66.491  1.00  0.00    -0.409 SA 
BRANCH  23  24
HETATM   24  C   UNL     1     -11.951  13.387  67.999  1.00  0.00    -0.322 A  
HETATM   25  C   UNL     1     -12.139  13.961  69.260  1.00  0.00    -0.383 A  
HETATM   26  C   UNL     1     -12.115  11.772  70.291  1.00  0.00    -0.426 A  
HETATM   27  C   UNL     1     -12.211  13.158  70.402  1.00  0.00    -0.389 A  
HETATM   28  C   UNL     1     -11.949  11.188  69.038  1.00  0.00    -0.389 A  
HETATM   29  C   UNL     1     -11.872  11.991  67.898  1.00  0.00    -0.320 A  
ENDBRANCH  23  24
ENDBRANCH  10  23
TORSDOF 5
ENDMDL
MODEL       61
REMARK 921   NORMALIZED FREE ENERGY PREDICTED BY IDOCK:   -5.76 KCAL/MOL
REMARK 922        TOTAL FREE ENERGY PREDICTED BY IDOCK:   -8.61 KCAL/MOL
REMARK 923 INTER-LIGAND FREE ENERGY PREDICTED BY IDOCK:   -7.57 KCAL/MOL
REMARK 924 INTRA-LIGAND FREE ENERGY PREDICTED BY IDOCK:   -1.04 KCAL/MOL
REMARK 927      BINDING AFFINITY PREDICTED BY RF-SCORE:    0.00 PKD
ROOT
HETATM    1  C   UNL     1      -6.431  10.887  69.941  1.00  0.00    -0.144 C  
HETATM    2  C   UNL     1      -7.341  11.577  68.918  1.00  0.00    -0.116 C  
HETATM    3  C   UNL     1      -7.673  10.698  67.703  1.00  0.00    -0.097 C  
HETATM    4  C   UNL     1      -6.661  12.835  68.396  1.00  0.00    -0.083 C  
HETATM    5  O   UNL     1      -5.448  12.867  68.188  1.00  0.00    -0.069 OA 
HETATM    6  C   UNL     1      -5.900  16.005  68.306  1.00  0.00    -0.111 C  
HETATM    7  N   UNL     1      -7.420  13.963  68.175  1.00  0.00    -0.111 N  
HETATM    8  C   UNL     1      -8.854  14.125  68.373  1.00  0.00    -0.187 C  
HETATM    9  C   UNL     1      -6.854  15.134  67.476  1.00  0.00    -0.174 C  
HETATM   10  C   UNL     1      -9.290  15.097  67.277  1.00  0.00    -0.203 C  
HETATM   11  C   UNL     1      -8.067  15.993  67.082  1.00  0.00    -0.232 C  
HETATM   12  O   UNL     1      -5.670  15.569  69.564  1.00  0.00    -0.108 OA 
HETATM   13  O   UNL     1      -5.406  17.048  67.888  1.00  0.00    -0.111 OA 
ENDROOT
BRANCH   3  14
HETATM   14  S   UNL     1      -8.513   9.175  68.214  1.00  0.00    -0.125 SA 
BRANCH  14  15
HETATM   15  C   UNL     1      -9.767   9.050  66.985  1.00  0.00    -0.189 C  
HETATM   16  O   UNL     1     -10.105   7.970  66.518  1.00  0.00    -0.260 OA 
BRANCH  15  17
HETATM   17  C   UNL     1     -10.422  10.326  66.572  1.00  0.00    -0.241 A  
HETATM   18  C   UNL     1     -11.155  11.119  67.470  1.00  0.00    -0.353 A  
HETATM   19  C   UNL     1     -11.761  12.299  67.038  1.00  0.00    -0.399 A  
HETATM   20  C   UNL     1     -11.634  12.703  65.712  1.00  0.00    -0.431 A  
HETATM   21  C   UNL     1     -10.288  10.748  65.242  1.00  0.00    -0.327 A  
HETATM   22  C   UNL     1     -10.898  11.930  64.814  1.00  0.00    -0.359 A  
ENDBRANCH  15  17
ENDBRANCH  14  15
ENDBRANCH   3  14
BRANCH  10  23
HETATM   23  S   UNL     1     -10.806  15.980  67.795  1.00  0.00    -0.306 SA 
BRANCH  23  24
HETATM   24  C   UNL     1     -10.380  17.698  67.557  1.00  0.00    -0.365 A  
HETATM   25  C   UNL     1     -10.492  18.351  66.326  1.00  0.00    -0.421 A  
HETATM   26  C   UNL     1      -9.741  20.423  67.327  1.00  0.00    -0.602 A  
HETATM   27  C   UNL     1     -10.165  19.706  66.210  1.00  0.00    -0.598 A  
HETATM   28  C   UNL     1      -9.646  19.788  68.562  1.00  0.00    -0.434 A  
HETATM   29  C   UNL     1      -9.968  18.434  68.677  1.00  0.00    -0.415 A  
ENDBRANCH  23  24
ENDBRANCH  10  23
TORSDOF 5
ENDMDL
MODEL       62
REMARK 921   NORMALIZED FREE ENERGY PREDICTED BY IDOCK:   -5.76 KCAL/MOL
REMARK 922        TOTAL FREE ENERGY PREDICTED BY IDOCK:   -8.61 KCAL/MOL
REMARK 923 INTER-LIGAND FREE ENERGY PREDICTED BY IDOCK:   -7.41 KCAL/MOL
REMARK 924 INTRA-LIGAND FREE ENERGY PREDICTED BY IDOCK:   -1.20 KCAL/MOL
REMARK 927      BINDING AFFINITY PREDICTED BY RF-SCORE:    0.00 PKD
ROOT
HETATM    1  C   UNL     1      -8.551  11.854  65.811  1.00  0.00     0.301 C  
HETATM    2  C   UNL     1      -9.600  12.555  66.682  1.00  0.00    -0.239 C  
HETATM    3  C   UNL     1     -10.949  11.821  66.727  1.00  0.00    -0.288 C  
HETATM    4  C   UNL     1      -9.862  13.953  66.139  1.00  0.00    -0.302 C  
HETATM    5  O   UNL     1      -9.892  14.175  64.929  1.00  0.00    -0.216 OA 
HETATM    6  C   UNL     1      -9.454  17.177  65.857  1.00  0.00    -0.044 C  
HETATM    7  N   UNL     1     -10.048  14.990  67.026  1.00  0.00    -0.241 N  
HETATM    8  C   UNL     1     -10.036  14.932  68.482  1.00  0.00    -0.232 C  
HETATM    9  C   UNL     1     -10.511  16.313  66.561  1.00  0.00    -0.290 C  
HETATM   10  C   UNL     1     -11.056  15.983  68.921  1.00  0.00    -0.331 C  
HETATM   11  C   UNL     1     -10.965  17.052  67.832  1.00  0.00    -0.226 C  
HETATM   12  O   UNL     1      -8.240  16.601  65.720  1.00  0.00    -0.344 OA 
HETATM   13  O   UNL     1      -9.667  18.324  65.478  1.00  0.00    -0.254 OA 
ENDROOT
BRANCH   3  14
HETATM   14  S   UNL     1     -10.753  10.143  67.385  1.00  0.00    -0.258 SA 
BRANCH  14  15
HETATM   15  C   UNL     1     -10.265  10.483  69.043  1.00  0.00    -0.216 C  
HETATM   16  O   UNL     1      -9.131  10.855  69.316  1.00  0.00    -0.110 OA 
BRANCH  15  17
HETATM   17  C   UNL     1     -11.319  10.330  70.089  1.00  0.00    -0.388 A  
HETATM   18  C   UNL     1     -12.151  11.392  70.477  1.00  0.00    -0.487 A  
HETATM   19  C   UNL     1     -13.116  11.208  71.469  1.00  0.00    -0.489 A  
HETATM   20  C   UNL     1     -13.263   9.963  72.075  1.00  0.00    -0.555 A  
HETATM   21  C   UNL     1     -11.483   9.077  70.695  1.00  0.00    -0.291 A  
HETATM   22  C   UNL     1     -12.449   8.898  71.689  1.00  0.00    -0.403 A  
ENDBRANCH  15  17
ENDBRANCH  14  15
ENDBRANCH   3  14
BRANCH  10  23
HETATM   23  S   UNL     1     -10.652  16.576  70.604  1.00  0.00     0.717 SA 
BRANCH  23  24
HETATM   24  C   UNL     1     -12.025  15.990  71.584  1.00  0.00    -0.499 A  
HETATM   25  C   UNL     1     -12.138  16.221  72.958  1.00  0.00    -0.629 A  
HETATM   26  C   UNL     1     -14.268  15.073  73.004  1.00  0.00     0.572 A  
HETATM   27  C   UNL     1     -13.251  15.756  73.667  1.00  0.00    -0.511 A  
HETATM   28  C   UNL     1     -14.177  14.856  71.632  1.00  0.00    -0.633 A  
HETATM   29  C   UNL     1     -13.063  15.316  70.926  1.00  0.00    -0.523 A  
ENDBRANCH  23  24
ENDBRANCH  10  23
TORSDOF 5
ENDMDL
MODEL       63
REMARK 921   NORMALIZED FREE ENERGY PREDICTED BY IDOCK:   -5.76 KCAL/MOL
REMARK 922        TOTAL FREE ENERGY PREDICTED BY IDOCK:   -8.61 KCAL/MOL
REMARK 923 INTER-LIGAND FREE ENERGY PREDICTED BY IDOCK:   -7.50 KCAL/MOL
REMARK 924 INTRA-LIGAND FREE ENERGY PREDICTED BY IDOCK:   -1.11 KCAL/MOL
REMARK 927      BINDING AFFINITY PREDICTED BY RF-SCORE:    0.00 PKD
ROOT
HETATM    1  C   UNL     1      -7.259  10.319  68.703  1.00  0.00    -0.081 C  
HETATM    2  C   UNL     1      -8.058  11.380  67.937  1.00  0.00    -0.126 C  
HETATM    3  C   UNL     1      -8.569  10.895  66.572  1.00  0.00    -0.156 C  
HETATM    4  C   UNL     1      -7.179  12.598  67.686  1.00  0.00    -0.142 C  
HETATM    5  O   UNL     1      -5.985  12.480  67.411  1.00  0.00    -0.142 OA 
HETATM    6  C   UNL     1      -5.873  15.522  68.302  1.00  0.00    -0.114 C  
HETATM    7  N   UNL     1      -7.733  13.855  67.791  1.00  0.00    -0.155 N  
HETATM    8  C   UNL     1      -9.110  14.198  68.117  1.00  0.00    -0.193 C  
HETATM    9  C   UNL     1      -6.986  15.052  67.355  1.00  0.00    -0.152 C  
HETATM   10  C   UNL     1      -9.394  15.468  67.315  1.00  0.00    -0.212 C  
HETATM   11  C   UNL     1      -8.038  16.170  67.258  1.00  0.00    -0.202 C  
HETATM   12  O   UNL     1      -5.693  14.758  69.402  1.00  0.00    -0.093 OA 
HETATM   13  O   UNL     1      -5.213  16.539  68.113  1.00  0.00    -0.100 OA 
ENDROOT
BRANCH   3  14
HETATM   14  S   UNL     1      -9.652   9.453  66.760  1.00  0.00    -0.194 SA 
BRANCH  14  15
HETATM   15  C   UNL     1     -10.868  10.083  67.867  1.00  0.00    -0.271 C  
HETATM   16  O   UNL     1     -11.677  10.934  67.517  1.00  0.00    -0.543 OA 
BRANCH  15  17
HETATM   17  C   UNL     1     -10.884   9.498  69.240  1.00  0.00    -0.211 A  
HETATM   18  C   UNL     1     -11.490  10.148  70.326  1.00  0.00    -0.381 A  
HETATM   19  C   UNL     1     -11.471   9.569  71.596  1.00  0.00    -0.433 A  
HETATM   20  C   UNL     1     -10.856   8.335  71.790  1.00  0.00    -0.332 A  
HETATM   21  C   UNL     1     -10.279   8.250  69.442  1.00  0.00    -0.204 A  
HETATM   22  C   UNL     1     -10.261   7.675  70.715  1.00  0.00    -0.201 A  
ENDBRANCH  15  17
ENDBRANCH  14  15
ENDBRANCH   3  14
BRANCH  10  23
HETATM   23  S   UNL     1     -10.717  16.434  68.129  1.00  0.00    -0.345 SA 
BRANCH  23  24
HETATM   24  C   UNL     1     -10.295  18.123  67.731  1.00  0.00    -0.399 A  
HETATM   25  C   UNL     1     -10.329  18.634  66.430  1.00  0.00    -0.472 A  
HETATM   26  C   UNL     1      -9.671  20.818  67.241  1.00  0.00    -0.487 A  
HETATM   27  C   UNL     1     -10.009  19.974  66.185  1.00  0.00    -0.580 A  
HETATM   28  C   UNL     1      -9.655  20.325  68.543  1.00  0.00    -0.100 A  
HETATM   29  C   UNL     1      -9.969  18.986  68.786  1.00  0.00    -0.475 A  
ENDBRANCH  23  24
ENDBRANCH  10  23
TORSDOF 5
ENDMDL
MODEL       64
REMARK 921   NORMALIZED FREE ENERGY PREDICTED BY IDOCK:   -5.75 KCAL/MOL
REMARK 922        TOTAL FREE ENERGY PREDICTED BY IDOCK:   -8.59 KCAL/MOL
REMARK 923 INTER-LIGAND FREE ENERGY PREDICTED BY IDOCK:   -6.71 KCAL/MOL
REMARK 924 INTRA-LIGAND FREE ENERGY PREDICTED BY IDOCK:   -1.88 KCAL/MOL
REMARK 927      BINDING AFFINITY PREDICTED BY RF-SCORE:    0.00 PKD
ROOT
HETATM    1  C   UNL     1     -13.407  10.106  71.192  1.00  0.00    -0.372 C  
HETATM    2  C   UNL     1     -12.029   9.828  70.581  1.00  0.00    -0.340 C  
HETATM    3  C   UNL     1     -10.965   9.442  71.618  1.00  0.00    -0.312 C  
HETATM    4  C   UNL     1     -11.529  11.074  69.861  1.00  0.00    -0.320 C  
HETATM    5  O   UNL     1     -11.731  12.200  70.316  1.00  0.00    -0.279 OA 
HETATM    6  C   UNL     1     -11.087  13.098  67.342  1.00  0.00    -0.275 C  
HETATM    7  N   UNL     1     -10.857  10.932  68.667  1.00  0.00    -0.200 N  
HETATM    8  C   UNL     1     -10.536   9.696  67.966  1.00  0.00    -0.243 C  
HETATM    9  C   UNL     1     -10.173  12.080  68.040  1.00  0.00    -0.198 C  
HETATM   10  C   UNL     1      -9.192   9.971  67.292  1.00  0.00    -0.141 C  
HETATM   11  C   UNL     1      -9.243  11.466  66.980  1.00  0.00    -0.174 C  
HETATM   12  O   UNL     1     -12.410  12.832  67.422  1.00  0.00    -0.304 OA 
HETATM   13  O   UNL     1     -10.664  14.065  66.717  1.00  0.00    -0.282 OA 
ENDROOT
BRANCH   3  14
HETATM   14  S   UNL     1     -11.452   7.947  72.521  1.00  0.00    -0.398 SA 
BRANCH  14  15
HETATM   15  C   UNL     1     -11.341   6.732  71.252  1.00  0.00    -0.289 C  
HETATM   16  O   UNL     1     -12.262   6.531  70.471  1.00  0.00    -0.325 OA 
BRANCH  15  17
HETATM   17  C   UNL     1     -10.050   5.989  71.155  1.00  0.00    -0.241 A  
HETATM   18  C   UNL     1      -9.968   4.600  71.339  1.00  0.00    -0.267 A  
HETATM   19  C   UNL     1      -8.737   3.946  71.251  1.00  0.00    -0.127 A  
HETATM   20  C   UNL     1      -7.582   4.672  70.972  1.00  0.00    -0.072 A  
HETATM   21  C   UNL     1      -8.884   6.709  70.861  1.00  0.00    -0.146 A  
HETATM   22  C   UNL     1      -7.654   6.051  70.776  1.00  0.00    -0.093 A  
ENDBRANCH  15  17
ENDBRANCH  14  15
ENDBRANCH   3  14
BRANCH  10  23
HETATM   23  S   UNL     1      -9.001   8.894  65.825  1.00  0.00    -0.208 SA 
BRANCH  23  24
HETATM   24  C   UNL     1      -9.191   7.250  66.497  1.00  0.00    -0.157 A  
HETATM   25  C   UNL     1     -10.436   6.660  66.737  1.00  0.00    -0.298 A  
HETATM   26  C   UNL     1      -9.358   4.630  67.494  1.00  0.00    -0.166 A  
HETATM   27  C   UNL     1     -10.518   5.359  67.242  1.00  0.00    -0.274 A  
HETATM   28  C   UNL     1      -8.113   5.199  67.238  1.00  0.00    -0.104 A  
HETATM   29  C   UNL     1      -8.031   6.501  66.738  1.00  0.00    -0.108 A  
ENDBRANCH  23  24
ENDBRANCH  10  23
TORSDOF 5
ENDMDL
MODEL       65
REMARK 921   NORMALIZED FREE ENERGY PREDICTED BY IDOCK:   -5.74 KCAL/MOL
REMARK 922        TOTAL FREE ENERGY PREDICTED BY IDOCK:   -8.59 KCAL/MOL
REMARK 923 INTER-LIGAND FREE ENERGY PREDICTED BY IDOCK:   -7.01 KCAL/MOL
REMARK 924 INTRA-LIGAND FREE ENERGY PREDICTED BY IDOCK:   -1.58 KCAL/MOL
REMARK 927      BINDING AFFINITY PREDICTED BY RF-SCORE:    0.00 PKD
ROOT
HETATM    1  C   UNL     1     -11.897  13.725  70.569  1.00  0.00    -0.296 C  
HETATM    2  C   UNL     1     -11.398  12.872  69.396  1.00  0.00    -0.265 C  
HETATM    3  C   UNL     1     -12.096  13.190  68.066  1.00  0.00    -0.197 C  
HETATM    4  C   UNL     1     -11.643  11.399  69.696  1.00  0.00    -0.330 C  
HETATM    5  O   UNL     1     -12.663  11.025  70.275  1.00  0.00    -0.270 OA 
HETATM    6  C   UNL     1     -10.939   8.416  70.812  1.00  0.00    -0.247 C  
HETATM    7  N   UNL     1     -10.691  10.475  69.328  1.00  0.00    -0.218 N  
HETATM    8  C   UNL     1      -9.424  10.720  68.652  1.00  0.00    -0.188 C  
HETATM    9  C   UNL     1     -10.970   9.027  69.403  1.00  0.00    -0.065 C  
HETATM   10  C   UNL     1      -9.207   9.488  67.774  1.00  0.00    -0.124 C  
HETATM   11  C   UNL     1      -9.864   8.359  68.567  1.00  0.00    -0.186 C  
HETATM   12  O   UNL     1     -10.695   9.292  71.812  1.00  0.00    -0.363 OA 
HETATM   13  O   UNL     1     -11.081   7.217  71.029  1.00  0.00    -0.248 OA 
ENDROOT
BRANCH   3  14
HETATM   14  S   UNL     1     -11.846  14.925  67.601  1.00  0.00    -0.139 SA 
BRANCH  14  15
HETATM   15  C   UNL     1     -10.660  14.762  66.310  1.00  0.00    -0.305 C  
HETATM   16  O   UNL     1      -9.667  15.477  66.254  1.00  0.00    -0.259 OA 
BRANCH  15  17
HETATM   17  C   UNL     1     -10.909  13.681  65.311  1.00  0.00    -0.324 A  
HETATM   18  C   UNL     1     -11.983  13.727  64.407  1.00  0.00    -0.480 A  
HETATM   19  C   UNL     1     -12.186  12.688  63.498  1.00  0.00    -0.638 A  
HETATM   20  C   UNL     1     -11.316  11.602  63.475  1.00  0.00    -0.447 A  
HETATM   21  C   UNL     1     -10.031  12.590  65.272  1.00  0.00    -0.226 A  
HETATM   22  C   UNL     1     -10.239  11.551  64.360  1.00  0.00    -0.350 A  
ENDBRANCH  15  17
ENDBRANCH  14  15
ENDBRANCH   3  14
BRANCH  10  23
HETATM   23  S   UNL     1      -7.420   9.256  67.460  1.00  0.00    -0.088 SA 
BRANCH  23  24
HETATM   24  C   UNL     1      -7.305   9.326  65.679  1.00  0.00    -0.093 A  
HETATM   25  C   UNL     1      -6.429  10.179  65.001  1.00  0.00    -0.126 A  
HETATM   26  C   UNL     1      -7.171   9.296  62.874  1.00  0.00    -0.101 A  
HETATM   27  C   UNL     1      -6.368  10.171  63.604  1.00  0.00    -0.133 A  
HETATM   28  C   UNL     1      -8.032   8.428  63.538  1.00  0.00    -0.159 A  
HETATM   29  C   UNL     1      -8.095   8.440  64.934  1.00  0.00    -0.149 A  
ENDBRANCH  23  24
ENDBRANCH  10  23
TORSDOF 5
ENDMDL
MODEL       66
REMARK 921   NORMALIZED FREE ENERGY PREDICTED BY IDOCK:   -5.74 KCAL/MOL
REMARK 922        TOTAL FREE ENERGY PREDICTED BY IDOCK:   -8.59 KCAL/MOL
REMARK 923 INTER-LIGAND FREE ENERGY PREDICTED BY IDOCK:   -7.23 KCAL/MOL
REMARK 924 INTRA-LIGAND FREE ENERGY PREDICTED BY IDOCK:   -1.36 KCAL/MOL
REMARK 927      BINDING AFFINITY PREDICTED BY RF-SCORE:    0.00 PKD
ROOT
HETATM    1  C   UNL     1     -12.406  14.078  67.396  1.00  0.00    -0.150 C  
HETATM    2  C   UNL     1     -10.958  13.650  67.131  1.00  0.00    -0.299 C  
HETATM    3  C   UNL     1     -10.523  13.832  65.670  1.00  0.00    -0.305 C  
HETATM    4  C   UNL     1     -10.791  12.176  67.474  1.00  0.00    -0.243 C  
HETATM    5  O   UNL     1     -11.677  11.358  67.230  1.00  0.00    -0.577 OA 
HETATM    6  C   UNL     1     -10.111   9.603  69.360  1.00  0.00    -0.203 C  
HETATM    7  N   UNL     1      -9.630  11.761  68.090  1.00  0.00    -0.187 N  
HETATM    8  C   UNL     1      -8.483  12.573  68.469  1.00  0.00    -0.061 C  
HETATM    9  C   UNL     1      -9.330  10.325  68.252  1.00  0.00    -0.138 C  
HETATM   10  C   UNL     1      -7.277  11.651  68.287  1.00  0.00    -0.085 C  
HETATM   11  C   UNL     1      -7.833  10.263  68.603  1.00  0.00    -0.101 C  
HETATM   12  O   UNL     1     -11.005  10.368  70.024  1.00  0.00    -0.276 OA 
HETATM   13  O   UNL     1      -9.921   8.429  69.661  1.00  0.00    -0.185 OA 
ENDROOT
BRANCH   3  14
HETATM   14  S   UNL     1     -10.661  15.567  65.163  1.00  0.00    -0.438 SA 
BRANCH  14  15
HETATM   15  C   UNL     1      -9.386  16.306  66.127  1.00  0.00    -0.339 C  
HETATM   16  O   UNL     1      -8.278  15.796  66.225  1.00  0.00    -0.243 OA 
BRANCH  15  17
HETATM   17  C   UNL     1      -9.718  17.604  66.784  1.00  0.00    -0.300 A  
HETATM   18  C   UNL     1     -10.381  18.640  66.107  1.00  0.00    -0.481 A  
HETATM   19  C   UNL     1     -10.661  19.844  66.757  1.00  0.00    -0.536 A  
HETATM   20  C   UNL     1     -10.290  20.019  68.087  1.00  0.00    -0.503 A  
HETATM   21  C   UNL     1      -9.360  17.785  68.127  1.00  0.00    -0.281 A  
HETATM   22  C   UNL     1      -9.641  18.992  68.773  1.00  0.00    -0.451 A  
ENDBRANCH  15  17
ENDBRANCH  14  15
ENDBRANCH   3  14
BRANCH  10  23
HETATM   23  S   UNL     1      -5.911  12.190  69.379  1.00  0.00    -0.105 SA 
BRANCH  23  24
HETATM   24  C   UNL     1      -5.856  13.956  69.124  1.00  0.00    -0.085 A  
HETATM   25  C   UNL     1      -5.251  14.551  68.013  1.00  0.00    -0.105 A  
HETATM   26  C   UNL     1      -5.894  16.746  68.804  1.00  0.00    -0.141 A  
HETATM   27  C   UNL     1      -5.262  15.941  67.858  1.00  0.00    -0.138 A  
HETATM   28  C   UNL     1      -6.518  16.164  69.903  1.00  0.00    -0.103 A  
HETATM   29  C   UNL     1      -6.502  14.776  70.060  1.00  0.00    -0.169 A  
ENDBRANCH  23  24
ENDBRANCH  10  23
TORSDOF 5
ENDMDL
MODEL       67
REMARK 921   NORMALIZED FREE ENERGY PREDICTED BY IDOCK:   -5.74 KCAL/MOL
REMARK 922        TOTAL FREE ENERGY PREDICTED BY IDOCK:   -8.59 KCAL/MOL
REMARK 923 INTER-LIGAND FREE ENERGY PREDICTED BY IDOCK:   -7.62 KCAL/MOL
REMARK 924 INTRA-LIGAND FREE ENERGY PREDICTED BY IDOCK:   -0.97 KCAL/MOL
REMARK 927      BINDING AFFINITY PREDICTED BY RF-SCORE:    0.00 PKD
ROOT
HETATM    1  C   UNL     1     -10.298   6.095  68.477  1.00  0.00    -0.248 C  
HETATM    2  C   UNL     1     -10.110   7.524  68.997  1.00  0.00    -0.192 C  
HETATM    3  C   UNL     1      -8.665   7.839  69.413  1.00  0.00    -0.135 C  
HETATM    4  C   UNL     1     -10.992   7.743  70.219  1.00  0.00    -0.247 C  
HETATM    5  O   UNL     1     -11.161   6.854  71.053  1.00  0.00    -0.246 OA 
HETATM    6  C   UNL     1     -13.678   8.613  71.852  1.00  0.00    -0.421 C  
HETATM    7  N   UNL     1     -11.627   8.955  70.377  1.00  0.00    -0.168 N  
HETATM    8  C   UNL     1     -11.563  10.116  69.499  1.00  0.00    -0.118 C  
HETATM    9  C   UNL     1     -12.317   9.292  71.638  1.00  0.00    -0.372 C  
HETATM   10  C   UNL     1     -11.664  11.318  70.438  1.00  0.00    -0.304 C  
HETATM   11  C   UNL     1     -12.544  10.812  71.580  1.00  0.00    -0.500 C  
HETATM   12  O   UNL     1     -14.056   7.762  70.872  1.00  0.00    -0.092 OA 
HETATM   13  O   UNL     1     -14.402   8.845  72.815  1.00  0.00    -0.600 OA 
ENDROOT
BRANCH   3  14
HETATM   14  S   UNL     1      -7.528   7.632  68.017  1.00  0.00    -0.106 SA 
BRANCH  14  15
HETATM   15  C   UNL     1      -8.410   8.456  66.735  1.00  0.00    -0.109 C  
HETATM   16  O   UNL     1      -8.880   7.847  65.783  1.00  0.00    -0.163 OA 
BRANCH  15  17
HETATM   17  C   UNL     1      -8.588   9.930  66.892  1.00  0.00    -0.131 A  
HETATM   18  C   UNL     1      -9.700  10.612  66.373  1.00  0.00    -0.241 A  
HETATM   19  C   UNL     1      -9.820  11.993  66.532  1.00  0.00    -0.225 A  
HETATM   20  C   UNL     1      -8.838  12.703  67.219  1.00  0.00    -0.196 A  
HETATM   21  C   UNL     1      -7.612  10.651  67.594  1.00  0.00    -0.092 A  
HETATM   22  C   UNL     1      -7.735  12.034  67.751  1.00  0.00    -0.139 A  
ENDBRANCH  15  17
ENDBRANCH  14  15
ENDBRANCH   3  14
BRANCH  10  23
HETATM   23  S   UNL     1     -12.343  12.757  69.534  1.00  0.00     0.172 SA 
BRANCH  23  24
HETATM   24  C   UNL     1     -12.665  13.940  70.833  1.00  0.00    -0.340 A  
HETATM   25  C   UNL     1     -13.822  13.919  71.618  1.00  0.00    -0.376 A  
HETATM   26  C   UNL     1     -13.026  15.818  72.890  1.00  0.00    -0.600 A  
HETATM   27  C   UNL     1     -14.005  14.859  72.636  1.00  0.00    -0.457 A  
HETATM   28  C   UNL     1     -11.861  15.835  72.128  1.00  0.00    -0.593 A  
HETATM   29  C   UNL     1     -11.680  14.898  71.108  1.00  0.00    -0.377 A  
ENDBRANCH  23  24
ENDBRANCH  10  23
TORSDOF 5
ENDMDL
MODEL       68
REMARK 921   NORMALIZED FREE ENERGY PREDICTED BY IDOCK:   -5.74 KCAL/MOL
REMARK 922        TOTAL FREE ENERGY PREDICTED BY IDOCK:   -8.58 KCAL/MOL
REMARK 923 INTER-LIGAND FREE ENERGY PREDICTED BY IDOCK:   -7.45 KCAL/MOL
REMARK 924 INTRA-LIGAND FREE ENERGY PREDICTED BY IDOCK:   -1.13 KCAL/MOL
REMARK 927      BINDING AFFINITY PREDICTED BY RF-SCORE:    0.00 PKD
ROOT
HETATM    1  C   UNL     1     -13.719   9.740  71.081  1.00  0.00    -0.144 C  
HETATM    2  C   UNL     1     -12.535  10.593  70.612  1.00  0.00    -0.462 C  
HETATM    3  C   UNL     1     -11.170   9.927  70.843  1.00  0.00    -0.360 C  
HETATM    4  C   UNL     1     -12.527  11.916  71.367  1.00  0.00    -0.155 C  
HETATM    5  O   UNL     1     -12.831  11.975  72.558  1.00  0.00     0.038 OA 
HETATM    6  C   UNL     1     -13.233  15.054  71.909  1.00  0.00    -0.363 C  
HETATM    7  N   UNL     1     -12.194  13.069  70.691  1.00  0.00    -0.359 N  
HETATM    8  C   UNL     1     -11.823  13.206  69.289  1.00  0.00    -0.323 C  
HETATM    9  C   UNL     1     -11.968  14.335  71.416  1.00  0.00    -0.196 C  
HETATM   10  C   UNL     1     -10.805  14.346  69.267  1.00  0.00    -0.239 C  
HETATM   11  C   UNL     1     -11.255  15.255  70.410  1.00  0.00    -0.325 C  
HETATM   12  O   UNL     1     -14.395  14.416  71.647  1.00  0.00    -0.442 OA 
HETATM   13  O   UNL     1     -13.212  16.148  72.464  1.00  0.00    -0.396 OA 
ENDROOT
BRANCH   3  14
HETATM   14  S   UNL     1     -11.063   8.346  69.963  1.00  0.00    -0.079 SA 
BRANCH  14  15
HETATM   15  C   UNL     1      -9.551   8.548  69.084  1.00  0.00    -0.167 C  
HETATM   16  O   UNL     1      -8.676   7.691  69.104  1.00  0.00    -0.138 OA 
BRANCH  15  17
HETATM   17  C   UNL     1      -9.409   9.800  68.284  1.00  0.00    -0.134 A  
HETATM   18  C   UNL     1     -10.294  10.131  67.246  1.00  0.00    -0.291 A  
HETATM   19  C   UNL     1     -10.118  11.307  66.515  1.00  0.00    -0.256 A  
HETATM   20  C   UNL     1      -9.065  12.165  66.820  1.00  0.00    -0.205 A  
HETATM   21  C   UNL     1      -8.360  10.677  68.593  1.00  0.00    -0.137 A  
HETATM   22  C   UNL     1      -8.187  11.852  67.858  1.00  0.00    -0.150 A  
ENDBRANCH  15  17
ENDBRANCH  14  15
ENDBRANCH   3  14
BRANCH  10  23
HETATM   23  S   UNL     1     -10.799  15.142  67.620  1.00  0.00    -0.302 SA 
BRANCH  23  24
HETATM   24  C   UNL     1     -10.144  16.769  67.953  1.00  0.00    -0.284 A  
HETATM   25  C   UNL     1      -8.958  16.986  68.662  1.00  0.00    -0.267 A  
HETATM   26  C   UNL     1      -9.181  19.377  68.356  1.00  0.00    -0.415 A  
HETATM   27  C   UNL     1      -8.484  18.285  68.870  1.00  0.00    -0.159 A  
HETATM   28  C   UNL     1     -10.352  19.171  67.631  1.00  0.00    -0.521 A  
HETATM   29  C   UNL     1     -10.828  17.874  67.427  1.00  0.00    -0.218 A  
ENDBRANCH  23  24
ENDBRANCH  10  23
TORSDOF 5
ENDMDL
MODEL       69
REMARK 921   NORMALIZED FREE ENERGY PREDICTED BY IDOCK:   -5.73 KCAL/MOL
REMARK 922        TOTAL FREE ENERGY PREDICTED BY IDOCK:   -8.58 KCAL/MOL
REMARK 923 INTER-LIGAND FREE ENERGY PREDICTED BY IDOCK:   -7.18 KCAL/MOL
REMARK 924 INTRA-LIGAND FREE ENERGY PREDICTED BY IDOCK:   -1.40 KCAL/MOL
REMARK 927      BINDING AFFINITY PREDICTED BY RF-SCORE:    0.00 PKD
ROOT
HETATM    1  C   UNL     1      -6.909  10.424  70.381  1.00  0.00    -0.073 C  
HETATM    2  C   UNL     1      -7.730  10.926  69.188  1.00  0.00    -0.127 C  
HETATM    3  C   UNL     1      -7.707   9.973  67.984  1.00  0.00    -0.089 C  
HETATM    4  C   UNL     1      -7.179  12.266  68.717  1.00  0.00    -0.098 C  
HETATM    5  O   UNL     1      -5.970  12.492  68.708  1.00  0.00    -0.061 OA 
HETATM    6  C   UNL     1      -6.927  15.515  68.582  1.00  0.00    -0.116 C  
HETATM    7  N   UNL     1      -8.060  13.246  68.315  1.00  0.00    -0.151 N  
HETATM    8  C   UNL     1      -9.513  13.174  68.267  1.00  0.00    -0.210 C  
HETATM    9  C   UNL     1      -7.576  14.475  67.656  1.00  0.00    -0.182 C  
HETATM   10  C   UNL     1      -9.905  14.030  67.064  1.00  0.00    -0.260 C  
HETATM   11  C   UNL     1      -8.826  15.111  67.023  1.00  0.00    -0.258 C  
HETATM   12  O   UNL     1      -6.848  15.155  69.882  1.00  0.00    -0.181 OA 
HETATM   13  O   UNL     1      -6.542  16.613  68.194  1.00  0.00    -0.136 OA 
ENDROOT
BRANCH   3  14
HETATM   14  S   UNL     1      -8.369   8.346  68.432  1.00  0.00    -0.132 SA 
BRANCH  14  15
HETATM   15  C   UNL     1     -10.101   8.654  68.370  1.00  0.00    -0.191 C  
HETATM   16  O   UNL     1     -10.701   8.742  67.307  1.00  0.00    -0.276 OA 
BRANCH  15  17
HETATM   17  C   UNL     1     -10.803   8.765  69.683  1.00  0.00    -0.175 A  
HETATM   18  C   UNL     1     -11.169   7.639  70.436  1.00  0.00    -0.258 A  
HETATM   19  C   UNL     1     -11.836   7.788  71.653  1.00  0.00    -0.321 A  
HETATM   20  C   UNL     1     -12.133   9.061  72.133  1.00  0.00    -0.412 A  
HETATM   21  C   UNL     1     -11.095  10.043  70.180  1.00  0.00    -0.371 A  
HETATM   22  C   UNL     1     -11.763  10.188  71.398  1.00  0.00    -0.373 A  
ENDBRANCH  15  17
ENDBRANCH  14  15
ENDBRANCH   3  14
BRANCH  10  23
HETATM   23  S   UNL     1     -11.608  14.664  67.280  1.00  0.00    -0.375 SA 
BRANCH  23  24
HETATM   24  C   UNL     1     -11.770  14.807  69.053  1.00  0.00    -0.312 A  
HETATM   25  C   UNL     1     -11.364  15.937  69.770  1.00  0.00    -0.347 A  
HETATM   26  C   UNL     1     -12.139  14.939  71.834  1.00  0.00    -0.435 A  
HETATM   27  C   UNL     1     -11.539  15.998  71.156  1.00  0.00    -0.492 A  
HETATM   28  C   UNL     1     -12.567  13.818  71.127  1.00  0.00    -0.452 A  
HETATM   29  C   UNL     1     -12.386  13.755  69.744  1.00  0.00    -0.311 A  
ENDBRANCH  23  24
ENDBRANCH  10  23
TORSDOF 5
ENDMDL
MODEL       70
REMARK 921   NORMALIZED FREE ENERGY PREDICTED BY IDOCK:   -5.71 KCAL/MOL
REMARK 922        TOTAL FREE ENERGY PREDICTED BY IDOCK:   -8.54 KCAL/MOL
REMARK 923 INTER-LIGAND FREE ENERGY PREDICTED BY IDOCK:   -7.07 KCAL/MOL
REMARK 924 INTRA-LIGAND FREE ENERGY PREDICTED BY IDOCK:   -1.47 KCAL/MOL
REMARK 927      BINDING AFFINITY PREDICTED BY RF-SCORE:    0.00 PKD
ROOT
HETATM    1  C   UNL     1      -9.867   5.129  70.235  1.00  0.00    -0.295 C  
HETATM    2  C   UNL     1      -9.708   6.654  70.212  1.00  0.00    -0.182 C  
HETATM    3  C   UNL     1      -8.303   7.129  70.613  1.00  0.00    -0.126 C  
HETATM    4  C   UNL     1     -10.695   7.285  71.184  1.00  0.00    -0.228 C  
HETATM    5  O   UNL     1     -10.953   6.759  72.266  1.00  0.00    -0.228 OA 
HETATM    6  C   UNL     1     -13.508   8.634  72.135  1.00  0.00    -0.398 C  
HETATM    7  N   UNL     1     -11.325   8.457  70.829  1.00  0.00    -0.268 N  
HETATM    8  C   UNL     1     -11.165   9.218  69.598  1.00  0.00    -0.041 C  
HETATM    9  C   UNL     1     -12.124   9.217  71.811  1.00  0.00    -0.376 C  
HETATM   10  C   UNL     1     -11.336  10.678  70.018  1.00  0.00    -0.324 C  
HETATM   11  C   UNL     1     -12.324  10.606  71.181  1.00  0.00    -0.505 C  
HETATM   12  O   UNL     1     -13.806   7.477  71.504  1.00  0.00    -0.390 OA 
HETATM   13  O   UNL     1     -14.314   9.187  72.876  1.00  0.00    -0.519 OA 
ENDROOT
BRANCH   3  14
HETATM   14  S   UNL     1      -7.045   6.450  69.498  1.00  0.00    -0.075 SA 
BRANCH  14  15
HETATM   15  C   UNL     1      -6.581   7.888  68.594  1.00  0.00    -0.057 C  
HETATM   16  O   UNL     1      -5.442   8.336  68.639  1.00  0.00    -0.034 OA 
BRANCH  15  17
HETATM   17  C   UNL     1      -7.638   8.507  67.742  1.00  0.00    -0.098 A  
HETATM   18  C   UNL     1      -8.455   7.748  66.889  1.00  0.00    -0.125 A  
HETATM   19  C   UNL     1      -9.424   8.370  66.100  1.00  0.00    -0.263 A  
HETATM   20  C   UNL     1      -9.592   9.751  66.163  1.00  0.00    -0.287 A  
HETATM   21  C   UNL     1      -7.824   9.895  67.809  1.00  0.00    -0.094 A  
HETATM   22  C   UNL     1      -8.795  10.514  67.016  1.00  0.00    -0.142 A  
ENDBRANCH  15  17
ENDBRANCH  14  15
ENDBRANCH   3  14
BRANCH  10  23
HETATM   23  S   UNL     1     -11.909  11.673  68.594  1.00  0.00    -0.257 SA 
BRANCH  23  24
HETATM   24  C   UNL     1     -11.397  13.330  69.019  1.00  0.00    -0.285 A  
HETATM   25  C   UNL     1     -11.872  14.013  70.143  1.00  0.00    -0.377 A  
HETATM   26  C   UNL     1     -10.464  15.910  69.618  1.00  0.00    -0.295 A  
HETATM   27  C   UNL     1     -11.414  15.301  70.436  1.00  0.00    -0.330 A  
HETATM   28  C   UNL     1      -9.969  15.231  68.508  1.00  0.00    -0.222 A  
HETATM   29  C   UNL     1     -10.430  13.946  68.214  1.00  0.00    -0.252 A  
ENDBRANCH  23  24
ENDBRANCH  10  23
TORSDOF 5
ENDMDL
MODEL       71
REMARK 921   NORMALIZED FREE ENERGY PREDICTED BY IDOCK:   -5.69 KCAL/MOL
REMARK 922        TOTAL FREE ENERGY PREDICTED BY IDOCK:   -8.52 KCAL/MOL
REMARK 923 INTER-LIGAND FREE ENERGY PREDICTED BY IDOCK:   -7.10 KCAL/MOL
REMARK 924 INTRA-LIGAND FREE ENERGY PREDICTED BY IDOCK:   -1.41 KCAL/MOL
REMARK 927      BINDING AFFINITY PREDICTED BY RF-SCORE:    0.00 PKD
ROOT
HETATM    1  C   UNL     1     -10.833   6.117  69.885  1.00  0.00    -0.420 C  
HETATM    2  C   UNL     1     -10.366   7.481  69.364  1.00  0.00    -0.213 C  
HETATM    3  C   UNL     1      -8.838   7.620  69.294  1.00  0.00    -0.136 C  
HETATM    4  C   UNL     1     -10.880   8.581  70.283  1.00  0.00    -0.238 C  
HETATM    5  O   UNL     1     -10.926   8.426  71.503  1.00  0.00    -0.237 OA 
HETATM    6  C   UNL     1     -12.955  10.860  71.350  1.00  0.00    -0.424 C  
HETATM    7  N   UNL     1     -11.321   9.763  69.730  1.00  0.00    -0.201 N  
HETATM    8  C   UNL     1     -11.358  10.128  68.320  1.00  0.00    -0.114 C  
HETATM    9  C   UNL     1     -11.628  10.930  70.579  1.00  0.00    -0.300 C  
HETATM   10  C   UNL     1     -11.088  11.632  68.302  1.00  0.00    -0.234 C  
HETATM   11  C   UNL     1     -11.698  12.125  69.613  1.00  0.00    -0.396 C  
HETATM   12  O   UNL     1     -13.658   9.719  71.181  1.00  0.00    -0.340 OA 
HETATM   13  O   UNL     1     -13.381  11.781  72.041  1.00  0.00    -0.487 OA 
ENDROOT
BRANCH   3  14
HETATM   14  S   UNL     1      -8.122   6.365  68.200  1.00  0.00    -0.113 SA 
BRANCH  14  15
HETATM   15  C   UNL     1      -8.907   6.757  66.673  1.00  0.00    -0.137 C  
HETATM   16  O   UNL     1      -9.696   5.987  66.140  1.00  0.00    -0.123 OA 
BRANCH  15  17
HETATM   17  C   UNL     1      -8.591   8.092  66.087  1.00  0.00    -0.154 A  
HETATM   18  C   UNL     1      -9.585   8.947  65.584  1.00  0.00    -0.175 A  
HETATM   19  C   UNL     1      -9.243  10.183  65.033  1.00  0.00    -0.266 A  
HETATM   20  C   UNL     1      -7.909  10.579  64.987  1.00  0.00    -0.055 A  
HETATM   21  C   UNL     1      -7.252   8.506  66.048  1.00  0.00    -0.077 A  
HETATM   22  C   UNL     1      -6.914   9.743  65.494  1.00  0.00    -0.099 A  
ENDBRANCH  15  17
ENDBRANCH  14  15
ENDBRANCH   3  14
BRANCH  10  23
HETATM   23  S   UNL     1     -11.815  12.376  66.797  1.00  0.00    -0.226 SA 
BRANCH  23  24
HETATM   24  C   UNL     1     -10.797  13.817  66.519  1.00  0.00    -0.287 A  
HETATM   25  C   UNL     1     -11.246  14.952  65.837  1.00  0.00    -0.328 A  
HETATM   26  C   UNL     1      -9.120  16.048  66.205  1.00  0.00    -0.379 A  
HETATM   27  C   UNL     1     -10.408  16.059  65.673  1.00  0.00    -0.414 A  
HETATM   28  C   UNL     1      -8.670  14.932  66.905  1.00  0.00    -0.276 A  
HETATM   29  C   UNL     1      -9.506  13.825  67.065  1.00  0.00    -0.255 A  
ENDBRANCH  23  24
ENDBRANCH  10  23
TORSDOF 5
ENDMDL
MODEL       72
REMARK 921   NORMALIZED FREE ENERGY PREDICTED BY IDOCK:   -5.68 KCAL/MOL
REMARK 922        TOTAL FREE ENERGY PREDICTED BY IDOCK:   -8.51 KCAL/MOL
REMARK 923 INTER-LIGAND FREE ENERGY PREDICTED BY IDOCK:   -7.83 KCAL/MOL
REMARK 924 INTRA-LIGAND FREE ENERGY PREDICTED BY IDOCK:   -0.67 KCAL/MOL
REMARK 927      BINDING AFFINITY PREDICTED BY RF-SCORE:    0.00 PKD
ROOT
HETATM    1  C   UNL     1     -13.525   9.632  70.715  1.00  0.00    -0.037 C  
HETATM    2  C   UNL     1     -12.328  10.536  70.397  1.00  0.00    -0.409 C  
HETATM    3  C   UNL     1     -10.972   9.900  70.735  1.00  0.00    -0.337 C  
HETATM    4  C   UNL     1     -12.437  11.827  71.197  1.00  0.00    -0.285 C  
HETATM    5  O   UNL     1     -12.856  11.828  72.355  1.00  0.00    -0.057 OA 
HETATM    6  C   UNL     1     -13.292  14.919  71.785  1.00  0.00    -0.361 C  
HETATM    7  N   UNL     1     -12.077  13.015  70.602  1.00  0.00    -0.319 N  
HETATM    8  C   UNL     1     -11.576  13.219  69.249  1.00  0.00    -0.314 C  
HETATM    9  C   UNL     1     -11.963  14.257  71.393  1.00  0.00    -0.196 C  
HETATM   10  C   UNL     1     -10.598  14.387  69.370  1.00  0.00    -0.121 C  
HETATM   11  C   UNL     1     -11.186  15.236  70.496  1.00  0.00    -0.338 C  
HETATM   12  O   UNL     1     -14.402  14.260  71.387  1.00  0.00    -0.324 OA 
HETATM   13  O   UNL     1     -13.360  15.989  72.381  1.00  0.00    -0.420 OA 
ENDROOT
BRANCH   3  14
HETATM   14  S   UNL     1     -10.729   8.359  69.811  1.00  0.00    -0.175 SA 
BRANCH  14  15
HETATM   15  C   UNL     1     -10.771   7.173  71.111  1.00  0.00    -0.232 C  
HETATM   16  O   UNL     1     -11.239   7.440  72.211  1.00  0.00    -0.247 OA 
BRANCH  15  17
HETATM   17  C   UNL     1     -10.242   5.815  70.789  1.00  0.00    -0.279 A  
HETATM   18  C   UNL     1     -10.175   4.789  71.745  1.00  0.00    -0.258 A  
HETATM   19  C   UNL     1      -9.661   3.537  71.403  1.00  0.00    -0.236 A  
HETATM   20  C   UNL     1      -9.220   3.296  70.105  1.00  0.00    -0.226 A  
HETATM   21  C   UNL     1      -9.808   5.559  69.481  1.00  0.00    -0.253 A  
HETATM   22  C   UNL     1      -9.293   4.304  69.144  1.00  0.00    -0.229 A  
ENDBRANCH  15  17
ENDBRANCH  14  15
ENDBRANCH   3  14
BRANCH  10  23
HETATM   23  S   UNL     1     -10.458  15.249  67.762  1.00  0.00    -0.258 SA 
BRANCH  23  24
HETATM   24  C   UNL     1      -9.670  16.793  68.192  1.00  0.00    -0.247 A  
HETATM   25  C   UNL     1     -10.369  17.994  68.341  1.00  0.00    -0.377 A  
HETATM   26  C   UNL     1      -8.324  19.143  68.937  1.00  0.00    -0.325 A  
HETATM   27  C   UNL     1      -9.698  19.166  68.704  1.00  0.00    -0.478 A  
HETATM   28  C   UNL     1      -7.621  17.948  68.812  1.00  0.00    -0.271 A  
HETATM   29  C   UNL     1      -8.291  16.779  68.445  1.00  0.00    -0.222 A  
ENDBRANCH  23  24
ENDBRANCH  10  23
TORSDOF 5
ENDMDL
MODEL       73
REMARK 921   NORMALIZED FREE ENERGY PREDICTED BY IDOCK:   -5.68 KCAL/MOL
REMARK 922        TOTAL FREE ENERGY PREDICTED BY IDOCK:   -8.51 KCAL/MOL
REMARK 923 INTER-LIGAND FREE ENERGY PREDICTED BY IDOCK:   -7.13 KCAL/MOL
REMARK 924 INTRA-LIGAND FREE ENERGY PREDICTED BY IDOCK:   -1.38 KCAL/MOL
REMARK 927      BINDING AFFINITY PREDICTED BY RF-SCORE:    0.00 PKD
ROOT
HETATM    1  C   UNL     1      -6.798   7.035  66.737  1.00  0.00    -0.068 C  
HETATM    2  C   UNL     1      -8.079   7.798  67.094  1.00  0.00    -0.118 C  
HETATM    3  C   UNL     1      -9.166   6.912  67.720  1.00  0.00    -0.119 C  
HETATM    4  C   UNL     1      -8.670   8.420  65.836  1.00  0.00    -0.169 C  
HETATM    5  O   UNL     1      -8.645   7.828  64.757  1.00  0.00    -0.030 OA 
HETATM    6  C   UNL     1      -9.156  10.733  63.588  1.00  0.00    -0.212 C  
HETATM    7  N   UNL     1      -9.222   9.680  65.909  1.00  0.00    -0.179 N  
HETATM    8  C   UNL     1      -9.332  10.538  67.081  1.00  0.00    -0.154 C  
HETATM    9  C   UNL     1      -9.990  10.238  64.779  1.00  0.00    -0.321 C  
HETATM   10  C   UNL     1     -10.642  11.300  66.881  1.00  0.00    -0.257 C  
HETATM   11  C   UNL     1     -10.751  11.441  65.364  1.00  0.00    -0.313 C  
HETATM   12  O   UNL     1      -7.822  10.560  63.711  1.00  0.00    -0.105 OA 
HETATM   13  O   UNL     1      -9.645  11.285  62.607  1.00  0.00    -0.316 OA 
ENDROOT
BRANCH   3  14
HETATM   14  S   UNL     1      -8.571   6.137  69.247  1.00  0.00    -0.119 SA 
BRANCH  14  15
HETATM   15  C   UNL     1      -8.858   7.423  70.415  1.00  0.00    -0.149 C  
HETATM   16  O   UNL     1      -7.976   8.209  70.736  1.00  0.00    -0.090 OA 
BRANCH  15  17
HETATM   17  C   UNL     1     -10.243   7.527  70.962  1.00  0.00    -0.194 A  
HETATM   18  C   UNL     1     -11.357   7.002  70.289  1.00  0.00    -0.339 A  
HETATM   19  C   UNL     1     -12.637   7.132  70.832  1.00  0.00    -0.268 A  
HETATM   20  C   UNL     1     -12.813   7.777  72.053  1.00  0.00    -0.265 A  
HETATM   21  C   UNL     1     -10.429   8.163  72.198  1.00  0.00    -0.352 A  
HETATM   22  C   UNL     1     -11.711   8.292  72.736  1.00  0.00    -0.305 A  
ENDBRANCH  15  17
ENDBRANCH  14  15
ENDBRANCH   3  14
BRANCH  10  23
HETATM   23  S   UNL     1     -10.582  12.888  67.789  1.00  0.00    -0.226 SA 
BRANCH  23  24
HETATM   24  C   UNL     1     -11.556  12.561  69.250  1.00  0.00    -0.319 A  
HETATM   25  C   UNL     1     -11.804  11.272  69.733  1.00  0.00    -0.437 A  
HETATM   26  C   UNL     1     -13.050  12.181  71.598  1.00  0.00    -0.413 A  
HETATM   27  C   UNL     1     -12.555  11.083  70.897  1.00  0.00    -0.488 A  
HETATM   28  C   UNL     1     -12.791  13.469  71.139  1.00  0.00    -0.387 A  
HETATM   29  C   UNL     1     -12.045  13.658  69.973  1.00  0.00    -0.417 A  
ENDBRANCH  23  24
ENDBRANCH  10  23
TORSDOF 5
ENDMDL
MODEL       74
REMARK 921   NORMALIZED FREE ENERGY PREDICTED BY IDOCK:   -5.65 KCAL/MOL
REMARK 922        TOTAL FREE ENERGY PREDICTED BY IDOCK:   -8.46 KCAL/MOL
REMARK 923 INTER-LIGAND FREE ENERGY PREDICTED BY IDOCK:   -7.27 KCAL/MOL
REMARK 924 INTRA-LIGAND FREE ENERGY PREDICTED BY IDOCK:   -1.19 KCAL/MOL
REMARK 927      BINDING AFFINITY PREDICTED BY RF-SCORE:    0.00 PKD
ROOT
HETATM    1  C   UNL     1      -5.810  11.473  68.964  1.00  0.00    -0.049 C  
HETATM    2  C   UNL     1      -6.828  11.931  67.912  1.00  0.00    -0.083 C  
HETATM    3  C   UNL     1      -6.681  11.209  66.564  1.00  0.00    -0.128 C  
HETATM    4  C   UNL     1      -6.656  13.421  67.650  1.00  0.00    -0.167 C  
HETATM    5  O   UNL     1      -5.542  13.942  67.624  1.00  0.00    -0.298 OA 
HETATM    6  C   UNL     1      -7.202  16.611  68.056  1.00  0.00    -0.155 C  
HETATM    7  N   UNL     1      -7.777  14.199  67.461  1.00  0.00    -0.177 N  
HETATM    8  C   UNL     1      -9.170  13.774  67.469  1.00  0.00    -0.216 C  
HETATM    9  C   UNL     1      -7.661  15.596  66.998  1.00  0.00    -0.210 C  
HETATM   10  C   UNL     1      -9.858  14.679  66.448  1.00  0.00    -0.285 C  
HETATM   11  C   UNL     1      -9.076  15.988  66.541  1.00  0.00    -0.319 C  
HETATM   12  O   UNL     1      -6.926  16.088  69.272  1.00  0.00    -0.182 OA 
HETATM   13  O   UNL     1      -7.125  17.817  67.843  1.00  0.00    -0.196 OA 
ENDROOT
BRANCH   3  14
HETATM   14  S   UNL     1      -6.893   9.419  66.760  1.00  0.00    -0.081 SA 
BRANCH  14  15
HETATM   15  C   UNL     1      -8.647   9.277  66.707  1.00  0.00    -0.127 C  
HETATM   16  O   UNL     1      -9.266   8.642  67.552  1.00  0.00    -0.132 OA 
BRANCH  15  17
HETATM   17  C   UNL     1      -9.340  10.002  65.602  1.00  0.00    -0.257 A  
HETATM   18  C   UNL     1     -10.358  10.939  65.841  1.00  0.00    -0.310 A  
HETATM   19  C   UNL     1     -10.988  11.586  64.776  1.00  0.00    -0.338 A  
HETATM   20  C   UNL     1     -10.601  11.310  63.467  1.00  0.00    -0.436 A  
HETATM   21  C   UNL     1      -8.949   9.741  64.282  1.00  0.00    -0.276 A  
HETATM   22  C   UNL     1      -9.582  10.390  63.219  1.00  0.00    -0.353 A  
ENDBRANCH  15  17
ENDBRANCH  14  15
ENDBRANCH   3  14
BRANCH  10  23
HETATM   23  S   UNL     1     -11.638  14.825  66.847  1.00  0.00    -0.282 SA 
BRANCH  23  24
HETATM   24  C   UNL     1     -11.656  14.851  68.632  1.00  0.00    -0.318 A  
HETATM   25  C   UNL     1     -11.241  15.953  69.386  1.00  0.00    -0.336 A  
HETATM   26  C   UNL     1     -11.796  14.793  71.437  1.00  0.00    -0.394 A  
HETATM   27  C   UNL     1     -11.302  15.920  70.783  1.00  0.00    -0.424 A  
HETATM   28  C   UNL     1     -12.233  13.698  70.695  1.00  0.00    -0.434 A  
HETATM   29  C   UNL     1     -12.166  13.730  69.300  1.00  0.00    -0.307 A  
ENDBRANCH  23  24
ENDBRANCH  10  23
TORSDOF 5
ENDMDL
MODEL       75
REMARK 921   NORMALIZED FREE ENERGY PREDICTED BY IDOCK:   -5.63 KCAL/MOL
REMARK 922        TOTAL FREE ENERGY PREDICTED BY IDOCK:   -8.45 KCAL/MOL
REMARK 923 INTER-LIGAND FREE ENERGY PREDICTED BY IDOCK:   -7.76 KCAL/MOL
REMARK 924 INTRA-LIGAND FREE ENERGY PREDICTED BY IDOCK:   -0.69 KCAL/MOL
REMARK 927      BINDING AFFINITY PREDICTED BY RF-SCORE:    0.00 PKD
ROOT
HETATM    1  C   UNL     1     -11.561  15.376  68.045  1.00  0.00    -0.303 C  
HETATM    2  C   UNL     1     -10.523  14.383  67.508  1.00  0.00    -0.252 C  
HETATM    3  C   UNL     1      -9.098  14.954  67.459  1.00  0.00    -0.183 C  
HETATM    4  C   UNL     1     -10.896  13.972  66.091  1.00  0.00    -0.291 C  
HETATM    5  O   UNL     1     -11.372  14.780  65.294  1.00  0.00    -0.341 OA 
HETATM    6  C   UNL     1     -12.303  12.154  63.776  1.00  0.00    -0.532 C  
HETATM    7  N   UNL     1     -10.715  12.662  65.706  1.00  0.00    -0.263 N  
HETATM    8  C   UNL     1     -10.184  11.564  66.501  1.00  0.00    -0.218 C  
HETATM    9  C   UNL     1     -10.860  12.259  64.293  1.00  0.00    -0.348 C  
HETATM   10  C   UNL     1      -9.430  10.688  65.501  1.00  0.00    -0.214 C  
HETATM   11  C   UNL     1     -10.216  10.865  64.202  1.00  0.00    -0.424 C  
HETATM   12  O   UNL     1     -13.260  12.479  64.674  1.00  0.00    -0.848 OA 
HETATM   13  O   UNL     1     -12.587  11.764  62.648  1.00  0.00     0.280 OA 
ENDROOT
BRANCH   3  14
HETATM   14  S   UNL     1      -8.543  15.456  69.110  1.00  0.00    -0.252 SA 
BRANCH  14  15
HETATM   15  C   UNL     1      -7.750  16.987  68.751  1.00  0.00    -0.249 C  
HETATM   16  O   UNL     1      -6.587  17.199  69.069  1.00  0.00    -0.194 OA 
BRANCH  15  17
HETATM   17  C   UNL     1      -8.560  17.995  68.005  1.00  0.00    -0.267 A  
HETATM   18  C   UNL     1      -9.854  18.363  68.404  1.00  0.00    -0.396 A  
HETATM   19  C   UNL     1     -10.581  19.301  67.670  1.00  0.00    -0.553 A  
HETATM   20  C   UNL     1     -10.019  19.886  66.538  1.00  0.00    -0.591 A  
HETATM   21  C   UNL     1      -7.997  18.599  66.872  1.00  0.00    -0.250 A  
HETATM   22  C   UNL     1      -8.729  19.537  66.139  1.00  0.00    -0.332 A  
ENDBRANCH  15  17
ENDBRANCH  14  15
ENDBRANCH   3  14
BRANCH  10  23
HETATM   23  S   UNL     1      -9.353   8.966  66.115  1.00  0.00    -0.253 SA 
BRANCH  23  24
HETATM   24  C   UNL     1      -8.100   8.220  65.085  1.00  0.00    -0.142 A  
HETATM   25  C   UNL     1      -8.120   8.281  63.689  1.00  0.00    -0.126 A  
HETATM   26  C   UNL     1      -6.032   7.061  63.578  1.00  0.00    -0.043 A  
HETATM   27  C   UNL     1      -7.095   7.697  62.938  1.00  0.00    -0.078 A  
HETATM   28  C   UNL     1      -5.991   7.012  64.969  1.00  0.00    -0.037 A  
HETATM   29  C   UNL     1      -7.018   7.592  65.718  1.00  0.00    -0.060 A  
ENDBRANCH  23  24
ENDBRANCH  10  23
TORSDOF 5
ENDMDL
MODEL       76
REMARK 921   NORMALIZED FREE ENERGY PREDICTED BY IDOCK:   -5.63 KCAL/MOL
REMARK 922        TOTAL FREE ENERGY PREDICTED BY IDOCK:   -8.44 KCAL/MOL
REMARK 923 INTER-LIGAND FREE ENERGY PREDICTED BY IDOCK:   -7.78 KCAL/MOL
REMARK 924 INTRA-LIGAND FREE ENERGY PREDICTED BY IDOCK:   -0.66 KCAL/MOL
REMARK 927      BINDING AFFINITY PREDICTED BY RF-SCORE:    0.00 PKD
ROOT
HETATM    1  C   UNL     1     -13.302   9.737  70.211  1.00  0.00     0.446 C  
HETATM    2  C   UNL     1     -12.200  10.739  69.848  1.00  0.00    -0.384 C  
HETATM    3  C   UNL     1     -10.781  10.168  69.994  1.00  0.00    -0.305 C  
HETATM    4  C   UNL     1     -12.295  11.955  70.759  1.00  0.00    -0.320 C  
HETATM    5  O   UNL     1     -12.588  11.841  71.949  1.00  0.00    -0.164 OA 
HETATM    6  C   UNL     1     -13.257  14.931  71.684  1.00  0.00    -0.359 C  
HETATM    7  N   UNL     1     -12.069  13.206  70.230  1.00  0.00    -0.356 N  
HETATM    8  C   UNL     1     -11.727  13.544  68.855  1.00  0.00    -0.339 C  
HETATM    9  C   UNL     1     -11.942  14.389  71.105  1.00  0.00    -0.316 C  
HETATM   10  C   UNL     1     -10.809  14.761  68.972  1.00  0.00    -0.245 C  
HETATM   11  C   UNL     1     -11.321  15.482  70.218  1.00  0.00    -0.348 C  
HETATM   12  O   UNL     1     -14.364  14.233  71.347  1.00  0.00    -0.324 OA 
HETATM   13  O   UNL     1     -13.322  15.947  72.369  1.00  0.00    -0.461 OA 
ENDROOT
BRANCH   3  14
HETATM   14  S   UNL     1     -10.551   8.721  68.926  1.00  0.00    -0.101 SA 
BRANCH  14  15
HETATM   15  C   UNL     1     -10.696   7.411  70.093  1.00  0.00    -0.242 C  
HETATM   16  O   UNL     1     -11.496   6.497  69.938  1.00  0.00    -0.390 OA 
BRANCH  15  17
HETATM   17  C   UNL     1      -9.765   7.455  71.259  1.00  0.00    -0.171 A  
HETATM   18  C   UNL     1      -8.371   7.383  71.110  1.00  0.00    -0.114 A  
HETATM   19  C   UNL     1      -7.538   7.415  72.230  1.00  0.00    -0.092 A  
HETATM   20  C   UNL     1      -8.088   7.528  73.504  1.00  0.00    -0.170 A  
HETATM   21  C   UNL     1     -10.309   7.582  72.545  1.00  0.00    -0.291 A  
HETATM   22  C   UNL     1      -9.471   7.613  73.663  1.00  0.00    -0.340 A  
ENDBRANCH  15  17
ENDBRANCH  14  15
ENDBRANCH   3  14
BRANCH  10  23
HETATM   23  S   UNL     1     -10.890  15.750  67.435  1.00  0.00    -0.276 SA 
BRANCH  23  24
HETATM   24  C   UNL     1     -11.056  14.511  66.159  1.00  0.00    -0.334 A  
HETATM   25  C   UNL     1     -12.134  14.467  65.270  1.00  0.00    -0.337 A  
HETATM   26  C   UNL     1     -11.169  12.550  64.152  1.00  0.00    -0.437 A  
HETATM   27  C   UNL     1     -12.195  13.486  64.276  1.00  0.00    -0.450 A  
HETATM   28  C   UNL     1     -10.080  12.598  65.018  1.00  0.00    -0.252 A  
HETATM   29  C   UNL     1     -10.023  13.576  66.013  1.00  0.00    -0.308 A  
ENDBRANCH  23  24
ENDBRANCH  10  23
TORSDOF 5
ENDMDL
MODEL       77
REMARK 921   NORMALIZED FREE ENERGY PREDICTED BY IDOCK:   -5.62 KCAL/MOL
REMARK 922        TOTAL FREE ENERGY PREDICTED BY IDOCK:   -8.43 KCAL/MOL
REMARK 923 INTER-LIGAND FREE ENERGY PREDICTED BY IDOCK:   -8.04 KCAL/MOL
REMARK 924 INTRA-LIGAND FREE ENERGY PREDICTED BY IDOCK:   -0.39 KCAL/MOL
REMARK 927      BINDING AFFINITY PREDICTED BY RF-SCORE:    0.00 PKD
ROOT
HETATM    1  C   UNL     1      -6.491  14.432  68.420  1.00  0.00    -0.102 C  
HETATM    2  C   UNL     1      -7.655  14.722  67.465  1.00  0.00    -0.215 C  
HETATM    3  C   UNL     1      -7.913  16.221  67.251  1.00  0.00    -0.167 C  
HETATM    4  C   UNL     1      -8.936  14.116  68.023  1.00  0.00    -0.183 C  
HETATM    5  O   UNL     1      -9.177  14.129  69.229  1.00  0.00     0.122 OA 
HETATM    6  C   UNL     1     -11.222  11.831  68.454  1.00  0.00    -0.251 C  
HETATM    7  N   UNL     1      -9.828  13.525  67.156  1.00  0.00    -0.240 N  
HETATM    8  C   UNL     1      -9.715  13.400  65.709  1.00  0.00    -0.129 C  
HETATM    9  C   UNL     1     -11.170  13.114  67.612  1.00  0.00    -0.282 C  
HETATM   10  C   UNL     1     -11.152  13.495  65.198  1.00  0.00    -0.316 C  
HETATM   11  C   UNL     1     -11.978  12.876  66.325  1.00  0.00    -0.472 C  
HETATM   12  O   UNL     1     -10.024  11.258  68.702  1.00  0.00    -0.196 OA 
HETATM   13  O   UNL     1     -12.269  11.325  68.845  1.00  0.00    -0.494 OA 
ENDROOT
BRANCH   3  14
HETATM   14  S   UNL     1      -6.449  17.040  66.563  1.00  0.00    -0.135 SA 
BRANCH  14  15
HETATM   15  C   UNL     1      -6.762  18.717  66.998  1.00  0.00    -0.197 C  
HETATM   16  O   UNL     1      -5.858  19.538  67.088  1.00  0.00    -0.175 OA 
BRANCH  15  17
HETATM   17  C   UNL     1      -8.191  19.092  67.212  1.00  0.00    -0.299 A  
HETATM   18  C   UNL     1      -8.700  19.414  68.480  1.00  0.00    -0.407 A  
HETATM   19  C   UNL     1     -10.047  19.747  68.637  1.00  0.00    -0.546 A  
HETATM   20  C   UNL     1     -10.891  19.772  67.531  1.00  0.00    -0.406 A  
HETATM   21  C   UNL     1      -9.046  19.133  66.102  1.00  0.00    -0.239 A  
HETATM   22  C   UNL     1     -10.393  19.466  66.264  1.00  0.00    -0.584 A  
ENDBRANCH  15  17
ENDBRANCH  14  15
ENDBRANCH   3  14
BRANCH  10  23
HETATM   23  S   UNL     1     -11.299  12.638  63.588  1.00  0.00    -0.464 SA 
BRANCH  23  24
HETATM   24  C   UNL     1     -10.135  11.291  63.735  1.00  0.00    -0.361 A  
HETATM   25  C   UNL     1     -10.157  10.372  64.789  1.00  0.00    -0.387 A  
HETATM   26  C   UNL     1      -8.291   9.174  63.818  1.00  0.00    -0.183 A  
HETATM   27  C   UNL     1      -9.233   9.323  64.835  1.00  0.00    -0.206 A  
HETATM   28  C   UNL     1      -8.273  10.071  62.753  1.00  0.00    -0.154 A  
HETATM   29  C   UNL     1      -9.194  11.121  62.711  1.00  0.00    -0.374 A  
ENDBRANCH  23  24
ENDBRANCH  10  23
TORSDOF 5
ENDMDL
MODEL       78
REMARK 921   NORMALIZED FREE ENERGY PREDICTED BY IDOCK:   -5.62 KCAL/MOL
REMARK 922        TOTAL FREE ENERGY PREDICTED BY IDOCK:   -8.42 KCAL/MOL
REMARK 923 INTER-LIGAND FREE ENERGY PREDICTED BY IDOCK:   -7.37 KCAL/MOL
REMARK 924 INTRA-LIGAND FREE ENERGY PREDICTED BY IDOCK:   -1.06 KCAL/MOL
REMARK 927      BINDING AFFINITY PREDICTED BY RF-SCORE:    0.00 PKD
ROOT
HETATM    1  C   UNL     1     -12.786  12.471  71.309  1.00  0.00    -0.350 C  
HETATM    2  C   UNL     1     -11.914  11.628  70.371  1.00  0.00    -0.448 C  
HETATM    3  C   UNL     1     -12.153  11.922  68.883  1.00  0.00    -0.155 C  
HETATM    4  C   UNL     1     -12.206  10.150  70.594  1.00  0.00    -0.302 C  
HETATM    5  O   UNL     1     -13.348   9.751  70.818  1.00  0.00    -0.260 OA 
HETATM    6  C   UNL     1     -11.825   7.193  71.915  1.00  0.00    -0.300 C  
HETATM    7  N   UNL     1     -11.163   9.251  70.564  1.00  0.00    -0.255 N  
HETATM    8  C   UNL     1      -9.752   9.529  70.330  1.00  0.00    -0.271 C  
HETATM    9  C   UNL     1     -11.415   7.797  70.564  1.00  0.00    -0.205 C  
HETATM   10  C   UNL     1      -9.233   8.300  69.585  1.00  0.00    -0.158 C  
HETATM   11  C   UNL     1     -10.083   7.157  70.138  1.00  0.00    -0.195 C  
HETATM   12  O   UNL     1     -11.939   8.079  72.929  1.00  0.00    -0.297 OA 
HETATM   13  O   UNL     1     -12.000   5.991  72.090  1.00  0.00    -0.309 OA 
ENDROOT
BRANCH   3  14
HETATM   14  S   UNL     1     -11.809  13.661  68.501  1.00  0.00    -0.370 SA 
BRANCH  14  15
HETATM   15  C   UNL     1     -10.538  13.499  67.293  1.00  0.00    -0.263 C  
HETATM   16  O   UNL     1      -9.388  13.853  67.518  1.00  0.00    -0.203 OA 
BRANCH  15  17
HETATM   17  C   UNL     1     -10.930  12.872  65.997  1.00  0.00    -0.301 A  
HETATM   18  C   UNL     1     -10.081  12.000  65.297  1.00  0.00    -0.289 A  
HETATM   19  C   UNL     1     -10.483  11.445  64.081  1.00  0.00    -0.421 A  
HETATM   20  C   UNL     1     -11.738  11.747  63.559  1.00  0.00    -0.485 A  
HETATM   21  C   UNL     1     -12.197  13.160  65.470  1.00  0.00    -0.513 A  
HETATM   22  C   UNL     1     -12.595  12.603  64.251  1.00  0.00    -0.453 A  
ENDBRANCH  15  17
ENDBRANCH  14  15
ENDBRANCH   3  14
BRANCH  10  23
HETATM   23  S   UNL     1      -7.435   8.116  69.866  1.00  0.00    -0.071 SA 
BRANCH  23  24
HETATM   24  C   UNL     1      -6.782   9.711  69.397  1.00  0.00    -0.053 A  
HETATM   25  C   UNL     1      -6.906  10.240  68.109  1.00  0.00    -0.066 A  
HETATM   26  C   UNL     1      -5.769  12.262  68.801  1.00  0.00    -0.054 A  
HETATM   27  C   UNL     1      -6.394  11.507  67.810  1.00  0.00    -0.063 A  
HETATM   28  C   UNL     1      -5.658  11.754  70.092  1.00  0.00    -0.131 A  
HETATM   29  C   UNL     1      -6.166  10.487  70.389  1.00  0.00    -0.128 A  
ENDBRANCH  23  24
ENDBRANCH  10  23
TORSDOF 5
ENDMDL
MODEL       79
REMARK 921   NORMALIZED FREE ENERGY PREDICTED BY IDOCK:   -5.61 KCAL/MOL
REMARK 922        TOTAL FREE ENERGY PREDICTED BY IDOCK:   -8.41 KCAL/MOL
REMARK 923 INTER-LIGAND FREE ENERGY PREDICTED BY IDOCK:   -7.49 KCAL/MOL
REMARK 924 INTRA-LIGAND FREE ENERGY PREDICTED BY IDOCK:   -0.92 KCAL/MOL
REMARK 927      BINDING AFFINITY PREDICTED BY RF-SCORE:    0.00 PKD
ROOT
HETATM    1  C   UNL     1      -7.033   8.478  71.865  1.00  0.00    -0.101 C  
HETATM    2  C   UNL     1      -7.908   8.778  70.643  1.00  0.00    -0.112 C  
HETATM    3  C   UNL     1      -8.436   7.517  69.943  1.00  0.00    -0.138 C  
HETATM    4  C   UNL     1      -7.100   9.562  69.617  1.00  0.00    -0.072 C  
HETATM    5  O   UNL     1      -5.911   9.316  69.416  1.00  0.00    -0.037 OA 
HETATM    6  C   UNL     1      -5.926  12.217  68.131  1.00  0.00    -0.055 C  
HETATM    7  N   UNL     1      -7.713  10.578  68.919  1.00  0.00    -0.107 N  
HETATM    8  C   UNL     1      -9.096  11.025  69.025  1.00  0.00    -0.063 C  
HETATM    9  C   UNL     1      -7.043  11.225  67.774  1.00  0.00    -0.087 C  
HETATM   10  C   UNL     1      -9.468  11.472  67.611  1.00  0.00    -0.168 C  
HETATM   11  C   UNL     1      -8.152  11.996  67.039  1.00  0.00    -0.158 C  
HETATM   12  O   UNL     1      -5.673  12.346  69.452  1.00  0.00    -0.074 OA 
HETATM   13  O   UNL     1      -5.325  12.883  67.294  1.00  0.00    -0.318 OA 
ENDROOT
BRANCH   3  14
HETATM   14  S   UNL     1      -9.438   6.517  71.076  1.00  0.00    -0.164 SA 
BRANCH  14  15
HETATM   15  C   UNL     1     -11.031   6.663  70.339  1.00  0.00    -0.290 C  
HETATM   16  O   UNL     1     -11.344   6.011  69.352  1.00  0.00    -0.398 OA 
BRANCH  15  17
HETATM   17  C   UNL     1     -11.988   7.593  71.006  1.00  0.00    -0.296 A  
HETATM   18  C   UNL     1     -11.659   8.926  71.299  1.00  0.00    -0.371 A  
HETATM   19  C   UNL     1     -12.582   9.758  71.935  1.00  0.00    -0.479 A  
HETATM   20  C   UNL     1     -13.841   9.271  72.275  1.00  0.00    -0.492 A  
HETATM   21  C   UNL     1     -13.263   7.115  71.340  1.00  0.00    -0.391 A  
HETATM   22  C   UNL     1     -14.183   7.952  71.978  1.00  0.00    -0.441 A  
ENDBRANCH  15  17
ENDBRANCH  14  15
ENDBRANCH   3  14
BRANCH  10  23
HETATM   23  S   UNL     1     -10.813  12.710  67.685  1.00  0.00    -0.228 SA 
BRANCH  23  24
HETATM   24  C   UNL     1     -11.340  12.844  65.984  1.00  0.00    -0.317 A  
HETATM   25  C   UNL     1     -11.149  11.829  65.041  1.00  0.00    -0.343 A  
HETATM   26  C   UNL     1     -12.274  13.148  63.353  1.00  0.00    -0.521 A  
HETATM   27  C   UNL     1     -11.607  11.984  63.729  1.00  0.00    -0.565 A  
HETATM   28  C   UNL     1     -12.489  14.156  64.288  1.00  0.00    -0.301 A  
HETATM   29  C   UNL     1     -12.027  14.002  65.597  1.00  0.00    -0.408 A  
ENDBRANCH  23  24
ENDBRANCH  10  23
TORSDOF 5
ENDMDL
MODEL       80
REMARK 921   NORMALIZED FREE ENERGY PREDICTED BY IDOCK:   -5.59 KCAL/MOL
REMARK 922        TOTAL FREE ENERGY PREDICTED BY IDOCK:   -8.39 KCAL/MOL
REMARK 923 INTER-LIGAND FREE ENERGY PREDICTED BY IDOCK:   -7.89 KCAL/MOL
REMARK 924 INTRA-LIGAND FREE ENERGY PREDICTED BY IDOCK:   -0.50 KCAL/MOL
REMARK 927      BINDING AFFINITY PREDICTED BY RF-SCORE:    0.00 PKD
ROOT
HETATM    1  C   UNL     1      -8.208   9.411  64.728  1.00  0.00    -0.145 C  
HETATM    2  C   UNL     1      -9.180   9.885  65.814  1.00  0.00    -0.228 C  
HETATM    3  C   UNL     1      -9.915   8.738  66.522  1.00  0.00    -0.290 C  
HETATM    4  C   UNL     1     -10.238  10.788  65.194  1.00  0.00    -0.298 C  
HETATM    5  O   UNL     1     -10.705  10.554  64.079  1.00  0.00    -0.012 OA 
HETATM    6  C   UNL     1     -11.578  13.600  64.228  1.00  0.00    -0.382 C  
HETATM    7  N   UNL     1     -10.662  11.898  65.890  1.00  0.00    -0.274 N  
HETATM    8  C   UNL     1     -10.223  12.347  67.204  1.00  0.00    -0.216 C  
HETATM    9  C   UNL     1     -11.826  12.682  65.433  1.00  0.00    -0.427 C  
HETATM   10  C   UNL     1     -11.463  12.984  67.831  1.00  0.00    -0.311 C  
HETATM   11  C   UNL     1     -12.217  13.561  66.633  1.00  0.00    -0.411 C  
HETATM   12  O   UNL     1     -10.329  13.547  63.713  1.00  0.00    -0.046 OA 
HETATM   13  O   UNL     1     -12.426  14.364  63.777  1.00  0.00    -0.814 OA 
ENDROOT
BRANCH   3  14
HETATM   14  S   UNL     1      -8.741   7.610  67.321  1.00  0.00    -0.125 SA 
BRANCH  14  15
HETATM   15  C   UNL     1      -9.544   6.061  67.086  1.00  0.00    -0.123 C  
HETATM   16  O   UNL     1     -10.750   5.986  66.883  1.00  0.00    -0.286 OA 
BRANCH  15  17
HETATM   17  C   UNL     1      -8.672   4.850  67.109  1.00  0.00    -0.103 A  
HETATM   18  C   UNL     1      -8.641   3.927  66.052  1.00  0.00    -0.112 A  
HETATM   19  C   UNL     1      -7.819   2.801  66.120  1.00  0.00    -0.081 A  
HETATM   20  C   UNL     1      -7.016   2.592  67.238  1.00  0.00    -0.045 A  
HETATM   21  C   UNL     1      -7.850   4.639  68.224  1.00  0.00    -0.081 A  
HETATM   22  C   UNL     1      -7.029   3.509  68.289  1.00  0.00    -0.050 A  
ENDBRANCH  15  17
ENDBRANCH  14  15
ENDBRANCH   3  14
BRANCH  10  23
HETATM   23  S   UNL     1     -10.962  14.222  69.082  1.00  0.00    -0.247 SA 
BRANCH  23  24
HETATM   24  C   UNL     1     -12.280  14.145  70.284  1.00  0.00    -0.349 A  
HETATM   25  C   UNL     1     -12.519  13.027  71.089  1.00  0.00    -0.364 A  
HETATM   26  C   UNL     1     -14.345  14.173  72.187  1.00  0.00    -0.606 A  
HETATM   27  C   UNL     1     -13.553  13.038  72.030  1.00  0.00    -0.530 A  
HETATM   28  C   UNL     1     -14.103  15.300  71.406  1.00  0.00    -0.595 A  
HETATM   29  C   UNL     1     -13.073  15.287  70.463  1.00  0.00    -0.334 A  
ENDBRANCH  23  24
ENDBRANCH  10  23
TORSDOF 5
ENDMDL
MODEL       81
REMARK 921   NORMALIZED FREE ENERGY PREDICTED BY IDOCK:   -5.58 KCAL/MOL
REMARK 922        TOTAL FREE ENERGY PREDICTED BY IDOCK:   -8.38 KCAL/MOL
REMARK 923 INTER-LIGAND FREE ENERGY PREDICTED BY IDOCK:   -7.35 KCAL/MOL
REMARK 924 INTRA-LIGAND FREE ENERGY PREDICTED BY IDOCK:   -1.02 KCAL/MOL
REMARK 927      BINDING AFFINITY PREDICTED BY RF-SCORE:    0.00 PKD
ROOT
HETATM    1  C   UNL     1      -8.627   7.840  71.879  1.00  0.00    -0.143 C  
HETATM    2  C   UNL     1      -9.269   8.682  70.770  1.00  0.00    -0.223 C  
HETATM    3  C   UNL     1     -10.788   8.492  70.659  1.00  0.00    -0.225 C  
HETATM    4  C   UNL     1      -8.664   8.301  69.425  1.00  0.00    -0.142 C  
HETATM    5  O   UNL     1      -8.382   7.133  69.159  1.00  0.00    -0.126 OA 
HETATM    6  C   UNL     1      -6.578   8.482  66.925  1.00  0.00    -0.058 C  
HETATM    7  N   UNL     1      -8.411   9.290  68.502  1.00  0.00    -0.122 N  
HETATM    8  C   UNL     1      -8.660  10.719  68.635  1.00  0.00    -0.151 C  
HETATM    9  C   UNL     1      -8.026   8.955  67.116  1.00  0.00    -0.096 C  
HETATM   10  C   UNL     1      -9.025  11.183  67.225  1.00  0.00    -0.147 C  
HETATM   11  C   UNL     1      -8.214  10.257  66.319  1.00  0.00    -0.131 C  
HETATM   12  O   UNL     1      -5.847   8.397  68.058  1.00  0.00    -0.040 OA 
HETATM   13  O   UNL     1      -6.090   8.235  65.826  1.00  0.00    -0.044 OA 
ENDROOT
BRANCH   3  14
HETATM   14  S   UNL     1     -11.614   8.944  72.208  1.00  0.00    -0.162 SA 
BRANCH  14  15
HETATM   15  C   UNL     1     -12.975   9.885  71.606  1.00  0.00    -0.434 C  
HETATM   16  O   UNL     1     -14.118   9.446  71.625  1.00  0.00    -0.236 OA 
BRANCH  15  17
HETATM   17  C   UNL     1     -12.666  11.258  71.110  1.00  0.00    -0.492 A  
HETATM   18  C   UNL     1     -11.932  11.483  69.935  1.00  0.00    -0.426 A  
HETATM   19  C   UNL     1     -11.655  12.785  69.513  1.00  0.00    -0.342 A  
HETATM   20  C   UNL     1     -12.115  13.870  70.255  1.00  0.00    -0.423 A  
HETATM   21  C   UNL     1     -13.136  12.356  71.843  1.00  0.00    -0.471 A  
HETATM   22  C   UNL     1     -12.855  13.657  71.418  1.00  0.00    -0.442 A  
ENDBRANCH  15  17
ENDBRANCH  14  15
ENDBRANCH   3  14
BRANCH  10  23
HETATM   23  S   UNL     1      -8.639  12.961  67.036  1.00  0.00    -0.127 SA 
BRANCH  23  24
HETATM   24  C   UNL     1      -9.995  13.572  66.047  1.00  0.00    -0.299 A  
HETATM   25  C   UNL     1     -10.303  14.930  65.924  1.00  0.00    -0.330 A  
HETATM   26  C   UNL     1     -12.114  14.411  64.405  1.00  0.00    -0.491 A  
HETATM   27  C   UNL     1     -11.364  15.347  65.114  1.00  0.00    -0.281 A  
HETATM   28  C   UNL     1     -11.803  13.057  64.503  1.00  0.00    -0.431 A  
HETATM   29  C   UNL     1     -10.746  12.641  65.316  1.00  0.00    -0.318 A  
ENDBRANCH  23  24
ENDBRANCH  10  23
TORSDOF 5
ENDMDL
MODEL       82
REMARK 921   NORMALIZED FREE ENERGY PREDICTED BY IDOCK:   -5.58 KCAL/MOL
REMARK 922        TOTAL FREE ENERGY PREDICTED BY IDOCK:   -8.37 KCAL/MOL
REMARK 923 INTER-LIGAND FREE ENERGY PREDICTED BY IDOCK:   -7.61 KCAL/MOL
REMARK 924 INTRA-LIGAND FREE ENERGY PREDICTED BY IDOCK:   -0.77 KCAL/MOL
REMARK 927      BINDING AFFINITY PREDICTED BY RF-SCORE:    0.00 PKD
ROOT
HETATM    1  C   UNL     1     -12.788  12.334  71.390  1.00  0.00    -0.373 C  
HETATM    2  C   UNL     1     -11.872  11.501  70.485  1.00  0.00    -0.363 C  
HETATM    3  C   UNL     1     -12.072  11.781  68.988  1.00  0.00    -0.214 C  
HETATM    4  C   UNL     1     -12.142  10.020  70.710  1.00  0.00    -0.327 C  
HETATM    5  O   UNL     1     -13.283   9.599  70.902  1.00  0.00    -0.277 OA 
HETATM    6  C   UNL     1     -11.745   7.079  72.063  1.00  0.00    -0.295 C  
HETATM    7  N   UNL     1     -11.082   9.141  70.718  1.00  0.00    -0.257 N  
HETATM    8  C   UNL     1      -9.671   9.444  70.525  1.00  0.00    -0.271 C  
HETATM    9  C   UNL     1     -11.306   7.681  70.720  1.00  0.00    -0.281 C  
HETATM   10  C   UNL     1      -9.106   8.221  69.804  1.00  0.00    -0.147 C  
HETATM   11  C   UNL     1      -9.950   7.064  70.339  1.00  0.00    -0.187 C  
HETATM   12  O   UNL     1     -11.907   7.969  73.067  1.00  0.00    -0.264 OA 
HETATM   13  O   UNL     1     -11.902   5.875  72.241  1.00  0.00    -0.303 OA 
ENDROOT
BRANCH   3  14
HETATM   14  S   UNL     1     -11.750  13.523  68.605  1.00  0.00    -0.372 SA 
BRANCH  14  15
HETATM   15  C   UNL     1     -10.537  13.374  67.338  1.00  0.00    -0.251 C  
HETATM   16  O   UNL     1      -9.359  13.642  67.540  1.00  0.00    -0.207 OA 
BRANCH  15  17
HETATM   17  C   UNL     1     -11.014  12.866  66.018  1.00  0.00    -0.301 A  
HETATM   18  C   UNL     1     -12.233  13.273  65.453  1.00  0.00    -0.501 A  
HETATM   19  C   UNL     1     -12.647  12.763  64.221  1.00  0.00    -0.405 A  
HETATM   20  C   UNL     1     -11.844  11.852  63.540  1.00  0.00    -0.560 A  
HETATM   21  C   UNL     1     -10.207  11.958  65.318  1.00  0.00    -0.309 A  
HETATM   22  C   UNL     1     -10.625  11.450  64.086  1.00  0.00    -0.430 A  
ENDBRANCH  15  17
ENDBRANCH  14  15
ENDBRANCH   3  14
BRANCH  10  23
HETATM   23  S   UNL     1      -7.313   8.073  70.141  1.00  0.00    -0.062 SA 
BRANCH  23  24
HETATM   24  C   UNL     1      -7.261   7.386  71.788  1.00  0.00    -0.071 A  
HETATM   25  C   UNL     1      -7.633   8.104  72.929  1.00  0.00    -0.181 A  
HETATM   26  C   UNL     1      -7.199   6.172  74.320  1.00  0.00    -0.087 A  
HETATM   27  C   UNL     1      -7.593   7.502  74.191  1.00  0.00    -0.163 A  
HETATM   28  C   UNL     1      -6.847   5.441  73.188  1.00  0.00    -0.079 A  
HETATM   29  C   UNL     1      -6.883   6.044  71.929  1.00  0.00    -0.069 A  
ENDBRANCH  23  24
ENDBRANCH  10  23
TORSDOF 5
ENDMDL
MODEL       83
REMARK 921   NORMALIZED FREE ENERGY PREDICTED BY IDOCK:   -5.57 KCAL/MOL
REMARK 922        TOTAL FREE ENERGY PREDICTED BY IDOCK:   -8.36 KCAL/MOL
REMARK 923 INTER-LIGAND FREE ENERGY PREDICTED BY IDOCK:   -6.67 KCAL/MOL
REMARK 924 INTRA-LIGAND FREE ENERGY PREDICTED BY IDOCK:   -1.69 KCAL/MOL
REMARK 927      BINDING AFFINITY PREDICTED BY RF-SCORE:    0.00 PKD
ROOT
HETATM    1  C   UNL     1     -10.044   4.812  70.937  1.00  0.00    -0.275 C  
HETATM    2  C   UNL     1     -10.185   5.962  69.932  1.00  0.00    -0.280 C  
HETATM    3  C   UNL     1     -11.636   6.421  69.726  1.00  0.00    -0.327 C  
HETATM    4  C   UNL     1      -9.652   5.521  68.575  1.00  0.00    -0.127 C  
HETATM    5  O   UNL     1      -9.833   4.378  68.157  1.00  0.00    -0.139 OA 
HETATM    6  C   UNL     1      -7.429   5.116  66.223  1.00  0.00    -0.087 C  
HETATM    7  N   UNL     1      -8.936   6.419  67.815  1.00  0.00    -0.115 N  
HETATM    8  C   UNL     1      -8.607   7.800  68.140  1.00  0.00    -0.123 C  
HETATM    9  C   UNL     1      -8.581   6.114  66.415  1.00  0.00    -0.131 C  
HETATM   10  C   UNL     1      -8.616   8.528  66.796  1.00  0.00    -0.114 C  
HETATM   11  C   UNL     1      -8.155   7.460  65.804  1.00  0.00    -0.129 C  
HETATM   12  O   UNL     1      -6.908   4.614  67.365  1.00  0.00    -0.057 OA 
HETATM   13  O   UNL     1      -6.974   4.817  65.124  1.00  0.00    -0.059 OA 
ENDROOT
BRANCH   3  14
HETATM   14  S   UNL     1     -12.363   6.993  71.286  1.00  0.00    -0.374 SA 
BRANCH  14  15
HETATM   15  C   UNL     1     -11.306   8.346  71.678  1.00  0.00    -0.286 C  
HETATM   16  O   UNL     1     -10.359   8.221  72.444  1.00  0.00    -0.284 OA 
BRANCH  15  17
HETATM   17  C   UNL     1     -11.602   9.640  70.996  1.00  0.00    -0.436 A  
HETATM   18  C   UNL     1     -12.457  10.603  71.553  1.00  0.00    -0.471 A  
HETATM   19  C   UNL     1     -12.717  11.796  70.875  1.00  0.00    -0.328 A  
HETATM   20  C   UNL     1     -12.119  12.039  69.642  1.00  0.00    -0.295 A  
HETATM   21  C   UNL     1     -10.994   9.899  69.760  1.00  0.00    -0.304 A  
HETATM   22  C   UNL     1     -11.258  11.094  69.084  1.00  0.00    -0.328 A  
ENDBRANCH  15  17
ENDBRANCH  14  15
ENDBRANCH   3  14
BRANCH  10  23
HETATM   23  S   UNL     1      -7.538  10.003  66.881  1.00  0.00    -0.096 SA 
BRANCH  23  24
HETATM   24  C   UNL     1      -8.672  11.356  66.611  1.00  0.00    -0.178 A  
HETATM   25  C   UNL     1      -8.501  12.623  67.175  1.00  0.00    -0.186 A  
HETATM   26  C   UNL     1     -10.493  13.421  66.056  1.00  0.00    -0.294 A  
HETATM   27  C   UNL     1      -9.412  13.649  66.906  1.00  0.00    -0.263 A  
HETATM   28  C   UNL     1     -10.662  12.169  65.471  1.00  0.00    -0.321 A  
HETATM   29  C   UNL     1      -9.754  11.143  65.744  1.00  0.00    -0.266 A  
ENDBRANCH  23  24
ENDBRANCH  10  23
TORSDOF 5
ENDMDL
MODEL       84
REMARK 921   NORMALIZED FREE ENERGY PREDICTED BY IDOCK:   -5.55 KCAL/MOL
REMARK 922        TOTAL FREE ENERGY PREDICTED BY IDOCK:   -8.34 KCAL/MOL
REMARK 923 INTER-LIGAND FREE ENERGY PREDICTED BY IDOCK:   -7.39 KCAL/MOL
REMARK 924 INTRA-LIGAND FREE ENERGY PREDICTED BY IDOCK:   -0.95 KCAL/MOL
REMARK 927      BINDING AFFINITY PREDICTED BY RF-SCORE:    0.00 PKD
ROOT
HETATM    1  C   UNL     1     -14.263   9.513  71.973  1.00  0.00    -0.081 C  
HETATM    2  C   UNL     1     -12.999   9.997  71.253  1.00  0.00    -0.495 C  
HETATM    3  C   UNL     1     -11.718   9.295  71.726  1.00  0.00    -0.386 C  
HETATM    4  C   UNL     1     -12.814  11.489  71.494  1.00  0.00    -0.380 C  
HETATM    5  O   UNL     1     -13.076  11.999  72.583  1.00  0.00     0.005 OA 
HETATM    6  C   UNL     1     -13.127  14.679  70.886  1.00  0.00    -0.358 C  
HETATM    7  N   UNL     1     -12.365  12.283  70.461  1.00  0.00    -0.306 N  
HETATM    8  C   UNL     1     -12.018  11.872  69.108  1.00  0.00    -0.276 C  
HETATM    9  C   UNL     1     -11.970  13.685  70.698  1.00  0.00    -0.252 C  
HETATM   10  C   UNL     1     -10.874  12.800  68.702  1.00  0.00    -0.253 C  
HETATM   11  C   UNL     1     -11.181  14.100  69.444  1.00  0.00    -0.298 C  
HETATM   12  O   UNL     1     -14.363  14.135  70.846  1.00  0.00     0.180 OA 
HETATM   13  O   UNL     1     -12.961  15.887  71.021  1.00  0.00    -0.477 OA 
ENDROOT
BRANCH   3  14
HETATM   14  S   UNL     1     -11.823   7.505  71.461  1.00  0.00    -0.309 SA 
BRANCH  14  15
HETATM   15  C   UNL     1     -10.256   7.177  70.728  1.00  0.00    -0.197 C  
HETATM   16  O   UNL     1      -9.345   6.660  71.363  1.00  0.00    -0.152 OA 
BRANCH  15  17
HETATM   17  C   UNL     1     -10.111   7.527  69.285  1.00  0.00    -0.188 A  
HETATM   18  C   UNL     1      -9.177   8.472  68.831  1.00  0.00    -0.146 A  
HETATM   19  C   UNL     1      -9.084   8.779  67.473  1.00  0.00    -0.146 A  
HETATM   20  C   UNL     1      -9.914   8.139  66.556  1.00  0.00    -0.302 A  
HETATM   21  C   UNL     1     -10.934   6.879  68.353  1.00  0.00    -0.198 A  
HETATM   22  C   UNL     1     -10.837   7.189  66.994  1.00  0.00    -0.382 A  
ENDBRANCH  15  17
ENDBRANCH  14  15
ENDBRANCH   3  14
BRANCH  10  23
HETATM   23  S   UNL     1     -10.819  12.959  66.880  1.00  0.00    -0.261 SA 
BRANCH  23  24
HETATM   24  C   UNL     1     -10.006  14.530  66.631  1.00  0.00    -0.270 A  
HETATM   25  C   UNL     1     -10.688  15.695  66.266  1.00  0.00    -0.295 A  
HETATM   26  C   UNL     1      -8.624  16.957  66.335  1.00  0.00    -0.328 A  
HETATM   27  C   UNL     1      -9.998  16.901  66.109  1.00  0.00    -0.332 A  
HETATM   28  C   UNL     1      -7.938  15.808  66.720  1.00  0.00    -0.273 A  
HETATM   29  C   UNL     1      -8.627  14.603  66.871  1.00  0.00    -0.233 A  
ENDBRANCH  23  24
ENDBRANCH  10  23
TORSDOF 5
ENDMDL
MODEL       85
REMARK 921   NORMALIZED FREE ENERGY PREDICTED BY IDOCK:   -5.51 KCAL/MOL
REMARK 922        TOTAL FREE ENERGY PREDICTED BY IDOCK:   -8.29 KCAL/MOL
REMARK 923 INTER-LIGAND FREE ENERGY PREDICTED BY IDOCK:   -7.30 KCAL/MOL
REMARK 924 INTRA-LIGAND FREE ENERGY PREDICTED BY IDOCK:   -0.99 KCAL/MOL
REMARK 927      BINDING AFFINITY PREDICTED BY RF-SCORE:    0.00 PKD
ROOT
HETATM    1  C   UNL     1     -12.022  13.742  66.543  1.00  0.00    -0.470 C  
HETATM    2  C   UNL     1     -10.984  13.837  67.666  1.00  0.00    -0.278 C  
HETATM    3  C   UNL     1     -11.502  13.340  69.024  1.00  0.00    -0.302 C  
HETATM    4  C   UNL     1     -10.559  15.289  67.847  1.00  0.00    -0.260 C  
HETATM    5  O   UNL     1     -11.369  16.209  67.744  1.00  0.00    -0.257 OA 
HETATM    6  C   UNL     1      -8.751  17.959  67.359  1.00  0.00    -0.237 C  
HETATM    7  N   UNL     1      -9.237  15.571  68.109  1.00  0.00    -0.187 N  
HETATM    8  C   UNL     1      -8.136  14.628  68.252  1.00  0.00    -0.143 C  
HETATM    9  C   UNL     1      -8.814  16.930  68.499  1.00  0.00    -0.251 C  
HETATM   10  C   UNL     1      -7.216  15.262  69.295  1.00  0.00    -0.184 C  
HETATM   11  C   UNL     1      -7.396  16.763  69.072  1.00  0.00    -0.231 C  
HETATM   12  O   UNL     1      -9.126  17.496  66.146  1.00  0.00    -0.445 OA 
HETATM   13  O   UNL     1      -8.351  19.108  67.512  1.00  0.00    -0.279 OA 
ENDROOT
BRANCH   3  14
HETATM   14  S   UNL     1     -12.014  11.604  68.926  1.00  0.00    -0.219 SA 
BRANCH  14  15
HETATM   15  C   UNL     1     -12.229  11.216  70.630  1.00  0.00    -0.397 C  
HETATM   16  O   UNL     1     -12.938  11.897  71.360  1.00  0.00    -0.385 OA 
BRANCH  15  17
HETATM   17  C   UNL     1     -11.532   9.993  71.126  1.00  0.00    -0.432 A  
HETATM   18  C   UNL     1     -10.244   9.636  70.696  1.00  0.00    -0.346 A  
HETATM   19  C   UNL     1      -9.635   8.476  71.176  1.00  0.00    -0.248 A  
HETATM   20  C   UNL     1     -10.300   7.669  72.095  1.00  0.00    -0.270 A  
HETATM   21  C   UNL     1     -12.189   9.181  72.061  1.00  0.00    -0.443 A  
HETATM   22  C   UNL     1     -11.576   8.020  72.538  1.00  0.00    -0.464 A  
ENDBRANCH  15  17
ENDBRANCH  14  15
ENDBRANCH   3  14
BRANCH  10  23
HETATM   23  S   UNL     1      -5.504  14.659  69.062  1.00  0.00    -0.090 SA 
BRANCH  23  24
HETATM   24  C   UNL     1      -5.703  12.887  68.969  1.00  0.00    -0.072 A  
HETATM   25  C   UNL     1      -5.446  12.148  67.811  1.00  0.00    -0.076 A  
HETATM   26  C   UNL     1      -5.990  10.093  68.969  1.00  0.00    -0.037 A  
HETATM   27  C   UNL     1      -5.598  10.757  67.808  1.00  0.00    -0.043 A  
HETATM   28  C   UNL     1      -6.228  10.817  70.134  1.00  0.00    -0.136 A  
HETATM   29  C   UNL     1      -6.081  12.206  70.134  1.00  0.00    -0.121 A  
ENDBRANCH  23  24
ENDBRANCH  10  23
TORSDOF 5
ENDMDL
MODEL       86
REMARK 921   NORMALIZED FREE ENERGY PREDICTED BY IDOCK:   -5.51 KCAL/MOL
REMARK 922        TOTAL FREE ENERGY PREDICTED BY IDOCK:   -8.29 KCAL/MOL
REMARK 923 INTER-LIGAND FREE ENERGY PREDICTED BY IDOCK:   -7.29 KCAL/MOL
REMARK 924 INTRA-LIGAND FREE ENERGY PREDICTED BY IDOCK:   -1.00 KCAL/MOL
REMARK 927      BINDING AFFINITY PREDICTED BY RF-SCORE:    0.00 PKD
ROOT
HETATM    1  C   UNL     1     -10.338  10.440  65.666  1.00  0.00    -0.260 C  
HETATM    2  C   UNL     1      -9.356  11.286  66.486  1.00  0.00    -0.201 C  
HETATM    3  C   UNL     1      -8.348  10.449  67.286  1.00  0.00    -0.122 C  
HETATM    4  C   UNL     1     -10.128  12.141  67.481  1.00  0.00    -0.196 C  
HETATM    5  O   UNL     1     -11.124  11.707  68.061  1.00  0.00    -0.210 OA 
HETATM    6  C   UNL     1     -11.699  14.786  68.566  1.00  0.00    -0.317 C  
HETATM    7  N   UNL     1      -9.711  13.432  67.718  1.00  0.00    -0.210 N  
HETATM    8  C   UNL     1      -8.576  14.125  67.125  1.00  0.00    -0.214 C  
HETATM    9  C   UNL     1     -10.290  14.227  68.819  1.00  0.00    -0.239 C  
HETATM   10  C   UNL     1      -8.066  15.051  68.229  1.00  0.00    -0.133 C  
HETATM   11  C   UNL     1      -9.330  15.414  69.008  1.00  0.00    -0.232 C  
HETATM   12  O   UNL     1     -12.246  14.448  67.378  1.00  0.00    -0.364 OA 
HETATM   13  O   UNL     1     -12.282  15.522  69.356  1.00  0.00    -0.312 OA 
ENDROOT
BRANCH   3  14
HETATM   14  S   UNL     1      -7.353   9.405  66.187  1.00  0.00    -0.097 SA 
BRANCH  14  15
HETATM   15  C   UNL     1      -7.335   7.890  67.083  1.00  0.00    -0.091 C  
HETATM   16  O   UNL     1      -6.289   7.304  67.336  1.00  0.00    -0.050 OA 
BRANCH  15  17
HETATM   17  C   UNL     1      -8.657   7.378  67.550  1.00  0.00    -0.122 A  
HETATM   18  C   UNL     1      -8.991   7.295  68.911  1.00  0.00    -0.133 A  
HETATM   19  C   UNL     1     -10.235   6.799  69.305  1.00  0.00    -0.197 A  
HETATM   20  C   UNL     1     -11.158   6.391  68.344  1.00  0.00    -0.374 A  
HETATM   21  C   UNL     1      -9.597   6.977  66.591  1.00  0.00    -0.220 A  
HETATM   22  C   UNL     1     -10.840   6.480  66.989  1.00  0.00    -0.465 A  
ENDBRANCH  15  17
ENDBRANCH  14  15
ENDBRANCH   3  14
BRANCH  10  23
HETATM   23  S   UNL     1      -7.192  16.478  67.490  1.00  0.00    -0.156 SA 
BRANCH  23  24
HETATM   24  C   UNL     1      -8.448  17.747  67.441  1.00  0.00    -0.226 A  
HETATM   25  C   UNL     1      -8.476  18.831  68.323  1.00  0.00    -0.357 A  
HETATM   26  C   UNL     1     -10.440  19.714  67.219  1.00  0.00    -0.596 A  
HETATM   27  C   UNL     1      -9.473  19.806  68.218  1.00  0.00    -0.440 A  
HETATM   28  C   UNL     1     -10.410  18.650  66.322  1.00  0.00    -0.483 A  
HETATM   29  C   UNL     1      -9.416  17.674  66.430  1.00  0.00    -0.274 A  
ENDBRANCH  23  24
ENDBRANCH  10  23
TORSDOF 5
ENDMDL
MODEL       87
REMARK 921   NORMALIZED FREE ENERGY PREDICTED BY IDOCK:   -5.51 KCAL/MOL
REMARK 922        TOTAL FREE ENERGY PREDICTED BY IDOCK:   -8.29 KCAL/MOL
REMARK 923 INTER-LIGAND FREE ENERGY PREDICTED BY IDOCK:   -5.97 KCAL/MOL
REMARK 924 INTRA-LIGAND FREE ENERGY PREDICTED BY IDOCK:   -2.32 KCAL/MOL
REMARK 927      BINDING AFFINITY PREDICTED BY RF-SCORE:    0.00 PKD
ROOT
HETATM    1  C   UNL     1      -9.993   4.678  71.093  1.00  0.00    -0.265 C  
HETATM    2  C   UNL     1      -9.751   6.178  70.889  1.00  0.00    -0.203 C  
HETATM    3  C   UNL     1      -8.357   6.640  71.337  1.00  0.00    -0.120 C  
HETATM    4  C   UNL     1     -10.772   6.973  71.691  1.00  0.00    -0.220 C  
HETATM    5  O   UNL     1     -11.136   6.605  72.808  1.00  0.00    -0.251 OA 
HETATM    6  C   UNL     1     -13.572   8.557  72.236  1.00  0.00    -0.328 C  
HETATM    7  N   UNL     1     -11.311   8.116  71.142  1.00  0.00    -0.264 N  
HETATM    8  C   UNL     1     -11.021   8.702  69.841  1.00  0.00    -0.168 C  
HETATM    9  C   UNL     1     -12.138   9.031  71.953  1.00  0.00    -0.378 C  
HETATM   10  C   UNL     1     -11.143  10.210  70.058  1.00  0.00    -0.308 C  
HETATM   11  C   UNL     1     -12.217  10.333  71.138  1.00  0.00    -0.500 C  
HETATM   12  O   UNL     1     -13.884   7.341  71.736  1.00  0.00    -0.365 OA 
HETATM   13  O   UNL     1     -14.399   9.236  72.835  1.00  0.00    -0.461 OA 
ENDROOT
BRANCH   3  14
HETATM   14  S   UNL     1      -7.059   5.767  70.421  1.00  0.00    -0.072 SA 
BRANCH  14  15
HETATM   15  C   UNL     1      -6.618   6.977  69.221  1.00  0.00    -0.045 C  
HETATM   16  O   UNL     1      -5.786   7.844  69.456  1.00  0.00    -0.026 OA 
BRANCH  15  17
HETATM   17  C   UNL     1      -7.284   6.865  67.890  1.00  0.00    -0.095 A  
HETATM   18  C   UNL     1      -8.681   6.842  67.749  1.00  0.00    -0.120 A  
HETATM   19  C   UNL     1      -9.262   6.724  66.485  1.00  0.00    -0.190 A  
HETATM   20  C   UNL     1      -8.456   6.638  65.353  1.00  0.00    -0.112 A  
HETATM   21  C   UNL     1      -6.481   6.792  66.743  1.00  0.00    -0.043 A  
HETATM   22  C   UNL     1      -7.067   6.673  65.480  1.00  0.00    -0.064 A  
ENDBRANCH  15  17
ENDBRANCH  14  15
ENDBRANCH   3  14
BRANCH  10  23
HETATM   23  S   UNL     1     -11.556  11.034  68.478  1.00  0.00    -0.280 SA 
BRANCH  23  24
HETATM   24  C   UNL     1     -10.131  10.697  67.455  1.00  0.00    -0.184 A  
HETATM   25  C   UNL     1     -10.208  10.511  66.072  1.00  0.00    -0.310 A  
HETATM   26  C   UNL     1      -7.806  10.238  65.947  1.00  0.00    -0.139 A  
HETATM   27  C   UNL     1      -9.051  10.274  65.322  1.00  0.00    -0.228 A  
HETATM   28  C   UNL     1      -7.715  10.442  67.321  1.00  0.00    -0.099 A  
HETATM   29  C   UNL     1      -8.871  10.674  68.070  1.00  0.00    -0.130 A  
ENDBRANCH  23  24
ENDBRANCH  10  23
TORSDOF 5
ENDMDL
MODEL       88
REMARK 921   NORMALIZED FREE ENERGY PREDICTED BY IDOCK:   -5.51 KCAL/MOL
REMARK 922        TOTAL FREE ENERGY PREDICTED BY IDOCK:   -8.28 KCAL/MOL
REMARK 923 INTER-LIGAND FREE ENERGY PREDICTED BY IDOCK:   -7.23 KCAL/MOL
REMARK 924 INTRA-LIGAND FREE ENERGY PREDICTED BY IDOCK:   -1.05 KCAL/MOL
REMARK 927      BINDING AFFINITY PREDICTED BY RF-SCORE:    0.00 PKD
ROOT
HETATM    1  C   UNL     1      -5.872   9.626  68.842  1.00  0.00    -0.039 C  
HETATM    2  C   UNL     1      -7.265   9.665  68.202  1.00  0.00    -0.080 C  
HETATM    3  C   UNL     1      -8.280   8.739  68.889  1.00  0.00    -0.118 C  
HETATM    4  C   UNL     1      -7.170   9.232  66.745  1.00  0.00    -0.083 C  
HETATM    5  O   UNL     1      -6.410   8.330  66.394  1.00  0.00    -0.049 OA 
HETATM    6  C   UNL     1      -6.820   9.624  63.526  1.00  0.00    -0.110 C  
HETATM    7  N   UNL     1      -7.937   9.883  65.804  1.00  0.00    -0.116 N  
HETATM    8  C   UNL     1      -8.877  10.974  66.019  1.00  0.00    -0.191 C  
HETATM    9  C   UNL     1      -8.041   9.369  64.424  1.00  0.00    -0.138 C  
HETATM   10  C   UNL     1      -9.980  10.745  64.987  1.00  0.00    -0.300 C  
HETATM   11  C   UNL     1      -9.247  10.101  63.811  1.00  0.00    -0.321 C  
HETATM   12  O   UNL     1      -5.788  10.256  64.126  1.00  0.00    -0.130 OA 
HETATM   13  O   UNL     1      -6.784   9.320  62.338  1.00  0.00    -0.094 OA 
ENDROOT
BRANCH   3  14
HETATM   14  S   UNL     1      -8.488   9.186  70.634  1.00  0.00    -0.216 SA 
BRANCH  14  15
HETATM   15  C   UNL     1      -9.874   8.194  71.075  1.00  0.00    -0.179 C  
HETATM   16  O   UNL     1      -9.787   6.976  71.178  1.00  0.00    -0.177 OA 
BRANCH  15  17
HETATM   17  C   UNL     1     -11.148   8.919  71.354  1.00  0.00    -0.376 A  
HETATM   18  C   UNL     1     -12.153   8.383  72.176  1.00  0.00    -0.435 A  
HETATM   19  C   UNL     1     -13.335   9.091  72.401  1.00  0.00    -0.516 A  
HETATM   20  C   UNL     1     -13.520  10.341  71.816  1.00  0.00    -0.387 A  
HETATM   21  C   UNL     1     -11.338  10.183  70.780  1.00  0.00    -0.436 A  
HETATM   22  C   UNL     1     -12.524  10.888  71.007  1.00  0.00    -0.514 A  
ENDBRANCH  15  17
ENDBRANCH  14  15
ENDBRANCH   3  14
BRANCH  10  23
HETATM   23  S   UNL     1     -10.802  12.331  64.593  1.00  0.00    -0.328 SA 
BRANCH  23  24
HETATM   24  C   UNL     1     -10.871  13.160  66.173  1.00  0.00    -0.279 A  
HETATM   25  C   UNL     1     -10.142  14.317  66.463  1.00  0.00    -0.283 A  
HETATM   26  C   UNL     1     -11.115  14.409  68.677  1.00  0.00    -0.269 A  
HETATM   27  C   UNL     1     -10.256  14.934  67.713  1.00  0.00    -0.236 A  
HETATM   28  C   UNL     1     -11.862  13.270  68.392  1.00  0.00    -0.395 A  
HETATM   29  C   UNL     1     -11.743  12.651  67.145  1.00  0.00    -0.438 A  
ENDBRANCH  23  24
ENDBRANCH  10  23
TORSDOF 5
ENDMDL
MODEL       89
REMARK 921   NORMALIZED FREE ENERGY PREDICTED BY IDOCK:   -5.50 KCAL/MOL
REMARK 922        TOTAL FREE ENERGY PREDICTED BY IDOCK:   -8.28 KCAL/MOL
REMARK 923 INTER-LIGAND FREE ENERGY PREDICTED BY IDOCK:   -7.69 KCAL/MOL
REMARK 924 INTRA-LIGAND FREE ENERGY PREDICTED BY IDOCK:   -0.59 KCAL/MOL
REMARK 927      BINDING AFFINITY PREDICTED BY RF-SCORE:    0.00 PKD
ROOT
HETATM    1  C   UNL     1     -10.045   8.879  67.678  1.00  0.00    -0.274 C  
HETATM    2  C   UNL     1      -9.899  10.314  68.199  1.00  0.00    -0.166 C  
HETATM    3  C   UNL     1     -10.015  10.426  69.726  1.00  0.00    -0.124 C  
HETATM    4  C   UNL     1     -10.989  11.189  67.596  1.00  0.00    -0.269 C  
HETATM    5  O   UNL     1     -12.130  10.762  67.424  1.00  0.00     0.089 OA 
HETATM    6  C   UNL     1     -12.337  13.220  65.428  1.00  0.00    -0.479 C  
HETATM    7  N   UNL     1     -10.679  12.477  67.217  1.00  0.00    -0.230 N  
HETATM    8  C   UNL     1      -9.394  13.153  67.326  1.00  0.00    -0.225 C  
HETATM    9  C   UNL     1     -11.738  13.429  66.827  1.00  0.00    -0.385 C  
HETATM   10  C   UNL     1      -9.747  14.615  67.601  1.00  0.00    -0.214 C  
HETATM   11  C   UNL     1     -11.069  14.813  66.860  1.00  0.00    -0.339 C  
HETATM   12  O   UNL     1     -11.842  12.165  64.743  1.00  0.00    -0.357 OA 
HETATM   13  O   UNL     1     -13.173  13.970  64.935  1.00  0.00    -0.593 OA 
ENDROOT
BRANCH   3  14
HETATM   14  S   UNL     1      -8.739   9.434  70.549  1.00  0.00    -0.200 SA 
BRANCH  14  15
HETATM   15  C   UNL     1      -9.703   8.554  71.731  1.00  0.00    -0.267 C  
HETATM   16  O   UNL     1     -10.882   8.819  71.925  1.00  0.00    -0.314 OA 
BRANCH  15  17
HETATM   17  C   UNL     1      -9.015   7.445  72.455  1.00  0.00    -0.165 A  
HETATM   18  C   UNL     1      -8.209   7.670  73.582  1.00  0.00    -0.218 A  
HETATM   19  C   UNL     1      -7.574   6.604  74.222  1.00  0.00    -0.100 A  
HETATM   20  C   UNL     1      -7.746   5.306  73.749  1.00  0.00    -0.102 A  
HETATM   21  C   UNL     1      -9.193   6.133  71.994  1.00  0.00    -0.148 A  
HETATM   22  C   UNL     1      -8.555   5.069  72.637  1.00  0.00    -0.119 A  
ENDBRANCH  15  17
ENDBRANCH  14  15
ENDBRANCH   3  14
BRANCH  10  23
HETATM   23  S   UNL     1      -8.387  15.700  67.033  1.00  0.00    -0.249 SA 
BRANCH  23  24
HETATM   24  C   UNL     1      -9.003  17.341  67.375  1.00  0.00    -0.222 A  
HETATM   25  C   UNL     1      -9.593  17.700  68.591  1.00  0.00    -0.307 A  
HETATM   26  C   UNL     1      -9.873  19.975  67.814  1.00  0.00    -0.545 A  
HETATM   27  C   UNL     1     -10.034  19.009  68.806  1.00  0.00    -0.475 A  
HETATM   28  C   UNL     1      -9.269  19.634  66.608  1.00  0.00    -0.439 A  
HETATM   29  C   UNL     1      -8.832  18.325  66.391  1.00  0.00    -0.256 A  
ENDBRANCH  23  24
ENDBRANCH  10  23
TORSDOF 5
ENDMDL
MODEL       90
REMARK 921   NORMALIZED FREE ENERGY PREDICTED BY IDOCK:   -5.45 KCAL/MOL
REMARK 922        TOTAL FREE ENERGY PREDICTED BY IDOCK:   -8.21 KCAL/MOL
REMARK 923 INTER-LIGAND FREE ENERGY PREDICTED BY IDOCK:   -7.00 KCAL/MOL
REMARK 924 INTRA-LIGAND FREE ENERGY PREDICTED BY IDOCK:   -1.21 KCAL/MOL
REMARK 927      BINDING AFFINITY PREDICTED BY RF-SCORE:    0.00 PKD
ROOT
HETATM    1  C   UNL     1      -9.785   4.413  68.086  1.00  0.00    -0.181 C  
HETATM    2  C   UNL     1      -9.966   5.835  68.629  1.00  0.00    -0.201 C  
HETATM    3  C   UNL     1      -9.019   6.860  67.988  1.00  0.00    -0.121 C  
HETATM    4  C   UNL     1      -9.699   5.847  70.128  1.00  0.00    -0.168 C  
HETATM    5  O   UNL     1      -8.807   5.160  70.625  1.00  0.00    -0.123 OA 
HETATM    6  C   UNL     1     -10.440   5.658  73.299  1.00  0.00    -0.231 C  
HETATM    7  N   UNL     1     -10.491   6.628  70.941  1.00  0.00    -0.212 N  
HETATM    8  C   UNL     1     -11.595   7.492  70.548  1.00  0.00    -0.200 C  
HETATM    9  C   UNL     1     -10.145   6.838  72.361  1.00  0.00    -0.170 C  
HETATM   10  C   UNL     1     -11.540   8.663  71.528  1.00  0.00    -0.302 C  
HETATM   11  C   UNL     1     -11.000   8.034  72.812  1.00  0.00    -0.449 C  
HETATM   12  O   UNL     1     -10.948   4.559  72.698  1.00  0.00    -0.161 OA 
HETATM   13  O   UNL     1     -10.274   5.706  74.514  1.00  0.00    -0.257 OA 
ENDROOT
BRANCH   3  14
HETATM   14  S   UNL     1      -9.271   6.944  66.195  1.00  0.00    -0.018 SA 
BRANCH  14  15
HETATM   15  C   UNL     1      -8.251   8.315  65.772  1.00  0.00    -0.123 C  
HETATM   16  O   UNL     1      -7.321   8.206  64.983  1.00  0.00    -0.077 OA 
BRANCH  15  17
HETATM   17  C   UNL     1      -8.605   9.624  66.396  1.00  0.00    -0.136 A  
HETATM   18  C   UNL     1      -9.929  10.080  66.484  1.00  0.00    -0.286 A  
HETATM   19  C   UNL     1     -10.214  11.317  67.065  1.00  0.00    -0.250 A  
HETATM   20  C   UNL     1      -9.182  12.103  67.572  1.00  0.00    -0.182 A  
HETATM   21  C   UNL     1      -7.574  10.416  66.920  1.00  0.00    -0.107 A  
HETATM   22  C   UNL     1      -7.863  11.654  67.501  1.00  0.00    -0.137 A  
ENDBRANCH  15  17
ENDBRANCH  14  15
ENDBRANCH   3  14
BRANCH  10  23
HETATM   23  S   UNL     1     -13.200   9.416  71.690  1.00  0.00    -0.418 SA 
BRANCH  23  24
HETATM   24  C   UNL     1     -12.894  11.150  71.389  1.00  0.00    -0.439 A  
HETATM   25  C   UNL     1     -12.039  11.613  70.384  1.00  0.00    -0.462 A  
HETATM   26  C   UNL     1     -12.546  13.905  70.971  1.00  0.00    -0.444 A  
HETATM   27  C   UNL     1     -11.859  12.985  70.182  1.00  0.00    -0.324 A  
HETATM   28  C   UNL     1     -13.416  13.455  71.961  1.00  0.00    -0.584 A  
HETATM   29  C   UNL     1     -13.591  12.085  72.165  1.00  0.00    -0.236 A  
ENDBRANCH  23  24
ENDBRANCH  10  23
TORSDOF 5
ENDMDL
MODEL       91
REMARK 921   NORMALIZED FREE ENERGY PREDICTED BY IDOCK:   -5.44 KCAL/MOL
REMARK 922        TOTAL FREE ENERGY PREDICTED BY IDOCK:   -8.20 KCAL/MOL
REMARK 923 INTER-LIGAND FREE ENERGY PREDICTED BY IDOCK:   -7.22 KCAL/MOL
REMARK 924 INTRA-LIGAND FREE ENERGY PREDICTED BY IDOCK:   -0.97 KCAL/MOL
REMARK 927      BINDING AFFINITY PREDICTED BY RF-SCORE:    0.00 PKD
ROOT
HETATM    1  C   UNL     1     -12.081  12.008  65.421  1.00  0.00    -0.095 C  
HETATM    2  C   UNL     1     -11.267  12.737  66.497  1.00  0.00    -0.349 C  
HETATM    3  C   UNL     1     -11.647  12.335  67.929  1.00  0.00    -0.354 C  
HETATM    4  C   UNL     1     -11.489  14.239  66.373  1.00  0.00    -0.355 C  
HETATM    5  O   UNL     1     -12.593  14.701  66.087  1.00  0.00    -0.169 OA 
HETATM    6  C   UNL     1     -10.894  17.275  65.340  1.00  0.00    -0.021 C  
HETATM    7  N   UNL     1     -10.423  15.089  66.567  1.00  0.00    -0.278 N  
HETATM    8  C   UNL     1      -9.049  14.737  66.896  1.00  0.00    -0.248 C  
HETATM    9  C   UNL     1     -10.625  16.549  66.667  1.00  0.00    -0.216 C  
HETATM   10  C   UNL     1      -8.556  15.880  67.783  1.00  0.00    -0.159 C  
HETATM   11  C   UNL     1      -9.315  17.098  67.257  1.00  0.00    -0.242 C  
HETATM   12  O   UNL     1     -10.948  16.478  64.250  1.00  0.00    -0.848 OA 
HETATM   13  O   UNL     1     -11.012  18.493  65.252  1.00  0.00    -0.551 OA 
ENDROOT
BRANCH   3  14
HETATM   14  S   UNL     1     -11.396  10.558  68.192  1.00  0.00    -0.174 SA 
BRANCH  14  15
HETATM   15  C   UNL     1      -9.894  10.560  69.110  1.00  0.00    -0.218 C  
HETATM   16  O   UNL     1      -8.941  11.256  68.783  1.00  0.00    -0.170 OA 
BRANCH  15  17
HETATM   17  C   UNL     1      -9.859   9.697  70.328  1.00  0.00    -0.321 A  
HETATM   18  C   UNL     1     -11.009   9.413  71.080  1.00  0.00    -0.430 A  
HETATM   19  C   UNL     1     -10.929   8.612  72.220  1.00  0.00    -0.392 A  
HETATM   20  C   UNL     1      -9.703   8.080  72.612  1.00  0.00    -0.332 A  
HETATM   21  C   UNL     1      -8.631   9.147  70.723  1.00  0.00    -0.265 A  
HETATM   22  C   UNL     1      -8.556   8.345  71.865  1.00  0.00    -0.248 A  
ENDBRANCH  15  17
ENDBRANCH  14  15
ENDBRANCH   3  14
BRANCH  10  23
HETATM   23  S   UNL     1      -6.735  16.012  67.672  1.00  0.00    -0.179 SA 
BRANCH  23  24
HETATM   24  C   UNL     1      -6.166  14.538  68.502  1.00  0.00    -0.089 A  
HETATM   25  C   UNL     1      -6.287  14.341  69.881  1.00  0.00    -0.150 A  
HETATM   26  C   UNL     1      -5.291  12.144  69.683  1.00  0.00    -0.077 A  
HETATM   27  C   UNL     1      -5.843  13.153  70.470  1.00  0.00    -0.150 A  
HETATM   28  C   UNL     1      -5.185  12.320  68.306  1.00  0.00    -0.056 A  
HETATM   29  C   UNL     1      -5.624  13.509  67.719  1.00  0.00    -0.087 A  
ENDBRANCH  23  24
ENDBRANCH  10  23
TORSDOF 5
ENDMDL
MODEL       92
REMARK 921   NORMALIZED FREE ENERGY PREDICTED BY IDOCK:   -5.43 KCAL/MOL
REMARK 922        TOTAL FREE ENERGY PREDICTED BY IDOCK:   -8.18 KCAL/MOL
REMARK 923 INTER-LIGAND FREE ENERGY PREDICTED BY IDOCK:   -7.26 KCAL/MOL
REMARK 924 INTRA-LIGAND FREE ENERGY PREDICTED BY IDOCK:   -0.92 KCAL/MOL
REMARK 927      BINDING AFFINITY PREDICTED BY RF-SCORE:    0.00 PKD
ROOT
HETATM    1  C   UNL     1     -10.707   8.757  71.747  1.00  0.00    -0.413 C  
HETATM    2  C   UNL     1     -10.397   9.608  70.509  1.00  0.00    -0.359 C  
HETATM    3  C   UNL     1     -11.647  10.208  69.849  1.00  0.00    -0.223 C  
HETATM    4  C   UNL     1      -9.698   8.751  69.463  1.00  0.00    -0.172 C  
HETATM    5  O   UNL     1     -10.021   7.578  69.277  1.00  0.00    -0.171 OA 
HETATM    6  C   UNL     1      -7.170   7.413  67.895  1.00  0.00    -0.091 C  
HETATM    7  N   UNL     1      -8.670   9.299  68.727  1.00  0.00    -0.130 N  
HETATM    8  C   UNL     1      -8.138  10.652  68.810  1.00  0.00    -0.139 C  
HETATM    9  C   UNL     1      -8.105   8.586  67.565  1.00  0.00    -0.107 C  
HETATM   10  C   UNL     1      -7.719  10.992  67.380  1.00  0.00    -0.114 C  
HETATM   11  C   UNL     1      -7.294   9.644  66.798  1.00  0.00    -0.091 C  
HETATM   12  O   UNL     1      -7.011   7.158  69.213  1.00  0.00    -0.065 OA 
HETATM   13  O   UNL     1      -6.570   6.770  67.040  1.00  0.00    -0.041 OA 
ENDROOT
BRANCH   3  14
HETATM   14  S   UNL     1     -12.546  11.273  71.009  1.00  0.00    -0.356 SA 
BRANCH  14  15
HETATM   15  C   UNL     1     -12.211  12.865  70.337  1.00  0.00    -0.304 C  
HETATM   16  O   UNL     1     -11.918  13.018  69.158  1.00  0.00    -0.303 OA 
BRANCH  15  17
HETATM   17  C   UNL     1     -12.342  14.021  71.273  1.00  0.00    -0.436 A  
HETATM   18  C   UNL     1     -11.599  15.202  71.115  1.00  0.00    -0.405 A  
HETATM   19  C   UNL     1     -11.743  16.254  72.021  1.00  0.00    -0.528 A  
HETATM   20  C   UNL     1     -12.636  16.141  73.083  1.00  0.00    -0.599 A  
HETATM   21  C   UNL     1     -13.247  13.922  72.338  1.00  0.00    -0.587 A  
HETATM   22  C   UNL     1     -13.388  14.977  73.242  1.00  0.00    -0.429 A  
ENDBRANCH  15  17
ENDBRANCH  14  15
ENDBRANCH   3  14
BRANCH  10  23
HETATM   23  S   UNL     1      -6.400  12.260  67.404  1.00  0.00    -0.153 SA 
BRANCH  23  24
HETATM   24  C   UNL     1      -7.304  13.786  67.610  1.00  0.00    -0.172 A  
HETATM   25  C   UNL     1      -8.695  13.842  67.733  1.00  0.00    -0.182 A  
HETATM   26  C   UNL     1      -8.604  16.246  67.996  1.00  0.00    -0.176 A  
HETATM   27  C   UNL     1      -9.343  15.067  67.916  1.00  0.00    -0.183 A  
HETATM   28  C   UNL     1      -7.216  16.201  67.896  1.00  0.00    -0.144 A  
HETATM   29  C   UNL     1      -6.570  14.977  67.708  1.00  0.00    -0.189 A  
ENDBRANCH  23  24
ENDBRANCH  10  23
TORSDOF 5
ENDMDL
MODEL       93
REMARK 921   NORMALIZED FREE ENERGY PREDICTED BY IDOCK:   -5.43 KCAL/MOL
REMARK 922        TOTAL FREE ENERGY PREDICTED BY IDOCK:   -8.18 KCAL/MOL
REMARK 923 INTER-LIGAND FREE ENERGY PREDICTED BY IDOCK:   -6.56 KCAL/MOL
REMARK 924 INTRA-LIGAND FREE ENERGY PREDICTED BY IDOCK:   -1.63 KCAL/MOL
REMARK 927      BINDING AFFINITY PREDICTED BY RF-SCORE:    0.00 PKD
ROOT
HETATM    1  C   UNL     1      -8.779  17.430  66.166  1.00  0.00    -0.182 C  
HETATM    2  C   UNL     1      -8.776  15.964  66.616  1.00  0.00    -0.324 C  
HETATM    3  C   UNL     1     -10.179  15.346  66.702  1.00  0.00    -0.277 C  
HETATM    4  C   UNL     1      -8.146  15.855  67.998  1.00  0.00    -0.141 C  
HETATM    5  O   UNL     1      -8.343  16.711  68.860  1.00  0.00    -0.238 OA 
HETATM    6  C   UNL     1      -5.746  15.444  70.167  1.00  0.00    -0.144 C  
HETATM    7  N   UNL     1      -7.324  14.786  68.276  1.00  0.00    -0.107 N  
HETATM    8  C   UNL     1      -6.961  13.687  67.392  1.00  0.00    -0.057 C  
HETATM    9  C   UNL     1      -6.861  14.522  69.653  1.00  0.00    -0.142 C  
HETATM   10  C   UNL     1      -6.816  12.478  68.315  1.00  0.00    -0.082 C  
HETATM   11  C   UNL     1      -6.320  13.082  69.627  1.00  0.00    -0.089 C  
HETATM   12  O   UNL     1      -5.352  16.406  69.304  1.00  0.00    -0.118 OA 
HETATM   13  O   UNL     1      -5.210  15.305  71.262  1.00  0.00    -0.143 OA 
ENDROOT
BRANCH   3  14
HETATM   14  S   UNL     1     -11.013  15.403  65.094  1.00  0.00    -0.418 SA 
BRANCH  14  15
HETATM   15  C   UNL     1     -11.950  13.913  65.144  1.00  0.00    -0.385 C  
HETATM   16  O   UNL     1     -13.162  13.921  65.319  1.00  0.00    -0.774 OA 
BRANCH  15  17
HETATM   17  C   UNL     1     -11.194  12.645  64.924  1.00  0.00    -0.332 A  
HETATM   18  C   UNL     1     -10.714  12.266  63.661  1.00  0.00    -0.513 A  
HETATM   19  C   UNL     1     -10.021  11.065  63.498  1.00  0.00    -0.421 A  
HETATM   20  C   UNL     1      -9.795  10.238  64.595  1.00  0.00    -0.396 A  
HETATM   21  C   UNL     1     -10.950  11.812  66.025  1.00  0.00    -0.355 A  
HETATM   22  C   UNL     1     -10.257  10.610  65.857  1.00  0.00    -0.314 A  
ENDBRANCH  15  17
ENDBRANCH  14  15
ENDBRANCH   3  14
BRANCH  10  23
HETATM   23  S   UNL     1      -5.680  11.255  67.564  1.00  0.00    -0.057 SA 
BRANCH  23  24
HETATM   24  C   UNL     1      -6.703   9.802  67.387  1.00  0.00    -0.074 A  
HETATM   25  C   UNL     1      -7.683   9.438  68.315  1.00  0.00    -0.083 A  
HETATM   26  C   UNL     1      -8.293   7.526  66.962  1.00  0.00    -0.121 A  
HETATM   27  C   UNL     1      -8.469   8.300  68.107  1.00  0.00    -0.132 A  
HETATM   28  C   UNL     1      -7.335   7.891  66.020  1.00  0.00    -0.074 A  
HETATM   29  C   UNL     1      -6.547   9.025  66.231  1.00  0.00    -0.066 A  
ENDBRANCH  23  24
ENDBRANCH  10  23
TORSDOF 5
ENDMDL
MODEL       94
REMARK 921   NORMALIZED FREE ENERGY PREDICTED BY IDOCK:   -5.43 KCAL/MOL
REMARK 922        TOTAL FREE ENERGY PREDICTED BY IDOCK:   -8.18 KCAL/MOL
REMARK 923 INTER-LIGAND FREE ENERGY PREDICTED BY IDOCK:   -7.58 KCAL/MOL
REMARK 924 INTRA-LIGAND FREE ENERGY PREDICTED BY IDOCK:   -0.60 KCAL/MOL
REMARK 927      BINDING AFFINITY PREDICTED BY RF-SCORE:    0.00 PKD
ROOT
HETATM    1  C   UNL     1     -11.095   8.122  72.750  1.00  0.00    -0.407 C  
HETATM    2  C   UNL     1     -11.440   8.451  71.293  1.00  0.00    -0.325 C  
HETATM    3  C   UNL     1     -12.867   8.987  71.108  1.00  0.00    -0.167 C  
HETATM    4  C   UNL     1     -11.313   7.194  70.443  1.00  0.00    -0.289 C  
HETATM    5  O   UNL     1     -11.658   6.094  70.872  1.00  0.00    -0.310 OA 
HETATM    6  C   UNL     1      -9.825   5.027  68.512  1.00  0.00    -0.151 C  
HETATM    7  N   UNL     1     -10.781   7.295  69.176  1.00  0.00    -0.211 N  
HETATM    8  C   UNL     1     -10.307   8.496  68.502  1.00  0.00    -0.198 C  
HETATM    9  C   UNL     1     -10.830   6.155  68.239  1.00  0.00    -0.306 C  
HETATM   10  C   UNL     1     -10.637   8.268  67.027  1.00  0.00    -0.258 C  
HETATM   11  C   UNL     1     -10.514   6.755  66.858  1.00  0.00    -0.350 C  
HETATM   12  O   UNL     1      -9.044   5.204  69.601  1.00  0.00    -0.110 OA 
HETATM   13  O   UNL     1      -9.696   4.049  67.783  1.00  0.00    -0.166 OA 
ENDROOT
BRANCH   3  14
HETATM   14  S   UNL     1     -13.119  10.506  72.065  1.00  0.00    -0.274 SA 
BRANCH  14  15
HETATM   15  C   UNL     1     -12.630  11.729  70.897  1.00  0.00    -0.289 C  
HETATM   16  O   UNL     1     -12.196  11.426  69.793  1.00  0.00    -0.298 OA 
BRANCH  15  17
HETATM   17  C   UNL     1     -12.809  13.152  71.311  1.00  0.00    -0.384 A  
HETATM   18  C   UNL     1     -12.515  14.225  70.455  1.00  0.00    -0.426 A  
HETATM   19  C   UNL     1     -12.686  15.541  70.887  1.00  0.00    -0.525 A  
HETATM   20  C   UNL     1     -13.160  15.796  72.171  1.00  0.00    -0.517 A  
HETATM   21  C   UNL     1     -13.298  13.418  72.597  1.00  0.00    -0.501 A  
HETATM   22  C   UNL     1     -13.467  14.737  73.026  1.00  0.00    -0.473 A  
ENDBRANCH  15  17
ENDBRANCH  14  15
ENDBRANCH   3  14
BRANCH  10  23
HETATM   23  S   UNL     1      -9.501   9.245  65.977  1.00  0.00    -0.264 SA 
BRANCH  23  24
HETATM   24  C   UNL     1      -7.886   8.786  66.585  1.00  0.00    -0.100 A  
HETATM   25  C   UNL     1      -7.116   9.608  67.413  1.00  0.00    -0.085 A  
HETATM   26  C   UNL     1      -5.386   7.920  67.529  1.00  0.00    -0.032 A  
HETATM   27  C   UNL     1      -5.868   9.181  67.875  1.00  0.00    -0.042 A  
HETATM   28  C   UNL     1      -6.153   7.084  66.722  1.00  0.00    -0.037 A  
HETATM   29  C   UNL     1      -7.398   7.513  66.256  1.00  0.00    -0.082 A  
ENDBRANCH  23  24
ENDBRANCH  10  23
TORSDOF 5
ENDMDL
MODEL       95
REMARK 921   NORMALIZED FREE ENERGY PREDICTED BY IDOCK:   -5.42 KCAL/MOL
REMARK 922        TOTAL FREE ENERGY PREDICTED BY IDOCK:   -8.16 KCAL/MOL
REMARK 923 INTER-LIGAND FREE ENERGY PREDICTED BY IDOCK:   -6.88 KCAL/MOL
REMARK 924 INTRA-LIGAND FREE ENERGY PREDICTED BY IDOCK:   -1.28 KCAL/MOL
REMARK 927      BINDING AFFINITY PREDICTED BY RF-SCORE:    0.00 PKD
ROOT
HETATM    1  C   UNL     1     -11.660  15.771  68.128  1.00  0.00    -0.259 C  
HETATM    2  C   UNL     1     -10.600  14.721  68.483  1.00  0.00    -0.248 C  
HETATM    3  C   UNL     1     -10.790  14.107  69.878  1.00  0.00     0.133 C  
HETATM    4  C   UNL     1      -9.218  15.360  68.452  1.00  0.00    -0.192 C  
HETATM    5  O   UNL     1      -9.035  16.508  68.855  1.00  0.00    -0.240 OA 
HETATM    6  C   UNL     1      -6.375  16.275  67.142  1.00  0.00    -0.160 C  
HETATM    7  N   UNL     1      -8.161  14.640  67.942  1.00  0.00    -0.134 N  
HETATM    8  C   UNL     1      -8.179  13.285  67.409  1.00  0.00    -0.183 C  
HETATM    9  C   UNL     1      -6.774  15.127  68.081  1.00  0.00    -0.132 C  
HETATM   10  C   UNL     1      -6.817  12.702  67.784  1.00  0.00    -0.128 C  
HETATM   11  C   UNL     1      -5.886  13.913  67.759  1.00  0.00    -0.098 C  
HETATM   12  O   UNL     1      -7.358  16.720  66.329  1.00  0.00    -0.261 OA 
HETATM   13  O   UNL     1      -5.240  16.738  67.091  1.00  0.00    -0.129 OA 
ENDROOT
BRANCH   3  14
HETATM   14  S   UNL     1     -12.405  13.295  70.015  1.00  0.00    -0.135 SA 
BRANCH  14  15
HETATM   15  C   UNL     1     -12.033  11.692  69.388  1.00  0.00    -0.316 C  
HETATM   16  O   UNL     1     -11.859  11.493  68.193  1.00  0.00    -0.510 OA 
BRANCH  15  17
HETATM   17  C   UNL     1     -11.903  10.598  70.396  1.00  0.00    -0.441 A  
HETATM   18  C   UNL     1     -10.678   9.967  70.665  1.00  0.00    -0.372 A  
HETATM   19  C   UNL     1     -10.604   8.940  71.607  1.00  0.00    -0.422 A  
HETATM   20  C   UNL     1     -11.747   8.542  72.295  1.00  0.00    -0.443 A  
HETATM   21  C   UNL     1     -13.046  10.200  71.103  1.00  0.00    -0.480 A  
HETATM   22  C   UNL     1     -12.967   9.171  72.045  1.00  0.00    -0.496 A  
ENDBRANCH  15  17
ENDBRANCH  14  15
ENDBRANCH   3  14
BRANCH  10  23
HETATM   23  S   UNL     1      -6.366  11.371  66.612  1.00  0.00    -0.093 SA 
BRANCH  23  24
HETATM   24  C   UNL     1      -7.861  10.401  66.499  1.00  0.00    -0.124 A  
HETATM   25  C   UNL     1      -8.627  10.308  65.333  1.00  0.00    -0.169 A  
HETATM   26  C   UNL     1     -10.159   8.787  66.428  1.00  0.00    -0.313 A  
HETATM   27  C   UNL     1      -9.776   9.511  65.301  1.00  0.00    -0.268 A  
HETATM   28  C   UNL     1      -9.392   8.856  67.588  1.00  0.00    -0.156 A  
HETATM   29  C   UNL     1      -8.247   9.656  67.621  1.00  0.00    -0.114 A  
ENDBRANCH  23  24
ENDBRANCH  10  23
TORSDOF 5
ENDMDL
MODEL       96
REMARK 921   NORMALIZED FREE ENERGY PREDICTED BY IDOCK:   -5.40 KCAL/MOL
REMARK 922        TOTAL FREE ENERGY PREDICTED BY IDOCK:   -8.15 KCAL/MOL
REMARK 923 INTER-LIGAND FREE ENERGY PREDICTED BY IDOCK:   -7.56 KCAL/MOL
REMARK 924 INTRA-LIGAND FREE ENERGY PREDICTED BY IDOCK:   -0.59 KCAL/MOL
REMARK 927      BINDING AFFINITY PREDICTED BY RF-SCORE:    0.00 PKD
ROOT
HETATM    1  C   UNL     1     -10.234  10.474  65.459  1.00  0.00    -0.325 C  
HETATM    2  C   UNL     1     -10.414  10.747  66.957  1.00  0.00    -0.297 C  
HETATM    3  C   UNL     1     -10.454  12.242  67.307  1.00  0.00    -0.218 C  
HETATM    4  C   UNL     1      -9.257  10.130  67.731  1.00  0.00    -0.137 C  
HETATM    5  O   UNL     1      -8.109  10.147  67.286  1.00  0.00    -0.113 OA 
HETATM    6  C   UNL     1      -7.668   7.824  69.402  1.00  0.00    -0.106 C  
HETATM    7  N   UNL     1      -9.510   9.526  68.942  1.00  0.00    -0.152 N  
HETATM    8  C   UNL     1     -10.791   9.394  69.623  1.00  0.00    -0.228 C  
HETATM    9  C   UNL     1      -8.404   9.103  69.825  1.00  0.00    -0.136 C  
HETATM   10  C   UNL     1     -10.450   9.472  71.111  1.00  0.00    -0.288 C  
HETATM   11  C   UNL     1      -9.056   8.850  71.195  1.00  0.00    -0.315 C  
HETATM   12  O   UNL     1      -8.103   7.264  68.251  1.00  0.00    -0.121 OA 
HETATM   13  O   UNL     1      -6.776   7.309  70.069  1.00  0.00    -0.048 OA 
ENDROOT
BRANCH   3  14
HETATM   14  S   UNL     1     -11.820  13.072  66.451  1.00  0.00    -0.405 SA 
BRANCH  14  15
HETATM   15  C   UNL     1     -10.960  14.350  65.599  1.00  0.00    -0.314 C  
HETATM   16  O   UNL     1     -10.550  14.198  64.456  1.00  0.00    -0.406 OA 
BRANCH  15  17
HETATM   17  C   UNL     1     -10.793  15.640  66.331  1.00  0.00    -0.252 A  
HETATM   18  C   UNL     1     -10.928  15.736  67.725  1.00  0.00    -0.314 A  
HETATM   19  C   UNL     1     -10.775  16.965  68.368  1.00  0.00    -0.368 A  
HETATM   20  C   UNL     1     -10.479  18.106  67.627  1.00  0.00    -0.432 A  
HETATM   21  C   UNL     1     -10.482  16.792  65.595  1.00  0.00    -0.284 A  
HETATM   22  C   UNL     1     -10.331  18.021  66.242  1.00  0.00    -0.384 A  
ENDBRANCH  15  17
ENDBRANCH  14  15
ENDBRANCH   3  14
BRANCH  10  23
HETATM   23  S   UNL     1     -11.730   8.604  72.088  1.00  0.00    -0.361 SA 
BRANCH  23  24
HETATM   24  C   UNL     1     -10.998   7.004  72.394  1.00  0.00    -0.248 A  
HETATM   25  C   UNL     1     -10.789   6.054  71.390  1.00  0.00    -0.328 A  
HETATM   26  C   UNL     1      -9.774   4.548  72.990  1.00  0.00    -0.167 A  
HETATM   27  C   UNL     1     -10.188   4.827  71.689  1.00  0.00    -0.249 A  
HETATM   28  C   UNL     1      -9.957   5.495  73.993  1.00  0.00    -0.214 A  
HETATM   29  C   UNL     1     -10.562   6.719  73.695  1.00  0.00    -0.347 A  
ENDBRANCH  23  24
ENDBRANCH  10  23
TORSDOF 5
ENDMDL
MODEL       97
REMARK 921   NORMALIZED FREE ENERGY PREDICTED BY IDOCK:   -5.40 KCAL/MOL
REMARK 922        TOTAL FREE ENERGY PREDICTED BY IDOCK:   -8.15 KCAL/MOL
REMARK 923 INTER-LIGAND FREE ENERGY PREDICTED BY IDOCK:   -6.74 KCAL/MOL
REMARK 924 INTRA-LIGAND FREE ENERGY PREDICTED BY IDOCK:   -1.40 KCAL/MOL
REMARK 927      BINDING AFFINITY PREDICTED BY RF-SCORE:    0.00 PKD
ROOT
HETATM    1  C   UNL     1      -9.979  12.175  66.626  1.00  0.00    -0.222 C  
HETATM    2  C   UNL     1     -10.175  10.896  67.448  1.00  0.00    -0.236 C  
HETATM    3  C   UNL     1     -10.480   9.658  66.592  1.00  0.00    -0.163 C  
HETATM    4  C   UNL     1     -11.342  11.081  68.409  1.00  0.00    -0.295 C  
HETATM    5  O   UNL     1     -12.352  11.702  68.077  1.00  0.00    -0.429 OA 
HETATM    6  C   UNL     1     -12.813  11.868  71.212  1.00  0.00    -0.290 C  
HETATM    7  N   UNL     1     -11.251  10.558  69.680  1.00  0.00    -0.262 N  
HETATM    8  C   UNL     1     -10.143   9.811  70.259  1.00  0.00    -0.266 C  
HETATM    9  C   UNL     1     -12.426  10.526  70.573  1.00  0.00    -0.347 C  
HETATM   10  C   UNL     1     -10.804   8.812  71.209  1.00  0.00    -0.277 C  
HETATM   11  C   UNL     1     -12.048   9.550  71.701  1.00  0.00    -0.474 C  
HETATM   12  O   UNL     1     -12.048  12.920  70.845  1.00  0.00    -0.291 OA 
HETATM   13  O   UNL     1     -13.720  11.988  72.029  1.00  0.00    -0.250 OA 
ENDROOT
BRANCH   3  14
HETATM   14  S   UNL     1      -9.134   9.331  65.422  1.00  0.00    -0.214 SA 
BRANCH  14  15
HETATM   15  C   UNL     1      -8.111   8.258  66.372  1.00  0.00    -0.105 C  
HETATM   16  O   UNL     1      -6.898   8.417  66.438  1.00  0.00    -0.068 OA 
BRANCH  15  17
HETATM   17  C   UNL     1      -8.805   7.171  67.123  1.00  0.00    -0.121 A  
HETATM   18  C   UNL     1      -8.655   7.002  68.509  1.00  0.00    -0.123 A  
HETATM   19  C   UNL     1      -9.314   5.964  69.170  1.00  0.00    -0.137 A  
HETATM   20  C   UNL     1     -10.133   5.093  68.456  1.00  0.00    -0.214 A  
HETATM   21  C   UNL     1      -9.642   6.298  66.415  1.00  0.00    -0.159 A  
HETATM   22  C   UNL     1     -10.299   5.259  67.081  1.00  0.00    -0.268 A  
ENDBRANCH  15  17
ENDBRANCH  14  15
ENDBRANCH   3  14
BRANCH  10  23
HETATM   23  S   UNL     1      -9.628   8.340  72.530  1.00  0.00    -0.293 SA 
BRANCH  23  24
HETATM   24  C   UNL     1      -9.788   6.562  72.603  1.00  0.00    -0.169 A  
HETATM   25  C   UNL     1      -8.706   5.690  72.456  1.00  0.00    -0.124 A  
HETATM   26  C   UNL     1     -10.159   3.786  72.805  1.00  0.00    -0.227 A  
HETATM   27  C   UNL     1      -8.892   4.307  72.548  1.00  0.00    -0.119 A  
HETATM   28  C   UNL     1     -11.240   4.646  72.975  1.00  0.00    -0.312 A  
HETATM   29  C   UNL     1     -11.054   6.027  72.878  1.00  0.00    -0.290 A  
ENDBRANCH  23  24
ENDBRANCH  10  23
TORSDOF 5
ENDMDL
MODEL       98
REMARK 921   NORMALIZED FREE ENERGY PREDICTED BY IDOCK:   -5.40 KCAL/MOL
REMARK 922        TOTAL FREE ENERGY PREDICTED BY IDOCK:   -8.14 KCAL/MOL
REMARK 923 INTER-LIGAND FREE ENERGY PREDICTED BY IDOCK:   -7.69 KCAL/MOL
REMARK 924 INTRA-LIGAND FREE ENERGY PREDICTED BY IDOCK:   -0.45 KCAL/MOL
REMARK 927      BINDING AFFINITY PREDICTED BY RF-SCORE:    0.00 PKD
ROOT
HETATM    1  C   UNL     1      -8.563   9.407  65.236  1.00  0.00    -0.182 C  
HETATM    2  C   UNL     1      -9.437  10.035  66.328  1.00  0.00    -0.241 C  
HETATM    3  C   UNL     1     -10.189   9.003  67.180  1.00  0.00    -0.265 C  
HETATM    4  C   UNL     1     -10.480  10.942  65.688  1.00  0.00    -0.208 C  
HETATM    5  O   UNL     1     -11.028  10.639  64.629  1.00  0.00    -0.020 OA 
HETATM    6  C   UNL     1     -11.718  13.734  64.544  1.00  0.00    -0.407 C  
HETATM    7  N   UNL     1     -10.796  12.134  66.302  1.00  0.00    -0.271 N  
HETATM    8  C   UNL     1     -10.251  12.671  67.541  1.00  0.00    -0.215 C  
HETATM    9  C   UNL     1     -11.941  12.944  65.842  1.00  0.00    -0.448 C  
HETATM   10  C   UNL     1     -11.412  13.436  68.176  1.00  0.00    -0.304 C  
HETATM   11  C   UNL     1     -12.206  13.949  66.976  1.00  0.00    -0.392 C  
HETATM   12  O   UNL     1     -10.509  13.559  63.966  1.00  0.00    -0.273 OA 
HETATM   13  O   UNL     1     -12.549  14.505  64.074  1.00  0.00    -0.797 OA 
ENDROOT
BRANCH   3  14
HETATM   14  S   UNL     1      -9.032   7.881  68.011  1.00  0.00    -0.125 SA 
BRANCH  14  15
HETATM   15  C   UNL     1      -9.903   7.538  69.502  1.00  0.00    -0.169 C  
HETATM   16  O   UNL     1     -10.816   8.254  69.893  1.00  0.00    -0.247 OA 
BRANCH  15  17
HETATM   17  C   UNL     1      -9.495   6.308  70.242  1.00  0.00    -0.173 A  
HETATM   18  C   UNL     1     -10.316   5.172  70.321  1.00  0.00    -0.331 A  
HETATM   19  C   UNL     1      -9.899   4.047  71.035  1.00  0.00    -0.230 A  
HETATM   20  C   UNL     1      -8.658   4.042  71.666  1.00  0.00    -0.122 A  
HETATM   21  C   UNL     1      -8.241   6.289  70.870  1.00  0.00    -0.126 A  
HETATM   22  C   UNL     1      -7.829   5.161  71.584  1.00  0.00    -0.109 A  
ENDBRANCH  15  17
ENDBRANCH  14  15
ENDBRANCH   3  14
BRANCH  10  23
HETATM   23  S   UNL     1     -10.764  14.747  69.276  1.00  0.00    -0.247 SA 
BRANCH  23  24
HETATM   24  C   UNL     1     -10.214  16.004  68.134  1.00  0.00    -0.243 A  
HETATM   25  C   UNL     1      -9.256  15.772  67.142  1.00  0.00    -0.224 A  
HETATM   26  C   UNL     1      -9.479  18.049  66.354  1.00  0.00    -0.280 A  
HETATM   27  C   UNL     1      -8.884  16.792  66.261  1.00  0.00    -0.334 A  
HETATM   28  C   UNL     1     -10.448  18.286  67.324  1.00  0.00    -0.419 A  
HETATM   29  C   UNL     1     -10.816  17.268  68.206  1.00  0.00    -0.287 A  
ENDBRANCH  23  24
ENDBRANCH  10  23
TORSDOF 5
ENDMDL
MODEL       99
REMARK 921   NORMALIZED FREE ENERGY PREDICTED BY IDOCK:   -5.40 KCAL/MOL
REMARK 922        TOTAL FREE ENERGY PREDICTED BY IDOCK:   -8.14 KCAL/MOL
REMARK 923 INTER-LIGAND FREE ENERGY PREDICTED BY IDOCK:   -7.52 KCAL/MOL
REMARK 924 INTRA-LIGAND FREE ENERGY PREDICTED BY IDOCK:   -0.62 KCAL/MOL
REMARK 927      BINDING AFFINITY PREDICTED BY RF-SCORE:    0.00 PKD
ROOT
HETATM    1  C   UNL     1     -11.523  11.904  66.451  1.00  0.00    -0.371 C  
HETATM    2  C   UNL     1     -10.861  12.811  67.494  1.00  0.00    -0.263 C  
HETATM    3  C   UNL     1     -11.415  12.618  68.914  1.00  0.00    -0.306 C  
HETATM    4  C   UNL     1     -11.082  14.269  67.116  1.00  0.00    -0.311 C  
HETATM    5  O   UNL     1     -12.146  14.650  66.628  1.00  0.00    -0.347 OA 
HETATM    6  C   UNL     1     -10.395  17.132  65.711  1.00  0.00    -0.240 C  
HETATM    7  N   UNL     1     -10.059  15.172  67.307  1.00  0.00    -0.234 N  
HETATM    8  C   UNL     1      -8.734  14.914  67.854  1.00  0.00    -0.164 C  
HETATM    9  C   UNL     1     -10.288  16.622  67.156  1.00  0.00    -0.300 C  
HETATM   10  C   UNL     1      -8.371  16.193  68.609  1.00  0.00    -0.211 C  
HETATM   11  C   UNL     1      -9.070  17.294  67.813  1.00  0.00    -0.235 C  
HETATM   12  O   UNL     1     -10.301  16.179  64.758  1.00  0.00    -0.524 OA 
HETATM   13  O   UNL     1     -10.514  18.319  65.424  1.00  0.00    -0.571 OA 
ENDROOT
BRANCH   3  14
HETATM   14  S   UNL     1     -11.180  10.910  69.475  1.00  0.00    -0.298 SA 
BRANCH  14  15
HETATM   15  C   UNL     1      -9.558  10.575  68.876  1.00  0.00    -0.193 C  
HETATM   16  O   UNL     1      -8.603  11.280  69.177  1.00  0.00    -0.039 OA 
BRANCH  15  17
HETATM   17  C   UNL     1      -9.405   9.367  68.013  1.00  0.00    -0.140 A  
HETATM   18  C   UNL     1     -10.499   8.578  67.625  1.00  0.00    -0.308 A  
HETATM   19  C   UNL     1     -10.309   7.448  66.827  1.00  0.00    -0.321 A  
HETATM   20  C   UNL     1      -9.028   7.103  66.404  1.00  0.00    -0.178 A  
HETATM   21  C   UNL     1      -8.121   9.019  67.571  1.00  0.00    -0.108 A  
HETATM   22  C   UNL     1      -7.935   7.886  66.774  1.00  0.00    -0.107 A  
ENDBRANCH  15  17
ENDBRANCH  14  15
ENDBRANCH   3  14
BRANCH  10  23
HETATM   23  S   UNL     1      -6.552  16.362  68.706  1.00  0.00    -0.164 SA 
BRANCH  23  24
HETATM   24  C   UNL     1      -6.283  18.094  68.359  1.00  0.00    -0.191 A  
HETATM   25  C   UNL     1      -6.160  18.605  67.064  1.00  0.00    -0.177 A  
HETATM   26  C   UNL     1      -5.929  20.848  67.942  1.00  0.00    -0.372 A  
HETATM   27  C   UNL     1      -5.975  19.976  66.857  1.00  0.00    -0.188 A  
HETATM   28  C   UNL     1      -6.071  20.353  69.235  1.00  0.00    -0.367 A  
HETATM   29  C   UNL     1      -6.252  18.983  69.442  1.00  0.00    -0.292 A  
ENDBRANCH  23  24
ENDBRANCH  10  23
TORSDOF 5
ENDMDL
MODEL      100
REMARK 921   NORMALIZED FREE ENERGY PREDICTED BY IDOCK:   -5.39 KCAL/MOL
REMARK 922        TOTAL FREE ENERGY PREDICTED BY IDOCK:   -8.13 KCAL/MOL
REMARK 923 INTER-LIGAND FREE ENERGY PREDICTED BY IDOCK:   -6.59 KCAL/MOL
REMARK 924 INTRA-LIGAND FREE ENERGY PREDICTED BY IDOCK:   -1.54 KCAL/MOL
REMARK 927      BINDING AFFINITY PREDICTED BY RF-SCORE:    0.00 PKD
ROOT
HETATM    1  C   UNL     1      -8.314   6.305  71.573  1.00  0.00    -0.126 C  
HETATM    2  C   UNL     1      -8.685   7.770  71.315  1.00  0.00    -0.140 C  
HETATM    3  C   UNL     1      -7.661   8.769  71.874  1.00  0.00    -0.003 C  
HETATM    4  C   UNL     1     -10.025   8.081  71.969  1.00  0.00    -0.213 C  
HETATM    5  O   UNL     1     -10.329   7.604  73.061  1.00  0.00    -0.273 OA 
HETATM    6  C   UNL     1     -13.268   8.375  72.148  1.00  0.00    -0.318 C  
HETATM    7  N   UNL     1     -10.917   8.896  71.308  1.00  0.00    -0.267 N  
HETATM    8  C   UNL     1     -10.748   9.539  70.013  1.00  0.00    -0.243 C  
HETATM    9  C   UNL     1     -12.132   9.395  71.984  1.00  0.00    -0.309 C  
HETATM   10  C   UNL     1     -11.498  10.865  70.136  1.00  0.00    -0.319 C  
HETATM   11  C   UNL     1     -12.643  10.543  71.097  1.00  0.00    -0.520 C  
HETATM   12  O   UNL     1     -12.998   7.135  71.684  1.00  0.00    -0.365 OA 
HETATM   13  O   UNL     1     -14.363   8.658  72.625  1.00  0.00    -0.533 OA 
ENDROOT
BRANCH   3  14
HETATM   14  S   UNL     1      -6.025   8.501  71.139  1.00  0.00    -0.041 SA 
BRANCH  14  15
HETATM   15  C   UNL     1      -6.370   8.773  69.434  1.00  0.00    -0.041 C  
HETATM   16  O   UNL     1      -6.333   7.861  68.617  1.00  0.00    -0.045 OA 
BRANCH  15  17
HETATM   17  C   UNL     1      -6.748  10.164  69.046  1.00  0.00    -0.054 A  
HETATM   18  C   UNL     1      -6.158  11.294  69.635  1.00  0.00    -0.102 A  
HETATM   19  C   UNL     1      -6.550  12.577  69.250  1.00  0.00    -0.089 A  
HETATM   20  C   UNL     1      -7.525  12.743  68.271  1.00  0.00    -0.124 A  
HETATM   21  C   UNL     1      -7.720  10.341  68.052  1.00  0.00    -0.089 A  
HETATM   22  C   UNL     1      -8.110  11.628  67.671  1.00  0.00    -0.140 A  
ENDBRANCH  15  17
ENDBRANCH  14  15
ENDBRANCH   3  14
BRANCH  10  23
HETATM   23  S   UNL     1     -12.032  11.434  68.481  1.00  0.00    -0.112 SA 
BRANCH  23  24
HETATM   24  C   UNL     1     -11.781  13.200  68.555  1.00  0.00    -0.352 A  
HETATM   25  C   UNL     1     -12.040  13.963  69.698  1.00  0.00    -0.404 A  
HETATM   26  C   UNL     1     -11.281  15.964  68.567  1.00  0.00    -0.362 A  
HETATM   27  C   UNL     1     -11.800  15.341  69.700  1.00  0.00    -0.363 A  
HETATM   28  C   UNL     1     -10.999  15.211  67.431  1.00  0.00    -0.314 A  
HETATM   29  C   UNL     1     -11.243  13.835  67.427  1.00  0.00    -0.330 A  
ENDBRANCH  23  24
ENDBRANCH  10  23
TORSDOF 5
ENDMDL
MODEL      101
REMARK 921   NORMALIZED FREE ENERGY PREDICTED BY IDOCK:   -5.39 KCAL/MOL
REMARK 922        TOTAL FREE ENERGY PREDICTED BY IDOCK:   -8.13 KCAL/MOL
REMARK 923 INTER-LIGAND FREE ENERGY PREDICTED BY IDOCK:   -8.20 KCAL/MOL
REMARK 924 INTRA-LIGAND FREE ENERGY PREDICTED BY IDOCK:    0.07 KCAL/MOL
REMARK 927      BINDING AFFINITY PREDICTED BY RF-SCORE:    0.00 PKD
ROOT
HETATM    1  C   UNL     1      -7.392   9.491  65.839  1.00  0.00    -0.097 C  
HETATM    2  C   UNL     1      -8.742   9.412  66.563  1.00  0.00    -0.148 C  
HETATM    3  C   UNL     1      -9.610   8.229  66.113  1.00  0.00    -0.147 C  
HETATM    4  C   UNL     1      -9.536  10.684  66.300  1.00  0.00    -0.185 C  
HETATM    5  O   UNL     1      -9.515  11.236  65.201  1.00  0.00    -0.219 OA 
HETATM    6  C   UNL     1     -10.591  13.721  66.855  1.00  0.00    -0.276 C  
HETATM    7  N   UNL     1     -10.275  11.234  67.324  1.00  0.00    -0.190 N  
HETATM    8  C   UNL     1     -10.415  10.741  68.687  1.00  0.00    -0.192 C  
HETATM    9  C   UNL     1     -11.223  12.337  67.069  1.00  0.00    -0.310 C  
HETATM   10  C   UNL     1     -11.843  11.110  69.089  1.00  0.00    -0.350 C  
HETATM   11  C   UNL     1     -12.111  12.405  68.323  1.00  0.00    -0.105 C  
HETATM   12  O   UNL     1      -9.240  13.747  66.892  1.00  0.00    -0.240 OA 
HETATM   13  O   UNL     1     -11.249  14.745  66.702  1.00  0.00    -0.335 OA 
ENDROOT
BRANCH   3  14
HETATM   14  S   UNL     1      -8.762   6.653  66.407  1.00  0.00    -0.145 SA 
BRANCH  14  15
HETATM   15  C   UNL     1     -10.101   5.640  66.937  1.00  0.00    -0.193 C  
HETATM   16  O   UNL     1     -10.775   4.997  66.143  1.00  0.00    -0.315 OA 
BRANCH  15  17
HETATM   17  C   UNL     1     -10.345   5.579  68.409  1.00  0.00    -0.243 A  
HETATM   18  C   UNL     1      -9.708   4.641  69.236  1.00  0.00    -0.266 A  
HETATM   19  C   UNL     1      -9.975   4.610  70.606  1.00  0.00    -0.293 A  
HETATM   20  C   UNL     1     -10.870   5.521  71.162  1.00  0.00    -0.243 A  
HETATM   21  C   UNL     1     -11.234   6.500  68.979  1.00  0.00    -0.354 A  
HETATM   22  C   UNL     1     -11.499   6.465  70.351  1.00  0.00    -0.458 A  
ENDBRANCH  15  17
ENDBRANCH  14  15
ENDBRANCH   3  14
BRANCH  10  23
HETATM   23  S   UNL     1     -11.957  11.265  70.908  1.00  0.00    -0.083 SA 
BRANCH  23  24
HETATM   24  C   UNL     1     -12.689  12.878  71.136  1.00  0.00    -0.276 A  
HETATM   25  C   UNL     1     -13.783  13.111  71.975  1.00  0.00    -0.486 A  
HETATM   26  C   UNL     1     -13.708  15.475  71.463  1.00  0.00    -0.553 A  
HETATM   27  C   UNL     1     -14.296  14.403  72.131  1.00  0.00    -0.604 A  
HETATM   28  C   UNL     1     -12.605  15.258  70.641  1.00  0.00    -0.471 A  
HETATM   29  C   UNL     1     -12.096  13.967  70.483  1.00  0.00    -0.424 A  
ENDBRANCH  23  24
ENDBRANCH  10  23
TORSDOF 5
ENDMDL
MODEL      102
REMARK 921   NORMALIZED FREE ENERGY PREDICTED BY IDOCK:   -5.38 KCAL/MOL
REMARK 922        TOTAL FREE ENERGY PREDICTED BY IDOCK:   -8.12 KCAL/MOL
REMARK 923 INTER-LIGAND FREE ENERGY PREDICTED BY IDOCK:   -7.59 KCAL/MOL
REMARK 924 INTRA-LIGAND FREE ENERGY PREDICTED BY IDOCK:   -0.53 KCAL/MOL
REMARK 927      BINDING AFFINITY PREDICTED BY RF-SCORE:    0.00 PKD
ROOT
HETATM    1  C   UNL     1     -11.656  12.591  65.753  1.00  0.00    -0.439 C  
HETATM    2  C   UNL     1     -11.120  11.810  66.959  1.00  0.00    -0.358 C  
HETATM    3  C   UNL     1     -10.720  12.705  68.141  1.00  0.00    -0.225 C  
HETATM    4  C   UNL     1      -9.883  11.022  66.548  1.00  0.00    -0.203 C  
HETATM    5  O   UNL     1      -9.058  11.490  65.764  1.00  0.00    -0.209 OA 
HETATM    6  C   UNL     1      -8.204   8.450  65.450  1.00  0.00    -0.144 C  
HETATM    7  N   UNL     1      -9.702   9.752  67.050  1.00  0.00    -0.175 N  
HETATM    8  C   UNL     1     -10.566   9.026  67.971  1.00  0.00    -0.186 C  
HETATM    9  C   UNL     1      -8.428   9.033  66.853  1.00  0.00    -0.119 C  
HETATM   10  C   UNL     1      -9.611   8.182  68.815  1.00  0.00    -0.149 C  
HETATM   11  C   UNL     1      -8.464   7.867  67.856  1.00  0.00    -0.126 C  
HETATM   12  O   UNL     1      -9.189   8.702  64.559  1.00  0.00     0.218 OA 
HETATM   13  O   UNL     1      -7.228   7.768  65.153  1.00  0.00    -0.061 OA 
ENDROOT
BRANCH   3  14
HETATM   14  S   UNL     1     -12.134  13.675  68.728  1.00  0.00    -0.193 SA 
BRANCH  14  15
HETATM   15  C   UNL     1     -12.265  13.113  70.391  1.00  0.00    -0.316 C  
HETATM   16  O   UNL     1     -12.281  11.920  70.667  1.00  0.00    -0.371 OA 
BRANCH  15  17
HETATM   17  C   UNL     1     -12.316  14.167  71.447  1.00  0.00    -0.425 A  
HETATM   18  C   UNL     1     -12.973  13.972  72.672  1.00  0.00    -0.481 A  
HETATM   19  C   UNL     1     -13.006  14.990  73.626  1.00  0.00    -0.463 A  
HETATM   20  C   UNL     1     -12.377  16.205  73.370  1.00  0.00    -0.652 A  
HETATM   21  C   UNL     1     -11.674  15.389  71.203  1.00  0.00    -0.418 A  
HETATM   22  C   UNL     1     -11.711  16.406  72.161  1.00  0.00    -0.453 A  
ENDBRANCH  15  17
ENDBRANCH  14  15
ENDBRANCH   3  14
BRANCH  10  23
HETATM   23  S   UNL     1     -10.487   6.711  69.461  1.00  0.00    -0.236 SA 
BRANCH  23  24
HETATM   24  C   UNL     1     -10.196   5.476  68.204  1.00  0.00    -0.177 A  
HETATM   25  C   UNL     1     -10.544   5.654  66.862  1.00  0.00    -0.367 A  
HETATM   26  C   UNL     1      -9.625   3.484  66.309  1.00  0.00    -0.109 A  
HETATM   27  C   UNL     1     -10.267   4.658  65.920  1.00  0.00    -0.303 A  
HETATM   28  C   UNL     1      -9.255   3.305  67.640  1.00  0.00    -0.237 A  
HETATM   29  C   UNL     1      -9.536   4.299  68.581  1.00  0.00    -0.210 A  
ENDBRANCH  23  24
ENDBRANCH  10  23
TORSDOF 5
ENDMDL
MODEL      103
REMARK 921   NORMALIZED FREE ENERGY PREDICTED BY IDOCK:   -5.37 KCAL/MOL
REMARK 922        TOTAL FREE ENERGY PREDICTED BY IDOCK:   -8.11 KCAL/MOL
REMARK 923 INTER-LIGAND FREE ENERGY PREDICTED BY IDOCK:   -7.27 KCAL/MOL
REMARK 924 INTRA-LIGAND FREE ENERGY PREDICTED BY IDOCK:   -0.83 KCAL/MOL
REMARK 927      BINDING AFFINITY PREDICTED BY RF-SCORE:    0.00 PKD
ROOT
HETATM    1  C   UNL     1     -11.589  16.069  69.541  1.00  0.00    -0.304 C  
HETATM    2  C   UNL     1     -11.356  14.728  68.835  1.00  0.00    -0.302 C  
HETATM    3  C   UNL     1     -11.719  14.751  67.343  1.00  0.00    -0.350 C  
HETATM    4  C   UNL     1     -12.209  13.651  69.493  1.00  0.00    -0.264 C  
HETATM    5  O   UNL     1     -13.348  13.892  69.892  1.00  0.00     0.578 OA 
HETATM    6  C   UNL     1     -12.899  11.247  71.586  1.00  0.00    -0.405 C  
HETATM    7  N   UNL     1     -11.680  12.390  69.660  1.00  0.00    -0.313 N  
HETATM    8  C   UNL     1     -10.358  11.919  69.270  1.00  0.00     0.166 C  
HETATM    9  C   UNL     1     -12.529  11.263  70.095  1.00  0.00    -0.221 C  
HETATM   10  C   UNL     1     -10.568  10.456  68.881  1.00  0.00    -0.216 C  
HETATM   11  C   UNL     1     -11.707   9.999  69.791  1.00  0.00    -0.144 C  
HETATM   12  O   UNL     1     -12.429  12.289  72.306  1.00  0.00     0.299 OA 
HETATM   13  O   UNL     1     -13.538  10.340  72.110  1.00  0.00    -0.345 OA 
ENDROOT
BRANCH   3  14
HETATM   14  S   UNL     1     -10.737  15.991  66.456  1.00  0.00    -0.179 SA 
BRANCH  14  15
HETATM   15  C   UNL     1     -11.234  15.691  64.793  1.00  0.00    -0.382 C  
HETATM   16  O   UNL     1     -11.467  16.609  64.017  1.00  0.00    -1.192 OA 
BRANCH  15  17
HETATM   17  C   UNL     1     -11.318  14.262  64.373  1.00  0.00    -0.284 A  
HETATM   18  C   UNL     1     -12.503  13.692  63.880  1.00  0.00    -0.276 A  
HETATM   19  C   UNL     1     -12.541  12.347  63.509  1.00  0.00    -0.535 A  
HETATM   20  C   UNL     1     -11.395  11.563  63.617  1.00  0.00    -0.412 A  
HETATM   21  C   UNL     1     -10.167  13.468  64.465  1.00  0.00    -0.296 A  
HETATM   22  C   UNL     1     -10.209  12.122  64.093  1.00  0.00    -0.370 A  
ENDBRANCH  15  17
ENDBRANCH  14  15
ENDBRANCH   3  14
BRANCH  10  23
HETATM   23  S   UNL     1      -9.006   9.526  69.093  1.00  0.00    -0.157 SA 
BRANCH  23  24
HETATM   24  C   UNL     1      -9.559   7.845  69.331  1.00  0.00    -0.160 A  
HETATM   25  C   UNL     1     -10.177   7.093  68.327  1.00  0.00    -0.210 A  
HETATM   26  C   UNL     1     -10.324   5.185  69.809  1.00  0.00    -0.332 A  
HETATM   27  C   UNL     1     -10.566   5.772  68.568  1.00  0.00    -0.299 A  
HETATM   28  C   UNL     1      -9.690   5.917  70.809  1.00  0.00    -0.212 A  
HETATM   29  C   UNL     1      -9.306   7.239  70.569  1.00  0.00    -0.158 A  
ENDBRANCH  23  24
ENDBRANCH  10  23
TORSDOF 5
ENDMDL
MODEL      104
REMARK 921   NORMALIZED FREE ENERGY PREDICTED BY IDOCK:   -5.33 KCAL/MOL
REMARK 922        TOTAL FREE ENERGY PREDICTED BY IDOCK:   -8.05 KCAL/MOL
REMARK 923 INTER-LIGAND FREE ENERGY PREDICTED BY IDOCK:   -7.31 KCAL/MOL
REMARK 924 INTRA-LIGAND FREE ENERGY PREDICTED BY IDOCK:   -0.74 KCAL/MOL
REMARK 927      BINDING AFFINITY PREDICTED BY RF-SCORE:    0.00 PKD
ROOT
HETATM    1  C   UNL     1     -12.746  12.581  71.431  1.00  0.00    -0.345 C  
HETATM    2  C   UNL     1     -11.956  11.704  70.452  1.00  0.00    -0.448 C  
HETATM    3  C   UNL     1     -12.268  11.999  68.977  1.00  0.00    -0.021 C  
HETATM    4  C   UNL     1     -12.285  10.239  70.701  1.00  0.00    -0.329 C  
HETATM    5  O   UNL     1     -13.425   9.879  70.991  1.00  0.00    -0.363 OA 
HETATM    6  C   UNL     1     -11.930   7.277  72.021  1.00  0.00    -0.296 C  
HETATM    7  N   UNL     1     -11.275   9.305  70.620  1.00  0.00    -0.261 N  
HETATM    8  C   UNL     1      -9.872   9.534  70.307  1.00  0.00    -0.261 C  
HETATM    9  C   UNL     1     -11.575   7.859  70.644  1.00  0.00    -0.204 C  
HETATM   10  C   UNL     1      -9.436   8.284  69.543  1.00  0.00    -0.162 C  
HETATM   11  C   UNL     1     -10.291   7.173  70.150  1.00  0.00    -0.218 C  
HETATM   12  O   UNL     1     -11.958   8.171  73.033  1.00  0.00    -0.269 OA 
HETATM   13  O   UNL     1     -12.134   6.082  72.213  1.00  0.00    -0.301 OA 
ENDROOT
BRANCH   3  14
HETATM   14  S   UNL     1     -11.888  13.723  68.565  1.00  0.00    -0.373 SA 
BRANCH  14  15
HETATM   15  C   UNL     1     -10.589  13.514  67.395  1.00  0.00    -0.251 C  
HETATM   16  O   UNL     1      -9.429  13.798  67.664  1.00  0.00    -0.204 OA 
BRANCH  15  17
HETATM   17  C   UNL     1     -10.972  12.936  66.073  1.00  0.00    -0.301 A  
HETATM   18  C   UNL     1     -10.075  12.193  65.290  1.00  0.00    -0.291 A  
HETATM   19  C   UNL     1     -10.472  11.681  64.054  1.00  0.00    -0.418 A  
HETATM   20  C   UNL     1     -11.768  11.898  63.594  1.00  0.00    -0.572 A  
HETATM   21  C   UNL     1     -12.279  13.139  65.608  1.00  0.00    -0.521 A  
HETATM   22  C   UNL     1     -12.672  12.625  64.369  1.00  0.00    -0.417 A  
ENDBRANCH  15  17
ENDBRANCH  14  15
ENDBRANCH   3  14
BRANCH  10  23
HETATM   23  S   UNL     1      -7.631   8.041  69.725  1.00  0.00    -0.093 SA 
BRANCH  23  24
HETATM   24  C   UNL     1      -7.242   6.874  68.431  1.00  0.00    -0.088 A  
HETATM   25  C   UNL     1      -6.772   7.256  67.171  1.00  0.00    -0.068 A  
HETATM   26  C   UNL     1      -6.602   4.937  66.500  1.00  0.00    -0.046 A  
HETATM   27  C   UNL     1      -6.462   6.292  66.207  1.00  0.00    -0.047 A  
HETATM   28  C   UNL     1      -7.049   4.544  67.759  1.00  0.00    -0.064 A  
HETATM   29  C   UNL     1      -7.364   5.508  68.720  1.00  0.00    -0.075 A  
ENDBRANCH  23  24
ENDBRANCH  10  23
TORSDOF 5
ENDMDL
MODEL      105
REMARK 921   NORMALIZED FREE ENERGY PREDICTED BY IDOCK:   -5.32 KCAL/MOL
REMARK 922        TOTAL FREE ENERGY PREDICTED BY IDOCK:   -8.04 KCAL/MOL
REMARK 923 INTER-LIGAND FREE ENERGY PREDICTED BY IDOCK:   -7.58 KCAL/MOL
REMARK 924 INTRA-LIGAND FREE ENERGY PREDICTED BY IDOCK:   -0.47 KCAL/MOL
REMARK 927      BINDING AFFINITY PREDICTED BY RF-SCORE:    0.00 PKD
ROOT
HETATM    1  C   UNL     1      -8.458   9.679  66.243  1.00  0.00    -0.125 C  
HETATM    2  C   UNL     1      -8.645  10.877  67.181  1.00  0.00    -0.130 C  
HETATM    3  C   UNL     1      -9.049  10.481  68.609  1.00  0.00    -0.158 C  
HETATM    4  C   UNL     1      -9.738  11.787  66.636  1.00  0.00    -0.202 C  
HETATM    5  O   UNL     1     -10.745  11.326  66.099  1.00  0.00    -0.265 OA 
HETATM    6  C   UNL     1     -10.990  14.261  64.919  1.00  0.00    -0.404 C  
HETATM    7  N   UNL     1      -9.581  13.152  66.731  1.00  0.00    -0.243 N  
HETATM    8  C   UNL     1      -8.464  13.882  67.315  1.00  0.00    -0.200 C  
HETATM    9  C   UNL     1     -10.694  14.068  66.413  1.00  0.00    -0.278 C  
HETATM   10  C   UNL     1      -9.094  15.135  67.922  1.00  0.00    -0.179 C  
HETATM   11  C   UNL     1     -10.277  15.428  66.999  1.00  0.00    -0.262 C  
HETATM   12  O   UNL     1     -10.215  13.537  64.081  1.00  0.00    -0.344 OA 
HETATM   13  O   UNL     1     -11.836  15.042  64.496  1.00  0.00    -0.429 OA 
ENDROOT
BRANCH   3  14
HETATM   14  S   UNL     1      -7.796   9.410  69.364  1.00  0.00    -0.095 SA 
BRANCH  14  15
HETATM   15  C   UNL     1      -8.743   8.610  70.615  1.00  0.00    -0.165 C  
HETATM   16  O   UNL     1      -9.051   9.182  71.653  1.00  0.00    -0.334 OA 
BRANCH  15  17
HETATM   17  C   UNL     1      -9.181   7.213  70.325  1.00  0.00    -0.156 A  
HETATM   18  C   UNL     1      -8.880   6.140  71.179  1.00  0.00    -0.139 A  
HETATM   19  C   UNL     1      -9.300   4.846  70.864  1.00  0.00    -0.210 A  
HETATM   20  C   UNL     1     -10.029   4.615  69.700  1.00  0.00    -0.281 A  
HETATM   21  C   UNL     1      -9.926   6.972  69.163  1.00  0.00    -0.165 A  
HETATM   22  C   UNL     1     -10.343   5.676  68.850  1.00  0.00    -0.295 A  
ENDBRANCH  15  17
ENDBRANCH  14  15
ENDBRANCH   3  14
BRANCH  10  23
HETATM   23  S   UNL     1      -7.851  16.475  68.013  1.00  0.00    -0.161 SA 
BRANCH  23  24
HETATM   24  C   UNL     1      -8.813  17.947  67.702  1.00  0.00    -0.250 A  
HETATM   25  C   UNL     1      -9.177  18.367  66.419  1.00  0.00    -0.280 A  
HETATM   26  C   UNL     1     -10.384  20.248  67.346  1.00  0.00    -0.424 A  
HETATM   27  C   UNL     1      -9.952  19.517  66.241  1.00  0.00    -0.538 A  
HETATM   28  C   UNL     1     -10.046  19.828  68.630  1.00  0.00    -0.546 A  
HETATM   29  C   UNL     1      -9.267  18.681  68.806  1.00  0.00    -0.318 A  
ENDBRANCH  23  24
ENDBRANCH  10  23
TORSDOF 5
ENDMDL
MODEL      106
REMARK 921   NORMALIZED FREE ENERGY PREDICTED BY IDOCK:   -5.31 KCAL/MOL
REMARK 922        TOTAL FREE ENERGY PREDICTED BY IDOCK:   -8.03 KCAL/MOL
REMARK 923 INTER-LIGAND FREE ENERGY PREDICTED BY IDOCK:   -6.91 KCAL/MOL
REMARK 924 INTRA-LIGAND FREE ENERGY PREDICTED BY IDOCK:   -1.12 KCAL/MOL
REMARK 927      BINDING AFFINITY PREDICTED BY RF-SCORE:    0.00 PKD
ROOT
HETATM    1  C   UNL     1      -9.689   4.931  70.789  1.00  0.00    -0.268 C  
HETATM    2  C   UNL     1      -9.538   6.449  70.629  1.00  0.00    -0.186 C  
HETATM    3  C   UNL     1      -8.173   6.981  71.089  1.00  0.00    -0.113 C  
HETATM    4  C   UNL     1     -10.604   7.157  71.455  1.00  0.00    -0.216 C  
HETATM    5  O   UNL     1     -10.942   6.735  72.560  1.00  0.00    -0.229 OA 
HETATM    6  C   UNL     1     -13.492   8.552  72.047  1.00  0.00    -0.381 C  
HETATM    7  N   UNL     1     -11.212   8.280  70.939  1.00  0.00    -0.262 N  
HETATM    8  C   UNL     1     -10.961   8.920  69.655  1.00  0.00    -0.123 C  
HETATM    9  C   UNL     1     -12.091   9.120  71.777  1.00  0.00    -0.376 C  
HETATM   10  C   UNL     1     -11.173  10.411  69.916  1.00  0.00    -0.306 C  
HETATM   11  C   UNL     1     -12.250  10.438  71.000  1.00  0.00    -0.498 C  
HETATM   12  O   UNL     1     -13.731   7.334  71.512  1.00  0.00    -0.390 OA 
HETATM   13  O   UNL     1     -14.358   9.163  72.666  1.00  0.00    -0.561 OA 
ENDROOT
BRANCH   3  14
HETATM   14  S   UNL     1      -6.827   6.215  70.147  1.00  0.00    -0.059 SA 
BRANCH  14  15
HETATM   15  C   UNL     1      -7.152   6.829  68.529  1.00  0.00    -0.083 C  
HETATM   16  O   UNL     1      -6.605   7.838  68.102  1.00  0.00    -0.055 OA 
BRANCH  15  17
HETATM   17  C   UNL     1      -8.100   6.033  67.695  1.00  0.00    -0.106 A  
HETATM   18  C   UNL     1      -9.205   6.614  67.054  1.00  0.00    -0.147 A  
HETATM   19  C   UNL     1     -10.074   5.830  66.292  1.00  0.00    -0.129 A  
HETATM   20  C   UNL     1      -9.841   4.464  66.157  1.00  0.00    -0.243 A  
HETATM   21  C   UNL     1      -7.866   4.660  67.542  1.00  0.00    -0.090 A  
HETATM   22  C   UNL     1      -8.739   3.878  66.780  1.00  0.00    -0.116 A  
ENDBRANCH  15  17
ENDBRANCH  14  15
ENDBRANCH   3  14
BRANCH  10  23
HETATM   23  S   UNL     1     -11.639  11.255  68.361  1.00  0.00    -0.297 SA 
BRANCH  23  24
HETATM   24  C   UNL     1     -11.320  12.975  68.717  1.00  0.00    -0.289 A  
HETATM   25  C   UNL     1     -12.254  13.816  69.331  1.00  0.00    -0.325 A  
HETATM   26  C   UNL     1     -10.674  15.649  69.285  1.00  0.00    -0.239 A  
HETATM   27  C   UNL     1     -11.935  15.149  69.606  1.00  0.00    -0.359 A  
HETATM   28  C   UNL     1      -9.730  14.816  68.692  1.00  0.00    -0.225 A  
HETATM   29  C   UNL     1     -10.050  13.485  68.414  1.00  0.00    -0.240 A  
ENDBRANCH  23  24
ENDBRANCH  10  23
TORSDOF 5
ENDMDL
MODEL      107
REMARK 921   NORMALIZED FREE ENERGY PREDICTED BY IDOCK:   -5.29 KCAL/MOL
REMARK 922        TOTAL FREE ENERGY PREDICTED BY IDOCK:   -8.01 KCAL/MOL
REMARK 923 INTER-LIGAND FREE ENERGY PREDICTED BY IDOCK:   -7.49 KCAL/MOL
REMARK 924 INTRA-LIGAND FREE ENERGY PREDICTED BY IDOCK:   -0.52 KCAL/MOL
REMARK 927      BINDING AFFINITY PREDICTED BY RF-SCORE:    0.00 PKD
ROOT
HETATM    1  C   UNL     1     -13.521   9.898  71.087  1.00  0.00    -0.308 C  
HETATM    2  C   UNL     1     -12.466  10.856  70.521  1.00  0.00    -0.438 C  
HETATM    3  C   UNL     1     -11.044  10.276  70.530  1.00  0.00    -0.306 C  
HETATM    4  C   UNL     1     -12.440  12.134  71.348  1.00  0.00    -0.117 C  
HETATM    5  O   UNL     1     -12.583  12.108  72.570  1.00  0.00     0.376 OA 
HETATM    6  C   UNL     1     -13.261  15.182  72.171  1.00  0.00    -0.376 C  
HETATM    7  N   UNL     1     -12.274  13.342  70.707  1.00  0.00    -0.353 N  
HETATM    8  C   UNL     1     -12.103  13.578  69.280  1.00  0.00    -0.288 C  
HETATM    9  C   UNL     1     -12.031  14.580  71.473  1.00  0.00    -0.291 C  
HETATM   10  C   UNL     1     -11.171  14.786  69.195  1.00  0.00    -0.271 C  
HETATM   11  C   UNL     1     -11.520  15.599  70.441  1.00  0.00    -0.369 C  
HETATM   12  O   UNL     1     -14.405  14.478  72.024  1.00  0.00    -0.491 OA 
HETATM   13  O   UNL     1     -13.233  16.243  72.785  1.00  0.00    -0.352 OA 
ENDROOT
BRANCH   3  14
HETATM   14  S   UNL     1     -10.958   8.755  69.547  1.00  0.00     0.014 SA 
BRANCH  14  15
HETATM   15  C   UNL     1     -10.617   7.562  70.797  1.00  0.00    -0.220 C  
HETATM   16  O   UNL     1     -11.070   7.670  71.929  1.00  0.00    -0.236 OA 
BRANCH  15  17
HETATM   17  C   UNL     1      -9.780   6.395  70.390  1.00  0.00    -0.183 A  
HETATM   18  C   UNL     1      -8.393   6.354  70.605  1.00  0.00    -0.133 A  
HETATM   19  C   UNL     1      -7.647   5.247  70.198  1.00  0.00    -0.072 A  
HETATM   20  C   UNL     1      -8.278   4.169  69.583  1.00  0.00    -0.067 A  
HETATM   21  C   UNL     1     -10.409   5.299  69.783  1.00  0.00    -0.369 A  
HETATM   22  C   UNL     1      -9.658   4.193  69.376  1.00  0.00    -0.265 A  
ENDBRANCH  15  17
ENDBRANCH  14  15
ENDBRANCH   3  14
BRANCH  10  23
HETATM   23  S   UNL     1     -11.437  15.666  67.613  1.00  0.00    -0.082 SA 
BRANCH  23  24
HETATM   24  C   UNL     1     -11.499  14.344  66.414  1.00  0.00    -0.360 A  
HETATM   25  C   UNL     1     -12.555  14.177  65.513  1.00  0.00    -0.501 A  
HETATM   26  C   UNL     1     -11.449  12.262  64.531  1.00  0.00    -0.401 A  
HETATM   27  C   UNL     1     -12.534  13.135  64.581  1.00  0.00    -0.433 A  
HETATM   28  C   UNL     1     -10.382  12.431  65.409  1.00  0.00    -0.303 A  
HETATM   29  C   UNL     1     -10.406  13.470  66.343  1.00  0.00    -0.289 A  
ENDBRANCH  23  24
ENDBRANCH  10  23
TORSDOF 5
ENDMDL
MODEL      108
REMARK 921   NORMALIZED FREE ENERGY PREDICTED BY IDOCK:   -5.29 KCAL/MOL
REMARK 922        TOTAL FREE ENERGY PREDICTED BY IDOCK:   -8.01 KCAL/MOL
REMARK 923 INTER-LIGAND FREE ENERGY PREDICTED BY IDOCK:   -7.30 KCAL/MOL
REMARK 924 INTRA-LIGAND FREE ENERGY PREDICTED BY IDOCK:   -0.71 KCAL/MOL
REMARK 927      BINDING AFFINITY PREDICTED BY RF-SCORE:    0.00 PKD
ROOT
HETATM    1  C   UNL     1     -11.395  14.796  65.793  1.00  0.00    -0.336 C  
HETATM    2  C   UNL     1     -11.188  14.190  67.186  1.00  0.00    -0.330 C  
HETATM    3  C   UNL     1     -10.462  15.129  68.161  1.00  0.00    -0.245 C  
HETATM    4  C   UNL     1     -10.354  12.921  67.071  1.00  0.00    -0.242 C  
HETATM    5  O   UNL     1      -9.421  12.839  66.273  1.00  0.00    -0.243 OA 
HETATM    6  C   UNL     1      -9.803   9.724  66.737  1.00  0.00    -0.208 C  
HETATM    7  N   UNL     1     -10.669  11.840  67.865  1.00  0.00    -0.197 N  
HETATM    8  C   UNL     1     -11.735  11.739  68.852  1.00  0.00    -0.323 C  
HETATM    9  C   UNL     1      -9.771  10.671  67.946  1.00  0.00    -0.161 C  
HETATM   10  C   UNL     1     -11.169  10.832  69.943  1.00  0.00    -0.300 C  
HETATM   11  C   UNL     1     -10.241   9.886  69.182  1.00  0.00    -0.218 C  
HETATM   12  O   UNL     1     -10.626  10.101  65.733  1.00  0.00    -0.115 OA 
HETATM   13  O   UNL     1      -9.168   8.675  66.687  1.00  0.00    -0.158 OA 
ENDROOT
BRANCH   3  14
HETATM   14  S   UNL     1     -11.388  16.670  68.389  1.00  0.00    -0.004 SA 
BRANCH  14  15
HETATM   15  C   UNL     1     -10.287  17.839  67.667  1.00  0.00    -0.373 C  
HETATM   16  O   UNL     1     -10.686  18.906  67.218  1.00  0.00    -0.445 OA 
BRANCH  15  17
HETATM   17  C   UNL     1      -8.840  17.475  67.666  1.00  0.00    -0.228 A  
HETATM   18  C   UNL     1      -7.994  17.758  68.750  1.00  0.00    -0.240 A  
HETATM   19  C   UNL     1      -6.642  17.411  68.701  1.00  0.00    -0.193 A  
HETATM   20  C   UNL     1      -6.128  16.771  67.577  1.00  0.00    -0.179 A  
HETATM   21  C   UNL     1      -8.315  16.818  66.543  1.00  0.00    -0.320 A  
HETATM   22  C   UNL     1      -6.962  16.473  66.499  1.00  0.00    -0.096 A  
ENDBRANCH  15  17
ENDBRANCH  14  15
ENDBRANCH   3  14
BRANCH  10  23
HETATM   23  S   UNL     1     -12.536  10.003  70.834  1.00  0.00    -0.318 SA 
BRANCH  23  24
HETATM   24  C   UNL     1     -11.741   8.587  71.577  1.00  0.00    -0.297 A  
HETATM   25  C   UNL     1     -10.678   8.692  72.479  1.00  0.00    -0.214 A  
HETATM   26  C   UNL     1     -10.618   6.285  72.730  1.00  0.00    -0.252 A  
HETATM   27  C   UNL     1     -10.113   7.545  73.046  1.00  0.00    -0.342 A  
HETATM   28  C   UNL     1     -11.690   6.170  71.849  1.00  0.00    -0.337 A  
HETATM   29  C   UNL     1     -12.251   7.316  71.279  1.00  0.00    -0.389 A  
ENDBRANCH  23  24
ENDBRANCH  10  23
TORSDOF 5
ENDMDL
MODEL      109
REMARK 921   NORMALIZED FREE ENERGY PREDICTED BY IDOCK:   -5.28 KCAL/MOL
REMARK 922        TOTAL FREE ENERGY PREDICTED BY IDOCK:   -7.99 KCAL/MOL
REMARK 923 INTER-LIGAND FREE ENERGY PREDICTED BY IDOCK:   -6.87 KCAL/MOL
REMARK 924 INTRA-LIGAND FREE ENERGY PREDICTED BY IDOCK:   -1.12 KCAL/MOL
REMARK 927      BINDING AFFINITY PREDICTED BY RF-SCORE:    0.00 PKD
ROOT
HETATM    1  C   UNL     1      -7.062   6.661  70.222  1.00  0.00    -0.072 C  
HETATM    2  C   UNL     1      -7.757   7.463  69.115  1.00  0.00    -0.111 C  
HETATM    3  C   UNL     1      -7.845   6.713  67.778  1.00  0.00    -0.112 C  
HETATM    4  C   UNL     1      -6.990   8.754  68.862  1.00  0.00    -0.062 C  
HETATM    5  O   UNL     1      -5.760   8.785  68.896  1.00  0.00    -0.039 OA 
HETATM    6  C   UNL     1      -6.231  11.904  69.234  1.00  0.00    -0.094 C  
HETATM    7  N   UNL     1      -7.694   9.911  68.610  1.00  0.00    -0.079 N  
HETATM    8  C   UNL     1      -9.139  10.079  68.542  1.00  0.00    -0.127 C  
HETATM    9  C   UNL     1      -7.004  11.134  68.153  1.00  0.00    -0.069 C  
HETATM   10  C   UNL     1      -9.354  11.160  67.483  1.00  0.00    -0.168 C  
HETATM   11  C   UNL     1      -8.119  12.049  67.618  1.00  0.00    -0.155 C  
HETATM   12  O   UNL     1      -6.249  11.343  70.463  1.00  0.00    -0.295 OA 
HETATM   13  O   UNL     1      -5.667  12.973  69.025  1.00  0.00    -0.071 OA 
ENDROOT
BRANCH   3  14
HETATM   14  S   UNL     1      -8.766   5.163  67.963  1.00  0.00    -0.102 SA 
BRANCH  14  15
HETATM   15  C   UNL     1     -10.374   5.766  68.348  1.00  0.00    -0.213 C  
HETATM   16  O   UNL     1     -11.146   6.142  67.475  1.00  0.00    -0.330 OA 
BRANCH  15  17
HETATM   17  C   UNL     1     -10.759   5.759  69.790  1.00  0.00    -0.418 A  
HETATM   18  C   UNL     1     -10.181   4.877  70.717  1.00  0.00    -0.276 A  
HETATM   19  C   UNL     1     -10.580   4.896  72.055  1.00  0.00    -0.210 A  
HETATM   20  C   UNL     1     -11.549   5.800  72.480  1.00  0.00    -0.321 A  
HETATM   21  C   UNL     1     -11.725   6.675  70.230  1.00  0.00    -0.432 A  
HETATM   22  C   UNL     1     -12.121   6.690  71.570  1.00  0.00    -0.406 A  
ENDBRANCH  15  17
ENDBRANCH  14  15
ENDBRANCH   3  14
BRANCH  10  23
HETATM   23  S   UNL     1     -10.943  12.016  67.783  1.00  0.00    -0.248 SA 
BRANCH  23  24
HETATM   24  C   UNL     1     -11.443  12.536  66.150  1.00  0.00    -0.377 A  
HETATM   25  C   UNL     1     -11.510  11.667  65.056  1.00  0.00    -0.189 A  
HETATM   26  C   UNL     1     -12.308  13.463  63.643  1.00  0.00    -0.422 A  
HETATM   27  C   UNL     1     -11.932  12.131  63.806  1.00  0.00    -0.607 A  
HETATM   28  C   UNL     1     -12.265  14.332  64.730  1.00  0.00    -0.456 A  
HETATM   29  C   UNL     1     -11.839  13.870  65.977  1.00  0.00    -0.412 A  
ENDBRANCH  23  24
ENDBRANCH  10  23
TORSDOF 5
ENDMDL
MODEL      110
REMARK 921   NORMALIZED FREE ENERGY PREDICTED BY IDOCK:   -5.28 KCAL/MOL
REMARK 922        TOTAL FREE ENERGY PREDICTED BY IDOCK:   -7.99 KCAL/MOL
REMARK 923 INTER-LIGAND FREE ENERGY PREDICTED BY IDOCK:   -6.74 KCAL/MOL
REMARK 924 INTRA-LIGAND FREE ENERGY PREDICTED BY IDOCK:   -1.25 KCAL/MOL
REMARK 927      BINDING AFFINITY PREDICTED BY RF-SCORE:    0.00 PKD
ROOT
HETATM    1  C   UNL     1      -7.305   9.984  64.033  1.00  0.00    -0.132 C  
HETATM    2  C   UNL     1      -8.443   9.882  65.056  1.00  0.00    -0.161 C  
HETATM    3  C   UNL     1      -8.975   8.454  65.240  1.00  0.00    -0.003 C  
HETATM    4  C   UNL     1      -9.613  10.747  64.606  1.00  0.00    -0.268 C  
HETATM    5  O   UNL     1      -9.925  10.835  63.419  1.00  0.00    -0.322 OA 
HETATM    6  C   UNL     1     -11.431  13.448  64.403  1.00  0.00    -0.384 C  
HETATM    7  N   UNL     1     -10.318  11.461  65.550  1.00  0.00    -0.256 N  
HETATM    8  C   UNL     1     -10.095  11.499  66.989  1.00  0.00    -0.210 C  
HETATM    9  C   UNL     1     -11.580  12.143  65.199  1.00  0.00    -0.317 C  
HETATM   10  C   UNL     1     -11.489  11.660  67.593  1.00  0.00    -0.303 C  
HETATM   11  C   UNL     1     -12.245  12.476  66.545  1.00  0.00    -0.053 C  
HETATM   12  O   UNL     1     -10.161  13.789  64.092  1.00  0.00    -0.234 OA 
HETATM   13  O   UNL     1     -12.381  14.162  64.099  1.00  0.00    -0.628 OA 
ENDROOT
BRANCH   3  14
HETATM   14  S   UNL     1      -7.660   7.339  65.801  1.00  0.00    -0.096 SA 
BRANCH  14  15
HETATM   15  C   UNL     1      -7.980   7.280  67.532  1.00  0.00    -0.113 C  
HETATM   16  O   UNL     1      -8.722   6.438  68.020  1.00  0.00    -0.117 OA 
BRANCH  15  17
HETATM   17  C   UNL     1      -7.267   8.286  68.373  1.00  0.00    -0.092 A  
HETATM   18  C   UNL     1      -5.945   8.101  68.806  1.00  0.00    -0.043 A  
HETATM   19  C   UNL     1      -5.321   9.063  69.603  1.00  0.00    -0.034 A  
HETATM   20  C   UNL     1      -6.007  10.219  69.965  1.00  0.00    -0.063 A  
HETATM   21  C   UNL     1      -7.945   9.459  68.732  1.00  0.00    -0.092 A  
HETATM   22  C   UNL     1      -7.317  10.419  69.530  1.00  0.00    -0.144 A  
ENDBRANCH  15  17
ENDBRANCH  14  15
ENDBRANCH   3  14
BRANCH  10  23
HETATM   23  S   UNL     1     -11.366  12.459  69.235  1.00  0.00    -0.228 SA 
BRANCH  23  24
HETATM   24  C   UNL     1     -11.788  11.141  70.364  1.00  0.00    -0.369 A  
HETATM   25  C   UNL     1     -13.017  11.064  71.026  1.00  0.00    -0.369 A  
HETATM   26  C   UNL     1     -12.358   8.980  72.065  1.00  0.00    -0.455 A  
HETATM   27  C   UNL     1     -13.297   9.993  71.880  1.00  0.00    -0.516 A  
HETATM   28  C   UNL     1     -11.139   9.036  71.395  1.00  0.00    -0.399 A  
HETATM   29  C   UNL     1     -10.858  10.108  70.545  1.00  0.00    -0.340 A  
ENDBRANCH  23  24
ENDBRANCH  10  23
TORSDOF 5
ENDMDL
MODEL      111
REMARK 921   NORMALIZED FREE ENERGY PREDICTED BY IDOCK:   -5.28 KCAL/MOL
REMARK 922        TOTAL FREE ENERGY PREDICTED BY IDOCK:   -7.99 KCAL/MOL
REMARK 923 INTER-LIGAND FREE ENERGY PREDICTED BY IDOCK:   -6.20 KCAL/MOL
REMARK 924 INTRA-LIGAND FREE ENERGY PREDICTED BY IDOCK:   -1.78 KCAL/MOL
REMARK 927      BINDING AFFINITY PREDICTED BY RF-SCORE:    0.00 PKD
ROOT
HETATM    1  C   UNL     1     -13.294  10.121  71.101  1.00  0.00    -0.372 C  
HETATM    2  C   UNL     1     -11.903   9.756  70.568  1.00  0.00    -0.316 C  
HETATM    3  C   UNL     1     -10.877   9.476  71.676  1.00  0.00    -0.155 C  
HETATM    4  C   UNL     1     -11.362  10.905  69.728  1.00  0.00    -0.301 C  
HETATM    5  O   UNL     1     -11.557  12.078  70.046  1.00  0.00    -0.279 OA 
HETATM    6  C   UNL     1     -10.811  12.622  67.010  1.00  0.00    -0.253 C  
HETATM    7  N   UNL     1     -10.658  10.618  68.579  1.00  0.00    -0.187 N  
HETATM    8  C   UNL     1     -10.337   9.306  68.034  1.00  0.00    -0.221 C  
HETATM    9  C   UNL     1      -9.936  11.678  67.847  1.00  0.00    -0.182 C  
HETATM   10  C   UNL     1      -8.970   9.483  67.375  1.00  0.00    -0.131 C  
HETATM   11  C   UNL     1      -8.986  10.934  66.894  1.00  0.00    -0.158 C  
HETATM   12  O   UNL     1     -12.140  12.385  67.079  1.00  0.00    -0.549 OA 
HETATM   13  O   UNL     1     -10.353  13.506  66.293  1.00  0.00    -0.281 OA 
ENDROOT
BRANCH   3  14
HETATM   14  S   UNL     1     -11.417   8.101  72.727  1.00  0.00    -0.199 SA 
BRANCH  14  15
HETATM   15  C   UNL     1     -11.966   6.944  71.519  1.00  0.00    -0.344 C  
HETATM   16  O   UNL     1     -13.157   6.762  71.298  1.00  0.00    -0.273 OA 
BRANCH  15  17
HETATM   17  C   UNL     1     -10.904   6.229  70.752  1.00  0.00    -0.339 A  
HETATM   18  C   UNL     1     -10.958   6.077  69.357  1.00  0.00    -0.455 A  
HETATM   19  C   UNL     1      -9.948   5.390  68.682  1.00  0.00    -0.232 A  
HETATM   20  C   UNL     1      -8.874   4.858  69.390  1.00  0.00    -0.120 A  
HETATM   21  C   UNL     1      -9.812   5.702  71.455  1.00  0.00    -0.221 A  
HETATM   22  C   UNL     1      -8.804   5.014  70.774  1.00  0.00    -0.156 A  
ENDBRANCH  15  17
ENDBRANCH  14  15
ENDBRANCH   3  14
BRANCH  10  23
HETATM   23  S   UNL     1      -8.755   8.244  66.046  1.00  0.00    -0.162 SA 
BRANCH  23  24
HETATM   24  C   UNL     1      -7.532   7.130  66.720  1.00  0.00    -0.089 A  
HETATM   25  C   UNL     1      -6.807   7.402  67.884  1.00  0.00    -0.074 A  
HETATM   26  C   UNL     1      -5.683   5.265  67.716  1.00  0.00    -0.017 A  
HETATM   27  C   UNL     1      -5.880   6.477  68.375  1.00  0.00    -0.020 A  
HETATM   28  C   UNL     1      -6.415   4.974  66.568  1.00  0.00    -0.041 A  
HETATM   29  C   UNL     1      -7.338   5.900  66.076  1.00  0.00    -0.077 A  
ENDBRANCH  23  24
ENDBRANCH  10  23
TORSDOF 5
ENDMDL
MODEL      112
REMARK 921   NORMALIZED FREE ENERGY PREDICTED BY IDOCK:   -5.26 KCAL/MOL
REMARK 922        TOTAL FREE ENERGY PREDICTED BY IDOCK:   -7.97 KCAL/MOL
REMARK 923 INTER-LIGAND FREE ENERGY PREDICTED BY IDOCK:   -7.28 KCAL/MOL
REMARK 924 INTRA-LIGAND FREE ENERGY PREDICTED BY IDOCK:   -0.68 KCAL/MOL
REMARK 927      BINDING AFFINITY PREDICTED BY RF-SCORE:    0.00 PKD
ROOT
HETATM    1  C   UNL     1     -10.929   8.178  72.919  1.00  0.00    -0.307 C  
HETATM    2  C   UNL     1     -11.304   8.465  71.461  1.00  0.00    -0.334 C  
HETATM    3  C   UNL     1     -12.725   9.023  71.292  1.00  0.00    -0.262 C  
HETATM    4  C   UNL     1     -11.223   7.179  70.650  1.00  0.00    -0.280 C  
HETATM    5  O   UNL     1     -11.577   6.100  71.124  1.00  0.00    -0.300 OA 
HETATM    6  C   UNL     1      -9.824   4.920  68.758  1.00  0.00    -0.161 C  
HETATM    7  N   UNL     1     -10.721   7.228  69.368  1.00  0.00    -0.237 N  
HETATM    8  C   UNL     1     -10.242   8.395  68.642  1.00  0.00    -0.201 C  
HETATM    9  C   UNL     1     -10.815   6.058  68.472  1.00  0.00    -0.286 C  
HETATM   10  C   UNL     1     -10.614   8.126  67.184  1.00  0.00    -0.285 C  
HETATM   11  C   UNL     1     -10.523   6.605  67.064  1.00  0.00    -0.369 C  
HETATM   12  O   UNL     1      -9.013   5.118  69.820  1.00  0.00    -0.107 OA 
HETATM   13  O   UNL     1      -9.733   3.916  68.058  1.00  0.00    -0.151 OA 
ENDROOT
BRANCH   3  14
HETATM   14  S   UNL     1     -12.925  10.577  72.204  1.00  0.00    -0.083 SA 
BRANCH  14  15
HETATM   15  C   UNL     1     -12.615  11.758  70.935  1.00  0.00    -0.289 C  
HETATM   16  O   UNL     1     -12.374  11.416  69.784  1.00  0.00    -0.259 OA 
BRANCH  15  17
HETATM   17  C   UNL     1     -12.700  13.195  71.329  1.00  0.00    -0.396 A  
HETATM   18  C   UNL     1     -13.692  13.678  72.196  1.00  0.00    -0.649 A  
HETATM   19  C   UNL     1     -13.742  15.033  72.529  1.00  0.00    -0.572 A  
HETATM   20  C   UNL     1     -12.797  15.913  72.007  1.00  0.00    -0.466 A  
HETATM   21  C   UNL     1     -11.745  14.086  70.819  1.00  0.00    -0.190 A  
HETATM   22  C   UNL     1     -11.799  15.442  71.154  1.00  0.00    -0.422 A  
ENDBRANCH  15  17
ENDBRANCH  14  15
ENDBRANCH   3  14
BRANCH  10  23
HETATM   23  S   UNL     1      -9.486   9.045  66.074  1.00  0.00    -0.253 SA 
BRANCH  23  24
HETATM   24  C   UNL     1      -8.187   7.865  65.743  1.00  0.00    -0.130 A  
HETATM   25  C   UNL     1      -7.285   7.426  66.717  1.00  0.00    -0.087 A  
HETATM   26  C   UNL     1      -6.226   5.955  65.113  1.00  0.00    -0.037 A  
HETATM   27  C   UNL     1      -6.303   6.481  66.401  1.00  0.00    -0.042 A  
HETATM   28  C   UNL     1      -7.133   6.369  64.140  1.00  0.00    -0.057 A  
HETATM   29  C   UNL     1      -8.110   7.316  64.456  1.00  0.00    -0.071 A  
ENDBRANCH  23  24
ENDBRANCH  10  23
TORSDOF 5
ENDMDL
MODEL      113
REMARK 921   NORMALIZED FREE ENERGY PREDICTED BY IDOCK:   -5.23 KCAL/MOL
REMARK 922        TOTAL FREE ENERGY PREDICTED BY IDOCK:   -7.92 KCAL/MOL
REMARK 923 INTER-LIGAND FREE ENERGY PREDICTED BY IDOCK:   -7.52 KCAL/MOL
REMARK 924 INTRA-LIGAND FREE ENERGY PREDICTED BY IDOCK:   -0.40 KCAL/MOL
REMARK 927      BINDING AFFINITY PREDICTED BY RF-SCORE:    0.00 PKD
ROOT
HETATM    1  C   UNL     1      -9.882   8.824  72.177  1.00  0.00    -0.347 C  
HETATM    2  C   UNL     1     -10.135   8.289  70.763  1.00  0.00    -0.218 C  
HETATM    3  C   UNL     1     -11.390   8.876  70.101  1.00  0.00    -0.106 C  
HETATM    4  C   UNL     1     -10.314   6.777  70.814  1.00  0.00    -0.204 C  
HETATM    5  O   UNL     1     -10.915   6.235  71.741  1.00  0.00    -0.238 OA 
HETATM    6  C   UNL     1      -9.390   3.651  70.711  1.00  0.00    -0.155 C  
HETATM    7  N   UNL     1      -9.771   6.006  69.811  1.00  0.00    -0.155 N  
HETATM    8  C   UNL     1      -9.020   6.456  68.647  1.00  0.00    -0.125 C  
HETATM    9  C   UNL     1     -10.092   4.569  69.700  1.00  0.00    -0.091 C  
HETATM   10  C   UNL     1      -9.393   5.472  67.539  1.00  0.00    -0.111 C  
HETATM   11  C   UNL     1      -9.639   4.162  68.287  1.00  0.00    -0.191 C  
HETATM   12  O   UNL     1      -8.591   4.281  71.601  1.00  0.00    -0.104 OA 
HETATM   13  O   UNL     1      -9.500   2.429  70.700  1.00  0.00    -0.133 OA 
ENDROOT
BRANCH   3  14
HETATM   14  S   UNL     1     -11.270  10.680  69.968  1.00  0.00    -0.300 SA 
BRANCH  14  15
HETATM   15  C   UNL     1     -12.465  11.189  71.157  1.00  0.00    -0.393 C  
HETATM   16  O   UNL     1     -13.010  10.387  71.905  1.00  0.00    -0.438 OA 
BRANCH  15  17
HETATM   17  C   UNL     1     -12.749  12.652  71.229  1.00  0.00    -0.354 A  
HETATM   18  C   UNL     1     -12.162  13.575  70.349  1.00  0.00    -0.426 A  
HETATM   19  C   UNL     1     -12.447  14.937  70.460  1.00  0.00    -0.419 A  
HETATM   20  C   UNL     1     -13.325  15.387  71.442  1.00  0.00    -0.601 A  
HETATM   21  C   UNL     1     -13.643  13.113  72.206  1.00  0.00    -0.677 A  
HETATM   22  C   UNL     1     -13.924  14.478  72.314  1.00  0.00    -0.600 A  
ENDBRANCH  15  17
ENDBRANCH  14  15
ENDBRANCH   3  14
BRANCH  10  23
HETATM   23  S   UNL     1      -8.052   5.397  66.296  1.00  0.00    -0.106 SA 
BRANCH  23  24
HETATM   24  C   UNL     1      -8.887   4.815  64.829  1.00  0.00    -0.153 A  
HETATM   25  C   UNL     1      -8.385   5.002  63.537  1.00  0.00    -0.123 A  
HETATM   26  C   UNL     1     -10.261   3.792  62.603  1.00  0.00    -0.176 A  
HETATM   27  C   UNL     1      -9.074   4.501  62.428  1.00  0.00    -0.127 A  
HETATM   28  C   UNL     1     -10.759   3.581  63.886  1.00  0.00    -0.248 A  
HETATM   29  C   UNL     1     -10.073   4.086  64.992  1.00  0.00    -0.203 A  
ENDBRANCH  23  24
ENDBRANCH  10  23
TORSDOF 5
ENDMDL
MODEL      114
REMARK 921   NORMALIZED FREE ENERGY PREDICTED BY IDOCK:   -5.22 KCAL/MOL
REMARK 922        TOTAL FREE ENERGY PREDICTED BY IDOCK:   -7.92 KCAL/MOL
REMARK 923 INTER-LIGAND FREE ENERGY PREDICTED BY IDOCK:   -7.32 KCAL/MOL
REMARK 924 INTRA-LIGAND FREE ENERGY PREDICTED BY IDOCK:   -0.60 KCAL/MOL
REMARK 927      BINDING AFFINITY PREDICTED BY RF-SCORE:    0.00 PKD
ROOT
HETATM    1  C   UNL     1     -12.344  13.105  66.381  1.00  0.00    -0.300 C  
HETATM    2  C   UNL     1     -10.925  13.122  66.959  1.00  0.00    -0.289 C  
HETATM    3  C   UNL     1     -10.271  14.512  66.937  1.00  0.00    -0.264 C  
HETATM    4  C   UNL     1     -10.033  12.189  66.151  1.00  0.00    -0.233 C  
HETATM    5  O   UNL     1     -10.146  12.095  64.929  1.00  0.00    -0.266 OA 
HETATM    6  C   UNL     1      -8.565   9.381  65.377  1.00  0.00    -0.156 C  
HETATM    7  N   UNL     1      -9.098  11.422  66.810  1.00  0.00    -0.171 N  
HETATM    8  C   UNL     1      -8.824  11.382  68.240  1.00  0.00    -0.167 C  
HETATM    9  C   UNL     1      -8.074  10.665  66.062  1.00  0.00    -0.159 C  
HETATM   10  C   UNL     1      -7.321  11.126  68.341  1.00  0.00    -0.094 C  
HETATM   11  C   UNL     1      -7.016  10.276  67.108  1.00  0.00    -0.088 C  
HETATM   12  O   UNL     1      -9.885   9.124  65.517  1.00  0.00    -0.220 OA 
HETATM   13  O   UNL     1      -7.821   8.610  64.779  1.00  0.00    -0.108 OA 
ENDROOT
BRANCH   3  14
HETATM   14  S   UNL     1     -11.246  15.702  67.896  1.00  0.00    -0.296 SA 
BRANCH  14  15
HETATM   15  C   UNL     1     -10.745  15.309  69.537  1.00  0.00    -0.265 C  
HETATM   16  O   UNL     1      -9.609  15.534  69.934  1.00  0.00    -0.275 OA 
BRANCH  15  17
HETATM   17  C   UNL     1     -11.789  14.722  70.428  1.00  0.00    -0.352 A  
HETATM   18  C   UNL     1     -11.953  13.336  70.580  1.00  0.00    -0.319 A  
HETATM   19  C   UNL     1     -12.951  12.829  71.414  1.00  0.00    -0.359 A  
HETATM   20  C   UNL     1     -13.785  13.700  72.111  1.00  0.00    -0.649 A  
HETATM   21  C   UNL     1     -12.624  15.591  71.143  1.00  0.00    -0.509 A  
HETATM   22  C   UNL     1     -13.622  15.079  71.977  1.00  0.00    -0.522 A  
ENDBRANCH  15  17
ENDBRANCH  14  15
ENDBRANCH   3  14
BRANCH  10  23
HETATM   23  S   UNL     1      -6.933  10.319  69.936  1.00  0.00    -0.153 SA 
BRANCH  23  24
HETATM   24  C   UNL     1      -8.341   9.254  70.209  1.00  0.00    -0.186 A  
HETATM   25  C   UNL     1      -8.248   7.860  70.256  1.00  0.00    -0.124 A  
HETATM   26  C   UNL     1     -10.619   7.690  70.711  1.00  0.00    -0.224 A  
HETATM   27  C   UNL     1      -9.384   7.081  70.498  1.00  0.00    -0.159 A  
HETATM   28  C   UNL     1     -10.719   9.078  70.688  1.00  0.00    -0.292 A  
HETATM   29  C   UNL     1      -9.585   9.856  70.442  1.00  0.00    -0.117 A  
ENDBRANCH  23  24
ENDBRANCH  10  23
TORSDOF 5
ENDMDL
MODEL      115
REMARK 921   NORMALIZED FREE ENERGY PREDICTED BY IDOCK:   -5.20 KCAL/MOL
REMARK 922        TOTAL FREE ENERGY PREDICTED BY IDOCK:   -7.88 KCAL/MOL
REMARK 923 INTER-LIGAND FREE ENERGY PREDICTED BY IDOCK:   -6.84 KCAL/MOL
REMARK 924 INTRA-LIGAND FREE ENERGY PREDICTED BY IDOCK:   -1.04 KCAL/MOL
REMARK 927      BINDING AFFINITY PREDICTED BY RF-SCORE:    0.00 PKD
ROOT
HETATM    1  C   UNL     1     -10.281  18.317  69.150  1.00  0.00    -0.104 C  
HETATM    2  C   UNL     1     -10.169  17.007  68.362  1.00  0.00    -0.331 C  
HETATM    3  C   UNL     1     -10.412  17.175  66.855  1.00  0.00    -0.274 C  
HETATM    4  C   UNL     1     -11.199  16.011  68.879  1.00  0.00    -0.353 C  
HETATM    5  O   UNL     1     -12.325  16.374  69.219  1.00  0.00     0.104 OA 
HETATM    6  C   UNL     1     -12.346  13.587  70.735  1.00  0.00    -0.363 C  
HETATM    7  N   UNL     1     -10.850  14.683  68.986  1.00  0.00    -0.238 N  
HETATM    8  C   UNL     1      -9.573  14.067  68.650  1.00  0.00    -0.159 C  
HETATM    9  C   UNL     1     -11.866  13.652  69.278  1.00  0.00    -0.346 C  
HETATM   10  C   UNL     1      -9.938  12.673  68.139  1.00  0.00    -0.225 C  
HETATM   11  C   UNL     1     -11.192  12.313  68.935  1.00  0.00    -0.323 C  
HETATM   12  O   UNL     1     -11.803  14.508  71.561  1.00  0.00    -0.333 OA 
HETATM   13  O   UNL     1     -13.133  12.740  71.146  1.00  0.00    -0.214 OA 
ENDROOT
BRANCH   3  14
HETATM   14  S   UNL     1      -9.216  18.330  66.131  1.00  0.00    -0.015 SA 
BRANCH  14  15
HETATM   15  C   UNL     1      -7.708  17.731  66.815  1.00  0.00    -0.227 C  
HETATM   16  O   UNL     1      -7.228  16.658  66.473  1.00  0.00    -0.237 OA 
BRANCH  15  17
HETATM   17  C   UNL     1      -7.029  18.619  67.804  1.00  0.00    -0.223 A  
HETATM   18  C   UNL     1      -6.838  19.991  67.574  1.00  0.00    -0.272 A  
HETATM   19  C   UNL     1      -6.186  20.782  68.521  1.00  0.00    -0.337 A  
HETATM   20  C   UNL     1      -5.729  20.214  69.707  1.00  0.00    -0.336 A  
HETATM   21  C   UNL     1      -6.576  18.059  69.006  1.00  0.00    -0.251 A  
HETATM   22  C   UNL     1      -5.923  18.855  69.951  1.00  0.00    -0.266 A  
ENDBRANCH  15  17
ENDBRANCH  14  15
ENDBRANCH   3  14
BRANCH  10  23
HETATM   23  S   UNL     1      -8.528  11.533  68.383  1.00  0.00    -0.151 SA 
BRANCH  23  24
HETATM   24  C   UNL     1      -9.275   9.919  68.226  1.00  0.00    -0.129 A  
HETATM   25  C   UNL     1      -9.575   9.104  69.322  1.00  0.00    -0.159 A  
HETATM   26  C   UNL     1     -10.512   7.425  67.852  1.00  0.00    -0.265 A  
HETATM   27  C   UNL     1     -10.183   7.859  69.135  1.00  0.00    -0.219 A  
HETATM   28  C   UNL     1     -10.237   8.237  66.755  1.00  0.00    -0.375 A  
HETATM   29  C   UNL     1      -9.626   9.479  66.942  1.00  0.00    -0.217 A  
ENDBRANCH  23  24
ENDBRANCH  10  23
TORSDOF 5
ENDMDL
MODEL      116
REMARK 921   NORMALIZED FREE ENERGY PREDICTED BY IDOCK:   -5.19 KCAL/MOL
REMARK 922        TOTAL FREE ENERGY PREDICTED BY IDOCK:   -7.88 KCAL/MOL
REMARK 923 INTER-LIGAND FREE ENERGY PREDICTED BY IDOCK:   -6.35 KCAL/MOL
REMARK 924 INTRA-LIGAND FREE ENERGY PREDICTED BY IDOCK:   -1.53 KCAL/MOL
REMARK 927      BINDING AFFINITY PREDICTED BY RF-SCORE:    0.00 PKD
ROOT
HETATM    1  C   UNL     1      -6.641   9.308  69.718  1.00  0.00    -0.043 C  
HETATM    2  C   UNL     1      -7.172  10.411  68.795  1.00  0.00    -0.085 C  
HETATM    3  C   UNL     1      -7.015  10.088  67.302  1.00  0.00    -0.083 C  
HETATM    4  C   UNL     1      -6.417  11.706  69.061  1.00  0.00    -0.082 C  
HETATM    5  O   UNL     1      -5.211  11.706  69.307  1.00  0.00    -0.048 OA 
HETATM    6  C   UNL     1      -5.835  14.596  70.458  1.00  0.00    -0.168 C  
HETATM    7  N   UNL     1      -7.109  12.898  69.045  1.00  0.00    -0.067 N  
HETATM    8  C   UNL     1      -8.528  13.102  68.790  1.00  0.00     0.142 C  
HETATM    9  C   UNL     1      -6.395  14.190  69.087  1.00  0.00    -0.106 C  
HETATM   10  C   UNL     1      -8.604  14.449  68.073  1.00  0.00    -0.166 C  
HETATM   11  C   UNL     1      -7.437  15.239  68.665  1.00  0.00    -0.126 C  
HETATM   12  O   UNL     1      -6.035  13.699  71.449  1.00  0.00    -0.288 OA 
HETATM   13  O   UNL     1      -5.280  15.670  70.667  1.00  0.00    -0.148 OA 
ENDROOT
BRANCH   3  14
HETATM   14  S   UNL     1      -7.901   8.566  66.870  1.00  0.00    -0.092 SA 
BRANCH  14  15
HETATM   15  C   UNL     1      -9.458   9.213  66.362  1.00  0.00    -0.227 C  
HETATM   16  O   UNL     1     -10.453   9.125  67.071  1.00  0.00    -0.260 OA 
BRANCH  15  17
HETATM   17  C   UNL     1      -9.491   9.905  65.041  1.00  0.00    -0.343 A  
HETATM   18  C   UNL     1     -10.246  11.068  64.821  1.00  0.00    -0.381 A  
HETATM   19  C   UNL     1     -10.258  11.677  63.565  1.00  0.00    -0.474 A  
HETATM   20  C   UNL     1      -9.510  11.137  62.523  1.00  0.00    -0.233 A  
HETATM   21  C   UNL     1      -8.731   9.376  63.989  1.00  0.00    -0.225 A  
HETATM   22  C   UNL     1      -8.746   9.989  62.733  1.00  0.00    -0.215 A  
ENDBRANCH  15  17
ENDBRANCH  14  15
ENDBRANCH   3  14
BRANCH  10  23
HETATM   23  S   UNL     1     -10.248  15.205  68.341  1.00  0.00    -0.226 SA 
BRANCH  23  24
HETATM   24  C   UNL     1     -11.066  14.973  66.771  1.00  0.00    -0.326 A  
HETATM   25  C   UNL     1     -10.728  15.688  65.619  1.00  0.00    -0.376 A  
HETATM   26  C   UNL     1     -12.385  14.469  64.343  1.00  0.00    -0.437 A  
HETATM   27  C   UNL     1     -11.391  15.444  64.412  1.00  0.00    -0.246 A  
HETATM   28  C   UNL     1     -12.715  13.736  65.479  1.00  0.00    -0.530 A  
HETATM   29  C   UNL     1     -12.056  13.984  66.686  1.00  0.00    -0.487 A  
ENDBRANCH  23  24
ENDBRANCH  10  23
TORSDOF 5
ENDMDL
MODEL      117
REMARK 921   NORMALIZED FREE ENERGY PREDICTED BY IDOCK:   -5.17 KCAL/MOL
REMARK 922        TOTAL FREE ENERGY PREDICTED BY IDOCK:   -7.84 KCAL/MOL
REMARK 923 INTER-LIGAND FREE ENERGY PREDICTED BY IDOCK:   -6.89 KCAL/MOL
REMARK 924 INTRA-LIGAND FREE ENERGY PREDICTED BY IDOCK:   -0.95 KCAL/MOL
REMARK 927      BINDING AFFINITY PREDICTED BY RF-SCORE:    0.00 PKD
ROOT
HETATM    1  C   UNL     1      -9.326  11.716  67.925  1.00  0.00    -0.174 C  
HETATM    2  C   UNL     1      -9.514  10.207  67.732  1.00  0.00    -0.160 C  
HETATM    3  C   UNL     1      -9.889   9.815  66.295  1.00  0.00    -0.250 C  
HETATM    4  C   UNL     1     -10.628   9.711  68.643  1.00  0.00    -0.217 C  
HETATM    5  O   UNL     1     -11.636  10.386  68.846  1.00  0.00    -0.225 OA 
HETATM    6  C   UNL     1     -11.942   8.475  71.361  1.00  0.00    -0.300 C  
HETATM    7  N   UNL     1     -10.488   8.490  69.266  1.00  0.00    -0.222 N  
HETATM    8  C   UNL     1      -9.372   7.560  69.164  1.00  0.00    -0.147 C  
HETATM    9  C   UNL     1     -11.619   7.871  69.986  1.00  0.00     0.154 C  
HETATM   10  C   UNL     1     -10.010   6.175  69.274  1.00  0.00    -0.158 C  
HETATM   11  C   UNL     1     -11.211   6.403  70.191  1.00  0.00    -0.454 C  
HETATM   12  O   UNL     1     -11.170   9.524  71.724  1.00  0.00    -0.363 OA 
HETATM   13  O   UNL     1     -12.805   8.025  72.107  1.00  0.00    -0.301 OA 
ENDROOT
BRANCH   3  14
HETATM   14  S   UNL     1      -8.609  10.341  65.123  1.00  0.00    -0.177 SA 
BRANCH  14  15
HETATM   15  C   UNL     1      -9.593  10.894  63.772  1.00  0.00    -0.292 C  
HETATM   16  O   UNL     1      -9.607  10.299  62.701  1.00  0.00    -0.310 OA 
BRANCH  15  17
HETATM   17  C   UNL     1     -10.436  12.102  64.013  1.00  0.00    -0.418 A  
HETATM   18  C   UNL     1      -9.956  13.227  64.701  1.00  0.00    -0.141 A  
HETATM   19  C   UNL     1     -10.783  14.331  64.916  1.00  0.00    -0.448 A  
HETATM   20  C   UNL     1     -12.091  14.324  64.439  1.00  0.00    -0.490 A  
HETATM   21  C   UNL     1     -11.750  12.109  63.525  1.00  0.00    -0.579 A  
HETATM   22  C   UNL     1     -12.575  13.216  63.743  1.00  0.00    -0.257 A  
ENDBRANCH  15  17
ENDBRANCH  14  15
ENDBRANCH   3  14
BRANCH  10  23
HETATM   23  S   UNL     1      -8.784   4.975  69.910  1.00  0.00    -0.103 SA 
BRANCH  23  24
HETATM   24  C   UNL     1      -9.003   5.065  71.680  1.00  0.00    -0.133 A  
HETATM   25  C   UNL     1      -9.704   4.104  72.415  1.00  0.00    -0.210 A  
HETATM   26  C   UNL     1      -9.220   5.285  74.472  1.00  0.00    -0.116 A  
HETATM   27  C   UNL     1      -9.819   4.219  73.804  1.00  0.00    -0.157 A  
HETATM   28  C   UNL     1      -8.501   6.236  73.752  1.00  0.00    -0.124 A  
HETATM   29  C   UNL     1      -8.390   6.124  72.365  1.00  0.00    -0.115 A  
ENDBRANCH  23  24
ENDBRANCH  10  23
TORSDOF 5
ENDMDL
MODEL      118
REMARK 921   NORMALIZED FREE ENERGY PREDICTED BY IDOCK:   -5.16 KCAL/MOL
REMARK 922        TOTAL FREE ENERGY PREDICTED BY IDOCK:   -7.84 KCAL/MOL
REMARK 923 INTER-LIGAND FREE ENERGY PREDICTED BY IDOCK:   -6.76 KCAL/MOL
REMARK 924 INTRA-LIGAND FREE ENERGY PREDICTED BY IDOCK:   -1.08 KCAL/MOL
REMARK 927      BINDING AFFINITY PREDICTED BY RF-SCORE:    0.00 PKD
ROOT
HETATM    1  C   UNL     1     -13.457   9.847  70.434  1.00  0.00     0.306 C  
HETATM    2  C   UNL     1     -12.331  10.806  70.029  1.00  0.00    -0.371 C  
HETATM    3  C   UNL     1     -10.928  10.205  70.189  1.00  0.00    -0.316 C  
HETATM    4  C   UNL     1     -12.391  12.057  70.895  1.00  0.00    -0.285 C  
HETATM    5  O   UNL     1     -12.680  11.996  72.090  1.00  0.00    -0.124 OA 
HETATM    6  C   UNL     1     -13.270  15.090  71.712  1.00  0.00    -0.368 C  
HETATM    7  N   UNL     1     -12.135  13.282  70.318  1.00  0.00    -0.355 N  
HETATM    8  C   UNL     1     -11.792  13.560  68.930  1.00  0.00    -0.345 C  
HETATM    9  C   UNL     1     -11.973  14.492  71.148  1.00  0.00    -0.339 C  
HETATM   10  C   UNL     1     -10.844  14.756  68.997  1.00  0.00    -0.245 C  
HETATM   11  C   UNL     1     -11.330  15.535  70.218  1.00  0.00    -0.348 C  
HETATM   12  O   UNL     1     -14.397  14.409  71.407  1.00  0.00    -0.364 OA 
HETATM   13  O   UNL     1     -13.305  16.132  72.360  1.00  0.00    -0.337 OA 
ENDROOT
BRANCH   3  14
HETATM   14  S   UNL     1     -10.741   8.714  69.175  1.00  0.00    -0.050 SA 
BRANCH  14  15
HETATM   15  C   UNL     1      -8.987   8.576  69.093  1.00  0.00    -0.146 C  
HETATM   16  O   UNL     1      -8.405   7.559  69.446  1.00  0.00    -0.128 OA 
BRANCH  15  17
HETATM   17  C   UNL     1      -8.254   9.750  68.535  1.00  0.00    -0.106 A  
HETATM   18  C   UNL     1      -7.979   9.881  67.165  1.00  0.00    -0.109 A  
HETATM   19  C   UNL     1      -7.279  10.990  66.687  1.00  0.00    -0.143 A  
HETATM   20  C   UNL     1      -6.858  11.981  67.570  1.00  0.00    -0.128 A  
HETATM   21  C   UNL     1      -7.837  10.759  69.414  1.00  0.00    -0.093 A  
HETATM   22  C   UNL     1      -7.136  11.867  68.932  1.00  0.00    -0.110 A  
ENDBRANCH  15  17
ENDBRANCH  14  15
ENDBRANCH   3  14
BRANCH  10  23
HETATM   23  S   UNL     1     -10.908  15.689  67.424  1.00  0.00    -0.295 SA 
BRANCH  23  24
HETATM   24  C   UNL     1     -11.009  14.403  66.189  1.00  0.00    -0.320 A  
HETATM   25  C   UNL     1     -12.166  14.142  65.448  1.00  0.00    -0.441 A  
HETATM   26  C   UNL     1     -11.021  12.394  64.226  1.00  0.00    -0.396 A  
HETATM   27  C   UNL     1     -12.174  13.135  64.477  1.00  0.00    -0.466 A  
HETATM   28  C   UNL     1      -9.858  12.659  64.943  1.00  0.00    -0.078 A  
HETATM   29  C   UNL     1      -9.851  13.661  65.916  1.00  0.00    -0.263 A  
ENDBRANCH  23  24
ENDBRANCH  10  23
TORSDOF 5
ENDMDL
MODEL      119
REMARK 921   NORMALIZED FREE ENERGY PREDICTED BY IDOCK:   -5.16 KCAL/MOL
REMARK 922        TOTAL FREE ENERGY PREDICTED BY IDOCK:   -7.83 KCAL/MOL
REMARK 923 INTER-LIGAND FREE ENERGY PREDICTED BY IDOCK:   -7.35 KCAL/MOL
REMARK 924 INTRA-LIGAND FREE ENERGY PREDICTED BY IDOCK:   -0.48 KCAL/MOL
REMARK 927      BINDING AFFINITY PREDICTED BY RF-SCORE:    0.00 PKD
ROOT
HETATM    1  C   UNL     1     -12.227  14.641  65.332  1.00  0.00    -0.221 C  
HETATM    2  C   UNL     1     -11.408  13.730  66.254  1.00  0.00    -0.329 C  
HETATM    3  C   UNL     1     -10.605  14.495  67.316  1.00  0.00    -0.280 C  
HETATM    4  C   UNL     1     -10.415  12.927  65.425  1.00  0.00    -0.292 C  
HETATM    5  O   UNL     1      -9.835  13.425  64.461  1.00  0.00    -0.158 OA 
HETATM    6  C   UNL     1      -9.336  10.391  63.680  1.00  0.00    -0.291 C  
HETATM    7  N   UNL     1     -10.181  11.610  65.754  1.00  0.00    -0.231 N  
HETATM    8  C   UNL     1     -10.774  10.844  66.842  1.00  0.00    -0.264 C  
HETATM    9  C   UNL     1      -9.081  10.854  65.123  1.00  0.00    -0.196 C  
HETATM   10  C   UNL     1      -9.671   9.883  67.287  1.00  0.00    -0.171 C  
HETATM   11  C   UNL     1      -8.894   9.605  66.001  1.00  0.00    -0.178 C  
HETATM   12  O   UNL     1     -10.524  10.767  63.158  1.00  0.00    -0.189 OA 
HETATM   13  O   UNL     1      -8.548   9.695  63.048  1.00  0.00    -0.174 OA 
ENDROOT
BRANCH   3  14
HETATM   14  S   UNL     1     -11.702  15.472  68.379  1.00  0.00    -0.226 SA 
BRANCH  14  15
HETATM   15  C   UNL     1     -10.830  15.418  69.908  1.00  0.00    -0.293 C  
HETATM   16  O   UNL     1      -9.619  15.593  69.964  1.00  0.00    -0.205 OA 
BRANCH  15  17
HETATM   17  C   UNL     1     -11.650  15.185  71.133  1.00  0.00    -0.405 A  
HETATM   18  C   UNL     1     -12.339  13.982  71.357  1.00  0.00    -0.410 A  
HETATM   19  C   UNL     1     -13.105  13.811  72.512  1.00  0.00    -0.517 A  
HETATM   20  C   UNL     1     -13.182  14.833  73.454  1.00  0.00    -0.325 A  
HETATM   21  C   UNL     1     -11.722  16.203  72.094  1.00  0.00    -0.569 A  
HETATM   22  C   UNL     1     -12.491  16.027  73.247  1.00  0.00    -0.645 A  
ENDBRANCH  15  17
ENDBRANCH  14  15
ENDBRANCH   3  14
BRANCH  10  23
HETATM   23  S   UNL     1     -10.413   8.402  68.064  1.00  0.00    -0.143 SA 
BRANCH  23  24
HETATM   24  C   UNL     1      -9.087   7.207  68.014  1.00  0.00    -0.132 A  
HETATM   25  C   UNL     1      -8.181   7.024  69.063  1.00  0.00    -0.125 A  
HETATM   26  C   UNL     1      -7.083   5.246  67.842  1.00  0.00    -0.067 A  
HETATM   27  C   UNL     1      -7.178   6.054  68.974  1.00  0.00    -0.083 A  
HETATM   28  C   UNL     1      -7.993   5.405  66.800  1.00  0.00    -0.101 A  
HETATM   29  C   UNL     1      -8.991   6.377  66.888  1.00  0.00    -0.126 A  
ENDBRANCH  23  24
ENDBRANCH  10  23
TORSDOF 5
ENDMDL
MODEL      120
REMARK 921   NORMALIZED FREE ENERGY PREDICTED BY IDOCK:   -5.16 KCAL/MOL
REMARK 922        TOTAL FREE ENERGY PREDICTED BY IDOCK:   -7.83 KCAL/MOL
REMARK 923 INTER-LIGAND FREE ENERGY PREDICTED BY IDOCK:   -7.08 KCAL/MOL
REMARK 924 INTRA-LIGAND FREE ENERGY PREDICTED BY IDOCK:   -0.75 KCAL/MOL
REMARK 927      BINDING AFFINITY PREDICTED BY RF-SCORE:    0.00 PKD
ROOT
HETATM    1  C   UNL     1      -8.379   9.473  65.967  1.00  0.00    -0.123 C  
HETATM    2  C   UNL     1      -9.493  10.159  66.766  1.00  0.00    -0.205 C  
HETATM    3  C   UNL     1     -10.320   9.189  67.622  1.00  0.00    -0.255 C  
HETATM    4  C   UNL     1     -10.454  10.852  65.809  1.00  0.00    -0.210 C  
HETATM    5  O   UNL     1     -10.761  10.344  64.731  1.00  0.00    -0.067 OA 
HETATM    6  C   UNL     1     -11.646  13.307  64.023  1.00  0.00    -0.409 C  
HETATM    7  N   UNL     1     -10.971  12.081  66.154  1.00  0.00    -0.290 N  
HETATM    8  C   UNL     1     -10.720  12.845  67.369  1.00  0.00    -0.237 C  
HETATM    9  C   UNL     1     -12.060  12.694  65.369  1.00  0.00    -0.462 C  
HETATM   10  C   UNL     1     -12.035  13.571  67.650  1.00  0.00    -0.336 C  
HETATM   11  C   UNL     1     -12.614  13.820  66.258  1.00  0.00    -0.372 C  
HETATM   12  O   UNL     1     -10.337  13.175  63.710  1.00  0.00    -0.311 OA 
HETATM   13  O   UNL     1     -12.423  13.913  63.291  1.00  0.00    -0.817 OA 
ENDROOT
BRANCH   3  14
HETATM   14  S   UNL     1      -9.269   8.324  68.820  1.00  0.00    -0.143 SA 
BRANCH  14  15
HETATM   15  C   UNL     1      -9.980   6.713  68.794  1.00  0.00    -0.144 C  
HETATM   16  O   UNL     1     -10.988   6.445  69.436  1.00  0.00    -0.286 OA 
BRANCH  15  17
HETATM   17  C   UNL     1      -9.311   5.706  67.920  1.00  0.00    -0.112 A  
HETATM   18  C   UNL     1      -9.044   5.948  66.563  1.00  0.00    -0.149 A  
HETATM   19  C   UNL     1      -8.427   4.972  65.779  1.00  0.00    -0.124 A  
HETATM   20  C   UNL     1      -8.063   3.753  66.343  1.00  0.00    -0.097 A  
HETATM   21  C   UNL     1      -8.929   4.480  68.482  1.00  0.00    -0.145 A  
HETATM   22  C   UNL     1      -8.313   3.505  67.693  1.00  0.00    -0.096 A  
ENDBRANCH  15  17
ENDBRANCH  14  15
ENDBRANCH   3  14
BRANCH  10  23
HETATM   23  S   UNL     1     -11.713  15.086  68.623  1.00  0.00    -0.318 SA 
BRANCH  23  24
HETATM   24  C   UNL     1     -10.069  15.559  68.112  1.00  0.00    -0.218 A  
HETATM   25  C   UNL     1      -9.795  16.177  66.888  1.00  0.00    -0.247 A  
HETATM   26  C   UNL     1      -7.445  16.315  67.452  1.00  0.00    -0.190 A  
HETATM   27  C   UNL     1      -8.488  16.546  66.556  1.00  0.00    -0.328 A  
HETATM   28  C   UNL     1      -7.709  15.719  68.682  1.00  0.00    -0.153 A  
HETATM   29  C   UNL     1      -9.015  15.347  69.011  1.00  0.00    -0.230 A  
ENDBRANCH  23  24
ENDBRANCH  10  23
TORSDOF 5
ENDMDL
MODEL      121
REMARK 921   NORMALIZED FREE ENERGY PREDICTED BY IDOCK:   -5.15 KCAL/MOL
REMARK 922        TOTAL FREE ENERGY PREDICTED BY IDOCK:   -7.83 KCAL/MOL
REMARK 923 INTER-LIGAND FREE ENERGY PREDICTED BY IDOCK:   -6.74 KCAL/MOL
REMARK 924 INTRA-LIGAND FREE ENERGY PREDICTED BY IDOCK:   -1.09 KCAL/MOL
REMARK 927      BINDING AFFINITY PREDICTED BY RF-SCORE:    0.00 PKD
ROOT
HETATM    1  C   UNL     1      -6.976   6.822  70.009  1.00  0.00    -0.062 C  
HETATM    2  C   UNL     1      -8.036   7.397  69.062  1.00  0.00    -0.122 C  
HETATM    3  C   UNL     1      -8.604   6.363  68.079  1.00  0.00    -0.117 C  
HETATM    4  C   UNL     1      -7.426   8.521  68.235  1.00  0.00    -0.096 C  
HETATM    5  O   UNL     1      -6.270   8.453  67.818  1.00  0.00    -0.050 OA 
HETATM    6  C   UNL     1      -6.606  11.593  67.508  1.00  0.00    -0.093 C  
HETATM    7  N   UNL     1      -8.181   9.642  67.971  1.00  0.00    -0.109 N  
HETATM    8  C   UNL     1      -9.551   9.912  68.385  1.00  0.00    -0.148 C  
HETATM    9  C   UNL     1      -7.718  10.659  67.007  1.00  0.00    -0.117 C  
HETATM   10  C   UNL     1     -10.149  10.727  67.240  1.00  0.00    -0.196 C  
HETATM   11  C   UNL     1      -8.958  11.514  66.695  1.00  0.00    -0.185 C  
HETATM   12  O   UNL     1      -6.166  11.341  68.761  1.00  0.00    -0.044 OA 
HETATM   13  O   UNL     1      -6.167  12.530  66.850  1.00  0.00    -0.216 OA 
ENDROOT
BRANCH   3  14
HETATM   14  S   UNL     1      -9.380   4.984  68.964  1.00  0.00    -0.137 SA 
BRANCH  14  15
HETATM   15  C   UNL     1     -10.684   5.813  69.809  1.00  0.00    -0.348 C  
HETATM   16  O   UNL     1     -11.654   6.261  69.212  1.00  0.00    -0.363 OA 
BRANCH  15  17
HETATM   17  C   UNL     1     -10.560   5.906  71.293  1.00  0.00    -0.311 A  
HETATM   18  C   UNL     1     -10.356   4.777  72.102  1.00  0.00    -0.256 A  
HETATM   19  C   UNL     1     -10.258   4.908  73.488  1.00  0.00    -0.222 A  
HETATM   20  C   UNL     1     -10.353   6.166  74.077  1.00  0.00    -0.311 A  
HETATM   21  C   UNL     1     -10.641   7.170  71.894  1.00  0.00    -0.238 A  
HETATM   22  C   UNL     1     -10.543   7.297  73.282  1.00  0.00    -0.428 A  
ENDBRANCH  15  17
ENDBRANCH  14  15
ENDBRANCH   3  14
BRANCH  10  23
HETATM   23  S   UNL     1     -11.523  11.762  67.864  1.00  0.00    -0.316 SA 
BRANCH  23  24
HETATM   24  C   UNL     1     -11.588  13.107  66.691  1.00  0.00    -0.356 A  
HETATM   25  C   UNL     1     -10.942  14.331  66.893  1.00  0.00    -0.304 A  
HETATM   26  C   UNL     1     -11.710  15.123  64.739  1.00  0.00    -0.331 A  
HETATM   27  C   UNL     1     -11.011  15.337  65.924  1.00  0.00    -0.325 A  
HETATM   28  C   UNL     1     -12.339  13.900  64.518  1.00  0.00    -0.408 A  
HETATM   29  C   UNL     1     -12.274  12.897  65.487  1.00  0.00    -0.527 A  
ENDBRANCH  23  24
ENDBRANCH  10  23
TORSDOF 5
ENDMDL
MODEL      122
REMARK 921   NORMALIZED FREE ENERGY PREDICTED BY IDOCK:   -5.13 KCAL/MOL
REMARK 922        TOTAL FREE ENERGY PREDICTED BY IDOCK:   -7.79 KCAL/MOL
REMARK 923 INTER-LIGAND FREE ENERGY PREDICTED BY IDOCK:   -6.06 KCAL/MOL
REMARK 924 INTRA-LIGAND FREE ENERGY PREDICTED BY IDOCK:   -1.74 KCAL/MOL
REMARK 927      BINDING AFFINITY PREDICTED BY RF-SCORE:    0.00 PKD
ROOT
HETATM    1  C   UNL     1     -11.275   6.286  70.355  1.00  0.00    -0.439 C  
HETATM    2  C   UNL     1     -10.670   7.557  69.747  1.00  0.00    -0.249 C  
HETATM    3  C   UNL     1      -9.136   7.541  69.696  1.00  0.00    -0.140 C  
HETATM    4  C   UNL     1     -11.084   8.766  70.574  1.00  0.00    -0.246 C  
HETATM    5  O   UNL     1     -11.160   8.706  71.801  1.00  0.00    -0.278 OA 
HETATM    6  C   UNL     1     -12.937  11.309  71.436  1.00  0.00    -0.379 C  
HETATM    7  N   UNL     1     -11.400   9.941  69.929  1.00  0.00    -0.241 N  
HETATM    8  C   UNL     1     -11.385  10.204  68.497  1.00  0.00    -0.108 C  
HETATM    9  C   UNL     1     -11.601  11.192  70.687  1.00  0.00    -0.085 C  
HETATM   10  C   UNL     1     -10.967  11.669  68.375  1.00  0.00    -0.220 C  
HETATM   11  C   UNL     1     -11.541  12.314  69.636  1.00  0.00    -0.348 C  
HETATM   12  O   UNL     1     -13.747  10.232  71.335  1.00  0.00    -0.169 OA 
HETATM   13  O   UNL     1     -13.278  12.314  72.050  1.00  0.00    -0.494 OA 
ENDROOT
BRANCH   3  14
HETATM   14  S   UNL     1      -8.534   6.145  68.708  1.00  0.00    -0.117 SA 
BRANCH  14  15
HETATM   15  C   UNL     1      -8.963   6.669  67.082  1.00  0.00    -0.118 C  
HETATM   16  O   UNL     1     -10.122   6.662  66.690  1.00  0.00    -0.180 OA 
BRANCH  15  17
HETATM   17  C   UNL     1      -7.843   7.157  66.224  1.00  0.00    -0.107 A  
HETATM   18  C   UNL     1      -7.837   6.989  64.831  1.00  0.00    -0.126 A  
HETATM   19  C   UNL     1      -6.763   7.450  64.068  1.00  0.00    -0.048 A  
HETATM   20  C   UNL     1      -5.693   8.090  64.687  1.00  0.00    -0.044 A  
HETATM   21  C   UNL     1      -6.767   7.814  66.838  1.00  0.00    -0.067 A  
HETATM   22  C   UNL     1      -5.694   8.273  66.070  1.00  0.00    -0.043 A  
ENDBRANCH  15  17
ENDBRANCH  14  15
ENDBRANCH   3  14
BRANCH  10  23
HETATM   23  S   UNL     1     -11.600  12.368  66.807  1.00  0.00    -0.367 SA 
BRANCH  23  24
HETATM   24  C   UNL     1     -10.546  11.624  65.572  1.00  0.00    -0.279 A  
HETATM   25  C   UNL     1     -10.974  11.339  64.272  1.00  0.00    -0.358 A  
HETATM   26  C   UNL     1      -8.772  10.514  63.700  1.00  0.00    -0.184 A  
HETATM   27  C   UNL     1     -10.093  10.777  63.343  1.00  0.00    -0.345 A  
HETATM   28  C   UNL     1      -8.329  10.814  64.985  1.00  0.00    -0.046 A  
HETATM   29  C   UNL     1      -9.211  11.370  65.914  1.00  0.00    -0.231 A  
ENDBRANCH  23  24
ENDBRANCH  10  23
TORSDOF 5
ENDMDL
MODEL      123
REMARK 921   NORMALIZED FREE ENERGY PREDICTED BY IDOCK:   -5.12 KCAL/MOL
REMARK 922        TOTAL FREE ENERGY PREDICTED BY IDOCK:   -7.79 KCAL/MOL
REMARK 923 INTER-LIGAND FREE ENERGY PREDICTED BY IDOCK:   -7.01 KCAL/MOL
REMARK 924 INTRA-LIGAND FREE ENERGY PREDICTED BY IDOCK:   -0.78 KCAL/MOL
REMARK 927      BINDING AFFINITY PREDICTED BY RF-SCORE:    0.00 PKD
ROOT
HETATM    1  C   UNL     1      -6.707  16.316  67.605  1.00  0.00    -0.169 C  
HETATM    2  C   UNL     1      -7.639  15.129  67.335  1.00  0.00    -0.232 C  
HETATM    3  C   UNL     1      -9.123  15.519  67.258  1.00  0.00    -0.203 C  
HETATM    4  C   UNL     1      -7.498  14.105  68.454  1.00  0.00    -0.124 C  
HETATM    5  O   UNL     1      -7.348  14.453  69.624  1.00  0.00    -0.075 OA 
HETATM    6  C   UNL     1      -6.295  11.480  69.971  1.00  0.00    -0.116 C  
HETATM    7  N   UNL     1      -7.518  12.764  68.139  1.00  0.00    -0.112 N  
HETATM    8  C   UNL     1      -7.671  12.159  66.822  1.00  0.00     0.029 C  
HETATM    9  C   UNL     1      -7.597  11.737  69.196  1.00  0.00     0.081 C  
HETATM   10  C   UNL     1      -8.445  10.867  67.077  1.00  0.00    -0.134 C  
HETATM   11  C   UNL     1      -7.986  10.438  68.470  1.00  0.00    -0.114 C  
HETATM   12  O   UNL     1      -5.249  12.254  69.609  1.00  0.00    -0.069 OA 
HETATM   13  O   UNL     1      -6.184  10.610  70.829  1.00  0.00    -0.295 OA 
ENDROOT
BRANCH   3  14
HETATM   14  S   UNL     1      -9.408  16.725  65.934  1.00  0.00    -0.024 SA 
BRANCH  14  15
HETATM   15  C   UNL     1     -10.770  15.991  65.094  1.00  0.00    -0.409 C  
HETATM   16  O   UNL     1     -11.429  16.613  64.271  1.00  0.00    -1.075 OA 
BRANCH  15  17
HETATM   17  C   UNL     1     -11.051  14.559  65.409  1.00  0.00    -0.345 A  
HETATM   18  C   UNL     1     -11.709  14.165  66.585  1.00  0.00    -0.422 A  
HETATM   19  C   UNL     1     -11.941  12.813  66.846  1.00  0.00    -0.380 A  
HETATM   20  C   UNL     1     -11.528  11.847  65.932  1.00  0.00    -0.340 A  
HETATM   21  C   UNL     1     -10.651  13.580  64.489  1.00  0.00    -0.439 A  
HETATM   22  C   UNL     1     -10.885  12.228  64.755  1.00  0.00    -0.345 A  
ENDBRANCH  15  17
ENDBRANCH  14  15
ENDBRANCH   3  14
BRANCH  10  23
HETATM   23  S   UNL     1      -8.086   9.656  65.752  1.00  0.00    -0.116 SA 
BRANCH  23  24
HETATM   24  C   UNL     1      -9.037   8.224  66.238  1.00  0.00    -0.188 A  
HETATM   25  C   UNL     1     -10.285   8.310  66.862  1.00  0.00    -0.388 A  
HETATM   26  C   UNL     1     -10.465   5.896  66.893  1.00  0.00    -0.349 A  
HETATM   27  C   UNL     1     -10.992   7.150  67.196  1.00  0.00    -0.342 A  
HETATM   28  C   UNL     1      -9.233   5.800  66.252  1.00  0.00    -0.168 A  
HETATM   29  C   UNL     1      -8.525   6.958  65.923  1.00  0.00    -0.147 A  
ENDBRANCH  23  24
ENDBRANCH  10  23
TORSDOF 5
ENDMDL
MODEL      124
REMARK 921   NORMALIZED FREE ENERGY PREDICTED BY IDOCK:   -5.12 KCAL/MOL
REMARK 922        TOTAL FREE ENERGY PREDICTED BY IDOCK:   -7.78 KCAL/MOL
REMARK 923 INTER-LIGAND FREE ENERGY PREDICTED BY IDOCK:   -6.14 KCAL/MOL
REMARK 924 INTRA-LIGAND FREE ENERGY PREDICTED BY IDOCK:   -1.65 KCAL/MOL
REMARK 927      BINDING AFFINITY PREDICTED BY RF-SCORE:    0.00 PKD
ROOT
HETATM    1  C   UNL     1      -9.026  16.395  65.965  1.00  0.00    -0.307 C  
HETATM    2  C   UNL     1      -9.095  14.924  66.393  1.00  0.00    -0.293 C  
HETATM    3  C   UNL     1     -10.528  14.413  66.600  1.00  0.00    -0.274 C  
HETATM    4  C   UNL     1      -8.353  14.741  67.711  1.00  0.00    -0.159 C  
HETATM    5  O   UNL     1      -8.405  15.593  68.598  1.00  0.00    -0.157 OA 
HETATM    6  C   UNL     1      -5.805  14.107  69.646  1.00  0.00    -0.107 C  
HETATM    7  N   UNL     1      -7.594  13.608  67.898  1.00  0.00    -0.138 N  
HETATM    8  C   UNL     1      -7.397  12.502  66.971  1.00  0.00     0.020 C  
HETATM    9  C   UNL     1      -7.030  13.282  69.224  1.00  0.00     0.018 C  
HETATM   10  C   UNL     1      -7.263  11.267  67.861  1.00  0.00    -0.086 C  
HETATM   11  C   UNL     1      -6.606  11.807  69.131  1.00  0.00    -0.102 C  
HETATM   12  O   UNL     1      -5.418  15.054  68.763  1.00  0.00    -0.084 OA 
HETATM   13  O   UNL     1      -5.185  13.907  70.685  1.00  0.00    -0.101 OA 
ENDROOT
BRANCH   3  14
HETATM   14  S   UNL     1     -11.497  14.564  65.075  1.00  0.00    -0.400 SA 
BRANCH  14  15
HETATM   15  C   UNL     1     -12.076  12.913  64.876  1.00  0.00    -0.432 C  
HETATM   16  O   UNL     1     -13.271  12.649  64.852  1.00  0.00    -0.819 OA 
BRANCH  15  17
HETATM   17  C   UNL     1     -11.033  11.860  64.699  1.00  0.00    -0.370 A  
HETATM   18  C   UNL     1     -10.773  10.888  65.679  1.00  0.00    -0.178 A  
HETATM   19  C   UNL     1      -9.780   9.929  65.477  1.00  0.00    -0.370 A  
HETATM   20  C   UNL     1      -9.045   9.925  64.294  1.00  0.00    -0.297 A  
HETATM   21  C   UNL     1     -10.297  11.840  63.506  1.00  0.00    -0.490 A  
HETATM   22  C   UNL     1      -9.303  10.878  63.309  1.00  0.00    -0.324 A  
ENDBRANCH  15  17
ENDBRANCH  14  15
ENDBRANCH   3  14
BRANCH  10  23
HETATM   23  S   UNL     1      -6.298   9.978  66.994  1.00  0.00    -0.065 SA 
BRANCH  23  24
HETATM   24  C   UNL     1      -7.194   8.478  67.364  1.00  0.00    -0.084 A  
HETATM   25  C   UNL     1      -8.037   8.343  68.471  1.00  0.00    -0.123 A  
HETATM   26  C   UNL     1      -8.600   6.086  67.802  1.00  0.00    -0.106 A  
HETATM   27  C   UNL     1      -8.730   7.149  68.694  1.00  0.00    -0.127 A  
HETATM   28  C   UNL     1      -7.780   6.217  66.685  1.00  0.00    -0.103 A  
HETATM   29  C   UNL     1      -7.084   7.408  66.466  1.00  0.00    -0.074 A  
ENDBRANCH  23  24
ENDBRANCH  10  23
TORSDOF 5
ENDMDL
MODEL      125
REMARK 921   NORMALIZED FREE ENERGY PREDICTED BY IDOCK:   -5.11 KCAL/MOL
REMARK 922        TOTAL FREE ENERGY PREDICTED BY IDOCK:   -7.77 KCAL/MOL
REMARK 923 INTER-LIGAND FREE ENERGY PREDICTED BY IDOCK:   -6.58 KCAL/MOL
REMARK 924 INTRA-LIGAND FREE ENERGY PREDICTED BY IDOCK:   -1.20 KCAL/MOL
REMARK 927      BINDING AFFINITY PREDICTED BY RF-SCORE:    0.00 PKD
ROOT
HETATM    1  C   UNL     1      -6.832   9.820  70.613  1.00  0.00    -0.108 C  
HETATM    2  C   UNL     1      -7.301  10.490  69.316  1.00  0.00    -0.113 C  
HETATM    3  C   UNL     1      -7.102   9.616  68.068  1.00  0.00    -0.080 C  
HETATM    4  C   UNL     1      -6.520  11.779  69.096  1.00  0.00    -0.097 C  
HETATM    5  O   UNL     1      -5.324  11.857  69.375  1.00  0.00    -0.059 OA 
HETATM    6  C   UNL     1      -5.906  14.975  69.303  1.00  0.00    -0.103 C  
HETATM    7  N   UNL     1      -7.177  12.881  68.596  1.00  0.00    -0.099 N  
HETATM    8  C   UNL     1      -8.581  12.989  68.223  1.00  0.00    -0.167 C  
HETATM    9  C   UNL     1      -6.430  14.081  68.170  1.00  0.00    -0.126 C  
HETATM   10  C   UNL     1      -8.594  13.959  67.042  1.00  0.00    -0.172 C  
HETATM   11  C   UNL     1      -7.427  14.901  67.334  1.00  0.00    -0.228 C  
HETATM   12  O   UNL     1      -6.164  14.530  70.553  1.00  0.00    -0.178 OA 
HETATM   13  O   UNL     1      -5.329  16.040  69.108  1.00  0.00    -0.108 OA 
ENDROOT
BRANCH   3  14
HETATM   14  S   UNL     1      -8.015   8.057  68.216  1.00  0.00    -0.129 SA 
BRANCH  14  15
HETATM   15  C   UNL     1      -9.678   8.635  68.215  1.00  0.00    -0.155 C  
HETATM   16  O   UNL     1     -10.237   8.983  67.183  1.00  0.00    -0.222 OA 
BRANCH  15  17
HETATM   17  C   UNL     1     -10.379   8.643  69.533  1.00  0.00    -0.214 A  
HETATM   18  C   UNL     1     -10.446   7.506  70.353  1.00  0.00    -0.227 A  
HETATM   19  C   UNL     1     -11.123   7.553  71.573  1.00  0.00    -0.263 A  
HETATM   20  C   UNL     1     -11.730   8.737  71.987  1.00  0.00    -0.442 A  
HETATM   21  C   UNL     1     -10.981   9.833  69.964  1.00  0.00    -0.319 A  
HETATM   22  C   UNL     1     -11.659   9.876  71.185  1.00  0.00    -0.468 A  
ENDBRANCH  15  17
ENDBRANCH  14  15
ENDBRANCH   3  14
BRANCH  10  23
HETATM   23  S   UNL     1     -10.225  14.780  66.930  1.00  0.00    -0.261 SA 
BRANCH  23  24
HETATM   24  C   UNL     1     -11.025  13.922  65.584  1.00  0.00    -0.290 A  
HETATM   25  C   UNL     1     -11.840  14.562  64.645  1.00  0.00    -0.462 A  
HETATM   26  C   UNL     1     -12.173  12.472  63.470  1.00  0.00    -0.652 A  
HETATM   27  C   UNL     1     -12.419  13.838  63.598  1.00  0.00    -0.150 A  
HETATM   28  C   UNL     1     -11.346  11.829  64.387  1.00  0.00    -0.373 A  
HETATM   29  C   UNL     1     -10.772  12.551  65.436  1.00  0.00    -0.312 A  
ENDBRANCH  23  24
ENDBRANCH  10  23
TORSDOF 5
ENDMDL
MODEL      126
REMARK 921   NORMALIZED FREE ENERGY PREDICTED BY IDOCK:   -5.11 KCAL/MOL
REMARK 922        TOTAL FREE ENERGY PREDICTED BY IDOCK:   -7.77 KCAL/MOL
REMARK 923 INTER-LIGAND FREE ENERGY PREDICTED BY IDOCK:   -7.70 KCAL/MOL
REMARK 924 INTRA-LIGAND FREE ENERGY PREDICTED BY IDOCK:   -0.07 KCAL/MOL
REMARK 927      BINDING AFFINITY PREDICTED BY RF-SCORE:    0.00 PKD
ROOT
HETATM    1  C   UNL     1      -9.658   9.163  66.875  1.00  0.00    -0.233 C  
HETATM    2  C   UNL     1      -9.485  10.565  67.471  1.00  0.00    -0.166 C  
HETATM    3  C   UNL     1      -9.256  10.562  68.989  1.00  0.00    -0.185 C  
HETATM    4  C   UNL     1     -10.737  11.391  67.202  1.00  0.00    -0.249 C  
HETATM    5  O   UNL     1     -11.858  10.887  67.254  1.00  0.00    -0.389 OA 
HETATM    6  C   UNL     1     -12.667  13.453  65.570  1.00  0.00    -0.410 C  
HETATM    7  N   UNL     1     -10.602  12.722  66.876  1.00  0.00    -0.243 N  
HETATM    8  C   UNL     1      -9.370  13.489  66.752  1.00  0.00    -0.257 C  
HETATM    9  C   UNL     1     -11.779  13.611  66.813  1.00  0.00    -0.392 C  
HETATM   10  C   UNL     1      -9.740  14.896  67.222  1.00  0.00    -0.228 C  
HETATM   11  C   UNL     1     -11.206  15.039  66.814  1.00  0.00    -0.322 C  
HETATM   12  O   UNL     1     -12.277  12.490  64.705  1.00  0.00    -0.432 OA 
HETATM   13  O   UNL     1     -13.638  14.166  65.342  1.00  0.00    -0.568 OA 
ENDROOT
BRANCH   3  14
HETATM   14  S   UNL     1      -7.768   9.620  69.419  1.00  0.00    -0.113 SA 
BRANCH  14  15
HETATM   15  C   UNL     1      -8.439   8.008  69.645  1.00  0.00    -0.131 C  
HETATM   16  O   UNL     1      -9.396   7.808  70.381  1.00  0.00    -0.159 OA 
BRANCH  15  17
HETATM   17  C   UNL     1      -7.804   6.908  68.861  1.00  0.00    -0.111 A  
HETATM   18  C   UNL     1      -6.672   6.216  69.320  1.00  0.00    -0.060 A  
HETATM   19  C   UNL     1      -6.102   5.202  68.548  1.00  0.00    -0.030 A  
HETATM   20  C   UNL     1      -6.663   4.864  67.319  1.00  0.00    -0.055 A  
HETATM   21  C   UNL     1      -8.369   6.552  67.628  1.00  0.00    -0.121 A  
HETATM   22  C   UNL     1      -7.795   5.536  66.859  1.00  0.00    -0.101 A  
ENDBRANCH  15  17
ENDBRANCH  14  15
ENDBRANCH   3  14
BRANCH  10  23
HETATM   23  S   UNL     1      -8.616  16.122  66.460  1.00  0.00    -0.331 SA 
BRANCH  23  24
HETATM   24  C   UNL     1      -9.248  17.683  67.055  1.00  0.00    -0.250 A  
HETATM   25  C   UNL     1      -9.192  18.070  68.397  1.00  0.00    -0.301 A  
HETATM   26  C   UNL     1     -10.219  20.194  67.855  1.00  0.00    -0.501 A  
HETATM   27  C   UNL     1      -9.683  19.317  68.797  1.00  0.00    -0.510 A  
HETATM   28  C   UNL     1     -10.261  19.827  66.513  1.00  0.00    -0.606 A  
HETATM   29  C   UNL     1      -9.775  18.579  66.115  1.00  0.00    -0.241 A  
ENDBRANCH  23  24
ENDBRANCH  10  23
TORSDOF 5
ENDMDL
MODEL      127
REMARK 921   NORMALIZED FREE ENERGY PREDICTED BY IDOCK:   -5.10 KCAL/MOL
REMARK 922        TOTAL FREE ENERGY PREDICTED BY IDOCK:   -7.76 KCAL/MOL
REMARK 923 INTER-LIGAND FREE ENERGY PREDICTED BY IDOCK:   -6.82 KCAL/MOL
REMARK 924 INTRA-LIGAND FREE ENERGY PREDICTED BY IDOCK:   -0.94 KCAL/MOL
REMARK 927      BINDING AFFINITY PREDICTED BY RF-SCORE:    0.00 PKD
ROOT
HETATM    1  C   UNL     1      -9.496  13.086  65.643  1.00  0.00     0.080 C  
HETATM    2  C   UNL     1      -9.485  12.151  66.859  1.00  0.00    -0.210 C  
HETATM    3  C   UNL     1      -8.963  12.817  68.140  1.00  0.00    -0.199 C  
HETATM    4  C   UNL     1      -8.589  10.953  66.573  1.00  0.00    -0.156 C  
HETATM    5  O   UNL     1      -7.539  11.075  65.943  1.00  0.00    -0.103 OA 
HETATM    6  C   UNL     1      -7.856   7.942  65.555  1.00  0.00    -0.112 C  
HETATM    7  N   UNL     1      -8.979   9.707  67.013  1.00  0.00    -0.134 N  
HETATM    8  C   UNL     1     -10.183   9.360  67.755  1.00  0.00    -0.222 C  
HETATM    9  C   UNL     1      -8.056   8.557  66.948  1.00  0.00    -0.099 C  
HETATM   10  C   UNL     1      -9.757   8.209  68.667  1.00  0.00    -0.153 C  
HETATM   11  C   UNL     1      -8.681   7.486  67.859  1.00  0.00    -0.124 C  
HETATM   12  O   UNL     1      -8.524   8.557  64.555  1.00  0.00    -0.161 OA 
HETATM   13  O   UNL     1      -7.176   6.941  65.353  1.00  0.00    -0.069 OA 
ENDROOT
BRANCH   3  14
HETATM   14  S   UNL     1      -9.980  14.250  68.586  1.00  0.00    -0.212 SA 
BRANCH  14  15
HETATM   15  C   UNL     1     -11.599  13.568  68.468  1.00  0.00    -0.333 C  
HETATM   16  O   UNL     1     -12.222  13.570  67.414  1.00  0.00    -0.339 OA 
BRANCH  15  17
HETATM   17  C   UNL     1     -12.154  12.954  69.710  1.00  0.00    -0.312 A  
HETATM   18  C   UNL     1     -12.706  13.724  70.746  1.00  0.00    -0.361 A  
HETATM   19  C   UNL     1     -13.203  13.109  71.896  1.00  0.00    -0.526 A  
HETATM   20  C   UNL     1     -13.161  11.723  72.018  1.00  0.00    -0.436 A  
HETATM   21  C   UNL     1     -12.127  11.559  69.836  1.00  0.00    -0.389 A  
HETATM   22  C   UNL     1     -12.625  10.947  70.990  1.00  0.00    -0.517 A  
ENDBRANCH  15  17
ENDBRANCH  14  15
ENDBRANCH   3  14
BRANCH  10  23
HETATM   23  S   UNL     1     -11.211   7.181  69.089  1.00  0.00     0.124 SA 
BRANCH  23  24
HETATM   24  C   UNL     1     -10.972   6.827  70.823  1.00  0.00    -0.262 A  
HETATM   25  C   UNL     1     -10.771   5.536  71.321  1.00  0.00    -0.288 A  
HETATM   26  C   UNL     1     -10.541   6.407  73.567  1.00  0.00    -0.297 A  
HETATM   27  C   UNL     1     -10.565   5.326  72.688  1.00  0.00    -0.278 A  
HETATM   28  C   UNL     1     -10.719   7.699  73.080  1.00  0.00    -0.445 A  
HETATM   29  C   UNL     1     -10.929   7.907  71.715  1.00  0.00    -0.290 A  
ENDBRANCH  23  24
ENDBRANCH  10  23
TORSDOF 5
ENDMDL
MODEL      128
REMARK 921   NORMALIZED FREE ENERGY PREDICTED BY IDOCK:   -5.09 KCAL/MOL
REMARK 922        TOTAL FREE ENERGY PREDICTED BY IDOCK:   -7.75 KCAL/MOL
REMARK 923 INTER-LIGAND FREE ENERGY PREDICTED BY IDOCK:   -6.22 KCAL/MOL
REMARK 924 INTRA-LIGAND FREE ENERGY PREDICTED BY IDOCK:   -1.53 KCAL/MOL
REMARK 927      BINDING AFFINITY PREDICTED BY RF-SCORE:    0.00 PKD
ROOT
HETATM    1  C   UNL     1     -11.756  11.992  65.595  1.00  0.00    -0.312 C  
HETATM    2  C   UNL     1     -11.004  12.663  66.751  1.00  0.00    -0.296 C  
HETATM    3  C   UNL     1     -11.483  12.210  68.138  1.00  0.00    -0.317 C  
HETATM    4  C   UNL     1     -11.194  14.172  66.676  1.00  0.00    -0.325 C  
HETATM    5  O   UNL     1     -12.270  14.665  66.338  1.00  0.00    -0.300 OA 
HETATM    6  C   UNL     1     -10.487  17.236  65.810  1.00  0.00    -0.229 C  
HETATM    7  N   UNL     1     -10.131  14.995  66.973  1.00  0.00    -0.241 N  
HETATM    8  C   UNL     1      -8.787  14.605  67.376  1.00  0.00    -0.195 C  
HETATM    9  C   UNL     1     -10.317  16.452  67.120  1.00  0.00    -0.290 C  
HETATM   10  C   UNL     1      -8.336  15.702  68.340  1.00  0.00    -0.162 C  
HETATM   11  C   UNL     1      -9.040  16.954  67.816  1.00  0.00    -0.229 C  
HETATM   12  O   UNL     1     -10.481  16.485  64.687  1.00  0.00    -0.501 OA 
HETATM   13  O   UNL     1     -10.580  18.459  65.765  1.00  0.00    -0.570 OA 
ENDROOT
BRANCH   3  14
HETATM   14  S   UNL     1     -11.277  10.420  68.343  1.00  0.00    -0.223 SA 
BRANCH  14  15
HETATM   15  C   UNL     1      -9.522  10.283  68.386  1.00  0.00    -0.146 C  
HETATM   16  O   UNL     1      -8.887  10.478  69.414  1.00  0.00    -0.152 OA 
BRANCH  15  17
HETATM   17  C   UNL     1      -8.856   9.878  67.113  1.00  0.00    -0.146 A  
HETATM   18  C   UNL     1      -9.523   9.147  66.117  1.00  0.00    -0.309 A  
HETATM   19  C   UNL     1      -8.858   8.778  64.946  1.00  0.00    -0.119 A  
HETATM   20  C   UNL     1      -7.528   9.145  64.756  1.00  0.00    -0.106 A  
HETATM   21  C   UNL     1      -7.522  10.254  66.907  1.00  0.00    -0.101 A  
HETATM   22  C   UNL     1      -6.860   9.882  65.734  1.00  0.00    -0.104 A  
ENDBRANCH  15  17
ENDBRANCH  14  15
ENDBRANCH   3  14
BRANCH  10  23
HETATM   23  S   UNL     1      -6.509  15.807  68.353  1.00  0.00    -0.119 SA 
BRANCH  23  24
HETATM   24  C   UNL     1      -6.024  14.367  69.292  1.00  0.00    -0.097 A  
HETATM   25  C   UNL     1      -5.783  13.119  68.711  1.00  0.00    -0.073 A  
HETATM   26  C   UNL     1      -5.200  12.195  70.870  1.00  0.00    -0.147 A  
HETATM   27  C   UNL     1      -5.382  12.035  69.498  1.00  0.00    -0.069 A  
HETATM   28  C   UNL     1      -5.417  13.439  71.457  1.00  0.00    -0.164 A  
HETATM   29  C   UNL     1      -5.822  14.520  70.671  1.00  0.00    -0.179 A  
ENDBRANCH  23  24
ENDBRANCH  10  23
TORSDOF 5
ENDMDL
MODEL      129
REMARK 921   NORMALIZED FREE ENERGY PREDICTED BY IDOCK:   -5.09 KCAL/MOL
REMARK 922        TOTAL FREE ENERGY PREDICTED BY IDOCK:   -7.75 KCAL/MOL
REMARK 923 INTER-LIGAND FREE ENERGY PREDICTED BY IDOCK:   -6.67 KCAL/MOL
REMARK 924 INTRA-LIGAND FREE ENERGY PREDICTED BY IDOCK:   -1.07 KCAL/MOL
REMARK 927      BINDING AFFINITY PREDICTED BY RF-SCORE:    0.00 PKD
ROOT
HETATM    1  C   UNL     1     -11.096   5.871  69.995  1.00  0.00    -0.411 C  
HETATM    2  C   UNL     1     -10.494   7.183  69.479  1.00  0.00    -0.236 C  
HETATM    3  C   UNL     1      -8.958   7.197  69.488  1.00  0.00    -0.140 C  
HETATM    4  C   UNL     1     -10.964   8.339  70.351  1.00  0.00    -0.239 C  
HETATM    5  O   UNL     1     -11.086   8.213  71.569  1.00  0.00    -0.240 OA 
HETATM    6  C   UNL     1     -12.898  10.799  71.269  1.00  0.00    -0.438 C  
HETATM    7  N   UNL     1     -11.277   9.541  69.756  1.00  0.00    -0.191 N  
HETATM    8  C   UNL     1     -11.211   9.879  68.341  1.00  0.00    -0.074 C  
HETATM    9  C   UNL     1     -11.532  10.747  70.569  1.00  0.00    -0.275 C  
HETATM   10  C   UNL     1     -10.818  11.356  68.312  1.00  0.00    -0.209 C  
HETATM   11  C   UNL     1     -11.454  11.923  69.581  1.00  0.00    -0.337 C  
HETATM   12  O   UNL     1     -13.682   9.715  71.080  1.00  0.00    -0.304 OA 
HETATM   13  O   UNL     1     -13.284  11.765  71.920  1.00  0.00    -0.482 OA 
ENDROOT
BRANCH   3  14
HETATM   14  S   UNL     1      -8.290   5.866  68.454  1.00  0.00    -0.112 SA 
BRANCH  14  15
HETATM   15  C   UNL     1      -8.544   6.529  66.842  1.00  0.00    -0.114 C  
HETATM   16  O   UNL     1      -8.300   7.700  66.583  1.00  0.00    -0.119 OA 
BRANCH  15  17
HETATM   17  C   UNL     1      -9.034   5.577  65.802  1.00  0.00    -0.158 A  
HETATM   18  C   UNL     1     -10.319   5.013  65.847  1.00  0.00    -0.223 A  
HETATM   19  C   UNL     1     -10.732   4.118  64.859  1.00  0.00    -0.139 A  
HETATM   20  C   UNL     1      -9.872   3.785  63.816  1.00  0.00    -0.171 A  
HETATM   21  C   UNL     1      -8.180   5.247  64.741  1.00  0.00    -0.130 A  
HETATM   22  C   UNL     1      -8.598   4.349  63.755  1.00  0.00    -0.122 A  
ENDBRANCH  15  17
ENDBRANCH  14  15
ENDBRANCH   3  14
BRANCH  10  23
HETATM   23  S   UNL     1     -11.404  12.125  66.759  1.00  0.00    -0.348 SA 
BRANCH  23  24
HETATM   24  C   UNL     1     -10.342  11.402  65.518  1.00  0.00    -0.266 A  
HETATM   25  C   UNL     1     -10.762  11.138  64.211  1.00  0.00    -0.403 A  
HETATM   26  C   UNL     1      -8.556  10.323  63.639  1.00  0.00    -0.196 A  
HETATM   27  C   UNL     1      -9.874  10.593  63.278  1.00  0.00    -0.364 A  
HETATM   28  C   UNL     1      -8.121  10.602  64.932  1.00  0.00    -0.022 A  
HETATM   29  C   UNL     1      -9.009  11.142  65.865  1.00  0.00    -0.210 A  
ENDBRANCH  23  24
ENDBRANCH  10  23
TORSDOF 5
ENDMDL
MODEL      130
REMARK 921   NORMALIZED FREE ENERGY PREDICTED BY IDOCK:   -5.07 KCAL/MOL
REMARK 922        TOTAL FREE ENERGY PREDICTED BY IDOCK:   -7.72 KCAL/MOL
REMARK 923 INTER-LIGAND FREE ENERGY PREDICTED BY IDOCK:   -6.94 KCAL/MOL
REMARK 924 INTRA-LIGAND FREE ENERGY PREDICTED BY IDOCK:   -0.78 KCAL/MOL
REMARK 927      BINDING AFFINITY PREDICTED BY RF-SCORE:    0.00 PKD
ROOT
HETATM    1  C   UNL     1      -9.072  10.538  69.194  1.00  0.00    -0.177 C  
HETATM    2  C   UNL     1      -9.205  11.390  67.926  1.00  0.00    -0.164 C  
HETATM    3  C   UNL     1      -8.981  10.598  66.629  1.00  0.00    -0.150 C  
HETATM    4  C   UNL     1      -8.176  12.513  67.956  1.00  0.00    -0.166 C  
HETATM    5  O   UNL     1      -7.043  12.330  68.400  1.00  0.00    -0.080 OA 
HETATM    6  C   UNL     1      -7.024  15.497  68.590  1.00  0.00    -0.116 C  
HETATM    7  N   UNL     1      -8.535  13.760  67.494  1.00  0.00    -0.183 N  
HETATM    8  C   UNL     1      -9.820  14.173  66.949  1.00  0.00    -0.265 C  
HETATM    9  C   UNL     1      -7.523  14.819  67.306  1.00  0.00    -0.141 C  
HETATM   10  C   UNL     1      -9.474  15.219  65.889  1.00  0.00    -0.316 C  
HETATM   11  C   UNL     1      -8.213  15.885  66.437  1.00  0.00    -0.264 C  
HETATM   12  O   UNL     1      -7.549  15.013  69.737  1.00  0.00    -0.194 OA 
HETATM   13  O   UNL     1      -6.238  16.440  68.591  1.00  0.00    -0.125 OA 
ENDROOT
BRANCH   3  14
HETATM   14  S   UNL     1     -10.177   9.244  66.482  1.00  0.00    -0.208 SA 
BRANCH  14  15
HETATM   15  C   UNL     1      -9.157   7.851  66.827  1.00  0.00    -0.156 C  
HETATM   16  O   UNL     1      -8.247   7.518  66.078  1.00  0.00    -0.115 OA 
BRANCH  15  17
HETATM   17  C   UNL     1      -9.436   7.122  68.100  1.00  0.00    -0.132 A  
HETATM   18  C   UNL     1      -8.411   6.662  68.942  1.00  0.00    -0.123 A  
HETATM   19  C   UNL     1      -8.717   5.974  70.117  1.00  0.00    -0.139 A  
HETATM   20  C   UNL     1     -10.046   5.749  70.466  1.00  0.00    -0.269 A  
HETATM   21  C   UNL     1     -10.771   6.903  68.466  1.00  0.00    -0.252 A  
HETATM   22  C   UNL     1     -11.073   6.213  69.644  1.00  0.00    -0.489 A  
ENDBRANCH  15  17
ENDBRANCH  14  15
ENDBRANCH   3  14
BRANCH  10  23
HETATM   23  S   UNL     1     -10.890  16.353  65.649  1.00  0.00    -0.101 SA 
BRANCH  23  24
HETATM   24  C   UNL     1     -10.510  17.718  66.735  1.00  0.00    -0.300 A  
HETATM   25  C   UNL     1     -10.401  17.586  68.123  1.00  0.00    -0.375 A  
HETATM   26  C   UNL     1      -9.840  19.931  68.331  1.00  0.00    -0.489 A  
HETATM   27  C   UNL     1     -10.076  18.689  68.918  1.00  0.00    -0.357 A  
HETATM   28  C   UNL     1      -9.925  20.070  66.948  1.00  0.00    -0.584 A  
HETATM   29  C   UNL     1     -10.254  18.968  66.155  1.00  0.00    -0.508 A  
ENDBRANCH  23  24
ENDBRANCH  10  23
TORSDOF 5
ENDMDL
MODEL      131
REMARK 921   NORMALIZED FREE ENERGY PREDICTED BY IDOCK:   -5.05 KCAL/MOL
REMARK 922        TOTAL FREE ENERGY PREDICTED BY IDOCK:   -7.69 KCAL/MOL
REMARK 923 INTER-LIGAND FREE ENERGY PREDICTED BY IDOCK:   -6.61 KCAL/MOL
REMARK 924 INTRA-LIGAND FREE ENERGY PREDICTED BY IDOCK:   -1.09 KCAL/MOL
REMARK 927      BINDING AFFINITY PREDICTED BY RF-SCORE:    0.00 PKD
ROOT
HETATM    1  C   UNL     1     -11.851  13.687  68.278  1.00  0.00    -0.404 C  
HETATM    2  C   UNL     1     -11.445  12.651  67.223  1.00  0.00    -0.402 C  
HETATM    3  C   UNL     1     -12.356  12.647  65.987  1.00  0.00    -0.103 C  
HETATM    4  C   UNL     1     -11.498  11.256  67.831  1.00  0.00    -0.288 C  
HETATM    5  O   UNL     1     -12.381  10.938  68.626  1.00  0.00    -0.501 OA 
HETATM    6  C   UNL     1     -10.348   8.615  69.361  1.00  0.00    -0.218 C  
HETATM    7  N   UNL     1     -10.522  10.344  67.495  1.00  0.00    -0.227 N  
HETATM    8  C   UNL     1      -9.396  10.535  66.591  1.00  0.00    -0.161 C  
HETATM    9  C   UNL     1     -10.642   8.925  67.886  1.00  0.00    -0.183 C  
HETATM   10  C   UNL     1      -9.187   9.169  65.938  1.00  0.00    -0.227 C  
HETATM   11  C   UNL     1      -9.608   8.180  67.024  1.00  0.00    -0.253 C  
HETATM   12  O   UNL     1     -10.051   9.689  70.126  1.00  0.00    -0.229 OA 
HETATM   13  O   UNL     1     -10.338   7.478  69.820  1.00  0.00    -0.210 OA 
ENDROOT
BRANCH   3  14
HETATM   14  S   UNL     1     -12.347  14.265  65.169  1.00  0.00    -0.390 SA 
BRANCH  14  15
HETATM   15  C   UNL     1     -10.618  14.564  65.025  1.00  0.00    -0.437 C  
HETATM   16  O   UNL     1      -9.889  13.823  64.378  1.00  0.00    -0.134 OA 
BRANCH  15  17
HETATM   17  C   UNL     1     -10.097  15.788  65.701  1.00  0.00    -0.401 A  
HETATM   18  C   UNL     1      -8.967  15.763  66.533  1.00  0.00    -0.341 A  
HETATM   19  C   UNL     1      -8.521  16.930  67.155  1.00  0.00    -0.218 A  
HETATM   20  C   UNL     1      -9.193  18.132  66.946  1.00  0.00    -0.278 A  
HETATM   21  C   UNL     1     -10.760  17.005  65.486  1.00  0.00    -0.146 A  
HETATM   22  C   UNL     1     -10.310  18.171  66.112  1.00  0.00    -0.394 A  
ENDBRANCH  15  17
ENDBRANCH  14  15
ENDBRANCH   3  14
BRANCH  10  23
HETATM   23  S   UNL     1      -7.450   9.001  65.389  1.00  0.00    -0.090 SA 
BRANCH  23  24
HETATM   24  C   UNL     1      -7.297   7.255  65.043  1.00  0.00    -0.079 A  
HETATM   25  C   UNL     1      -7.939   6.628  63.972  1.00  0.00    -0.084 A  
HETATM   26  C   UNL     1      -6.922   4.513  64.565  1.00  0.00    -0.050 A  
HETATM   27  C   UNL     1      -7.759   5.261  63.739  1.00  0.00    -0.081 A  
HETATM   28  C   UNL     1      -6.261   5.132  65.623  1.00  0.00    -0.034 A  
HETATM   29  C   UNL     1      -6.444   6.497  65.857  1.00  0.00    -0.043 A  
ENDBRANCH  23  24
ENDBRANCH  10  23
TORSDOF 5
ENDMDL
MODEL      132
REMARK 921   NORMALIZED FREE ENERGY PREDICTED BY IDOCK:   -5.05 KCAL/MOL
REMARK 922        TOTAL FREE ENERGY PREDICTED BY IDOCK:   -7.69 KCAL/MOL
REMARK 923 INTER-LIGAND FREE ENERGY PREDICTED BY IDOCK:   -7.19 KCAL/MOL
REMARK 924 INTRA-LIGAND FREE ENERGY PREDICTED BY IDOCK:   -0.50 KCAL/MOL
REMARK 927      BINDING AFFINITY PREDICTED BY RF-SCORE:    0.00 PKD
ROOT
HETATM    1  C   UNL     1     -10.441  10.901  66.488  1.00  0.00    -0.308 C  
HETATM    2  C   UNL     1      -9.576  11.614  67.533  1.00  0.00    -0.176 C  
HETATM    3  C   UNL     1      -9.436  10.834  68.849  1.00  0.00    -0.181 C  
HETATM    4  C   UNL     1     -10.192  12.965  67.870  1.00  0.00    -0.233 C  
HETATM    5  O   UNL     1     -11.412  13.110  67.950  1.00  0.00    -0.271 OA 
HETATM    6  C   UNL     1     -10.685  16.178  67.603  1.00  0.00    -0.318 C  
HETATM    7  N   UNL     1      -9.364  14.048  68.067  1.00  0.00    -0.198 N  
HETATM    8  C   UNL     1      -7.909  14.080  68.003  1.00  0.00    -0.152 C  
HETATM    9  C   UNL     1      -9.891  15.320  68.599  1.00  0.00    -0.211 C  
HETATM   10  C   UNL     1      -7.497  15.117  69.048  1.00  0.00    -0.161 C  
HETATM   11  C   UNL     1      -8.651  16.118  69.038  1.00  0.00    -0.251 C  
HETATM   12  O   UNL     1     -10.832  15.641  66.371  1.00  0.00    -0.306 OA 
HETATM   13  O   UNL     1     -11.125  17.291  67.875  1.00  0.00    -0.276 OA 
ENDROOT
BRANCH   3  14
HETATM   14  S   UNL     1      -8.685   9.209  68.563  1.00  0.00    -0.129 SA 
BRANCH  14  15
HETATM   15  C   UNL     1     -10.063   8.146  68.831  1.00  0.00    -0.202 C  
HETATM   16  O   UNL     1     -10.680   7.645  67.900  1.00  0.00    -0.189 OA 
BRANCH  15  17
HETATM   17  C   UNL     1     -10.413   7.859  70.253  1.00  0.00    -0.225 A  
HETATM   18  C   UNL     1      -9.784   8.509  71.327  1.00  0.00    -0.270 A  
HETATM   19  C   UNL     1     -10.134   8.201  72.643  1.00  0.00    -0.379 A  
HETATM   20  C   UNL     1     -11.120   7.251  72.897  1.00  0.00    -0.369 A  
HETATM   21  C   UNL     1     -11.413   6.913  70.519  1.00  0.00    -0.390 A  
HETATM   22  C   UNL     1     -11.760   6.608  71.837  1.00  0.00    -0.355 A  
ENDBRANCH  15  17
ENDBRANCH  14  15
ENDBRANCH   3  14
BRANCH  10  23
HETATM   23  S   UNL     1      -5.869  15.828  68.611  1.00  0.00    -0.104 SA 
BRANCH  23  24
HETATM   24  C   UNL     1      -6.196  17.582  68.534  1.00  0.00    -0.176 A  
HETATM   25  C   UNL     1      -6.154  18.418  69.654  1.00  0.00    -0.255 A  
HETATM   26  C   UNL     1      -6.664  20.339  68.273  1.00  0.00    -0.331 A  
HETATM   27  C   UNL     1      -6.396  19.789  69.525  1.00  0.00    -0.372 A  
HETATM   28  C   UNL     1      -6.687  19.520  67.148  1.00  0.00    -0.212 A  
HETATM   29  C   UNL     1      -6.450  18.149  67.278  1.00  0.00    -0.192 A  
ENDBRANCH  23  24
ENDBRANCH  10  23
TORSDOF 5
ENDMDL
MODEL      133
REMARK 921   NORMALIZED FREE ENERGY PREDICTED BY IDOCK:   -5.04 KCAL/MOL
REMARK 922        TOTAL FREE ENERGY PREDICTED BY IDOCK:   -7.67 KCAL/MOL
REMARK 923 INTER-LIGAND FREE ENERGY PREDICTED BY IDOCK:   -7.04 KCAL/MOL
REMARK 924 INTRA-LIGAND FREE ENERGY PREDICTED BY IDOCK:   -0.63 KCAL/MOL
REMARK 927      BINDING AFFINITY PREDICTED BY RF-SCORE:    0.00 PKD
ROOT
HETATM    1  C   UNL     1     -13.557   9.728  70.688  1.00  0.00     0.137 C  
HETATM    2  C   UNL     1     -12.405  10.609  70.190  1.00  0.00    -0.370 C  
HETATM    3  C   UNL     1     -11.019   9.987  70.412  1.00  0.00    -0.320 C  
HETATM    4  C   UNL     1     -12.427  11.942  70.926  1.00  0.00    -0.300 C  
HETATM    5  O   UNL     1     -12.717  12.008  72.121  1.00  0.00    -0.124 OA 
HETATM    6  C   UNL     1     -13.219  15.065  71.434  1.00  0.00    -0.421 C  
HETATM    7  N   UNL     1     -12.138  13.094  70.230  1.00  0.00    -0.356 N  
HETATM    8  C   UNL     1     -11.789  13.222  68.822  1.00  0.00    -0.334 C  
HETATM    9  C   UNL     1     -11.940  14.377  70.934  1.00  0.00    -0.327 C  
HETATM   10  C   UNL     1     -10.806  14.391  68.769  1.00  0.00    -0.251 C  
HETATM   11  C   UNL     1     -11.268  15.302  69.905  1.00  0.00    -0.305 C  
HETATM   12  O   UNL     1     -14.365  14.389  71.197  1.00  0.00    -0.230 OA 
HETATM   13  O   UNL     1     -13.223  16.167  71.973  1.00  0.00    -0.283 OA 
ENDROOT
BRANCH   3  14
HETATM   14  S   UNL     1     -10.876   8.397  69.553  1.00  0.00    -0.046 SA 
BRANCH  14  15
HETATM   15  C   UNL     1     -10.300   8.915  67.972  1.00  0.00    -0.219 C  
HETATM   16  O   UNL     1     -10.355  10.087  67.620  1.00  0.00    -0.193 OA 
BRANCH  15  17
HETATM   17  C   UNL     1      -9.709   7.858  67.101  1.00  0.00    -0.249 A  
HETATM   18  C   UNL     1     -10.367   6.646  66.838  1.00  0.00    -0.324 A  
HETATM   19  C   UNL     1      -9.771   5.679  66.027  1.00  0.00    -0.082 A  
HETATM   20  C   UNL     1      -8.520   5.917  65.464  1.00  0.00    -0.154 A  
HETATM   21  C   UNL     1      -8.455   8.094  66.519  1.00  0.00    -0.132 A  
HETATM   22  C   UNL     1      -7.862   7.123  65.708  1.00  0.00    -0.109 A  
ENDBRANCH  15  17
ENDBRANCH  14  15
ENDBRANCH   3  14
BRANCH  10  23
HETATM   23  S   UNL     1     -10.846  15.163  67.111  1.00  0.00    -0.324 SA 
BRANCH  23  24
HETATM   24  C   UNL     1      -9.882  16.651  67.329  1.00  0.00    -0.255 A  
HETATM   25  C   UNL     1     -10.352  17.923  66.990  1.00  0.00    -0.366 A  
HETATM   26  C   UNL     1      -8.295  18.923  67.782  1.00  0.00    -0.305 A  
HETATM   27  C   UNL     1      -9.558  19.054  67.208  1.00  0.00    -0.363 A  
HETATM   28  C   UNL     1      -7.825  17.663  68.143  1.00  0.00    -0.257 A  
HETATM   29  C   UNL     1      -8.617  16.534  67.921  1.00  0.00    -0.183 A  
ENDBRANCH  23  24
ENDBRANCH  10  23
TORSDOF 5
ENDMDL
MODEL      134
REMARK 921   NORMALIZED FREE ENERGY PREDICTED BY IDOCK:   -5.03 KCAL/MOL
REMARK 922        TOTAL FREE ENERGY PREDICTED BY IDOCK:   -7.67 KCAL/MOL
REMARK 923 INTER-LIGAND FREE ENERGY PREDICTED BY IDOCK:   -6.51 KCAL/MOL
REMARK 924 INTRA-LIGAND FREE ENERGY PREDICTED BY IDOCK:   -1.16 KCAL/MOL
REMARK 927      BINDING AFFINITY PREDICTED BY RF-SCORE:    0.00 PKD
ROOT
HETATM    1  C   UNL     1     -13.061   9.979  70.005  1.00  0.00     0.447 C  
HETATM    2  C   UNL     1     -12.065  11.107  69.710  1.00  0.00    -0.414 C  
HETATM    3  C   UNL     1     -10.601  10.643  69.696  1.00  0.00    -0.217 C  
HETATM    4  C   UNL     1     -12.188  12.188  70.775  1.00  0.00    -0.271 C  
HETATM    5  O   UNL     1     -12.388  11.904  71.955  1.00  0.00     0.237 OA 
HETATM    6  C   UNL     1     -13.305  14.936  72.132  1.00  0.00    -0.375 C  
HETATM    7  N   UNL     1     -12.094  13.510  70.399  1.00  0.00    -0.351 N  
HETATM    8  C   UNL     1     -11.875  14.043  69.062  1.00  0.00    -0.354 C  
HETATM    9  C   UNL     1     -11.996  14.581  71.410  1.00  0.00    -0.315 C  
HETATM   10  C   UNL     1     -11.046  15.309  69.280  1.00  0.00    -0.274 C  
HETATM   11  C   UNL     1     -11.523  15.824  70.637  1.00  0.00    -0.415 C  
HETATM   12  O   UNL     1     -14.377  14.195  71.774  1.00  0.00    -0.447 OA 
HETATM   13  O   UNL     1     -13.398  15.849  72.945  1.00  0.00    -0.513 OA 
ENDROOT
BRANCH   3  14
HETATM   14  S   UNL     1     -10.337   9.364  68.438  1.00  0.00    -0.209 SA 
BRANCH  14  15
HETATM   15  C   UNL     1      -9.661  10.317  67.121  1.00  0.00    -0.168 C  
HETATM   16  O   UNL     1     -10.177  10.337  66.011  1.00  0.00    -0.253 OA 
BRANCH  15  17
HETATM   17  C   UNL     1      -8.449  11.128  67.442  1.00  0.00    -0.134 A  
HETATM   18  C   UNL     1      -7.266  10.550  67.929  1.00  0.00    -0.084 A  
HETATM   19  C   UNL     1      -6.160  11.348  68.227  1.00  0.00    -0.045 A  
HETATM   20  C   UNL     1      -6.223  12.725  68.033  1.00  0.00    -0.103 A  
HETATM   21  C   UNL     1      -8.498  12.514  67.237  1.00  0.00    -0.185 A  
HETATM   22  C   UNL     1      -7.389  13.309  67.538  1.00  0.00    -0.159 A  
ENDBRANCH  15  17
ENDBRANCH  14  15
ENDBRANCH   3  14
BRANCH  10  23
HETATM   23  S   UNL     1     -11.309  16.470  67.891  1.00  0.00     0.082 SA 
BRANCH  23  24
HETATM   24  C   UNL     1      -9.963  17.631  68.068  1.00  0.00    -0.326 A  
HETATM   25  C   UNL     1     -10.152  19.014  68.160  1.00  0.00    -0.467 A  
HETATM   26  C   UNL     1      -7.769  19.350  68.413  1.00  0.00    -0.363 A  
HETATM   27  C   UNL     1      -9.058  19.870  68.323  1.00  0.00    -0.318 A  
HETATM   28  C   UNL     1      -7.571  17.973  68.344  1.00  0.00    -0.288 A  
HETATM   29  C   UNL     1      -8.663  17.119  68.177  1.00  0.00    -0.232 A  
ENDBRANCH  23  24
ENDBRANCH  10  23
TORSDOF 5
ENDMDL
MODEL      135
REMARK 921   NORMALIZED FREE ENERGY PREDICTED BY IDOCK:   -5.01 KCAL/MOL
REMARK 922        TOTAL FREE ENERGY PREDICTED BY IDOCK:   -7.64 KCAL/MOL
REMARK 923 INTER-LIGAND FREE ENERGY PREDICTED BY IDOCK:   -7.00 KCAL/MOL
REMARK 924 INTRA-LIGAND FREE ENERGY PREDICTED BY IDOCK:   -0.65 KCAL/MOL
REMARK 927      BINDING AFFINITY PREDICTED BY RF-SCORE:    0.00 PKD
ROOT
HETATM    1  C   UNL     1     -11.901  12.515  66.459  1.00  0.00    -0.434 C  
HETATM    2  C   UNL     1     -10.614  12.223  67.239  1.00  0.00    -0.249 C  
HETATM    3  C   UNL     1      -9.535  13.303  67.068  1.00  0.00    -0.243 C  
HETATM    4  C   UNL     1     -10.016  10.905  66.762  1.00  0.00    -0.205 C  
HETATM    5  O   UNL     1     -10.045  10.582  65.575  1.00  0.00    -0.264 OA 
HETATM    6  C   UNL     1      -9.506   7.684  66.748  1.00  0.00    -0.191 C  
HETATM    7  N   UNL     1      -9.453  10.054  67.687  1.00  0.00    -0.143 N  
HETATM    8  C   UNL     1      -9.336  10.250  69.125  1.00  0.00    -0.204 C  
HETATM    9  C   UNL     1      -8.678   8.873  67.258  1.00  0.00    -0.121 C  
HETATM   10  C   UNL     1      -8.020   9.573  69.504  1.00  0.00    -0.110 C  
HETATM   11  C   UNL     1      -7.908   8.419  68.509  1.00  0.00    -0.120 C  
HETATM   12  O   UNL     1     -10.843   7.884  66.724  1.00  0.00    -0.234 OA 
HETATM   13  O   UNL     1      -9.012   6.609  66.423  1.00  0.00    -0.141 OA 
ENDROOT
BRANCH   3  14
HETATM   14  S   UNL     1     -10.138  14.917  67.632  1.00  0.00    -0.227 SA 
BRANCH  14  15
HETATM   15  C   UNL     1     -10.023  15.859  66.149  1.00  0.00    -0.314 C  
HETATM   16  O   UNL     1     -10.433  15.427  65.079  1.00  0.00    -0.406 OA 
BRANCH  15  17
HETATM   17  C   UNL     1      -9.435  17.225  66.275  1.00  0.00    -0.256 A  
HETATM   18  C   UNL     1     -10.229  18.371  66.446  1.00  0.00    -0.431 A  
HETATM   19  C   UNL     1      -9.638  19.632  66.547  1.00  0.00    -0.483 A  
HETATM   20  C   UNL     1      -8.252  19.758  66.487  1.00  0.00    -0.363 A  
HETATM   21  C   UNL     1      -8.041  17.361  66.228  1.00  0.00    -0.298 A  
HETATM   22  C   UNL     1      -7.454  18.625  66.329  1.00  0.00    -0.288 A  
ENDBRANCH  15  17
ENDBRANCH  14  15
ENDBRANCH   3  14
BRANCH  10  23
HETATM   23  S   UNL     1      -8.067   9.061  71.260  1.00  0.00    -0.019 SA 
BRANCH  23  24
HETATM   24  C   UNL     1      -8.938   7.503  71.209  1.00  0.00    -0.137 A  
HETATM   25  C   UNL     1     -10.315   7.403  70.988  1.00  0.00    -0.201 A  
HETATM   26  C   UNL     1     -10.183   4.988  71.085  1.00  0.00    -0.281 A  
HETATM   27  C   UNL     1     -10.936   6.151  70.935  1.00  0.00    -0.359 A  
HETATM   28  C   UNL     1      -8.808   5.075  71.285  1.00  0.00    -0.152 A  
HETATM   29  C   UNL     1      -8.189   6.326  71.342  1.00  0.00    -0.122 A  
ENDBRANCH  23  24
ENDBRANCH  10  23
TORSDOF 5
ENDMDL
MODEL      136
REMARK 921   NORMALIZED FREE ENERGY PREDICTED BY IDOCK:   -5.01 KCAL/MOL
REMARK 922        TOTAL FREE ENERGY PREDICTED BY IDOCK:   -7.63 KCAL/MOL
REMARK 923 INTER-LIGAND FREE ENERGY PREDICTED BY IDOCK:   -6.46 KCAL/MOL
REMARK 924 INTRA-LIGAND FREE ENERGY PREDICTED BY IDOCK:   -1.18 KCAL/MOL
REMARK 927      BINDING AFFINITY PREDICTED BY RF-SCORE:    0.00 PKD
ROOT
HETATM    1  C   UNL     1     -13.300  10.024  71.052  1.00  0.00    -0.334 C  
HETATM    2  C   UNL     1     -11.934   9.622  70.482  1.00  0.00    -0.241 C  
HETATM    3  C   UNL     1     -10.901   9.266  71.562  1.00  0.00    -0.372 C  
HETATM    4  C   UNL     1     -11.362  10.774  69.668  1.00  0.00    -0.294 C  
HETATM    5  O   UNL     1     -11.504  11.943  70.025  1.00  0.00    -0.243 OA 
HETATM    6  C   UNL     1     -10.790  12.553  66.994  1.00  0.00    -0.254 C  
HETATM    7  N   UNL     1     -10.690  10.496  68.498  1.00  0.00    -0.208 N  
HETATM    8  C   UNL     1     -10.432   9.190  67.906  1.00  0.00    -0.237 C  
HETATM    9  C   UNL     1      -9.939  11.549  67.786  1.00  0.00    -0.183 C  
HETATM   10  C   UNL     1      -9.070   9.334  67.228  1.00  0.00    -0.126 C  
HETATM   11  C   UNL     1      -9.036  10.798  66.792  1.00  0.00    -0.157 C  
HETATM   12  O   UNL     1     -12.126  12.366  67.080  1.00  0.00    -0.532 OA 
HETATM   13  O   UNL     1     -10.309  13.440  66.297  1.00  0.00    -0.280 OA 
ENDROOT
BRANCH   3  14
HETATM   14  S   UNL     1     -11.477   7.881  72.580  1.00  0.00    -0.398 SA 
BRANCH  14  15
HETATM   15  C   UNL     1     -11.077   6.512  71.548  1.00  0.00    -0.265 C  
HETATM   16  O   UNL     1     -11.441   6.459  70.379  1.00  0.00    -0.361 OA 
BRANCH  15  17
HETATM   17  C   UNL     1     -10.240   5.439  72.161  1.00  0.00    -0.253 A  
HETATM   18  C   UNL     1      -9.615   5.596  73.408  1.00  0.00    -0.145 A  
HETATM   19  C   UNL     1      -8.830   4.571  73.940  1.00  0.00    -0.104 A  
HETATM   20  C   UNL     1      -8.671   3.380  73.237  1.00  0.00    -0.081 A  
HETATM   21  C   UNL     1     -10.086   4.231  71.467  1.00  0.00    -0.205 A  
HETATM   22  C   UNL     1      -9.299   3.208  72.002  1.00  0.00    -0.188 A  
ENDBRANCH  15  17
ENDBRANCH  14  15
ENDBRANCH   3  14
BRANCH  10  23
HETATM   23  S   UNL     1      -8.927   8.130  65.858  1.00  0.00    -0.114 SA 
BRANCH  23  24
HETATM   24  C   UNL     1      -8.835   6.559  66.702  1.00  0.00    -0.132 A  
HETATM   25  C   UNL     1      -7.928   6.296  67.733  1.00  0.00    -0.114 A  
HETATM   26  C   UNL     1      -8.833   4.067  67.998  1.00  0.00    -0.132 A  
HETATM   27  C   UNL     1      -7.921   5.052  68.372  1.00  0.00    -0.086 A  
HETATM   28  C   UNL     1      -9.754   4.325  66.987  1.00  0.00    -0.237 A  
HETATM   29  C   UNL     1      -9.758   5.566  66.346  1.00  0.00    -0.182 A  
ENDBRANCH  23  24
ENDBRANCH  10  23
TORSDOF 5
ENDMDL
MODEL      137
REMARK 921   NORMALIZED FREE ENERGY PREDICTED BY IDOCK:   -5.00 KCAL/MOL
REMARK 922        TOTAL FREE ENERGY PREDICTED BY IDOCK:   -7.63 KCAL/MOL
REMARK 923 INTER-LIGAND FREE ENERGY PREDICTED BY IDOCK:   -6.95 KCAL/MOL
REMARK 924 INTRA-LIGAND FREE ENERGY PREDICTED BY IDOCK:   -0.68 KCAL/MOL
REMARK 927      BINDING AFFINITY PREDICTED BY RF-SCORE:    0.00 PKD
ROOT
HETATM    1  C   UNL     1      -9.904   8.534  72.626  1.00  0.00    -0.281 C  
HETATM    2  C   UNL     1     -10.109   7.934  71.230  1.00  0.00    -0.210 C  
HETATM    3  C   UNL     1     -11.342   8.486  70.501  1.00  0.00    -0.217 C  
HETATM    4  C   UNL     1     -10.287   6.426  71.344  1.00  0.00    -0.206 C  
HETATM    5  O   UNL     1     -10.918   5.925  72.275  1.00  0.00    -0.238 OA 
HETATM    6  C   UNL     1      -9.356   3.301  71.415  1.00  0.00    -0.136 C  
HETATM    7  N   UNL     1      -9.710   5.611  70.396  1.00  0.00    -0.172 N  
HETATM    8  C   UNL     1      -8.921   6.010  69.238  1.00  0.00    -0.122 C  
HETATM    9  C   UNL     1     -10.026   4.170  70.340  1.00  0.00    -0.093 C  
HETATM   10  C   UNL     1      -9.256   4.975  68.165  1.00  0.00    -0.120 C  
HETATM   11  C   UNL     1      -9.525   3.700  68.963  1.00  0.00    -0.226 C  
HETATM   12  O   UNL     1      -8.588   3.973  72.301  1.00  0.00    -0.102 OA 
HETATM   13  O   UNL     1      -9.464   2.079  71.456  1.00  0.00    -0.102 OA 
ENDROOT
BRANCH   3  14
HETATM   14  S   UNL     1     -11.220  10.283  70.290  1.00  0.00    -0.336 SA 
BRANCH  14  15
HETATM   15  C   UNL     1     -12.534  10.836  71.323  1.00  0.00    -0.399 C  
HETATM   16  O   UNL     1     -13.194  10.056  71.998  1.00  0.00    -0.433 OA 
BRANCH  15  17
HETATM   17  C   UNL     1     -12.774  12.309  71.361  1.00  0.00    -0.351 A  
HETATM   18  C   UNL     1     -13.519  12.922  72.381  1.00  0.00    -0.573 A  
HETATM   19  C   UNL     1     -13.729  14.302  72.371  1.00  0.00    -0.616 A  
HETATM   20  C   UNL     1     -13.190  15.081  71.351  1.00  0.00    -0.497 A  
HETATM   21  C   UNL     1     -12.224  13.103  70.345  1.00  0.00    -0.389 A  
HETATM   22  C   UNL     1     -12.438  14.484  70.339  1.00  0.00    -0.407 A  
ENDBRANCH  15  17
ENDBRANCH  14  15
ENDBRANCH   3  14
BRANCH  10  23
HETATM   23  S   UNL     1      -7.874   4.848  66.972  1.00  0.00    -0.096 SA 
BRANCH  23  24
HETATM   24  C   UNL     1      -7.624   6.538  66.454  1.00  0.00    -0.090 A  
HETATM   25  C   UNL     1      -6.391   7.191  66.539  1.00  0.00    -0.047 A  
HETATM   26  C   UNL     1      -7.343   9.180  65.543  1.00  0.00    -0.089 A  
HETATM   27  C   UNL     1      -6.253   8.509  66.094  1.00  0.00    -0.052 A  
HETATM   28  C   UNL     1      -8.571   8.533  65.433  1.00  0.00    -0.202 A  
HETATM   29  C   UNL     1      -8.709   7.218  65.882  1.00  0.00    -0.150 A  
ENDBRANCH  23  24
ENDBRANCH  10  23
TORSDOF 5
ENDMDL
MODEL      138
REMARK 921   NORMALIZED FREE ENERGY PREDICTED BY IDOCK:   -5.00 KCAL/MOL
REMARK 922        TOTAL FREE ENERGY PREDICTED BY IDOCK:   -7.63 KCAL/MOL
REMARK 923 INTER-LIGAND FREE ENERGY PREDICTED BY IDOCK:   -6.96 KCAL/MOL
REMARK 924 INTRA-LIGAND FREE ENERGY PREDICTED BY IDOCK:   -0.67 KCAL/MOL
REMARK 927      BINDING AFFINITY PREDICTED BY RF-SCORE:    0.00 PKD
ROOT
HETATM    1  C   UNL     1     -10.518   9.812  67.396  1.00  0.00    -0.319 C  
HETATM    2  C   UNL     1      -9.575  10.835  68.042  1.00  0.00    -0.172 C  
HETATM    3  C   UNL     1      -8.698  10.243  69.155  1.00  0.00    -0.172 C  
HETATM    4  C   UNL     1     -10.391  11.963  68.659  1.00  0.00    -0.203 C  
HETATM    5  O   UNL     1     -11.461  11.743  69.225  1.00  0.00    -0.259 OA 
HETATM    6  C   UNL     1     -11.907  14.849  68.759  1.00  0.00    -0.296 C  
HETATM    7  N   UNL     1      -9.926  13.256  68.559  1.00  0.00    -0.221 N  
HETATM    8  C   UNL     1      -8.701  13.716  67.921  1.00  0.00    -0.184 C  
HETATM    9  C   UNL     1     -10.564  14.352  69.315  1.00  0.00    -0.175 C  
HETATM   10  C   UNL     1      -8.250  14.910  68.762  1.00  0.00    -0.161 C  
HETATM   11  C   UNL     1      -9.561  15.517  69.259  1.00  0.00    -0.266 C  
HETATM   12  O   UNL     1     -12.354  14.194  67.665  1.00  0.00    -0.273 OA 
HETATM   13  O   UNL     1     -12.522  15.798  69.235  1.00  0.00    -0.124 OA 
ENDROOT
BRANCH   3  14
HETATM   14  S   UNL     1      -7.661   8.898  68.518  1.00  0.00    -0.099 SA 
BRANCH  14  15
HETATM   15  C   UNL     1      -8.580   7.487  69.034  1.00  0.00    -0.136 C  
HETATM   16  O   UNL     1      -8.622   6.466  68.361  1.00  0.00    -0.115 OA 
BRANCH  15  17
HETATM   17  C   UNL     1      -9.271   7.591  70.353  1.00  0.00    -0.157 A  
HETATM   18  C   UNL     1      -8.568   7.659  71.566  1.00  0.00    -0.126 A  
HETATM   19  C   UNL     1      -9.256   7.743  72.778  1.00  0.00    -0.252 A  
HETATM   20  C   UNL     1     -10.648   7.770  72.788  1.00  0.00    -0.401 A  
HETATM   21  C   UNL     1     -10.672   7.632  70.372  1.00  0.00    -0.241 A  
HETATM   22  C   UNL     1     -11.356   7.715  71.588  1.00  0.00    -0.286 A  
ENDBRANCH  15  17
ENDBRANCH  14  15
ENDBRANCH   3  14
BRANCH  10  23
HETATM   23  S   UNL     1      -7.228  16.037  67.745  1.00  0.00    -0.156 SA 
BRANCH  23  24
HETATM   24  C   UNL     1      -8.301  17.441  67.485  1.00  0.00    -0.206 A  
HETATM   25  C   UNL     1      -9.218  17.520  66.433  1.00  0.00    -0.267 A  
HETATM   26  C   UNL     1      -9.982  19.676  67.224  1.00  0.00    -0.518 A  
HETATM   27  C   UNL     1     -10.048  18.637  66.297  1.00  0.00    -0.431 A  
HETATM   28  C   UNL     1      -9.088  19.598  68.288  1.00  0.00    -0.395 A  
HETATM   29  C   UNL     1      -8.255  18.484  68.420  1.00  0.00    -0.351 A  
ENDBRANCH  23  24
ENDBRANCH  10  23
TORSDOF 5
ENDMDL
MODEL      139
REMARK 921   NORMALIZED FREE ENERGY PREDICTED BY IDOCK:   -5.00 KCAL/MOL
REMARK 922        TOTAL FREE ENERGY PREDICTED BY IDOCK:   -7.63 KCAL/MOL
REMARK 923 INTER-LIGAND FREE ENERGY PREDICTED BY IDOCK:   -6.99 KCAL/MOL
REMARK 924 INTRA-LIGAND FREE ENERGY PREDICTED BY IDOCK:   -0.64 KCAL/MOL
REMARK 927      BINDING AFFINITY PREDICTED BY RF-SCORE:    0.00 PKD
ROOT
HETATM    1  C   UNL     1      -9.990   8.074  73.141  1.00  0.00    -0.316 C  
HETATM    2  C   UNL     1     -10.198   7.120  71.958  1.00  0.00    -0.209 C  
HETATM    3  C   UNL     1     -11.421   7.469  71.098  1.00  0.00    -0.273 C  
HETATM    4  C   UNL     1     -10.396   5.702  72.475  1.00  0.00    -0.201 C  
HETATM    5  O   UNL     1     -11.036   5.479  73.502  1.00  0.00    -0.276 OA 
HETATM    6  C   UNL     1      -9.505   2.702  73.395  1.00  0.00    -0.088 C  
HETATM    7  N   UNL     1      -9.826   4.654  71.786  1.00  0.00    -0.175 N  
HETATM    8  C   UNL     1      -9.028   4.716  70.569  1.00  0.00    -0.109 C  
HETATM    9  C   UNL     1     -10.160   3.255  72.121  1.00  0.00    -0.129 C  
HETATM   10  C   UNL     1      -9.372   3.432  69.814  1.00  0.00    -0.168 C  
HETATM   11  C   UNL     1      -9.660   2.425  70.926  1.00  0.00    -0.188 C  
HETATM   12  O   UNL     1      -8.732   3.580  74.071  1.00  0.00    -0.087 OA 
HETATM   13  O   UNL     1      -9.629   1.539  73.765  1.00  0.00    -0.070 OA 
ENDROOT
BRANCH   3  14
HETATM   14  S   UNL     1     -11.275   9.140  70.409  1.00  0.00    -0.217 SA 
BRANCH  14  15
HETATM   15  C   UNL     1     -12.535   9.986  71.302  1.00  0.00    -0.392 C  
HETATM   16  O   UNL     1     -13.305   9.393  72.046  1.00  0.00    -0.389 OA 
BRANCH  15  17
HETATM   17  C   UNL     1     -12.588  11.468  71.132  1.00  0.00    -0.463 A  
HETATM   18  C   UNL     1     -12.002  12.120  70.035  1.00  0.00    -0.391 A  
HETATM   19  C   UNL     1     -12.065  13.509  69.922  1.00  0.00    -0.408 A  
HETATM   20  C   UNL     1     -12.719  14.259  70.896  1.00  0.00    -0.427 A  
HETATM   21  C   UNL     1     -13.256  12.230  72.101  1.00  0.00    -0.466 A  
HETATM   22  C   UNL     1     -13.315  13.621  71.984  1.00  0.00    -0.548 A  
ENDBRANCH  15  17
ENDBRANCH  14  15
ENDBRANCH   3  14
BRANCH  10  23
HETATM   23  S   UNL     1      -7.989   2.971  68.709  1.00  0.00    -0.056 SA 
BRANCH  23  24
HETATM   24  C   UNL     1      -8.589   3.424  67.090  1.00  0.00    -0.109 A  
HETATM   25  C   UNL     1      -7.944   3.059  65.904  1.00  0.00    -0.085 A  
HETATM   26  C   UNL     1      -9.671   4.142  64.599  1.00  0.00    -0.177 A  
HETATM   27  C   UNL     1      -8.479   3.424  64.664  1.00  0.00    -0.093 A  
HETATM   28  C   UNL     1     -10.333   4.492  65.773  1.00  0.00    -0.287 A  
HETATM   29  C   UNL     1      -9.797   4.132  67.011  1.00  0.00    -0.190 A  
ENDBRANCH  23  24
ENDBRANCH  10  23
TORSDOF 5
ENDMDL
MODEL      140
REMARK 921   NORMALIZED FREE ENERGY PREDICTED BY IDOCK:   -4.99 KCAL/MOL
REMARK 922        TOTAL FREE ENERGY PREDICTED BY IDOCK:   -7.62 KCAL/MOL
REMARK 923 INTER-LIGAND FREE ENERGY PREDICTED BY IDOCK:   -7.12 KCAL/MOL
REMARK 924 INTRA-LIGAND FREE ENERGY PREDICTED BY IDOCK:   -0.50 KCAL/MOL
REMARK 927      BINDING AFFINITY PREDICTED BY RF-SCORE:    0.00 PKD
ROOT
HETATM    1  C   UNL     1     -14.255   9.446  72.143  1.00  0.00    -0.195 C  
HETATM    2  C   UNL     1     -12.989   9.922  71.421  1.00  0.00    -0.504 C  
HETATM    3  C   UNL     1     -11.709   9.227  71.907  1.00  0.00    -0.350 C  
HETATM    4  C   UNL     1     -12.807  11.418  71.646  1.00  0.00    -0.391 C  
HETATM    5  O   UNL     1     -13.073  11.939  72.728  1.00  0.00     0.350 OA 
HETATM    6  C   UNL     1     -13.120  14.599  71.000  1.00  0.00    -0.367 C  
HETATM    7  N   UNL     1     -12.355  12.199  70.605  1.00  0.00    -0.342 N  
HETATM    8  C   UNL     1     -12.003  11.774  69.258  1.00  0.00    -0.291 C  
HETATM    9  C   UNL     1     -11.962  13.605  70.828  1.00  0.00    -0.206 C  
HETATM   10  C   UNL     1     -10.858  12.698  68.845  1.00  0.00    -0.197 C  
HETATM   11  C   UNL     1     -11.170  14.006  69.572  1.00  0.00    -0.249 C  
HETATM   12  O   UNL     1     -14.356  14.054  70.962  1.00  0.00     0.115 OA 
HETATM   13  O   UNL     1     -12.956  15.809  71.121  1.00  0.00    -0.491 OA 
ENDROOT
BRANCH   3  14
HETATM   14  S   UNL     1     -11.812   7.434  71.662  1.00  0.00    -0.307 SA 
BRANCH  14  15
HETATM   15  C   UNL     1     -10.523   6.872  72.721  1.00  0.00    -0.224 C  
HETATM   16  O   UNL     1      -9.738   7.650  73.248  1.00  0.00    -0.238 OA 
BRANCH  15  17
HETATM   17  C   UNL     1     -10.462   5.402  72.972  1.00  0.00    -0.246 A  
HETATM   18  C   UNL     1     -10.230   4.474  71.944  1.00  0.00    -0.241 A  
HETATM   19  C   UNL     1     -10.194   3.106  72.222  1.00  0.00    -0.173 A  
HETATM   20  C   UNL     1     -10.379   2.655  73.526  1.00  0.00    -0.212 A  
HETATM   21  C   UNL     1     -10.635   4.939  74.284  1.00  0.00    -0.321 A  
HETATM   22  C   UNL     1     -10.599   3.569  74.557  1.00  0.00    -0.177 A  
ENDBRANCH  15  17
ENDBRANCH  14  15
ENDBRANCH   3  14
BRANCH  10  23
HETATM   23  S   UNL     1     -10.797  12.836  67.022  1.00  0.00    -0.262 SA 
BRANCH  23  24
HETATM   24  C   UNL     1      -9.843  14.323  66.756  1.00  0.00    -0.270 A  
HETATM   25  C   UNL     1      -8.572  14.525  67.303  1.00  0.00    -0.231 A  
HETATM   26  C   UNL     1      -8.414  16.678  66.210  1.00  0.00    -0.355 A  
HETATM   27  C   UNL     1      -7.865  15.702  67.038  1.00  0.00    -0.266 A  
HETATM   28  C   UNL     1      -9.670  16.478  65.642  1.00  0.00    -0.124 A  
HETATM   29  C   UNL     1     -10.378  15.305  65.911  1.00  0.00    -0.346 A  
ENDBRANCH  23  24
ENDBRANCH  10  23
TORSDOF 5
ENDMDL
MODEL      141
REMARK 921   NORMALIZED FREE ENERGY PREDICTED BY IDOCK:   -4.99 KCAL/MOL
REMARK 922        TOTAL FREE ENERGY PREDICTED BY IDOCK:   -7.62 KCAL/MOL
REMARK 923 INTER-LIGAND FREE ENERGY PREDICTED BY IDOCK:   -6.79 KCAL/MOL
REMARK 924 INTRA-LIGAND FREE ENERGY PREDICTED BY IDOCK:   -0.83 KCAL/MOL
REMARK 927      BINDING AFFINITY PREDICTED BY RF-SCORE:    0.00 PKD
ROOT
HETATM    1  C   UNL     1     -11.219  16.250  69.845  1.00  0.00    -0.319 C  
HETATM    2  C   UNL     1     -11.240  14.911  69.099  1.00  0.00    -0.293 C  
HETATM    3  C   UNL     1     -11.659  15.035  67.627  1.00  0.00    -0.312 C  
HETATM    4  C   UNL     1     -12.227  13.967  69.774  1.00  0.00    -0.341 C  
HETATM    5  O   UNL     1     -13.293  14.377  70.233  1.00  0.00    -0.009 OA 
HETATM    6  C   UNL     1     -13.207  11.646  71.845  1.00  0.00    -0.369 C  
HETATM    7  N   UNL     1     -11.904  12.633  69.888  1.00  0.00    -0.320 N  
HETATM    8  C   UNL     1     -10.696  11.965  69.425  1.00  0.00     0.041 C  
HETATM    9  C   UNL     1     -12.906  11.646  70.339  1.00  0.00     0.101 C  
HETATM   10  C   UNL     1     -11.158  10.567  69.015  1.00  0.00    -0.249 C  
HETATM   11  C   UNL     1     -12.315  10.275  69.969  1.00  0.00    -0.158 C  
HETATM   12  O   UNL     1     -12.542  12.577  72.564  1.00  0.00     0.225 OA 
HETATM   13  O   UNL     1     -13.962  10.840  72.380  1.00  0.00     0.186 OA 
ENDROOT
BRANCH   3  14
HETATM   14  S   UNL     1     -10.529  16.125  66.721  1.00  0.00    -0.272 SA 
BRANCH  14  15
HETATM   15  C   UNL     1     -11.027  15.825  65.059  1.00  0.00    -0.417 C  
HETATM   16  O   UNL     1     -11.202  16.740  64.264  1.00  0.00    -1.163 OA 
BRANCH  15  17
HETATM   17  C   UNL     1     -11.187  14.395  64.662  1.00  0.00    -0.366 A  
HETATM   18  C   UNL     1     -12.205  13.966  63.795  1.00  0.00    -0.310 A  
HETATM   19  C   UNL     1     -12.326  12.616  63.459  1.00  0.00    -0.591 A  
HETATM   20  C   UNL     1     -11.427  11.687  63.977  1.00  0.00    -0.404 A  
HETATM   21  C   UNL     1     -10.280  13.454  65.168  1.00  0.00    -0.316 A  
HETATM   22  C   UNL     1     -10.405  12.104  64.830  1.00  0.00    -0.320 A  
ENDBRANCH  15  17
ENDBRANCH  14  15
ENDBRANCH   3  14
BRANCH  10  23
HETATM   23  S   UNL     1      -9.761   9.391  69.131  1.00  0.00    -0.171 SA 
BRANCH  23  24
HETATM   24  C   UNL     1      -8.358  10.372  68.622  1.00  0.00    -0.127 A  
HETATM   25  C   UNL     1      -7.254  10.615  69.446  1.00  0.00    -0.126 A  
HETATM   26  C   UNL     1      -6.180  11.875  67.681  1.00  0.00    -0.083 A  
HETATM   27  C   UNL     1      -6.174  11.371  68.980  1.00  0.00    -0.058 A  
HETATM   28  C   UNL     1      -7.264  11.622  66.845  1.00  0.00    -0.125 A  
HETATM   29  C   UNL     1      -8.345  10.870  67.312  1.00  0.00    -0.123 A  
ENDBRANCH  23  24
ENDBRANCH  10  23
TORSDOF 5
ENDMDL
MODEL      142
REMARK 921   NORMALIZED FREE ENERGY PREDICTED BY IDOCK:   -4.97 KCAL/MOL
REMARK 922        TOTAL FREE ENERGY PREDICTED BY IDOCK:   -7.58 KCAL/MOL
REMARK 923 INTER-LIGAND FREE ENERGY PREDICTED BY IDOCK:   -6.49 KCAL/MOL
REMARK 924 INTRA-LIGAND FREE ENERGY PREDICTED BY IDOCK:   -1.09 KCAL/MOL
REMARK 927      BINDING AFFINITY PREDICTED BY RF-SCORE:    0.00 PKD
ROOT
HETATM    1  C   UNL     1     -11.765  16.165  68.543  1.00  0.00    -0.170 C  
HETATM    2  C   UNL     1     -10.652  15.185  68.930  1.00  0.00    -0.242 C  
HETATM    3  C   UNL     1     -10.691  14.767  70.407  1.00  0.00     0.078 C  
HETATM    4  C   UNL     1      -9.295  15.828  68.676  1.00  0.00    -0.206 C  
HETATM    5  O   UNL     1      -9.101  17.022  68.899  1.00  0.00    -0.262 OA 
HETATM    6  C   UNL     1      -6.614  16.583  66.978  1.00  0.00    -0.199 C  
HETATM    7  N   UNL     1      -8.275  15.055  68.166  1.00  0.00    -0.135 N  
HETATM    8  C   UNL     1      -8.312  13.639  67.826  1.00  0.00    -0.181 C  
HETATM    9  C   UNL     1      -6.893  15.571  68.100  1.00  0.00    -0.124 C  
HETATM   10  C   UNL     1      -6.907  13.128  68.141  1.00  0.00    -0.111 C  
HETATM   11  C   UNL     1      -6.012  14.333  67.858  1.00  0.00    -0.145 C  
HETATM   12  O   UNL     1      -7.682  16.902  66.214  1.00  0.00    -0.286 OA 
HETATM   13  O   UNL     1      -5.501  17.046  66.752  1.00  0.00    -0.162 OA 
ENDROOT
BRANCH   3  14
HETATM   14  S   UNL     1     -12.265  13.964  70.813  1.00  0.00    -0.358 SA 
BRANCH  14  15
HETATM   15  C   UNL     1     -12.154  12.493  69.852  1.00  0.00    -0.252 C  
HETATM   16  O   UNL     1     -12.034  12.528  68.634  1.00  0.00    -0.308 OA 
BRANCH  15  17
HETATM   17  C   UNL     1     -12.175  11.204  70.605  1.00  0.00    -0.492 A  
HETATM   18  C   UNL     1     -13.152  10.915  71.571  1.00  0.00    -0.503 A  
HETATM   19  C   UNL     1     -13.127   9.702  72.260  1.00  0.00    -0.468 A  
HETATM   20  C   UNL     1     -12.134   8.765  71.986  1.00  0.00    -0.447 A  
HETATM   21  C   UNL     1     -11.187  10.250  70.326  1.00  0.00    -0.395 A  
HETATM   22  C   UNL     1     -11.165   9.037  71.019  1.00  0.00    -0.361 A  
ENDBRANCH  15  17
ENDBRANCH  14  15
ENDBRANCH   3  14
BRANCH  10  23
HETATM   23  S   UNL     1      -6.540  11.653  67.121  1.00  0.00    -0.142 SA 
BRANCH  23  24
HETATM   24  C   UNL     1      -7.195  10.308  68.097  1.00  0.00    -0.084 A  
HETATM   25  C   UNL     1      -7.893   9.230  67.544  1.00  0.00    -0.096 A  
HETATM   26  C   UNL     1      -8.118   8.218  69.731  1.00  0.00    -0.118 A  
HETATM   27  C   UNL     1      -8.360   8.194  68.359  1.00  0.00    -0.126 A  
HETATM   28  C   UNL     1      -7.405   9.276  70.289  1.00  0.00    -0.100 A  
HETATM   29  C   UNL     1      -6.943  10.313  69.475  1.00  0.00    -0.096 A  
ENDBRANCH  23  24
ENDBRANCH  10  23
TORSDOF 5
ENDMDL
MODEL      143
REMARK 921   NORMALIZED FREE ENERGY PREDICTED BY IDOCK:   -4.95 KCAL/MOL
REMARK 922        TOTAL FREE ENERGY PREDICTED BY IDOCK:   -7.57 KCAL/MOL
REMARK 923 INTER-LIGAND FREE ENERGY PREDICTED BY IDOCK:   -6.74 KCAL/MOL
REMARK 924 INTRA-LIGAND FREE ENERGY PREDICTED BY IDOCK:   -0.82 KCAL/MOL
REMARK 927      BINDING AFFINITY PREDICTED BY RF-SCORE:    0.00 PKD
ROOT
HETATM    1  C   UNL     1      -9.135  14.769  66.015  1.00  0.00    -0.061 C  
HETATM    2  C   UNL     1      -9.426  13.735  67.109  1.00  0.00    -0.244 C  
HETATM    3  C   UNL     1      -9.821  14.362  68.454  1.00  0.00    -0.234 C  
HETATM    4  C   UNL     1      -8.186  12.885  67.351  1.00  0.00    -0.187 C  
HETATM    5  O   UNL     1      -7.058  13.376  67.321  1.00  0.00    -0.134 OA 
HETATM    6  C   UNL     1      -6.170  10.353  66.946  1.00  0.00    -0.066 C  
HETATM    7  N   UNL     1      -8.336  11.536  67.586  1.00  0.00    -0.130 N  
HETATM    8  C   UNL     1      -9.575  10.774  67.646  1.00  0.00    -0.158 C  
HETATM    9  C   UNL     1      -7.195  10.712  68.032  1.00  0.00    -0.087 C  
HETATM   10  C   UNL     1      -9.314   9.690  68.691  1.00  0.00    -0.143 C  
HETATM   11  C   UNL     1      -7.819   9.406  68.552  1.00  0.00    -0.089 C  
HETATM   12  O   UNL     1      -6.424  10.869  65.723  1.00  0.00    -0.109 OA 
HETATM   13  O   UNL     1      -5.207   9.619  67.146  1.00  0.00    -0.035 OA 
ENDROOT
BRANCH   3  14
HETATM   14  S   UNL     1     -11.310  15.382  68.283  1.00  0.00    -0.354 SA 
BRANCH  14  15
HETATM   15  C   UNL     1     -10.799  16.866  69.081  1.00  0.00    -0.237 C  
HETATM   16  O   UNL     1     -10.847  16.991  70.298  1.00  0.00    -0.034 OA 
BRANCH  15  17
HETATM   17  C   UNL     1     -10.267  17.946  68.198  1.00  0.00    -0.386 A  
HETATM   18  C   UNL     1      -9.298  18.863  68.634  1.00  0.00    -0.415 A  
HETATM   19  C   UNL     1      -8.838  19.865  67.778  1.00  0.00    -0.390 A  
HETATM   20  C   UNL     1      -9.333  19.955  66.480  1.00  0.00    -0.501 A  
HETATM   21  C   UNL     1     -10.751  18.035  66.885  1.00  0.00    -0.214 A  
HETATM   22  C   UNL     1     -10.288  19.041  66.032  1.00  0.00    -0.512 A  
ENDBRANCH  15  17
ENDBRANCH  14  15
ENDBRANCH   3  14
BRANCH  10  23
HETATM   23  S   UNL     1     -10.395   8.248  68.375  1.00  0.00    -0.172 SA 
BRANCH  23  24
HETATM   24  C   UNL     1     -10.820   7.687  70.016  1.00  0.00    -0.243 A  
HETATM   25  C   UNL     1     -11.183   8.554  71.051  1.00  0.00    -0.312 A  
HETATM   26  C   UNL     1     -11.533   6.676  72.538  1.00  0.00    -0.269 A  
HETATM   27  C   UNL     1     -11.529   8.051  72.309  1.00  0.00    -0.419 A  
HETATM   28  C   UNL     1     -11.194   5.802  71.508  1.00  0.00    -0.243 A  
HETATM   29  C   UNL     1     -10.844   6.306  70.253  1.00  0.00    -0.366 A  
ENDBRANCH  23  24
ENDBRANCH  10  23
TORSDOF 5
ENDMDL
MODEL      144
REMARK 921   NORMALIZED FREE ENERGY PREDICTED BY IDOCK:   -4.94 KCAL/MOL
REMARK 922        TOTAL FREE ENERGY PREDICTED BY IDOCK:   -7.55 KCAL/MOL
REMARK 923 INTER-LIGAND FREE ENERGY PREDICTED BY IDOCK:   -6.70 KCAL/MOL
REMARK 924 INTRA-LIGAND FREE ENERGY PREDICTED BY IDOCK:   -0.84 KCAL/MOL
REMARK 927      BINDING AFFINITY PREDICTED BY RF-SCORE:    0.00 PKD
ROOT
HETATM    1  C   UNL     1      -9.659   5.009  71.231  1.00  0.00    -0.223 C  
HETATM    2  C   UNL     1     -10.093   6.001  70.145  1.00  0.00    -0.249 C  
HETATM    3  C   UNL     1     -11.608   6.252  70.115  1.00  0.00    -0.315 C  
HETATM    4  C   UNL     1      -9.694   5.466  68.777  1.00  0.00    -0.142 C  
HETATM    5  O   UNL     1      -9.770   4.267  68.511  1.00  0.00    -0.149 OA 
HETATM    6  C   UNL     1      -7.779   5.051  66.170  1.00  0.00    -0.091 C  
HETATM    7  N   UNL     1      -9.220   6.345  67.828  1.00  0.00    -0.114 N  
HETATM    8  C   UNL     1      -9.045   7.785  67.955  1.00  0.00    -0.128 C  
HETATM    9  C   UNL     1      -9.020   5.917  66.429  1.00  0.00    -0.140 C  
HETATM   10  C   UNL     1      -9.337   8.336  66.560  1.00  0.00    -0.206 C  
HETATM   11  C   UNL     1      -8.873   7.220  65.626  1.00  0.00    -0.044 C  
HETATM   12  O   UNL     1      -7.042   4.760  67.265  1.00  0.00    -0.066 OA 
HETATM   13  O   UNL     1      -7.441   4.678  65.051  1.00  0.00    -0.074 OA 
ENDROOT
BRANCH   3  14
HETATM   14  S   UNL     1     -12.187   6.916  71.699  1.00  0.00    -0.372 SA 
BRANCH  14  15
HETATM   15  C   UNL     1     -11.245   8.400  71.810  1.00  0.00    -0.293 C  
HETATM   16  O   UNL     1     -11.717   9.486  71.498  1.00  0.00    -0.355 OA 
BRANCH  15  17
HETATM   17  C   UNL     1      -9.857   8.267  72.340  1.00  0.00    -0.375 A  
HETATM   18  C   UNL     1      -8.732   8.694  71.616  1.00  0.00    -0.270 A  
HETATM   19  C   UNL     1      -7.450   8.540  72.145  1.00  0.00    -0.111 A  
HETATM   20  C   UNL     1      -7.280   7.968  73.403  1.00  0.00    -0.161 A  
HETATM   21  C   UNL     1      -9.677   7.706  73.612  1.00  0.00    -0.314 A  
HETATM   22  C   UNL     1      -8.391   7.552  74.137  1.00  0.00    -0.243 A  
ENDBRANCH  15  17
ENDBRANCH  14  15
ENDBRANCH   3  14
BRANCH  10  23
HETATM   23  S   UNL     1      -8.472   9.932  66.328  1.00  0.00    -0.130 SA 
BRANCH  23  24
HETATM   24  C   UNL     1      -9.730  10.979  65.612  1.00  0.00    -0.232 A  
HETATM   25  C   UNL     1     -10.227  10.802  64.318  1.00  0.00    -0.422 A  
HETATM   26  C   UNL     1     -11.757  12.653  64.624  1.00  0.00    -0.411 A  
HETATM   27  C   UNL     1     -11.230  11.641  63.823  1.00  0.00    -0.498 A  
HETATM   28  C   UNL     1     -11.284  12.825  65.922  1.00  0.00    -0.334 A  
HETATM   29  C   UNL     1     -10.278  11.989  66.414  1.00  0.00    -0.243 A  
ENDBRANCH  23  24
ENDBRANCH  10  23
TORSDOF 5
ENDMDL
MODEL      145
REMARK 921   NORMALIZED FREE ENERGY PREDICTED BY IDOCK:   -4.94 KCAL/MOL
REMARK 922        TOTAL FREE ENERGY PREDICTED BY IDOCK:   -7.54 KCAL/MOL
REMARK 923 INTER-LIGAND FREE ENERGY PREDICTED BY IDOCK:   -5.65 KCAL/MOL
REMARK 924 INTRA-LIGAND FREE ENERGY PREDICTED BY IDOCK:   -1.89 KCAL/MOL
REMARK 927      BINDING AFFINITY PREDICTED BY RF-SCORE:    0.00 PKD
ROOT
HETATM    1  C   UNL     1      -8.890   5.236  65.195  1.00  0.00    -0.130 C  
HETATM    2  C   UNL     1      -8.706   6.585  65.900  1.00  0.00    -0.149 C  
HETATM    3  C   UNL     1      -7.548   7.419  65.335  1.00  0.00    -0.096 C  
HETATM    4  C   UNL     1      -8.420   6.353  67.378  1.00  0.00    -0.108 C  
HETATM    5  O   UNL     1      -7.715   5.417  67.754  1.00  0.00    -0.090 OA 
HETATM    6  C   UNL     1      -9.130   5.974  70.539  1.00  0.00    -0.149 C  
HETATM    7  N   UNL     1      -8.981   7.200  68.308  1.00  0.00    -0.126 N  
HETATM    8  C   UNL     1      -9.847   8.346  68.063  1.00  0.00    -0.169 C  
HETATM    9  C   UNL     1      -8.570   7.150  69.725  1.00  0.00    -0.141 C  
HETATM   10  C   UNL     1      -9.490   9.344  69.164  1.00  0.00    -0.163 C  
HETATM   11  C   UNL     1      -9.098   8.456  70.345  1.00  0.00    -0.155 C  
HETATM   12  O   UNL     1      -9.902   5.110  69.843  1.00  0.00    -0.177 OA 
HETATM   13  O   UNL     1      -8.936   5.835  71.742  1.00  0.00    -0.139 OA 
ENDROOT
BRANCH   3  14
HETATM   14  S   UNL     1      -7.803   7.774  63.575  1.00  0.00    -0.106 SA 
BRANCH  14  15
HETATM   15  C   UNL     1      -7.658   9.529  63.558  1.00  0.00    -0.118 C  
HETATM   16  O   UNL     1      -6.596  10.084  63.309  1.00  0.00    -0.124 OA 
BRANCH  15  17
HETATM   17  C   UNL     1      -8.907  10.301  63.825  1.00  0.00    -0.234 A  
HETATM   18  C   UNL     1      -9.713  10.059  64.949  1.00  0.00    -0.377 A  
HETATM   19  C   UNL     1     -10.880  10.797  65.154  1.00  0.00    -0.057 A  
HETATM   20  C   UNL     1     -11.246  11.787  64.246  1.00  0.00    -0.414 A  
HETATM   21  C   UNL     1      -9.277  11.309  62.924  1.00  0.00    -0.344 A  
HETATM   22  C   UNL     1     -10.446  12.045  63.133  1.00  0.00    -0.277 A  
ENDBRANCH  15  17
ENDBRANCH  14  15
ENDBRANCH   3  14
BRANCH  10  23
HETATM   23  S   UNL     1     -10.911  10.451  69.484  1.00  0.00    -0.272 SA 
BRANCH  23  24
HETATM   24  C   UNL     1     -10.519  11.907  68.528  1.00  0.00    -0.224 A  
HETATM   25  C   UNL     1     -11.446  12.918  68.258  1.00  0.00    -0.348 A  
HETATM   26  C   UNL     1      -9.761  14.183  67.067  1.00  0.00    -0.258 A  
HETATM   27  C   UNL     1     -11.070  14.047  67.523  1.00  0.00    -0.313 A  
HETATM   28  C   UNL     1      -8.823  13.193  67.348  1.00  0.00    -0.204 A  
HETATM   29  C   UNL     1      -9.200  12.063  68.079  1.00  0.00    -0.192 A  
ENDBRANCH  23  24
ENDBRANCH  10  23
TORSDOF 5
ENDMDL
MODEL      146
REMARK 921   NORMALIZED FREE ENERGY PREDICTED BY IDOCK:   -4.90 KCAL/MOL
REMARK 922        TOTAL FREE ENERGY PREDICTED BY IDOCK:   -7.49 KCAL/MOL
REMARK 923 INTER-LIGAND FREE ENERGY PREDICTED BY IDOCK:   -6.35 KCAL/MOL
REMARK 924 INTRA-LIGAND FREE ENERGY PREDICTED BY IDOCK:   -1.14 KCAL/MOL
REMARK 927      BINDING AFFINITY PREDICTED BY RF-SCORE:    0.00 PKD
ROOT
HETATM    1  C   UNL     1      -9.357   2.879  67.705  1.00  0.00    -0.234 C  
HETATM    2  C   UNL     1      -9.203   4.118  68.594  1.00  0.00    -0.203 C  
HETATM    3  C   UNL     1      -8.462   5.276  67.908  1.00  0.00    -0.101 C  
HETATM    4  C   UNL     1      -8.415   3.754  69.845  1.00  0.00    -0.056 C  
HETATM    5  O   UNL     1      -7.469   2.968  69.799  1.00  0.00    -0.044 OA 
HETATM    6  C   UNL     1      -7.979   2.770  72.924  1.00  0.00    -0.062 C  
HETATM    7  N   UNL     1      -8.787   4.302  71.053  1.00  0.00    -0.102 N  
HETATM    8  C   UNL     1      -9.878   5.232  71.312  1.00  0.00    -0.173 C  
HETATM    9  C   UNL     1      -7.936   4.150  72.250  1.00  0.00    -0.086 C  
HETATM   10  C   UNL     1      -9.370   6.119  72.448  1.00  0.00    -0.145 C  
HETATM   11  C   UNL     1      -8.462   5.190  73.253  1.00  0.00    -0.113 C  
HETATM   12  O   UNL     1      -8.764   1.856  72.314  1.00  0.00    -0.063 OA 
HETATM   13  O   UNL     1      -7.382   2.512  73.965  1.00  0.00    -0.036 OA 
ENDROOT
BRANCH   3  14
HETATM   14  S   UNL     1      -9.335   5.807  66.410  1.00  0.00    -0.155 SA 
BRANCH  14  15
HETATM   15  C   UNL     1     -10.291   7.149  67.032  1.00  0.00    -0.298 C  
HETATM   16  O   UNL     1     -11.134   6.988  67.904  1.00  0.00    -0.160 OA 
BRANCH  15  17
HETATM   17  C   UNL     1      -9.990   8.497  66.465  1.00  0.00    -0.350 A  
HETATM   18  C   UNL     1      -9.123   8.677  65.376  1.00  0.00    -0.150 A  
HETATM   19  C   UNL     1      -8.860   9.958  64.886  1.00  0.00    -0.223 A  
HETATM   20  C   UNL     1      -9.467  11.066  65.472  1.00  0.00    -0.250 A  
HETATM   21  C   UNL     1     -10.606   9.617  67.040  1.00  0.00    -0.267 A  
HETATM   22  C   UNL     1     -10.340  10.897  66.547  1.00  0.00    -0.299 A  
ENDBRANCH  15  17
ENDBRANCH  14  15
ENDBRANCH   3  14
BRANCH  10  23
HETATM   23  S   UNL     1     -10.786   6.800  73.386  1.00  0.00    -0.273 SA 
BRANCH  23  24
HETATM   24  C   UNL     1     -11.337   8.158  72.366  1.00  0.00    -0.391 A  
HETATM   25  C   UNL     1     -12.650   8.637  72.373  1.00  0.00    -0.426 A  
HETATM   26  C   UNL     1     -12.065  10.346  70.763  1.00  0.00    -0.463 A  
HETATM   27  C   UNL     1     -13.015   9.721  71.568  1.00  0.00    -0.504 A  
HETATM   28  C   UNL     1     -10.750   9.891  70.763  1.00  0.00    -0.350 A  
HETATM   29  C   UNL     1     -10.387   8.805  71.564  1.00  0.00    -0.374 A  
ENDBRANCH  23  24
ENDBRANCH  10  23
TORSDOF 5
ENDMDL
MODEL      147
REMARK 921   NORMALIZED FREE ENERGY PREDICTED BY IDOCK:   -4.89 KCAL/MOL
REMARK 922        TOTAL FREE ENERGY PREDICTED BY IDOCK:   -7.49 KCAL/MOL
REMARK 923 INTER-LIGAND FREE ENERGY PREDICTED BY IDOCK:   -6.65 KCAL/MOL
REMARK 924 INTRA-LIGAND FREE ENERGY PREDICTED BY IDOCK:   -0.84 KCAL/MOL
REMARK 927      BINDING AFFINITY PREDICTED BY RF-SCORE:    0.00 PKD
ROOT
HETATM    1  C   UNL     1      -9.501  11.120  69.178  1.00  0.00    -0.000 C  
HETATM    2  C   UNL     1      -9.820   9.889  68.321  1.00  0.00    -0.165 C  
HETATM    3  C   UNL     1     -10.847  10.163  67.213  1.00  0.00    -0.230 C  
HETATM    4  C   UNL     1     -10.388   8.786  69.203  1.00  0.00    -0.217 C  
HETATM    5  O   UNL     1     -11.151   9.040  70.134  1.00  0.00    -0.239 OA 
HETATM    6  C   UNL     1     -10.306   6.144  71.114  1.00  0.00    -0.208 C  
HETATM    7  N   UNL     1     -10.019   7.481  68.962  1.00  0.00    -0.171 N  
HETATM    8  C   UNL     1      -9.124   6.984  67.926  1.00  0.00    -0.127 C  
HETATM    9  C   UNL     1     -10.698   6.362  69.645  1.00  0.00    -0.282 C  
HETATM   10  C   UNL     1      -9.690   5.615  67.548  1.00  0.00    -0.124 C  
HETATM   11  C   UNL     1     -10.302   5.105  68.852  1.00  0.00    -0.186 C  
HETATM   12  O   UNL     1      -9.413   7.030  71.608  1.00  0.00    -0.157 OA 
HETATM   13  O   UNL     1     -10.730   5.214  71.793  1.00  0.00    -0.208 OA 
ENDROOT
BRANCH   3  14
HETATM   14  S   UNL     1     -10.255  11.453  66.084  1.00  0.00    -0.247 SA 
BRANCH  14  15
HETATM   15  C   UNL     1     -11.593  12.596  66.142  1.00  0.00    -0.393 C  
HETATM   16  O   UNL     1     -12.538  12.519  65.367  1.00  0.00    -0.656 OA 
BRANCH  15  17
HETATM   17  C   UNL     1     -11.533  13.637  67.210  1.00  0.00    -0.370 A  
HETATM   18  C   UNL     1     -10.957  14.899  66.996  1.00  0.00    -0.327 A  
HETATM   19  C   UNL     1     -10.910  15.839  68.026  1.00  0.00    -0.309 A  
HETATM   20  C   UNL     1     -11.446  15.531  69.274  1.00  0.00    -0.349 A  
HETATM   21  C   UNL     1     -12.081  13.341  68.465  1.00  0.00    -0.256 A  
HETATM   22  C   UNL     1     -12.032  14.284  69.495  1.00  0.00    -0.384 A  
ENDBRANCH  15  17
ENDBRANCH  14  15
ENDBRANCH   3  14
BRANCH  10  23
HETATM   23  S   UNL     1      -8.359   4.559  66.869  1.00  0.00    -0.105 SA 
BRANCH  23  24
HETATM   24  C   UNL     1      -9.166   3.694  65.531  1.00  0.00    -0.155 A  
HETATM   25  C   UNL     1      -8.839   2.387  65.156  1.00  0.00    -0.120 A  
HETATM   26  C   UNL     1     -10.556   2.418  63.451  1.00  0.00    -0.200 A  
HETATM   27  C   UNL     1      -9.525   1.755  64.114  1.00  0.00    -0.128 A  
HETATM   28  C   UNL     1     -10.905   3.711  63.829  1.00  0.00    -0.213 A  
HETATM   29  C   UNL     1     -10.216   4.344  64.867  1.00  0.00    -0.129 A  
ENDBRANCH  23  24
ENDBRANCH  10  23
TORSDOF 5
ENDMDL
MODEL      148
REMARK 921   NORMALIZED FREE ENERGY PREDICTED BY IDOCK:   -4.89 KCAL/MOL
REMARK 922        TOTAL FREE ENERGY PREDICTED BY IDOCK:   -7.48 KCAL/MOL
REMARK 923 INTER-LIGAND FREE ENERGY PREDICTED BY IDOCK:   -6.56 KCAL/MOL
REMARK 924 INTRA-LIGAND FREE ENERGY PREDICTED BY IDOCK:   -0.93 KCAL/MOL
REMARK 927      BINDING AFFINITY PREDICTED BY RF-SCORE:    0.00 PKD
ROOT
HETATM    1  C   UNL     1     -12.127  13.470  69.527  1.00  0.00    -0.352 C  
HETATM    2  C   UNL     1     -11.417  12.634  68.455  1.00  0.00    -0.349 C  
HETATM    3  C   UNL     1     -12.060  12.747  67.065  1.00  0.00    -0.182 C  
HETATM    4  C   UNL     1     -11.449  11.164  68.851  1.00  0.00    -0.295 C  
HETATM    5  O   UNL     1     -12.435  10.668  69.394  1.00  0.00    -0.297 OA 
HETATM    6  C   UNL     1     -10.365   8.414  70.231  1.00  0.00    -0.205 C  
HETATM    7  N   UNL     1     -10.339  10.384  68.612  1.00  0.00    -0.174 N  
HETATM    8  C   UNL     1      -9.082  10.786  67.997  1.00  0.00    -0.150 C  
HETATM    9  C   UNL     1     -10.391   8.918  68.780  1.00  0.00    -0.211 C  
HETATM   10  C   UNL     1      -8.611   9.551  67.230  1.00  0.00    -0.128 C  
HETATM   11  C   UNL     1      -9.138   8.385  68.065  1.00  0.00    -0.140 C  
HETATM   12  O   UNL     1     -10.334   9.381  71.174  1.00  0.00    -0.301 OA 
HETATM   13  O   UNL     1     -10.332   7.225  70.530  1.00  0.00    -0.203 OA 
ENDROOT
BRANCH   3  14
HETATM   14  S   UNL     1     -12.053  14.465  66.485  1.00  0.00    -0.302 SA 
BRANCH  14  15
HETATM   15  C   UNL     1     -10.330  14.826  66.513  1.00  0.00    -0.286 C  
HETATM   16  O   UNL     1      -9.495  14.002  66.162  1.00  0.00    -0.263 OA 
BRANCH  15  17
HETATM   17  C   UNL     1      -9.946  16.200  66.950  1.00  0.00    -0.258 A  
HETATM   18  C   UNL     1      -8.892  16.910  66.354  1.00  0.00    -0.322 A  
HETATM   19  C   UNL     1      -8.558  18.190  66.802  1.00  0.00    -0.272 A  
HETATM   20  C   UNL     1      -9.279  18.773  67.840  1.00  0.00    -0.324 A  
HETATM   21  C   UNL     1     -10.674  16.801  67.986  1.00  0.00    -0.355 A  
HETATM   22  C   UNL     1     -10.336  18.082  68.432  1.00  0.00    -0.377 A  
ENDBRANCH  15  17
ENDBRANCH  14  15
ENDBRANCH   3  14
BRANCH  10  23
HETATM   23  S   UNL     1      -6.792   9.591  67.041  1.00  0.00    -0.085 SA 
BRANCH  23  24
HETATM   24  C   UNL     1      -6.566   9.727  65.275  1.00  0.00    -0.098 A  
HETATM   25  C   UNL     1      -7.451   9.172  64.345  1.00  0.00    -0.101 A  
HETATM   26  C   UNL     1      -6.137  10.067  62.520  1.00  0.00    -0.115 A  
HETATM   27  C   UNL     1      -7.232   9.334  62.973  1.00  0.00    -0.098 A  
HETATM   28  C   UNL     1      -5.262  10.642  63.437  1.00  0.00    -0.174 A  
HETATM   29  C   UNL     1      -5.478  10.476  64.807  1.00  0.00    -0.140 A  
ENDBRANCH  23  24
ENDBRANCH  10  23
TORSDOF 5
ENDMDL
MODEL      149
REMARK 921   NORMALIZED FREE ENERGY PREDICTED BY IDOCK:   -4.88 KCAL/MOL
REMARK 922        TOTAL FREE ENERGY PREDICTED BY IDOCK:   -7.48 KCAL/MOL
REMARK 923 INTER-LIGAND FREE ENERGY PREDICTED BY IDOCK:   -6.63 KCAL/MOL
REMARK 924 INTRA-LIGAND FREE ENERGY PREDICTED BY IDOCK:   -0.85 KCAL/MOL
REMARK 927      BINDING AFFINITY PREDICTED BY RF-SCORE:    0.00 PKD
ROOT
HETATM    1  C   UNL     1      -9.716   6.476  68.601  1.00  0.00    -0.128 C  
HETATM    2  C   UNL     1      -9.544   7.996  68.497  1.00  0.00    -0.159 C  
HETATM    3  C   UNL     1      -8.078   8.450  68.529  1.00  0.00    -0.123 C  
HETATM    4  C   UNL     1     -10.255   8.671  69.662  1.00  0.00    -0.208 C  
HETATM    5  O   UNL     1     -10.247   8.177  70.789  1.00  0.00    -0.192 OA 
HETATM    6  C   UNL     1     -12.729  10.103  71.232  1.00  0.00    -0.407 C  
HETATM    7  N   UNL     1     -10.934   9.848  69.439  1.00  0.00    -0.236 N  
HETATM    8  C   UNL     1     -11.069  10.576  68.185  1.00  0.00    -0.287 C  
HETATM    9  C   UNL     1     -11.457  10.648  70.565  1.00  0.00    -0.317 C  
HETATM   10  C   UNL     1     -11.109  12.048  68.593  1.00  0.00    -0.250 C  
HETATM   11  C   UNL     1     -11.784  12.025  69.964  1.00  0.00    -0.346 C  
HETATM   12  O   UNL     1     -13.189   8.938  70.726  1.00  0.00     0.093 OA 
HETATM   13  O   UNL     1     -13.321  10.691  72.132  1.00  0.00    -0.444 OA 
ENDROOT
BRANCH   3  14
HETATM   14  S   UNL     1      -7.141   7.718  67.160  1.00  0.00    -0.087 SA 
BRANCH  14  15
HETATM   15  C   UNL     1      -6.778   9.145  66.195  1.00  0.00    -0.074 C  
HETATM   16  O   UNL     1      -5.838   9.882  66.465  1.00  0.00    -0.052 OA 
BRANCH  15  17
HETATM   17  C   UNL     1      -7.653   9.386  65.010  1.00  0.00    -0.109 A  
HETATM   18  C   UNL     1      -8.756  10.253  65.055  1.00  0.00    -0.195 A  
HETATM   19  C   UNL     1      -9.555  10.440  63.926  1.00  0.00    -0.370 A  
HETATM   20  C   UNL     1      -9.255   9.771  62.742  1.00  0.00    -0.247 A  
HETATM   21  C   UNL     1      -7.350   8.728  63.810  1.00  0.00    -0.099 A  
HETATM   22  C   UNL     1      -8.154   8.917  62.683  1.00  0.00    -0.164 A  
ENDBRANCH  15  17
ENDBRANCH  14  15
ENDBRANCH   3  14
BRANCH  10  23
HETATM   23  S   UNL     1     -11.998  13.022  67.324  1.00  0.00    -0.255 SA 
BRANCH  23  24
HETATM   24  C   UNL     1     -11.302  14.657  67.501  1.00  0.00    -0.348 A  
HETATM   25  C   UNL     1     -10.754  15.375  66.434  1.00  0.00    -0.311 A  
HETATM   26  C   UNL     1     -10.299  17.250  67.894  1.00  0.00    -0.360 A  
HETATM   27  C   UNL     1     -10.246  16.663  66.632  1.00  0.00    -0.304 A  
HETATM   28  C   UNL     1     -10.862  16.553  68.959  1.00  0.00    -0.329 A  
HETATM   29  C   UNL     1     -11.365  15.265  68.762  1.00  0.00    -0.318 A  
ENDBRANCH  23  24
ENDBRANCH  10  23
TORSDOF 5
ENDMDL
MODEL      150
REMARK 921   NORMALIZED FREE ENERGY PREDICTED BY IDOCK:   -4.88 KCAL/MOL
REMARK 922        TOTAL FREE ENERGY PREDICTED BY IDOCK:   -7.47 KCAL/MOL
REMARK 923 INTER-LIGAND FREE ENERGY PREDICTED BY IDOCK:   -6.80 KCAL/MOL
REMARK 924 INTRA-LIGAND FREE ENERGY PREDICTED BY IDOCK:   -0.67 KCAL/MOL
REMARK 927      BINDING AFFINITY PREDICTED BY RF-SCORE:    0.00 PKD
ROOT
HETATM    1  C   UNL     1     -10.833  11.476  66.314  1.00  0.00    -0.333 C  
HETATM    2  C   UNL     1     -10.515  11.041  67.749  1.00  0.00    -0.232 C  
HETATM    3  C   UNL     1     -10.300  12.218  68.712  1.00  0.00    -0.135 C  
HETATM    4  C   UNL     1      -9.241  10.208  67.760  1.00  0.00    -0.137 C  
HETATM    5  O   UNL     1      -8.291  10.483  67.027  1.00  0.00    -0.125 OA 
HETATM    6  C   UNL     1      -7.445   7.487  67.643  1.00  0.00    -0.104 C  
HETATM    7  N   UNL     1      -9.165   9.113  68.592  1.00  0.00    -0.136 N  
HETATM    8  C   UNL     1     -10.180   8.622  69.514  1.00  0.00    -0.209 C  
HETATM    9  C   UNL     1      -7.887   8.402  68.796  1.00  0.00    -0.115 C  
HETATM   10  C   UNL     1      -9.390   8.046  70.690  1.00  0.00    -0.158 C  
HETATM   11  C   UNL     1      -8.106   7.529  70.043  1.00  0.00    -0.127 C  
HETATM   12  O   UNL     1      -8.266   7.478  66.570  1.00  0.00    -0.115 OA 
HETATM   13  O   UNL     1      -6.445   6.778  67.693  1.00  0.00    -0.045 OA 
ENDROOT
BRANCH   3  14
HETATM   14  S   UNL     1     -11.776  13.268  68.794  1.00  0.00    -0.342 SA 
BRANCH  14  15
HETATM   15  C   UNL     1     -12.337  12.939  70.430  1.00  0.00    -0.258 C  
HETATM   16  O   UNL     1     -12.687  11.818  70.777  1.00  0.00    -0.262 OA 
BRANCH  15  17
HETATM   17  C   UNL     1     -12.326  14.090  71.380  1.00  0.00    -0.410 A  
HETATM   18  C   UNL     1     -12.755  13.970  72.711  1.00  0.00    -0.307 A  
HETATM   19  C   UNL     1     -12.739  15.076  73.562  1.00  0.00    -0.667 A  
HETATM   20  C   UNL     1     -12.286  16.307  73.095  1.00  0.00    -0.598 A  
HETATM   21  C   UNL     1     -11.860  15.331  70.922  1.00  0.00    -0.387 A  
HETATM   22  C   UNL     1     -11.846  16.436  71.778  1.00  0.00    -0.388 A  
ENDBRANCH  15  17
ENDBRANCH  14  15
ENDBRANCH   3  14
BRANCH  10  23
HETATM   23  S   UNL     1     -10.384   6.766  71.538  1.00  0.00    -0.208 SA 
BRANCH  23  24
HETATM   24  C   UNL     1      -9.777   5.242  70.832  1.00  0.00    -0.184 A  
HETATM   25  C   UNL     1      -8.991   4.329  71.541  1.00  0.00    -0.161 A  
HETATM   26  C   UNL     1      -8.940   2.846  69.629  1.00  0.00    -0.170 A  
HETATM   27  C   UNL     1      -8.566   3.141  70.939  1.00  0.00    -0.114 A  
HETATM   28  C   UNL     1      -9.741   3.737  68.921  1.00  0.00    -0.091 A  
HETATM   29  C   UNL     1     -10.160   4.927  69.521  1.00  0.00    -0.286 A  
ENDBRANCH  23  24
ENDBRANCH  10  23
TORSDOF 5
ENDMDL
MODEL      151
REMARK 921   NORMALIZED FREE ENERGY PREDICTED BY IDOCK:   -4.87 KCAL/MOL
REMARK 922        TOTAL FREE ENERGY PREDICTED BY IDOCK:   -7.46 KCAL/MOL
REMARK 923 INTER-LIGAND FREE ENERGY PREDICTED BY IDOCK:   -7.07 KCAL/MOL
REMARK 924 INTRA-LIGAND FREE ENERGY PREDICTED BY IDOCK:   -0.39 KCAL/MOL
REMARK 927      BINDING AFFINITY PREDICTED BY RF-SCORE:    0.00 PKD
ROOT
HETATM    1  C   UNL     1      -8.265   8.889  68.682  1.00  0.00    -0.116 C  
HETATM    2  C   UNL     1      -9.564   9.586  68.262  1.00  0.00    -0.151 C  
HETATM    3  C   UNL     1     -10.828   8.916  68.821  1.00  0.00    -0.002 C  
HETATM    4  C   UNL     1      -9.680   9.577  66.743  1.00  0.00    -0.197 C  
HETATM    5  O   UNL     1      -9.318   8.606  66.080  1.00  0.00    -0.212 OA 
HETATM    6  C   UNL     1      -9.309  10.715  63.709  1.00  0.00    -0.271 C  
HETATM    7  N   UNL     1     -10.181  10.690  66.105  1.00  0.00    -0.247 N  
HETATM    8  C   UNL     1     -10.645  11.931  66.709  1.00  0.00    -0.229 C  
HETATM    9  C   UNL     1     -10.509  10.656  64.666  1.00  0.00    -0.205 C  
HETATM   10  C   UNL     1     -11.786  12.399  65.807  1.00  0.00    -0.406 C  
HETATM   11  C   UNL     1     -11.379  11.901  64.421  1.00  0.00    -0.395 C  
HETATM   12  O   UNL     1      -8.098  10.754  64.308  1.00  0.00    -0.011 OA 
HETATM   13  O   UNL     1      -9.423  10.766  62.489  1.00  0.00    -0.275 OA 
ENDROOT
BRANCH   3  14
HETATM   14  S   UNL     1     -10.803   8.895  70.633  1.00  0.00    -0.253 SA 
BRANCH  14  15
HETATM   15  C   UNL     1     -11.271   7.229  70.960  1.00  0.00    -0.266 C  
HETATM   16  O   UNL     1     -12.101   6.647  70.273  1.00  0.00    -0.350 OA 
BRANCH  15  17
HETATM   17  C   UNL     1     -10.575   6.554  72.095  1.00  0.00    -0.240 A  
HETATM   18  C   UNL     1      -9.900   5.332  71.941  1.00  0.00    -0.227 A  
HETATM   19  C   UNL     1      -9.272   4.729  73.032  1.00  0.00    -0.130 A  
HETATM   20  C   UNL     1      -9.304   5.344  74.281  1.00  0.00    -0.132 A  
HETATM   21  C   UNL     1     -10.591   7.171  73.353  1.00  0.00    -0.424 A  
HETATM   22  C   UNL     1      -9.961   6.564  74.442  1.00  0.00    -0.374 A  
ENDBRANCH  15  17
ENDBRANCH  14  15
ENDBRANCH   3  14
BRANCH  10  23
HETATM   23  S   UNL     1     -11.977  14.214  65.936  1.00  0.00    -0.418 SA 
BRANCH  23  24
HETATM   24  C   UNL     1     -10.542  14.711  66.875  1.00  0.00    -0.281 A  
HETATM   25  C   UNL     1      -9.305  14.996  66.290  1.00  0.00    -0.341 A  
HETATM   26  C   UNL     1      -8.376  15.547  68.456  1.00  0.00    -0.161 A  
HETATM   27  C   UNL     1      -8.224  15.404  67.078  1.00  0.00    -0.270 A  
HETATM   28  C   UNL     1      -9.609  15.287  69.047  1.00  0.00    -0.237 A  
HETATM   29  C   UNL     1     -10.687  14.875  68.260  1.00  0.00    -0.249 A  
ENDBRANCH  23  24
ENDBRANCH  10  23
TORSDOF 5
ENDMDL
MODEL      152
REMARK 921   NORMALIZED FREE ENERGY PREDICTED BY IDOCK:   -4.86 KCAL/MOL
REMARK 922        TOTAL FREE ENERGY PREDICTED BY IDOCK:   -7.44 KCAL/MOL
REMARK 923 INTER-LIGAND FREE ENERGY PREDICTED BY IDOCK:   -6.82 KCAL/MOL
REMARK 924 INTRA-LIGAND FREE ENERGY PREDICTED BY IDOCK:   -0.62 KCAL/MOL
REMARK 927      BINDING AFFINITY PREDICTED BY RF-SCORE:    0.00 PKD
ROOT
HETATM    1  C   UNL     1     -12.246  15.295  68.836  1.00  0.00    -0.132 C  
HETATM    2  C   UNL     1     -10.810  15.067  68.348  1.00  0.00    -0.256 C  
HETATM    3  C   UNL     1     -10.214  16.276  67.612  1.00  0.00    -0.272 C  
HETATM    4  C   UNL     1     -10.780  13.889  67.384  1.00  0.00    -0.272 C  
HETATM    5  O   UNL     1     -11.689  13.699  66.577  1.00  0.00    -0.345 OA 
HETATM    6  C   UNL     1     -10.477  10.769  66.483  1.00  0.00    -0.240 C  
HETATM    7  N   UNL     1      -9.721  13.010  67.436  1.00  0.00    -0.208 N  
HETATM    8  C   UNL     1      -8.566  13.056  68.323  1.00  0.00    -0.167 C  
HETATM    9  C   UNL     1      -9.537  11.981  66.394  1.00  0.00    -0.228 C  
HETATM   10  C   UNL     1      -7.414  12.497  67.489  1.00  0.00    -0.151 C  
HETATM   11  C   UNL     1      -8.093  11.481  66.571  1.00  0.00    -0.112 C  
HETATM   12  O   UNL     1     -11.380  10.816  67.487  1.00  0.00    -0.408 OA 
HETATM   13  O   UNL     1     -10.400   9.801  65.733  1.00  0.00    -0.209 OA 
ENDROOT
BRANCH   3  14
HETATM   14  S   UNL     1     -10.181  17.737  68.685  1.00  0.00    -0.358 SA 
BRANCH  14  15
HETATM   15  C   UNL     1      -9.613  18.970  67.563  1.00  0.00    -0.305 C  
HETATM   16  O   UNL     1     -10.278  19.312  66.593  1.00  0.00    -0.355 OA 
BRANCH  15  17
HETATM   17  C   UNL     1      -8.298  19.601  67.879  1.00  0.00    -0.349 A  
HETATM   18  C   UNL     1      -7.640  19.392  69.101  1.00  0.00    -0.316 A  
HETATM   19  C   UNL     1      -6.416  20.012  69.360  1.00  0.00    -0.365 A  
HETATM   20  C   UNL     1      -5.837  20.837  68.400  1.00  0.00    -0.377 A  
HETATM   21  C   UNL     1      -7.701  20.423  66.914  1.00  0.00    -0.346 A  
HETATM   22  C   UNL     1      -6.477  21.043  67.178  1.00  0.00    -0.411 A  
ENDBRANCH  15  17
ENDBRANCH  14  15
ENDBRANCH   3  14
BRANCH  10  23
HETATM   23  S   UNL     1      -6.136  11.790  68.591  1.00  0.00    -0.054 SA 
BRANCH  23  24
HETATM   24  C   UNL     1      -6.786  10.175  68.989  1.00  0.00    -0.056 A  
HETATM   25  C   UNL     1      -7.847   9.975  69.877  1.00  0.00    -0.185 A  
HETATM   26  C   UNL     1      -7.763   7.588  69.483  1.00  0.00    -0.104 A  
HETATM   27  C   UNL     1      -8.328   8.686  70.130  1.00  0.00    -0.126 A  
HETATM   28  C   UNL     1      -6.720   7.778  68.581  1.00  0.00    -0.058 A  
HETATM   29  C   UNL     1      -6.237   9.065  68.333  1.00  0.00    -0.054 A  
ENDBRANCH  23  24
ENDBRANCH  10  23
TORSDOF 5
ENDMDL
MODEL      153
REMARK 921   NORMALIZED FREE ENERGY PREDICTED BY IDOCK:   -4.86 KCAL/MOL
REMARK 922        TOTAL FREE ENERGY PREDICTED BY IDOCK:   -7.44 KCAL/MOL
REMARK 923 INTER-LIGAND FREE ENERGY PREDICTED BY IDOCK:   -6.37 KCAL/MOL
REMARK 924 INTRA-LIGAND FREE ENERGY PREDICTED BY IDOCK:   -1.07 KCAL/MOL
REMARK 927      BINDING AFFINITY PREDICTED BY RF-SCORE:    0.00 PKD
ROOT
HETATM    1  C   UNL     1     -10.099  13.797  63.876  1.00  0.00     1.499 C  
HETATM    2  C   UNL     1     -10.824  14.245  65.150  1.00  0.00    -0.387 C  
HETATM    3  C   UNL     1     -12.323  13.910  65.152  1.00  0.00    -0.449 C  
HETATM    4  C   UNL     1     -10.697  15.755  65.306  1.00  0.00    -0.428 C  
HETATM    5  O   UNL     1     -10.748  16.505  64.331  1.00  0.00    -0.653 OA 
HETATM    6  C   UNL     1      -9.370  18.556  66.321  1.00  0.00    -0.237 C  
HETATM    7  N   UNL     1     -10.500  16.283  66.562  1.00  0.00    -0.303 N  
HETATM    8  C   UNL     1     -10.399  15.565  67.825  1.00  0.00    -0.263 C  
HETATM    9  C   UNL     1     -10.581  17.739  66.795  1.00  0.00    -0.233 C  
HETATM   10  C   UNL     1     -11.024  16.504  68.857  1.00  0.00    -0.325 C  
HETATM   11  C   UNL     1     -10.699  17.897  68.320  1.00  0.00    -0.233 C  
HETATM   12  O   UNL     1      -8.396  17.840  65.717  1.00  0.00    -0.529 OA 
HETATM   13  O   UNL     1      -9.259  19.763  66.507  1.00  0.00    -0.344 OA 
ENDROOT
BRANCH   3  14
HETATM   14  S   UNL     1     -12.588  12.123  64.995  1.00  0.00     0.391 SA 
BRANCH  14  15
HETATM   15  C   UNL     1     -11.849  11.538  66.482  1.00  0.00     0.377 C  
HETATM   16  O   UNL     1     -12.161  11.990  67.577  1.00  0.00    -0.555 OA 
BRANCH  15  17
HETATM   17  C   UNL     1     -10.852  10.436  66.340  1.00  0.00    -0.057 A  
HETATM   18  C   UNL     1     -10.005  10.329  65.226  1.00  0.00    -0.387 A  
HETATM   19  C   UNL     1      -9.095   9.275  65.127  1.00  0.00    -0.263 A  
HETATM   20  C   UNL     1      -9.016   8.326  66.143  1.00  0.00    -0.222 A  
HETATM   21  C   UNL     1     -10.756   9.484  67.364  1.00  0.00    -0.297 A  
HETATM   22  C   UNL     1      -9.845   8.430  67.261  1.00  0.00    -0.264 A  
ENDBRANCH  15  17
ENDBRANCH  14  15
ENDBRANCH   3  14
BRANCH  10  23
HETATM   23  S   UNL     1     -10.340  16.149  70.516  1.00  0.00     0.590 SA 
BRANCH  23  24
HETATM   24  C   UNL     1     -11.785  15.715  71.471  1.00  0.00    -0.433 A  
HETATM   25  C   UNL     1     -11.817  15.745  72.868  1.00  0.00    -0.568 A  
HETATM   26  C   UNL     1     -14.142  15.073  72.857  1.00  0.00    -0.013 A  
HETATM   27  C   UNL     1     -12.988  15.416  73.559  1.00  0.00    -0.659 A  
HETATM   28  C   UNL     1     -14.128  15.061  71.465  1.00  0.00    -0.613 A  
HETATM   29  C   UNL     1     -12.957  15.384  70.776  1.00  0.00    -0.510 A  
ENDBRANCH  23  24
ENDBRANCH  10  23
TORSDOF 5
ENDMDL
MODEL      154
REMARK 921   NORMALIZED FREE ENERGY PREDICTED BY IDOCK:   -4.85 KCAL/MOL
REMARK 922        TOTAL FREE ENERGY PREDICTED BY IDOCK:   -7.44 KCAL/MOL
REMARK 923 INTER-LIGAND FREE ENERGY PREDICTED BY IDOCK:   -6.70 KCAL/MOL
REMARK 924 INTRA-LIGAND FREE ENERGY PREDICTED BY IDOCK:   -0.74 KCAL/MOL
REMARK 927      BINDING AFFINITY PREDICTED BY RF-SCORE:    0.00 PKD
ROOT
HETATM    1  C   UNL     1      -9.115   6.535  71.412  1.00  0.00    -0.148 C  
HETATM    2  C   UNL     1      -9.851   7.468  70.444  1.00  0.00    -0.183 C  
HETATM    3  C   UNL     1     -11.361   7.559  70.708  1.00  0.00    -0.280 C  
HETATM    4  C   UNL     1      -9.670   6.969  69.016  1.00  0.00    -0.145 C  
HETATM    5  O   UNL     1      -9.670   5.767  68.754  1.00  0.00    -0.122 OA 
HETATM    6  C   UNL     1      -8.259   6.739  66.085  1.00  0.00    -0.124 C  
HETATM    7  N   UNL     1      -9.481   7.886  68.006  1.00  0.00    -0.148 N  
HETATM    8  C   UNL     1      -9.435   9.338  68.117  1.00  0.00    -0.138 C  
HETATM    9  C   UNL     1      -9.511   7.472  66.590  1.00  0.00    -0.191 C  
HETATM   10  C   UNL     1     -10.047   9.846  66.812  1.00  0.00    -0.230 C  
HETATM   11  C   UNL     1      -9.657   8.778  65.791  1.00  0.00    -0.190 C  
HETATM   12  O   UNL     1      -7.299   6.534  67.014  1.00  0.00    -0.076 OA 
HETATM   13  O   UNL     1      -8.106   6.396  64.917  1.00  0.00    -0.121 OA 
ENDROOT
BRANCH   3  14
HETATM   14  S   UNL     1     -11.691   8.170  72.383  1.00  0.00    -0.391 SA 
BRANCH  14  15
HETATM   15  C   UNL     1     -13.107   9.179  72.104  1.00  0.00    -0.446 C  
HETATM   16  O   UNL     1     -14.230   8.813  72.426  1.00  0.00    -0.458 OA 
BRANCH  15  17
HETATM   17  C   UNL     1     -12.859  10.517  71.491  1.00  0.00    -0.568 A  
HETATM   18  C   UNL     1     -13.327  11.706  72.071  1.00  0.00    -0.405 A  
HETATM   19  C   UNL     1     -13.083  12.936  71.457  1.00  0.00    -0.390 A  
HETATM   20  C   UNL     1     -12.363  12.989  70.266  1.00  0.00    -0.311 A  
HETATM   21  C   UNL     1     -12.124  10.581  70.299  1.00  0.00    -0.402 A  
HETATM   22  C   UNL     1     -11.883  11.814  69.687  1.00  0.00    -0.407 A  
ENDBRANCH  15  17
ENDBRANCH  14  15
ENDBRANCH   3  14
BRANCH  10  23
HETATM   23  S   UNL     1      -9.413  11.522  66.440  1.00  0.00    -0.218 SA 
BRANCH  23  24
HETATM   24  C   UNL     1      -7.809  11.537  67.225  1.00  0.00    -0.153 A  
HETATM   25  C   UNL     1      -6.672  10.957  66.654  1.00  0.00    -0.127 A  
HETATM   26  C   UNL     1      -5.327  11.685  68.530  1.00  0.00    -0.042 A  
HETATM   27  C   UNL     1      -5.438  11.024  67.308  1.00  0.00    -0.047 A  
HETATM   28  C   UNL     1      -6.448  12.284  69.097  1.00  0.00    -0.100 A  
HETATM   29  C   UNL     1      -7.681  12.214  68.445  1.00  0.00    -0.134 A  
ENDBRANCH  23  24
ENDBRANCH  10  23
TORSDOF 5
ENDMDL
MODEL      155
REMARK 921   NORMALIZED FREE ENERGY PREDICTED BY IDOCK:   -4.83 KCAL/MOL
REMARK 922        TOTAL FREE ENERGY PREDICTED BY IDOCK:   -7.41 KCAL/MOL
REMARK 923 INTER-LIGAND FREE ENERGY PREDICTED BY IDOCK:   -6.67 KCAL/MOL
REMARK 924 INTRA-LIGAND FREE ENERGY PREDICTED BY IDOCK:   -0.73 KCAL/MOL
REMARK 927      BINDING AFFINITY PREDICTED BY RF-SCORE:    0.00 PKD
ROOT
HETATM    1  C   UNL     1     -12.308  13.936  66.545  1.00  0.00    -0.447 C  
HETATM    2  C   UNL     1     -10.997  14.142  67.312  1.00  0.00    -0.304 C  
HETATM    3  C   UNL     1     -10.790  13.136  68.454  1.00  0.00    -0.262 C  
HETATM    4  C   UNL     1     -10.977  15.535  67.925  1.00  0.00    -0.316 C  
HETATM    5  O   UNL     1     -11.995  16.040  68.399  1.00  0.00    -0.220 OA 
HETATM    6  C   UNL     1     -10.352  18.733  68.065  1.00  0.00    -0.387 C  
HETATM    7  N   UNL     1      -9.799  16.248  67.928  1.00  0.00    -0.234 N  
HETATM    8  C   UNL     1      -8.504  15.832  67.408  1.00  0.00    -0.171 C  
HETATM    9  C   UNL     1      -9.675  17.505  68.692  1.00  0.00    -0.319 C  
HETATM   10  C   UNL     1      -7.483  16.482  68.342  1.00  0.00    -0.186 C  
HETATM   11  C   UNL     1      -8.163  17.781  68.772  1.00  0.00    -0.229 C  
HETATM   12  O   UNL     1     -11.010  18.499  66.908  1.00  0.00    -0.254 OA 
HETATM   13  O   UNL     1     -10.277  19.860  68.544  1.00  0.00    -0.442 OA 
ENDROOT
BRANCH   3  14
HETATM   14  S   UNL     1     -10.772  11.435  67.825  1.00  0.00    -0.226 SA 
BRANCH  14  15
HETATM   15  C   UNL     1      -9.883  10.611  69.102  1.00  0.00    -0.200 C  
HETATM   16  O   UNL     1     -10.423  10.272  70.147  1.00  0.00    -0.271 OA 
BRANCH  15  17
HETATM   17  C   UNL     1      -8.446  10.313  68.825  1.00  0.00    -0.130 A  
HETATM   18  C   UNL     1      -7.474  10.301  69.837  1.00  0.00    -0.165 A  
HETATM   19  C   UNL     1      -6.139  10.029  69.532  1.00  0.00    -0.042 A  
HETATM   20  C   UNL     1      -5.766   9.759  68.218  1.00  0.00    -0.043 A  
HETATM   21  C   UNL     1      -8.064  10.026  67.507  1.00  0.00    -0.110 A  
HETATM   22  C   UNL     1      -6.727   9.756  67.206  1.00  0.00    -0.074 A  
ENDBRANCH  15  17
ENDBRANCH  14  15
ENDBRANCH   3  14
BRANCH  10  23
HETATM   23  S   UNL     1      -5.894  16.710  67.464  1.00  0.00    -0.166 SA 
BRANCH  23  24
HETATM   24  C   UNL     1      -5.989  18.394  66.878  1.00  0.00    -0.149 A  
HETATM   25  C   UNL     1      -6.783  18.785  65.795  1.00  0.00    -0.306 A  
HETATM   26  C   UNL     1      -6.104  21.088  66.092  1.00  0.00    -0.310 A  
HETATM   27  C   UNL     1      -6.833  20.125  65.399  1.00  0.00    -0.338 A  
HETATM   28  C   UNL     1      -5.326  20.714  67.185  1.00  0.00    -0.212 A  
HETATM   29  C   UNL     1      -5.272  19.375  67.577  1.00  0.00    -0.164 A  
ENDBRANCH  23  24
ENDBRANCH  10  23
TORSDOF 5
ENDMDL
MODEL      156
REMARK 921   NORMALIZED FREE ENERGY PREDICTED BY IDOCK:   -4.82 KCAL/MOL
REMARK 922        TOTAL FREE ENERGY PREDICTED BY IDOCK:   -7.39 KCAL/MOL
REMARK 923 INTER-LIGAND FREE ENERGY PREDICTED BY IDOCK:   -6.81 KCAL/MOL
REMARK 924 INTRA-LIGAND FREE ENERGY PREDICTED BY IDOCK:   -0.58 KCAL/MOL
REMARK 927      BINDING AFFINITY PREDICTED BY RF-SCORE:    0.00 PKD
ROOT
HETATM    1  C   UNL     1     -10.430  13.161  68.771  1.00  0.00    -0.187 C  
HETATM    2  C   UNL     1      -9.654  12.534  67.607  1.00  0.00    -0.190 C  
HETATM    3  C   UNL     1      -9.639  13.404  66.342  1.00  0.00    -0.257 C  
HETATM    4  C   UNL     1     -10.286  11.200  67.233  1.00  0.00    -0.208 C  
HETATM    5  O   UNL     1     -11.507  11.043  67.250  1.00  0.00    -0.470 OA 
HETATM    6  C   UNL     1     -10.724   7.969  67.319  1.00  0.00    -0.210 C  
HETATM    7  N   UNL     1      -9.469  10.146  66.889  1.00  0.00    -0.165 N  
HETATM    8  C   UNL     1      -8.014  10.131  66.823  1.00  0.00    -0.115 C  
HETATM    9  C   UNL     1     -10.029   8.905  66.319  1.00  0.00    -0.266 C  
HETATM   10  C   UNL     1      -7.687   9.174  65.676  1.00  0.00    -0.094 C  
HETATM   11  C   UNL     1      -8.827   8.157  65.719  1.00  0.00    -0.173 C  
HETATM   12  O   UNL     1     -10.766   8.418  68.593  1.00  0.00    -0.155 OA 
HETATM   13  O   UNL     1     -11.176   6.871  67.010  1.00  0.00    -0.369 OA 
ENDROOT
BRANCH   3  14
HETATM   14  S   UNL     1      -8.880  15.017  66.672  1.00  0.00    -0.247 SA 
BRANCH  14  15
HETATM   15  C   UNL     1     -10.170  16.107  66.175  1.00  0.00    -0.336 C  
HETATM   16  O   UNL     1     -11.058  15.748  65.412  1.00  0.00    -0.303 OA 
BRANCH  15  17
HETATM   17  C   UNL     1     -10.145  17.479  66.764  1.00  0.00    -0.320 A  
HETATM   18  C   UNL     1      -9.753  17.719  68.091  1.00  0.00    -0.313 A  
HETATM   19  C   UNL     1      -9.756  19.016  68.605  1.00  0.00    -0.468 A  
HETATM   20  C   UNL     1     -10.139  20.084  67.798  1.00  0.00    -0.563 A  
HETATM   21  C   UNL     1     -10.516  18.561  65.956  1.00  0.00    -0.433 A  
HETATM   22  C   UNL     1     -10.518  19.859  66.475  1.00  0.00    -0.589 A  
ENDBRANCH  15  17
ENDBRANCH  14  15
ENDBRANCH   3  14
BRANCH  10  23
HETATM   23  S   UNL     1      -6.020   8.460  65.919  1.00  0.00    -0.048 SA 
BRANCH  23  24
HETATM   24  C   UNL     1      -6.348   6.951  66.817  1.00  0.00    -0.045 A  
HETATM   25  C   UNL     1      -6.952   6.927  68.077  1.00  0.00    -0.083 A  
HETATM   26  C   UNL     1      -6.872   4.508  68.099  1.00  0.00    -0.055 A  
HETATM   27  C   UNL     1      -7.204   5.710  68.720  1.00  0.00    -0.081 A  
HETATM   28  C   UNL     1      -6.290   4.519  66.834  1.00  0.00    -0.037 A  
HETATM   29  C   UNL     1      -6.034   5.735  66.195  1.00  0.00    -0.025 A  
ENDBRANCH  23  24
ENDBRANCH  10  23
TORSDOF 5
ENDMDL
MODEL      157
REMARK 921   NORMALIZED FREE ENERGY PREDICTED BY IDOCK:   -4.81 KCAL/MOL
REMARK 922        TOTAL FREE ENERGY PREDICTED BY IDOCK:   -7.39 KCAL/MOL
REMARK 923 INTER-LIGAND FREE ENERGY PREDICTED BY IDOCK:   -6.87 KCAL/MOL
REMARK 924 INTRA-LIGAND FREE ENERGY PREDICTED BY IDOCK:   -0.52 KCAL/MOL
REMARK 927      BINDING AFFINITY PREDICTED BY RF-SCORE:    0.00 PKD
ROOT
HETATM    1  C   UNL     1     -10.558   9.356  68.933  1.00  0.00    -0.231 C  
HETATM    2  C   UNL     1     -10.880  10.833  68.679  1.00  0.00    -0.260 C  
HETATM    3  C   UNL     1     -12.203  11.289  69.312  1.00  0.00    -0.222 C  
HETATM    4  C   UNL     1     -10.986  11.081  67.180  1.00  0.00    -0.283 C  
HETATM    5  O   UNL     1     -11.497  10.251  66.429  1.00  0.00     0.329 OA 
HETATM    6  C   UNL     1      -9.928  11.872  64.198  1.00  0.00    -0.262 C  
HETATM    7  N   UNL     1     -10.477  12.250  66.659  1.00  0.00    -0.220 N  
HETATM    8  C   UNL     1      -9.827  13.338  67.377  1.00  0.00    -0.227 C  
HETATM    9  C   UNL     1     -10.738  12.633  65.257  1.00  0.00    -0.289 C  
HETATM   10  C   UNL     1     -10.228  14.600  66.614  1.00  0.00    -0.274 C  
HETATM   11  C   UNL     1     -10.363  14.122  65.169  1.00  0.00    -0.429 C  
HETATM   12  O   UNL     1      -9.101  10.919  64.682  1.00  0.00    -0.200 OA 
HETATM   13  O   UNL     1      -9.982  12.125  62.998  1.00  0.00    -0.352 OA 
ENDROOT
BRANCH   3  14
HETATM   14  S   UNL     1     -12.175  11.058  71.110  1.00  0.00    -0.261 SA 
BRANCH  14  15
HETATM   15  C   UNL     1     -13.153  12.421  71.643  1.00  0.00    -0.307 C  
HETATM   16  O   UNL     1     -14.226  12.260  72.211  1.00  0.00     0.103 OA 
BRANCH  15  17
HETATM   17  C   UNL     1     -12.586  13.781  71.401  1.00  0.00    -0.433 A  
HETATM   18  C   UNL     1     -12.056  14.162  70.158  1.00  0.00    -0.411 A  
HETATM   19  C   UNL     1     -11.525  15.441  69.978  1.00  0.00    -0.335 A  
HETATM   20  C   UNL     1     -11.526  16.350  71.033  1.00  0.00    -0.232 A  
HETATM   21  C   UNL     1     -12.594  14.707  72.453  1.00  0.00    -0.410 A  
HETATM   22  C   UNL     1     -12.060  15.985  72.269  1.00  0.00    -0.617 A  
ENDBRANCH  15  17
ENDBRANCH  14  15
ENDBRANCH   3  14
BRANCH  10  23
HETATM   23  S   UNL     1      -8.972  15.906  66.869  1.00  0.00    -0.253 SA 
BRANCH  23  24
HETATM   24  C   UNL     1      -7.777  15.121  67.938  1.00  0.00    -0.135 A  
HETATM   25  C   UNL     1      -6.817  14.215  67.478  1.00  0.00    -0.151 A  
HETATM   26  C   UNL     1      -5.906  14.003  69.710  1.00  0.00    -0.115 A  
HETATM   27  C   UNL     1      -5.891  13.651  68.362  1.00  0.00    -0.098 A  
HETATM   28  C   UNL     1      -6.844  14.920  70.176  1.00  0.00    -0.072 A  
HETATM   29  C   UNL     1      -7.771  15.479  69.294  1.00  0.00    -0.223 A  
ENDBRANCH  23  24
ENDBRANCH  10  23
TORSDOF 5
ENDMDL
MODEL      158
REMARK 921   NORMALIZED FREE ENERGY PREDICTED BY IDOCK:   -4.79 KCAL/MOL
REMARK 922        TOTAL FREE ENERGY PREDICTED BY IDOCK:   -7.35 KCAL/MOL
REMARK 923 INTER-LIGAND FREE ENERGY PREDICTED BY IDOCK:   -6.60 KCAL/MOL
REMARK 924 INTRA-LIGAND FREE ENERGY PREDICTED BY IDOCK:   -0.75 KCAL/MOL
REMARK 927      BINDING AFFINITY PREDICTED BY RF-SCORE:    0.00 PKD
ROOT
HETATM    1  C   UNL     1     -10.152  10.302  65.285  1.00  0.00    -0.359 C  
HETATM    2  C   UNL     1      -9.224  11.137  66.175  1.00  0.00    -0.216 C  
HETATM    3  C   UNL     1      -8.212  10.295  66.965  1.00  0.00    -0.122 C  
HETATM    4  C   UNL     1     -10.052  11.918  67.186  1.00  0.00    -0.204 C  
HETATM    5  O   UNL     1     -11.049  11.425  67.713  1.00  0.00    -0.227 OA 
HETATM    6  C   UNL     1     -11.739  14.457  68.347  1.00  0.00    -0.332 C  
HETATM    7  N   UNL     1      -9.685  13.209  67.496  1.00  0.00    -0.209 N  
HETATM    8  C   UNL     1      -8.556  13.965  66.972  1.00  0.00    -0.172 C  
HETATM    9  C   UNL     1     -10.321  13.930  68.616  1.00  0.00    -0.237 C  
HETATM   10  C   UNL     1      -8.109  14.851  68.135  1.00  0.00    -0.137 C  
HETATM   11  C   UNL     1      -9.407  15.136  68.890  1.00  0.00    -0.207 C  
HETATM   12  O   UNL     1     -12.240  14.160  67.128  1.00  0.00    -0.421 OA 
HETATM   13  O   UNL     1     -12.369  15.134  69.153  1.00  0.00    -0.180 OA 
ENDROOT
BRANCH   3  14
HETATM   14  S   UNL     1      -7.152   9.337  65.848  1.00  0.00    -0.091 SA 
BRANCH  14  15
HETATM   15  C   UNL     1      -7.709   7.699  66.173  1.00  0.00    -0.089 C  
HETATM   16  O   UNL     1      -7.938   7.311  67.311  1.00  0.00    -0.108 OA 
BRANCH  15  17
HETATM   17  C   UNL     1      -7.925   6.823  64.983  1.00  0.00    -0.125 A  
HETATM   18  C   UNL     1      -7.775   7.292  63.669  1.00  0.00    -0.120 A  
HETATM   19  C   UNL     1      -7.999   6.441  62.585  1.00  0.00    -0.101 A  
HETATM   20  C   UNL     1      -8.363   5.115  62.804  1.00  0.00    -0.107 A  
HETATM   21  C   UNL     1      -8.279   5.483  65.194  1.00  0.00    -0.141 A  
HETATM   22  C   UNL     1      -8.502   4.635  64.106  1.00  0.00    -0.129 A  
ENDBRANCH  15  17
ENDBRANCH  14  15
ENDBRANCH   3  14
BRANCH  10  23
HETATM   23  S   UNL     1      -7.261  16.340  67.491  1.00  0.00    -0.170 SA 
BRANCH  23  24
HETATM   24  C   UNL     1      -8.539  17.587  67.528  1.00  0.00    -0.221 A  
HETATM   25  C   UNL     1      -8.621  18.571  68.518  1.00  0.00    -0.349 A  
HETATM   26  C   UNL     1     -10.560  19.536  67.438  1.00  0.00    -0.607 A  
HETATM   27  C   UNL     1      -9.632  19.536  68.478  1.00  0.00    -0.476 A  
HETATM   28  C   UNL     1     -10.476  18.573  66.435  1.00  0.00    -0.443 A  
HETATM   29  C   UNL     1      -9.468  17.607  66.479  1.00  0.00    -0.294 A  
ENDBRANCH  23  24
ENDBRANCH  10  23
TORSDOF 5
ENDMDL
MODEL      159
REMARK 921   NORMALIZED FREE ENERGY PREDICTED BY IDOCK:   -4.78 KCAL/MOL
REMARK 922        TOTAL FREE ENERGY PREDICTED BY IDOCK:   -7.34 KCAL/MOL
REMARK 923 INTER-LIGAND FREE ENERGY PREDICTED BY IDOCK:   -6.60 KCAL/MOL
REMARK 924 INTRA-LIGAND FREE ENERGY PREDICTED BY IDOCK:   -0.74 KCAL/MOL
REMARK 927      BINDING AFFINITY PREDICTED BY RF-SCORE:    0.00 PKD
ROOT
HETATM    1  C   UNL     1      -6.801   9.769  67.046  1.00  0.00    -0.083 C  
HETATM    2  C   UNL     1      -8.284   9.737  67.434  1.00  0.00    -0.114 C  
HETATM    3  C   UNL     1      -9.074   8.617  66.741  1.00  0.00    -0.149 C  
HETATM    4  C   UNL     1      -8.939  11.057  67.053  1.00  0.00    -0.148 C  
HETATM    5  O   UNL     1      -8.638  11.646  66.015  1.00  0.00    -0.120 OA 
HETATM    6  C   UNL     1      -9.962  14.124  67.488  1.00  0.00    -0.236 C  
HETATM    7  N   UNL     1      -9.872  11.610  67.902  1.00  0.00    -0.179 N  
HETATM    8  C   UNL     1     -10.348  11.077  69.172  1.00  0.00    -0.188 C  
HETATM    9  C   UNL     1     -10.685  12.769  67.486  1.00  0.00    -0.229 C  
HETATM   10  C   UNL     1     -11.813  11.507  69.248  1.00  0.00    -0.348 C  
HETATM   11  C   UNL     1     -11.838  12.840  68.502  1.00  0.00    -0.345 C  
HETATM   12  O   UNL     1      -8.657  14.078  67.838  1.00  0.00    -0.160 OA 
HETATM   13  O   UNL     1     -10.521  15.186  67.235  1.00  0.00    -0.262 OA 
ENDROOT
BRANCH   3  14
HETATM   14  S   UNL     1      -8.387   6.990  67.149  1.00  0.00    -0.122 SA 
BRANCH  14  15
HETATM   15  C   UNL     1      -9.857   6.057  67.412  1.00  0.00    -0.131 C  
HETATM   16  O   UNL     1     -10.936   6.417  66.960  1.00  0.00    -0.365 OA 
BRANCH  15  17
HETATM   17  C   UNL     1      -9.708   4.786  68.181  1.00  0.00    -0.201 A  
HETATM   18  C   UNL     1      -9.861   4.731  69.576  1.00  0.00    -0.292 A  
HETATM   19  C   UNL     1      -9.702   3.523  70.257  1.00  0.00    -0.165 A  
HETATM   20  C   UNL     1      -9.398   2.361  69.552  1.00  0.00    -0.164 A  
HETATM   21  C   UNL     1      -9.416   3.609  67.479  1.00  0.00    -0.237 A  
HETATM   22  C   UNL     1      -9.256   2.402  68.165  1.00  0.00    -0.255 A  
ENDBRANCH  15  17
ENDBRANCH  14  15
ENDBRANCH   3  14
BRANCH  10  23
HETATM   23  S   UNL     1     -12.342  11.604  70.997  1.00  0.00    -0.214 SA 
BRANCH  23  24
HETATM   24  C   UNL     1     -12.396   9.893  71.504  1.00  0.00    -0.412 A  
HETATM   25  C   UNL     1     -13.527   9.085  71.353  1.00  0.00    -0.331 A  
HETATM   26  C   UNL     1     -12.334   7.195  72.282  1.00  0.00    -0.137 A  
HETATM   27  C   UNL     1     -13.498   7.744  71.749  1.00  0.00    -0.373 A  
HETATM   28  C   UNL     1     -11.195   7.984  72.417  1.00  0.00    -0.432 A  
HETATM   29  C   UNL     1     -11.225   9.325  72.026  1.00  0.00    -0.205 A  
ENDBRANCH  23  24
ENDBRANCH  10  23
TORSDOF 5
ENDMDL
MODEL      160
REMARK 921   NORMALIZED FREE ENERGY PREDICTED BY IDOCK:   -4.76 KCAL/MOL
REMARK 922        TOTAL FREE ENERGY PREDICTED BY IDOCK:   -7.32 KCAL/MOL
REMARK 923 INTER-LIGAND FREE ENERGY PREDICTED BY IDOCK:   -6.75 KCAL/MOL
REMARK 924 INTRA-LIGAND FREE ENERGY PREDICTED BY IDOCK:   -0.57 KCAL/MOL
REMARK 927      BINDING AFFINITY PREDICTED BY RF-SCORE:    0.00 PKD
ROOT
HETATM    1  C   UNL     1     -12.125  13.505  69.294  1.00  0.00    -0.335 C  
HETATM    2  C   UNL     1     -10.959  13.439  68.300  1.00  0.00    -0.282 C  
HETATM    3  C   UNL     1     -11.010  14.532  67.223  1.00  0.00    -0.305 C  
HETATM    4  C   UNL     1     -10.975  12.095  67.584  1.00  0.00    -0.243 C  
HETATM    5  O   UNL     1     -12.031  11.558  67.254  1.00  0.00    -0.605 OA 
HETATM    6  C   UNL     1     -10.215   8.962  67.087  1.00  0.00    -0.269 C  
HETATM    7  N   UNL     1      -9.779  11.463  67.323  1.00  0.00    -0.184 N  
HETATM    8  C   UNL     1      -8.436  11.927  67.646  1.00  0.00    -0.156 C  
HETATM    9  C   UNL     1      -9.724  10.272  66.453  1.00  0.00    -0.201 C  
HETATM   10  C   UNL     1      -7.563  11.412  66.503  1.00  0.00    -0.080 C  
HETATM   11  C   UNL     1      -8.238  10.103  66.094  1.00  0.00    -0.125 C  
HETATM   12  O   UNL     1     -10.671   9.073  68.355  1.00  0.00    -0.186 OA 
HETATM   13  O   UNL     1     -10.165   7.878  66.515  1.00  0.00    -0.251 OA 
ENDROOT
BRANCH   3  14
HETATM   14  S   UNL     1     -10.972  16.183  67.971  1.00  0.00    -0.316 SA 
BRANCH  14  15
HETATM   15  C   UNL     1     -10.165  17.109  66.710  1.00  0.00    -0.311 C  
HETATM   16  O   UNL     1     -10.435  16.955  65.526  1.00  0.00    -0.560 OA 
BRANCH  15  17
HETATM   17  C   UNL     1      -9.164  18.119  67.164  1.00  0.00    -0.256 A  
HETATM   18  C   UNL     1      -9.246  19.473  66.802  1.00  0.00    -0.415 A  
HETATM   19  C   UNL     1      -8.280  20.381  67.240  1.00  0.00    -0.390 A  
HETATM   20  C   UNL     1      -7.233  19.948  68.049  1.00  0.00    -0.327 A  
HETATM   21  C   UNL     1      -8.114  17.695  67.990  1.00  0.00    -0.243 A  
HETATM   22  C   UNL     1      -7.149  18.608  68.425  1.00  0.00    -0.291 A  
ENDBRANCH  15  17
ENDBRANCH  14  15
ENDBRANCH   3  14
BRANCH  10  23
HETATM   23  S   UNL     1      -5.834  11.229  67.075  1.00  0.00    -0.107 SA 
BRANCH  23  24
HETATM   24  C   UNL     1      -5.981  10.131  68.475  1.00  0.00    -0.041 A  
HETATM   25  C   UNL     1      -6.073   8.741  68.352  1.00  0.00    -0.050 A  
HETATM   26  C   UNL     1      -6.140   8.504  70.760  1.00  0.00    -0.033 A  
HETATM   27  C   UNL     1      -6.161   7.932  69.489  1.00  0.00    -0.033 A  
HETATM   28  C   UNL     1      -6.027   9.885  70.895  1.00  0.00    -0.088 A  
HETATM   29  C   UNL     1      -5.944  10.693  69.759  1.00  0.00    -0.062 A  
ENDBRANCH  23  24
ENDBRANCH  10  23
TORSDOF 5
ENDMDL
MODEL      161
REMARK 921   NORMALIZED FREE ENERGY PREDICTED BY IDOCK:   -4.75 KCAL/MOL
REMARK 922        TOTAL FREE ENERGY PREDICTED BY IDOCK:   -7.31 KCAL/MOL
REMARK 923 INTER-LIGAND FREE ENERGY PREDICTED BY IDOCK:   -6.26 KCAL/MOL
REMARK 924 INTRA-LIGAND FREE ENERGY PREDICTED BY IDOCK:   -1.04 KCAL/MOL
REMARK 927      BINDING AFFINITY PREDICTED BY RF-SCORE:    0.00 PKD
ROOT
HETATM    1  C   UNL     1     -11.083   9.078  72.048  1.00  0.00    -0.371 C  
HETATM    2  C   UNL     1     -11.376   9.737  70.694  1.00  0.00    -0.401 C  
HETATM    3  C   UNL     1     -12.787  10.337  70.598  1.00  0.00    -0.285 C  
HETATM    4  C   UNL     1     -11.247   8.702  69.584  1.00  0.00     0.079 C  
HETATM    5  O   UNL     1     -11.626   7.542  69.744  1.00  0.00     0.013 OA 
HETATM    6  C   UNL     1      -9.741   6.990  67.252  1.00  0.00    -0.149 C  
HETATM    7  N   UNL     1     -10.674   9.074  68.388  1.00  0.00    -0.149 N  
HETATM    8  C   UNL     1     -10.156  10.383  68.016  1.00  0.00    -0.163 C  
HETATM    9  C   UNL     1     -10.716   8.177  67.216  1.00  0.00    -0.193 C  
HETATM   10  C   UNL     1     -10.445  10.504  66.520  1.00  0.00    -0.212 C  
HETATM   11  C   UNL     1     -10.346   9.065  66.016  1.00  0.00     0.159 C  
HETATM   12  O   UNL     1      -8.992   6.897  68.373  1.00  0.00    -0.123 OA 
HETATM   13  O   UNL     1      -9.609   6.200  66.323  1.00  0.00    -0.152 OA 
ENDROOT
BRANCH   3  14
HETATM   14  S   UNL     1     -13.039  11.606  71.868  1.00  0.00    -0.235 SA 
BRANCH  14  15
HETATM   15  C   UNL     1     -12.683  13.072  70.960  1.00  0.00    -0.262 C  
HETATM   16  O   UNL     1     -12.655  13.079  69.736  1.00  0.00    -0.017 OA 
BRANCH  15  17
HETATM   17  C   UNL     1     -12.457  14.311  71.761  1.00  0.00    -0.396 A  
HETATM   18  C   UNL     1     -12.911  14.444  73.082  1.00  0.00    -0.517 A  
HETATM   19  C   UNL     1     -12.688  15.626  73.791  1.00  0.00    -0.742 A  
HETATM   20  C   UNL     1     -12.002  16.679  73.191  1.00  0.00    -0.366 A  
HETATM   21  C   UNL     1     -11.756  15.371  71.169  1.00  0.00    -0.418 A  
HETATM   22  C   UNL     1     -11.535  16.553  71.882  1.00  0.00    -0.095 A  
ENDBRANCH  15  17
ENDBRANCH  14  15
ENDBRANCH   3  14
BRANCH  10  23
HETATM   23  S   UNL     1      -9.258  11.663  65.749  1.00  0.00    -0.120 SA 
BRANCH  23  24
HETATM   24  C   UNL     1      -8.980  12.877  67.030  1.00  0.00    -0.225 A  
HETATM   25  C   UNL     1      -7.747  13.052  67.664  1.00  0.00    -0.161 A  
HETATM   26  C   UNL     1      -8.653  14.866  68.986  1.00  0.00    -0.170 A  
HETATM   27  C   UNL     1      -7.586  14.037  68.644  1.00  0.00    -0.130 A  
HETATM   28  C   UNL     1      -9.880  14.714  68.346  1.00  0.00    -0.220 A  
HETATM   29  C   UNL     1     -10.041  13.727  67.371  1.00  0.00    -0.244 A  
ENDBRANCH  23  24
ENDBRANCH  10  23
TORSDOF 5
ENDMDL
MODEL      162
REMARK 921   NORMALIZED FREE ENERGY PREDICTED BY IDOCK:   -4.75 KCAL/MOL
REMARK 922        TOTAL FREE ENERGY PREDICTED BY IDOCK:   -7.30 KCAL/MOL
REMARK 923 INTER-LIGAND FREE ENERGY PREDICTED BY IDOCK:   -6.36 KCAL/MOL
REMARK 924 INTRA-LIGAND FREE ENERGY PREDICTED BY IDOCK:   -0.94 KCAL/MOL
REMARK 927      BINDING AFFINITY PREDICTED BY RF-SCORE:    0.00 PKD
ROOT
HETATM    1  C   UNL     1     -10.278   7.871  66.558  1.00  0.00    -0.212 C  
HETATM    2  C   UNL     1      -9.642   9.254  66.374  1.00  0.00    -0.301 C  
HETATM    3  C   UNL     1      -8.115   9.210  66.222  1.00  0.00    -0.111 C  
HETATM    4  C   UNL     1      -9.953  10.123  67.585  1.00  0.00    -0.181 C  
HETATM    5  O   UNL     1      -9.969   9.654  68.723  1.00  0.00    -0.163 OA 
HETATM    6  C   UNL     1     -11.630  12.279  69.369  1.00  0.00    -0.314 C  
HETATM    7  N   UNL     1     -10.241  11.456  67.394  1.00  0.00    -0.190 N  
HETATM    8  C   UNL     1     -10.286  12.188  66.136  1.00  0.00    -0.227 C  
HETATM    9  C   UNL     1     -10.341  12.383  68.540  1.00  0.00    -0.221 C  
HETATM   10  C   UNL     1      -9.802  13.594  66.487  1.00  0.00    -0.293 C  
HETATM   11  C   UNL     1     -10.279  13.792  67.925  1.00  0.00    -0.245 C  
HETATM   12  O   UNL     1     -12.497  11.324  68.965  1.00  0.00    -0.417 OA 
HETATM   13  O   UNL     1     -11.889  13.027  70.306  1.00  0.00    -0.305 OA 
ENDROOT
BRANCH   3  14
HETATM   14  S   UNL     1      -7.634   8.213  64.785  1.00  0.00    -0.108 SA 
BRANCH  14  15
HETATM   15  C   UNL     1      -6.857   6.841  65.569  1.00  0.00    -0.052 C  
HETATM   16  O   UNL     1      -5.720   6.915  66.017  1.00  0.00    -0.028 OA 
BRANCH  15  17
HETATM   17  C   UNL     1      -7.673   5.597  65.691  1.00  0.00    -0.089 A  
HETATM   18  C   UNL     1      -8.489   5.129  64.649  1.00  0.00    -0.146 A  
HETATM   19  C   UNL     1      -9.245   3.967  64.811  1.00  0.00    -0.149 A  
HETATM   20  C   UNL     1      -9.185   3.258  66.007  1.00  0.00    -0.151 A  
HETATM   21  C   UNL     1      -7.609   4.869  66.887  1.00  0.00    -0.088 A  
HETATM   22  C   UNL     1      -8.368   3.707  67.045  1.00  0.00    -0.099 A  
ENDBRANCH  15  17
ENDBRANCH  14  15
ENDBRANCH   3  14
BRANCH  10  23
HETATM   23  S   UNL     1     -10.479  14.801  65.290  1.00  0.00    -0.422 SA 
BRANCH  23  24
HETATM   24  C   UNL     1      -9.793  16.355  65.842  1.00  0.00    -0.315 A  
HETATM   25  C   UNL     1     -10.562  17.506  66.035  1.00  0.00    -0.217 A  
HETATM   26  C   UNL     1      -8.606  18.721  66.780  1.00  0.00    -0.296 A  
HETATM   27  C   UNL     1      -9.969  18.687  66.493  1.00  0.00    -0.408 A  
HETATM   28  C   UNL     1      -7.834  17.575  66.613  1.00  0.00    -0.285 A  
HETATM   29  C   UNL     1      -8.426  16.397  66.150  1.00  0.00    -0.329 A  
ENDBRANCH  23  24
ENDBRANCH  10  23
TORSDOF 5
ENDMDL
MODEL      163
REMARK 921   NORMALIZED FREE ENERGY PREDICTED BY IDOCK:   -4.74 KCAL/MOL
REMARK 922        TOTAL FREE ENERGY PREDICTED BY IDOCK:   -7.29 KCAL/MOL
REMARK 923 INTER-LIGAND FREE ENERGY PREDICTED BY IDOCK:   -5.86 KCAL/MOL
REMARK 924 INTRA-LIGAND FREE ENERGY PREDICTED BY IDOCK:   -1.42 KCAL/MOL
REMARK 927      BINDING AFFINITY PREDICTED BY RF-SCORE:    0.00 PKD
ROOT
HETATM    1  C   UNL     1      -9.407  10.441  67.042  1.00  0.00    -0.176 C  
HETATM    2  C   UNL     1      -9.962   9.368  67.986  1.00  0.00    -0.209 C  
HETATM    3  C   UNL     1     -10.485   8.121  67.256  1.00  0.00    -0.309 C  
HETATM    4  C   UNL     1     -11.122   9.943  68.788  1.00  0.00    -0.135 C  
HETATM    5  O   UNL     1     -11.928  10.722  68.278  1.00  0.00    -0.520 OA 
HETATM    6  C   UNL     1     -12.573  11.428  71.303  1.00  0.00    -0.374 C  
HETATM    7  N   UNL     1     -11.253   9.599  70.115  1.00  0.00    -0.253 N  
HETATM    8  C   UNL     1     -10.401   8.711  70.894  1.00  0.00    -0.211 C  
HETATM    9  C   UNL     1     -12.467   9.957  70.875  1.00  0.00    -0.307 C  
HETATM   10  C   UNL     1     -11.348   8.031  71.881  1.00  0.00    -0.283 C  
HETATM   11  C   UNL     1     -12.417   9.090  72.145  1.00  0.00    -0.450 C  
HETATM   12  O   UNL     1     -11.556  12.219  70.897  1.00  0.00     0.382 OA 
HETATM   13  O   UNL     1     -13.486  11.862  71.999  1.00  0.00    -0.431 OA 
ENDROOT
BRANCH   3  14
HETATM   14  S   UNL     1      -9.169   7.339  66.284  1.00  0.00    -0.086 SA 
BRANCH  14  15
HETATM   15  C   UNL     1      -9.514   5.634  66.555  1.00  0.00    -0.152 C  
HETATM   16  O   UNL     1     -10.416   5.058  65.960  1.00  0.00    -0.260 OA 
BRANCH  15  17
HETATM   17  C   UNL     1      -8.625   4.921  67.519  1.00  0.00    -0.104 A  
HETATM   18  C   UNL     1      -8.675   3.530  67.698  1.00  0.00    -0.128 A  
HETATM   19  C   UNL     1      -7.833   2.905  68.619  1.00  0.00    -0.057 A  
HETATM   20  C   UNL     1      -6.930   3.661  69.362  1.00  0.00    -0.042 A  
HETATM   21  C   UNL     1      -7.704   5.673  68.261  1.00  0.00    -0.089 A  
HETATM   22  C   UNL     1      -6.863   5.043  69.183  1.00  0.00    -0.054 A  
ENDBRANCH  15  17
ENDBRANCH  14  15
ENDBRANCH   3  14
BRANCH  10  23
HETATM   23  S   UNL     1     -10.422   7.498  73.366  1.00  0.00    -0.295 SA 
BRANCH  23  24
HETATM   24  C   UNL     1     -10.268   5.733  73.141  1.00  0.00    -0.193 A  
HETATM   25  C   UNL     1     -11.283   4.828  73.466  1.00  0.00    -0.392 A  
HETATM   26  C   UNL     1      -9.929   2.984  72.678  1.00  0.00    -0.221 A  
HETATM   27  C   UNL     1     -11.111   3.458  73.243  1.00  0.00    -0.236 A  
HETATM   28  C   UNL     1      -8.919   3.877  72.331  1.00  0.00    -0.134 A  
HETATM   29  C   UNL     1      -9.090   5.245  72.558  1.00  0.00    -0.144 A  
ENDBRANCH  23  24
ENDBRANCH  10  23
TORSDOF 5
ENDMDL
MODEL      164
REMARK 921   NORMALIZED FREE ENERGY PREDICTED BY IDOCK:   -4.72 KCAL/MOL
REMARK 922        TOTAL FREE ENERGY PREDICTED BY IDOCK:   -7.27 KCAL/MOL
REMARK 923 INTER-LIGAND FREE ENERGY PREDICTED BY IDOCK:   -5.89 KCAL/MOL
REMARK 924 INTRA-LIGAND FREE ENERGY PREDICTED BY IDOCK:   -1.37 KCAL/MOL
REMARK 927      BINDING AFFINITY PREDICTED BY RF-SCORE:    0.00 PKD
ROOT
HETATM    1  C   UNL     1      -7.065  10.136  65.846  1.00  0.00    -0.121 C  
HETATM    2  C   UNL     1      -8.459  10.019  66.472  1.00  0.00    -0.128 C  
HETATM    3  C   UNL     1      -9.234   8.775  66.014  1.00  0.00    -0.222 C  
HETATM    4  C   UNL     1      -9.292  11.237  66.095  1.00  0.00    -0.211 C  
HETATM    5  O   UNL     1      -9.214  11.743  64.976  1.00  0.00    -0.057 OA 
HETATM    6  C   UNL     1     -10.528  14.236  66.434  1.00  0.00    -0.282 C  
HETATM    7  N   UNL     1     -10.130  11.791  67.037  1.00  0.00    -0.207 N  
HETATM    8  C   UNL     1     -10.349  11.348  68.407  1.00  0.00    -0.195 C  
HETATM    9  C   UNL     1     -11.108  12.832  66.663  1.00  0.00    -0.276 C  
HETATM   10  C   UNL     1     -11.818  11.660  68.687  1.00  0.00    -0.308 C  
HETATM   11  C   UNL     1     -12.089  12.907  67.845  1.00  0.00    -0.209 C  
HETATM   12  O   UNL     1      -9.187  14.332  66.568  1.00  0.00    -0.270 OA 
HETATM   13  O   UNL     1     -11.221  15.218  66.188  1.00  0.00    -0.318 OA 
ENDROOT
BRANCH   3  14
HETATM   14  S   UNL     1      -8.337   7.258  66.439  1.00  0.00    -0.131 SA 
BRANCH  14  15
HETATM   15  C   UNL     1      -8.849   7.016  68.106  1.00  0.00    -0.129 C  
HETATM   16  O   UNL     1      -9.887   6.429  68.381  1.00  0.00    -0.132 OA 
BRANCH  15  17
HETATM   17  C   UNL     1      -7.930   7.530  69.164  1.00  0.00    -0.121 A  
HETATM   18  C   UNL     1      -8.225   8.674  69.924  1.00  0.00    -0.121 A  
HETATM   19  C   UNL     1      -7.332   9.127  70.896  1.00  0.00    -0.129 A  
HETATM   20  C   UNL     1      -6.143   8.439  71.124  1.00  0.00    -0.037 A  
HETATM   21  C   UNL     1      -6.737   6.837  69.410  1.00  0.00    -0.050 A  
HETATM   22  C   UNL     1      -5.845   7.295  70.384  1.00  0.00    -0.024 A  
ENDBRANCH  15  17
ENDBRANCH  14  15
ENDBRANCH   3  14
BRANCH  10  23
HETATM   23  S   UNL     1     -12.076  11.885  70.484  1.00  0.00    -0.233 SA 
BRANCH  23  24
HETATM   24  C   UNL     1     -12.468  10.237  71.050  1.00  0.00    -0.384 A  
HETATM   25  C   UNL     1     -11.591   9.156  70.927  1.00  0.00    -0.350 A  
HETATM   26  C   UNL     1     -13.176   7.706  72.042  1.00  0.00    -0.207 A  
HETATM   27  C   UNL     1     -11.947   7.894  71.413  1.00  0.00    -0.331 A  
HETATM   28  C   UNL     1     -14.049   8.781  72.189  1.00  0.00    -0.519 A  
HETATM   29  C   UNL     1     -13.695  10.040  71.699  1.00  0.00    -0.194 A  
ENDBRANCH  23  24
ENDBRANCH  10  23
TORSDOF 5
ENDMDL
MODEL      165
REMARK 921   NORMALIZED FREE ENERGY PREDICTED BY IDOCK:   -4.71 KCAL/MOL
REMARK 922        TOTAL FREE ENERGY PREDICTED BY IDOCK:   -7.25 KCAL/MOL
REMARK 923 INTER-LIGAND FREE ENERGY PREDICTED BY IDOCK:   -5.98 KCAL/MOL
REMARK 924 INTRA-LIGAND FREE ENERGY PREDICTED BY IDOCK:   -1.27 KCAL/MOL
REMARK 927      BINDING AFFINITY PREDICTED BY RF-SCORE:    0.00 PKD
ROOT
HETATM    1  C   UNL     1     -11.095   6.468  66.967  1.00  0.00    -0.411 C  
HETATM    2  C   UNL     1      -9.912   6.788  67.888  1.00  0.00    -0.164 C  
HETATM    3  C   UNL     1      -9.166   8.074  67.503  1.00  0.00    -0.137 C  
HETATM    4  C   UNL     1      -8.905   5.647  67.841  1.00  0.00    -0.105 C  
HETATM    5  O   UNL     1      -8.661   5.052  66.792  1.00  0.00    -0.110 OA 
HETATM    6  C   UNL     1      -7.520   2.841  68.760  1.00  0.00    -0.048 C  
HETATM    7  N   UNL     1      -8.274   5.264  69.004  1.00  0.00    -0.085 N  
HETATM    8  C   UNL     1      -8.438   5.831  70.336  1.00  0.00    -0.129 C  
HETATM    9  C   UNL     1      -7.144   4.314  68.977  1.00  0.00    -0.051 C  
HETATM   10  C   UNL     1      -7.059   5.709  70.982  1.00  0.00    -0.070 C  
HETATM   11  C   UNL     1      -6.478   4.441  70.358  1.00  0.00    -0.031 C  
HETATM   12  O   UNL     1      -8.839   2.604  68.585  1.00  0.00    -0.081 OA 
HETATM   13  O   UNL     1      -6.701   1.927  68.783  1.00  0.00    -0.029 OA 
ENDROOT
BRANCH   3  14
HETATM   14  S   UNL     1     -10.275   9.507  67.550  1.00  0.00    -0.244 SA 
BRANCH  14  15
HETATM   15  C   UNL     1      -9.959  10.127  69.168  1.00  0.00    -0.210 C  
HETATM   16  O   UNL     1      -8.941  10.755  69.429  1.00  0.00    -0.100 OA 
BRANCH  15  17
HETATM   17  C   UNL     1     -11.016   9.879  70.192  1.00  0.00    -0.356 A  
HETATM   18  C   UNL     1     -11.081   8.687  70.931  1.00  0.00    -0.310 A  
HETATM   19  C   UNL     1     -12.094   8.492  71.871  1.00  0.00    -0.411 A  
HETATM   20  C   UNL     1     -13.044   9.487  72.088  1.00  0.00    -0.522 A  
HETATM   21  C   UNL     1     -11.969  10.880  70.427  1.00  0.00    -0.453 A  
HETATM   22  C   UNL     1     -12.982  10.680  71.368  1.00  0.00    -0.545 A  
ENDBRANCH  15  17
ENDBRANCH  14  15
ENDBRANCH   3  14
BRANCH  10  23
HETATM   23  S   UNL     1      -7.228   5.651  72.803  1.00  0.00    -0.092 SA 
BRANCH  23  24
HETATM   24  C   UNL     1      -8.820   4.877  73.042  1.00  0.00    -0.113 A  
HETATM   25  C   UNL     1      -9.993   5.598  73.284  1.00  0.00    -0.191 A  
HETATM   26  C   UNL     1     -11.276   3.547  73.334  1.00  0.00    -0.258 A  
HETATM   27  C   UNL     1     -11.215   4.935  73.438  1.00  0.00    -0.415 A  
HETATM   28  C   UNL     1     -10.118   2.820  73.072  1.00  0.00    -0.207 A  
HETATM   29  C   UNL     1      -8.898   3.483  72.923  1.00  0.00    -0.102 A  
ENDBRANCH  23  24
ENDBRANCH  10  23
TORSDOF 5
ENDMDL
MODEL      166
REMARK 921   NORMALIZED FREE ENERGY PREDICTED BY IDOCK:   -4.70 KCAL/MOL
REMARK 922        TOTAL FREE ENERGY PREDICTED BY IDOCK:   -7.24 KCAL/MOL
REMARK 923 INTER-LIGAND FREE ENERGY PREDICTED BY IDOCK:   -6.79 KCAL/MOL
REMARK 924 INTRA-LIGAND FREE ENERGY PREDICTED BY IDOCK:   -0.45 KCAL/MOL
REMARK 927      BINDING AFFINITY PREDICTED BY RF-SCORE:    0.00 PKD
ROOT
HETATM    1  C   UNL     1      -7.552  10.649  69.486  1.00  0.00    -0.128 C  
HETATM    2  C   UNL     1      -8.345   9.436  68.985  1.00  0.00    -0.124 C  
HETATM    3  C   UNL     1      -9.241   9.747  67.777  1.00  0.00    -0.130 C  
HETATM    4  C   UNL     1      -9.247   8.921  70.098  1.00  0.00    -0.180 C  
HETATM    5  O   UNL     1      -9.819   9.692  70.867  1.00  0.00    -0.245 OA 
HETATM    6  C   UNL     1     -10.080   7.093  72.668  1.00  0.00    -0.186 C  
HETATM    7  N   UNL     1      -9.406   7.561  70.254  1.00  0.00    -0.161 N  
HETATM    8  C   UNL     1      -8.808   6.497  69.460  1.00  0.00    -0.138 C  
HETATM    9  C   UNL     1     -10.425   7.017  71.173  1.00  0.00    -0.211 C  
HETATM   10  C   UNL     1      -9.861   5.389  69.439  1.00  0.00    -0.184 C  
HETATM   11  C   UNL     1     -10.563   5.534  70.789  1.00  0.00    -0.320 C  
HETATM   12  O   UNL     1      -8.900   7.685  72.956  1.00  0.00    -0.138 OA 
HETATM   13  O   UNL     1     -10.793   6.620  73.548  1.00  0.00    -0.282 OA 
ENDROOT
BRANCH   3  14
HETATM   14  S   UNL     1      -8.258  10.350  66.378  1.00  0.00    -0.147 SA 
BRANCH  14  15
HETATM   15  C   UNL     1      -9.426  10.232  65.066  1.00  0.00    -0.257 C  
HETATM   16  O   UNL     1      -9.382   9.325  64.245  1.00  0.00    -0.054 OA 
BRANCH  15  17
HETATM   17  C   UNL     1     -10.494  11.274  65.032  1.00  0.00    -0.359 A  
HETATM   18  C   UNL     1     -10.821  12.051  66.154  1.00  0.00    -0.325 A  
HETATM   19  C   UNL     1     -11.836  13.007  66.081  1.00  0.00    -0.466 A  
HETATM   20  C   UNL     1     -12.524  13.201  64.887  1.00  0.00    -0.490 A  
HETATM   21  C   UNL     1     -11.184  11.486  63.830  1.00  0.00    -0.456 A  
HETATM   22  C   UNL     1     -12.200  12.444  63.762  1.00  0.00    -0.626 A  
ENDBRANCH  15  17
ENDBRANCH  14  15
ENDBRANCH   3  14
BRANCH  10  23
HETATM   23  S   UNL     1      -9.054   3.769  69.172  1.00  0.00    -0.151 SA 
BRANCH  23  24
HETATM   24  C   UNL     1      -9.279   3.484  67.423  1.00  0.00    -0.194 A  
HETATM   25  C   UNL     1      -8.932   2.286  66.792  1.00  0.00    -0.136 A  
HETATM   26  C   UNL     1      -9.745   3.133  64.676  1.00  0.00    -0.125 A  
HETATM   27  C   UNL     1      -9.156   2.114  65.422  1.00  0.00    -0.102 A  
HETATM   28  C   UNL     1     -10.114   4.323  65.298  1.00  0.00    -0.231 A  
HETATM   29  C   UNL     1      -9.885   4.495  66.665  1.00  0.00    -0.244 A  
ENDBRANCH  23  24
ENDBRANCH  10  23
TORSDOF 5
ENDMDL
MODEL      167
REMARK 921   NORMALIZED FREE ENERGY PREDICTED BY IDOCK:   -4.69 KCAL/MOL
REMARK 922        TOTAL FREE ENERGY PREDICTED BY IDOCK:   -7.22 KCAL/MOL
REMARK 923 INTER-LIGAND FREE ENERGY PREDICTED BY IDOCK:   -5.96 KCAL/MOL
REMARK 924 INTRA-LIGAND FREE ENERGY PREDICTED BY IDOCK:   -1.26 KCAL/MOL
REMARK 927      BINDING AFFINITY PREDICTED BY RF-SCORE:    0.00 PKD
ROOT
HETATM    1  C   UNL     1      -6.439  11.199  66.788  1.00  0.00    -0.127 C  
HETATM    2  C   UNL     1      -7.655  10.421  67.304  1.00  0.00    -0.095 C  
HETATM    3  C   UNL     1      -7.874   9.081  66.588  1.00  0.00    -0.100 C  
HETATM    4  C   UNL     1      -8.915  11.253  67.105  1.00  0.00    -0.155 C  
HETATM    5  O   UNL     1      -9.071  11.947  66.101  1.00  0.00    -0.214 OA 
HETATM    6  C   UNL     1     -11.246  13.389  67.906  1.00  0.00    -0.275 C  
HETATM    7  N   UNL     1      -9.886  11.240  68.082  1.00  0.00    -0.177 N  
HETATM    8  C   UNL     1      -9.878  10.500  69.337  1.00  0.00    -0.182 C  
HETATM    9  C   UNL     1     -11.207  11.855  67.847  1.00  0.00    -0.263 C  
HETATM   10  C   UNL     1     -11.343  10.141  69.584  1.00  0.00    -0.235 C  
HETATM   11  C   UNL     1     -12.110  11.310  68.967  1.00  0.00    -0.325 C  
HETATM   12  O   UNL     1     -10.054  13.986  68.130  1.00  0.00    -0.231 OA 
HETATM   13  O   UNL     1     -12.280  14.041  67.801  1.00  0.00    -0.334 OA 
ENDROOT
BRANCH   3  14
HETATM   14  S   UNL     1      -6.433   7.997  66.784  1.00  0.00    -0.057 SA 
BRANCH  14  15
HETATM   15  C   UNL     1      -6.945   6.583  65.869  1.00  0.00    -0.061 C  
HETATM   16  O   UNL     1      -6.591   6.403  64.710  1.00  0.00    -0.037 OA 
BRANCH  15  17
HETATM   17  C   UNL     1      -7.801   5.597  66.593  1.00  0.00    -0.101 A  
HETATM   18  C   UNL     1      -8.933   5.011  66.005  1.00  0.00    -0.136 A  
HETATM   19  C   UNL     1      -9.712   4.103  66.723  1.00  0.00    -0.234 A  
HETATM   20  C   UNL     1      -9.364   3.765  68.027  1.00  0.00    -0.232 A  
HETATM   21  C   UNL     1      -7.450   5.241  67.902  1.00  0.00    -0.076 A  
HETATM   22  C   UNL     1      -8.234   4.332  68.617  1.00  0.00    -0.087 A  
ENDBRANCH  15  17
ENDBRANCH  14  15
ENDBRANCH   3  14
BRANCH  10  23
HETATM   23  S   UNL     1     -11.631   9.905  71.376  1.00  0.00    -0.294 SA 
BRANCH  23  24
HETATM   24  C   UNL     1     -11.233   8.183  71.631  1.00  0.00    -0.261 A  
HETATM   25  C   UNL     1     -10.943   7.642  72.887  1.00  0.00    -0.456 A  
HETATM   26  C   UNL     1     -10.685   5.442  71.910  1.00  0.00    -0.275 A  
HETATM   27  C   UNL     1     -10.661   6.279  73.025  1.00  0.00    -0.278 A  
HETATM   28  C   UNL     1     -10.994   5.966  70.658  1.00  0.00    -0.357 A  
HETATM   29  C   UNL     1     -11.270   7.328  70.520  1.00  0.00    -0.305 A  
ENDBRANCH  23  24
ENDBRANCH  10  23
TORSDOF 5
ENDMDL
MODEL      168
REMARK 921   NORMALIZED FREE ENERGY PREDICTED BY IDOCK:   -4.68 KCAL/MOL
REMARK 922        TOTAL FREE ENERGY PREDICTED BY IDOCK:   -7.21 KCAL/MOL
REMARK 923 INTER-LIGAND FREE ENERGY PREDICTED BY IDOCK:   -6.77 KCAL/MOL
REMARK 924 INTRA-LIGAND FREE ENERGY PREDICTED BY IDOCK:   -0.44 KCAL/MOL
REMARK 927      BINDING AFFINITY PREDICTED BY RF-SCORE:    0.00 PKD
ROOT
HETATM    1  C   UNL     1     -10.212  10.684  64.713  1.00  0.00    -0.401 C  
HETATM    2  C   UNL     1      -9.909  10.553  66.210  1.00  0.00    -0.269 C  
HETATM    3  C   UNL     1      -9.301  11.822  66.825  1.00  0.00    -0.194 C  
HETATM    4  C   UNL     1      -8.915   9.421  66.432  1.00  0.00    -0.152 C  
HETATM    5  O   UNL     1      -7.990   9.219  65.647  1.00  0.00    -0.100 OA 
HETATM    6  C   UNL     1      -7.950   6.363  67.028  1.00  0.00    -0.109 C  
HETATM    7  N   UNL     1      -9.074   8.597  67.524  1.00  0.00    -0.133 N  
HETATM    8  C   UNL     1     -10.105   8.666  68.551  1.00  0.00    -0.190 C  
HETATM    9  C   UNL     1      -8.028   7.625  67.900  1.00  0.00    -0.118 C  
HETATM   10  C   UNL     1      -9.410   8.204  69.831  1.00  0.00    -0.159 C  
HETATM   11  C   UNL     1      -8.374   7.195  69.336  1.00  0.00    -0.133 C  
HETATM   12  O   UNL     1      -8.827   6.319  66.002  1.00  0.00    -0.151 OA 
HETATM   13  O   UNL     1      -7.182   5.434  67.257  1.00  0.00    -0.072 OA 
ENDROOT
BRANCH   3  14
HETATM   14  S   UNL     1     -10.421  13.235  66.636  1.00  0.00    -0.282 SA 
BRANCH  14  15
HETATM   15  C   UNL     1     -11.561  12.943  67.945  1.00  0.00    -0.345 C  
HETATM   16  O   UNL     1     -12.254  11.934  67.981  1.00  0.00    -0.491 OA 
BRANCH  15  17
HETATM   17  C   UNL     1     -11.610  13.971  69.026  1.00  0.00    -0.345 A  
HETATM   18  C   UNL     1     -12.387  13.807  70.184  1.00  0.00    -0.390 A  
HETATM   19  C   UNL     1     -12.413  14.800  71.164  1.00  0.00    -0.397 A  
HETATM   20  C   UNL     1     -11.657  15.959  71.003  1.00  0.00    -0.465 A  
HETATM   21  C   UNL     1     -10.842  15.135  68.878  1.00  0.00    -0.241 A  
HETATM   22  C   UNL     1     -10.872  16.126  69.862  1.00  0.00    -0.355 A  
ENDBRANCH  15  17
ENDBRANCH  14  15
ENDBRANCH   3  14
BRANCH  10  23
HETATM   23  S   UNL     1     -10.643   7.518  70.995  1.00  0.00    -0.222 SA 
BRANCH  23  24
HETATM   24  C   UNL     1     -10.138   5.814  71.170  1.00  0.00    -0.203 A  
HETATM   25  C   UNL     1     -10.281   4.865  70.154  1.00  0.00    -0.310 A  
HETATM   26  C   UNL     1      -9.243   3.178  71.545  1.00  0.00    -0.188 A  
HETATM   27  C   UNL     1      -9.844   3.550  70.344  1.00  0.00    -0.057 A  
HETATM   28  C   UNL     1      -9.076   4.120  72.556  1.00  0.00    -0.134 A  
HETATM   29  C   UNL     1      -9.518   5.432  72.368  1.00  0.00    -0.162 A  
ENDBRANCH  23  24
ENDBRANCH  10  23
TORSDOF 5
ENDMDL
MODEL      169
REMARK 921   NORMALIZED FREE ENERGY PREDICTED BY IDOCK:   -4.67 KCAL/MOL
REMARK 922        TOTAL FREE ENERGY PREDICTED BY IDOCK:   -7.20 KCAL/MOL
REMARK 923 INTER-LIGAND FREE ENERGY PREDICTED BY IDOCK:   -6.39 KCAL/MOL
REMARK 924 INTRA-LIGAND FREE ENERGY PREDICTED BY IDOCK:   -0.82 KCAL/MOL
REMARK 927      BINDING AFFINITY PREDICTED BY RF-SCORE:    0.00 PKD
ROOT
HETATM    1  C   UNL     1     -11.096  16.129  70.401  1.00  0.00    -0.362 C  
HETATM    2  C   UNL     1     -10.798  15.110  69.294  1.00  0.00    -0.255 C  
HETATM    3  C   UNL     1     -11.000  15.668  67.877  1.00  0.00    -0.319 C  
HETATM    4  C   UNL     1     -11.722  13.909  69.444  1.00  0.00    -0.315 C  
HETATM    5  O   UNL     1     -12.896  14.044  69.790  1.00  0.00    -0.086 OA 
HETATM    6  C   UNL     1     -12.646  10.957  70.480  1.00  0.00    -0.324 C  
HETATM    7  N   UNL     1     -11.222  12.647  69.208  1.00  0.00    -0.225 N  
HETATM    8  C   UNL     1      -9.869  12.285  68.808  1.00  0.00    -0.004 C  
HETATM    9  C   UNL     1     -12.119  11.477  69.134  1.00  0.00    -0.263 C  
HETATM   10  C   UNL     1     -10.045  11.060  67.911  1.00  0.00    -0.178 C  
HETATM   11  C   UNL     1     -11.277  10.364  68.487  1.00  0.00    -0.308 C  
HETATM   12  O   UNL     1     -12.249  11.661  71.563  1.00  0.00    -0.086 OA 
HETATM   13  O   UNL     1     -13.342   9.953  70.587  1.00  0.00    -0.249 OA 
ENDROOT
BRANCH   3  14
HETATM   14  S   UNL     1      -9.922  17.096  67.583  1.00  0.00    -0.293 SA 
BRANCH  14  15
HETATM   15  C   UNL     1      -8.337  16.396  67.895  1.00  0.00    -0.171 C  
HETATM   16  O   UNL     1      -8.033  15.283  67.484  1.00  0.00    -0.146 OA 
BRANCH  15  17
HETATM   17  C   UNL     1      -7.373  17.246  68.654  1.00  0.00    -0.238 A  
HETATM   18  C   UNL     1      -6.373  16.699  69.473  1.00  0.00    -0.227 A  
HETATM   19  C   UNL     1      -5.500  17.531  70.175  1.00  0.00    -0.243 A  
HETATM   20  C   UNL     1      -5.612  18.914  70.058  1.00  0.00    -0.245 A  
HETATM   21  C   UNL     1      -7.470  18.639  68.532  1.00  0.00    -0.326 A  
HETATM   22  C   UNL     1      -6.594  19.469  69.237  1.00  0.00    -0.374 A  
ENDBRANCH  15  17
ENDBRANCH  14  15
ENDBRANCH   3  14
BRANCH  10  23
HETATM   23  S   UNL     1      -8.520  10.049  67.933  1.00  0.00    -0.117 SA 
BRANCH  23  24
HETATM   24  C   UNL     1      -8.765   8.970  69.335  1.00  0.00    -0.142 A  
HETATM   25  C   UNL     1      -9.401   7.729  69.244  1.00  0.00    -0.148 A  
HETATM   26  C   UNL     1      -9.031   7.335  71.603  1.00  0.00    -0.131 A  
HETATM   27  C   UNL     1      -9.541   6.918  70.375  1.00  0.00    -0.171 A  
HETATM   28  C   UNL     1      -8.377   8.560  71.701  1.00  0.00    -0.218 A  
HETATM   29  C   UNL     1      -8.242   9.371  70.572  1.00  0.00    -0.221 A  
ENDBRANCH  23  24
ENDBRANCH  10  23
TORSDOF 5
ENDMDL
MODEL      170
REMARK 921   NORMALIZED FREE ENERGY PREDICTED BY IDOCK:   -4.66 KCAL/MOL
REMARK 922        TOTAL FREE ENERGY PREDICTED BY IDOCK:   -7.19 KCAL/MOL
REMARK 923 INTER-LIGAND FREE ENERGY PREDICTED BY IDOCK:   -5.96 KCAL/MOL
REMARK 924 INTRA-LIGAND FREE ENERGY PREDICTED BY IDOCK:   -1.23 KCAL/MOL
REMARK 927      BINDING AFFINITY PREDICTED BY RF-SCORE:    0.00 PKD
ROOT
HETATM    1  C   UNL     1     -10.258   4.672  65.926  1.00  0.00    -0.303 C  
HETATM    2  C   UNL     1      -9.124   5.475  66.574  1.00  0.00    -0.138 C  
HETATM    3  C   UNL     1      -7.823   5.465  65.758  1.00  0.00    -0.100 C  
HETATM    4  C   UNL     1      -8.805   4.893  67.944  1.00  0.00    -0.104 C  
HETATM    5  O   UNL     1      -8.825   3.679  68.145  1.00  0.00    -0.099 OA 
HETATM    6  C   UNL     1      -9.028   4.571  71.183  1.00  0.00    -0.125 C  
HETATM    7  N   UNL     1      -8.510   5.750  68.982  1.00  0.00    -0.104 N  
HETATM    8  C   UNL     1      -8.450   7.205  68.947  1.00  0.00    -0.126 C  
HETATM    9  C   UNL     1      -7.991   5.237  70.265  1.00  0.00    -0.084 C  
HETATM   10  C   UNL     1      -7.346   7.571  69.939  1.00  0.00    -0.082 C  
HETATM   11  C   UNL     1      -7.427   6.469  70.994  1.00  0.00    -0.085 C  
HETATM   12  O   UNL     1     -10.281   4.507  70.681  1.00  0.00    -0.198 OA 
HETATM   13  O   UNL     1      -8.764   4.160  72.308  1.00  0.00    -0.104 OA 
ENDROOT
BRANCH   3  14
HETATM   14  S   UNL     1      -8.088   6.164  64.106  1.00  0.00    -0.035 SA 
BRANCH  14  15
HETATM   15  C   UNL     1      -7.468   7.797  64.325  1.00  0.00    -0.100 C  
HETATM   16  O   UNL     1      -6.266   8.030  64.358  1.00  0.00    -0.055 OA 
BRANCH  15  17
HETATM   17  C   UNL     1      -8.485   8.885  64.429  1.00  0.00    -0.170 A  
HETATM   18  C   UNL     1      -8.891   9.642  63.318  1.00  0.00    -0.254 A  
HETATM   19  C   UNL     1      -9.836  10.659  63.463  1.00  0.00    -0.384 A  
HETATM   20  C   UNL     1     -10.390  10.922  64.713  1.00  0.00    -0.391 A  
HETATM   21  C   UNL     1      -9.057   9.149  65.681  1.00  0.00    -0.273 A  
HETATM   22  C   UNL     1     -10.002  10.168  65.822  1.00  0.00    -0.339 A  
ENDBRANCH  15  17
ENDBRANCH  14  15
ENDBRANCH   3  14
BRANCH  10  23
HETATM   23  S   UNL     1      -7.624   9.261  70.582  1.00  0.00    -0.141 SA 
BRANCH  23  24
HETATM   24  C   UNL     1      -9.393   9.324  70.816  1.00  0.00    -0.258 A  
HETATM   25  C   UNL     1     -10.052   8.657  71.853  1.00  0.00    -0.398 A  
HETATM   26  C   UNL     1     -12.176   9.555  71.118  1.00  0.00    -0.421 A  
HETATM   27  C   UNL     1     -11.439   8.765  71.998  1.00  0.00    -0.441 A  
HETATM   28  C   UNL     1     -11.528  10.241  70.094  1.00  0.00    -0.383 A  
HETATM   29  C   UNL     1     -10.143  10.129  69.948  1.00  0.00    -0.268 A  
ENDBRANCH  23  24
ENDBRANCH  10  23
TORSDOF 5
ENDMDL
MODEL      171
REMARK 921   NORMALIZED FREE ENERGY PREDICTED BY IDOCK:   -4.65 KCAL/MOL
REMARK 922        TOTAL FREE ENERGY PREDICTED BY IDOCK:   -7.18 KCAL/MOL
REMARK 923 INTER-LIGAND FREE ENERGY PREDICTED BY IDOCK:   -6.59 KCAL/MOL
REMARK 924 INTRA-LIGAND FREE ENERGY PREDICTED BY IDOCK:   -0.59 KCAL/MOL
REMARK 927      BINDING AFFINITY PREDICTED BY RF-SCORE:    0.00 PKD
ROOT
HETATM    1  C   UNL     1     -14.315   9.444  72.201  1.00  0.00    -0.082 C  
HETATM    2  C   UNL     1     -13.146   9.663  71.233  1.00  0.00    -0.437 C  
HETATM    3  C   UNL     1     -11.946   8.743  71.503  1.00  0.00    -0.324 C  
HETATM    4  C   UNL     1     -12.651  11.099  71.346  1.00  0.00    -0.374 C  
HETATM    5  O   UNL     1     -12.602  11.675  72.432  1.00  0.00     0.309 OA 
HETATM    6  C   UNL     1     -12.493  14.274  70.616  1.00  0.00    -0.358 C  
HETATM    7  N   UNL     1     -12.273  11.767  70.203  1.00  0.00    -0.288 N  
HETATM    8  C   UNL     1     -12.273  11.266  68.835  1.00  0.00    -0.093 C  
HETATM    9  C   UNL     1     -11.593  13.076  70.278  1.00  0.00     0.019 C  
HETATM   10  C   UNL     1     -11.079  11.951  68.171  1.00  0.00    -0.242 C  
HETATM   11  C   UNL     1     -10.998  13.303  68.878  1.00  0.00    -0.278 C  
HETATM   12  O   UNL     1     -13.791  13.973  70.837  1.00  0.00    -0.060 OA 
HETATM   13  O   UNL     1     -12.088  15.432  70.646  1.00  0.00    -0.310 OA 
ENDROOT
BRANCH   3  14
HETATM   14  S   UNL     1     -12.423   6.999  71.369  1.00  0.00    -0.375 SA 
BRANCH  14  15
HETATM   15  C   UNL     1     -11.116   6.221  72.255  1.00  0.00    -0.271 C  
HETATM   16  O   UNL     1     -10.836   6.542  73.403  1.00  0.00    -0.268 OA 
BRANCH  15  17
HETATM   17  C   UNL     1     -10.393   5.124  71.546  1.00  0.00    -0.278 A  
HETATM   18  C   UNL     1      -9.783   4.061  72.231  1.00  0.00    -0.217 A  
HETATM   19  C   UNL     1      -9.107   3.062  71.528  1.00  0.00    -0.169 A  
HETATM   20  C   UNL     1      -9.043   3.110  70.138  1.00  0.00    -0.192 A  
HETATM   21  C   UNL     1     -10.335   5.157  70.145  1.00  0.00    -0.340 A  
HETATM   22  C   UNL     1      -9.656   4.155  69.446  1.00  0.00    -0.265 A  
ENDBRANCH  15  17
ENDBRANCH  14  15
ENDBRANCH   3  14
BRANCH  10  23
HETATM   23  S   UNL     1     -11.347  12.053  66.364  1.00  0.00    -0.338 SA 
BRANCH  23  24
HETATM   24  C   UNL     1      -9.960  11.149  65.693  1.00  0.00    -0.249 A  
HETATM   25  C   UNL     1     -10.018  10.443  64.487  1.00  0.00    -0.401 A  
HETATM   26  C   UNL     1      -7.690   9.820  64.709  1.00  0.00    -0.128 A  
HETATM   27  C   UNL     1      -8.890   9.775  64.002  1.00  0.00    -0.258 A  
HETATM   28  C   UNL     1      -7.615  10.537  65.900  1.00  0.00    -0.148 A  
HETATM   29  C   UNL     1      -8.744  11.201  66.387  1.00  0.00    -0.177 A  
ENDBRANCH  23  24
ENDBRANCH  10  23
TORSDOF 5
ENDMDL
MODEL      172
REMARK 921   NORMALIZED FREE ENERGY PREDICTED BY IDOCK:   -4.65 KCAL/MOL
REMARK 922        TOTAL FREE ENERGY PREDICTED BY IDOCK:   -7.17 KCAL/MOL
REMARK 923 INTER-LIGAND FREE ENERGY PREDICTED BY IDOCK:   -5.83 KCAL/MOL
REMARK 924 INTRA-LIGAND FREE ENERGY PREDICTED BY IDOCK:   -1.34 KCAL/MOL
REMARK 927      BINDING AFFINITY PREDICTED BY RF-SCORE:    0.00 PKD
ROOT
HETATM    1  C   UNL     1      -9.592   6.569  68.716  1.00  0.00    -0.126 C  
HETATM    2  C   UNL     1      -9.482   8.098  68.673  1.00  0.00    -0.147 C  
HETATM    3  C   UNL     1      -8.040   8.612  68.790  1.00  0.00    -0.116 C  
HETATM    4  C   UNL     1     -10.273   8.699  69.827  1.00  0.00    -0.206 C  
HETATM    5  O   UNL     1     -10.295   8.164  70.935  1.00  0.00    -0.189 OA 
HETATM    6  C   UNL     1     -12.876   9.967  71.330  1.00  0.00    -0.390 C  
HETATM    7  N   UNL     1     -10.993   9.854  69.614  1.00  0.00    -0.243 N  
HETATM    8  C   UNL     1     -11.103  10.621  68.381  1.00  0.00    -0.272 C  
HETATM    9  C   UNL     1     -11.601  10.588  70.741  1.00  0.00    -0.338 C  
HETATM   10  C   UNL     1     -11.226  12.075  68.838  1.00  0.00    -0.261 C  
HETATM   11  C   UNL     1     -11.960  11.972  70.174  1.00  0.00    -0.401 C  
HETATM   12  O   UNL     1     -13.262   8.802  70.762  1.00  0.00     0.127 OA 
HETATM   13  O   UNL     1     -13.533  10.495  72.221  1.00  0.00    -0.340 OA 
ENDROOT
BRANCH   3  14
HETATM   14  S   UNL     1      -7.011   7.971  67.441  1.00  0.00    -0.076 SA 
BRANCH  14  15
HETATM   15  C   UNL     1      -7.260   9.204  66.209  1.00  0.00    -0.091 C  
HETATM   16  O   UNL     1      -7.520   8.911  65.049  1.00  0.00    -0.093 OA 
BRANCH  15  17
HETATM   17  C   UNL     1      -7.174  10.624  66.663  1.00  0.00    -0.128 A  
HETATM   18  C   UNL     1      -8.249  11.518  66.537  1.00  0.00    -0.129 A  
HETATM   19  C   UNL     1      -8.122  12.841  66.964  1.00  0.00    -0.072 A  
HETATM   20  C   UNL     1      -6.927  13.279  67.528  1.00  0.00    -0.152 A  
HETATM   21  C   UNL     1      -5.979  11.070  67.244  1.00  0.00    -0.058 A  
HETATM   22  C   UNL     1      -5.856  12.396  67.669  1.00  0.00    -0.127 A  
ENDBRANCH  15  17
ENDBRANCH  14  15
ENDBRANCH   3  14
BRANCH  10  23
HETATM   23  S   UNL     1     -12.098  13.056  67.564  1.00  0.00    -0.100 SA 
BRANCH  23  24
HETATM   24  C   UNL     1     -11.359  14.674  67.716  1.00  0.00    -0.322 A  
HETATM   25  C   UNL     1     -10.737  15.335  66.653  1.00  0.00    -0.309 A  
HETATM   26  C   UNL     1     -10.292  17.249  68.066  1.00  0.00    -0.353 A  
HETATM   27  C   UNL     1     -10.198  16.613  66.829  1.00  0.00    -0.301 A  
HETATM   28  C   UNL     1     -10.929  16.609  69.126  1.00  0.00    -0.276 A  
HETATM   29  C   UNL     1     -11.463  15.331  68.950  1.00  0.00    -0.346 A  
ENDBRANCH  23  24
ENDBRANCH  10  23
TORSDOF 5
ENDMDL
MODEL      173
REMARK 921   NORMALIZED FREE ENERGY PREDICTED BY IDOCK:   -4.64 KCAL/MOL
REMARK 922        TOTAL FREE ENERGY PREDICTED BY IDOCK:   -7.16 KCAL/MOL
REMARK 923 INTER-LIGAND FREE ENERGY PREDICTED BY IDOCK:   -6.04 KCAL/MOL
REMARK 924 INTRA-LIGAND FREE ENERGY PREDICTED BY IDOCK:   -1.12 KCAL/MOL
REMARK 927      BINDING AFFINITY PREDICTED BY RF-SCORE:    0.00 PKD
ROOT
HETATM    1  C   UNL     1      -5.822   6.250  69.143  1.00  0.00    -0.020 C  
HETATM    2  C   UNL     1      -7.030   7.181  68.983  1.00  0.00    -0.075 C  
HETATM    3  C   UNL     1      -8.207   6.821  69.901  1.00  0.00    -0.127 C  
HETATM    4  C   UNL     1      -7.538   7.117  67.549  1.00  0.00    -0.110 C  
HETATM    5  O   UNL     1      -7.552   6.057  66.922  1.00  0.00    -0.093 OA 
HETATM    6  C   UNL     1      -7.764   7.989  64.414  1.00  0.00    -0.130 C  
HETATM    7  N   UNL     1      -7.968   8.274  66.939  1.00  0.00    -0.099 N  
HETATM    8  C   UNL     1      -8.015   9.615  67.505  1.00  0.00    -0.106 C  
HETATM    9  C   UNL     1      -8.661   8.234  65.636  1.00  0.00    -0.156 C  
HETATM   10  C   UNL     1      -9.243  10.264  66.866  1.00  0.00    -0.150 C  
HETATM   11  C   UNL     1      -9.313   9.618  65.482  1.00  0.00    -0.309 C  
HETATM   12  O   UNL     1      -6.454   7.805  64.690  1.00  0.00    -0.044 OA 
HETATM   13  O   UNL     1      -8.182   7.998  63.260  1.00  0.00    -0.137 OA 
ENDROOT
BRANCH   3  14
HETATM   14  S   UNL     1      -7.714   6.891  71.645  1.00  0.00    -0.095 SA 
BRANCH  14  15
HETATM   15  C   UNL     1      -9.174   6.303  72.434  1.00  0.00    -0.138 C  
HETATM   16  O   UNL     1      -9.164   5.306  73.145  1.00  0.00    -0.132 OA 
BRANCH  15  17
HETATM   17  C   UNL     1     -10.414   7.106  72.221  1.00  0.00    -0.236 A  
HETATM   18  C   UNL     1     -11.672   6.510  72.035  1.00  0.00    -0.367 A  
HETATM   19  C   UNL     1     -12.804   7.299  71.827  1.00  0.00    -0.369 A  
HETATM   20  C   UNL     1     -12.693   8.687  71.813  1.00  0.00    -0.401 A  
HETATM   21  C   UNL     1     -10.314   8.504  72.218  1.00  0.00    -0.402 A  
HETATM   22  C   UNL     1     -11.450   9.290  72.009  1.00  0.00    -0.271 A  
ENDBRANCH  15  17
ENDBRANCH  14  15
ENDBRANCH   3  14
BRANCH  10  23
HETATM   23  S   UNL     1      -9.046  12.083  66.847  1.00  0.00    -0.200 SA 
BRANCH  23  24
HETATM   24  C   UNL     1     -10.226  12.635  68.069  1.00  0.00    -0.230 A  
HETATM   25  C   UNL     1     -11.001  11.759  68.835  1.00  0.00    -0.288 A  
HETATM   26  C   UNL     1     -12.001  13.625  70.007  1.00  0.00    -0.413 A  
HETATM   27  C   UNL     1     -11.891  12.253  69.794  1.00  0.00    -0.388 A  
HETATM   28  C   UNL     1     -11.219  14.506  69.265  1.00  0.00    -0.309 A  
HETATM   29  C   UNL     1     -10.333  14.012  68.304  1.00  0.00    -0.247 A  
ENDBRANCH  23  24
ENDBRANCH  10  23
TORSDOF 5
ENDMDL
MODEL      174
REMARK 921   NORMALIZED FREE ENERGY PREDICTED BY IDOCK:   -4.64 KCAL/MOL
REMARK 922        TOTAL FREE ENERGY PREDICTED BY IDOCK:   -7.16 KCAL/MOL
REMARK 923 INTER-LIGAND FREE ENERGY PREDICTED BY IDOCK:   -6.22 KCAL/MOL
REMARK 924 INTRA-LIGAND FREE ENERGY PREDICTED BY IDOCK:   -0.94 KCAL/MOL
REMARK 927      BINDING AFFINITY PREDICTED BY RF-SCORE:    0.00 PKD
ROOT
HETATM    1  C   UNL     1      -8.413  11.633  66.333  1.00  0.00    -0.114 C  
HETATM    2  C   UNL     1      -9.546  12.478  66.928  1.00  0.00    -0.229 C  
HETATM    3  C   UNL     1     -10.945  11.910  66.649  1.00  0.00    -0.291 C  
HETATM    4  C   UNL     1      -9.499  13.881  66.339  1.00  0.00    -0.250 C  
HETATM    5  O   UNL     1      -9.213  14.070  65.157  1.00  0.00     0.550 OA 
HETATM    6  C   UNL     1      -8.648  17.025  66.164  1.00  0.00    -0.217 C  
HETATM    7  N   UNL     1      -9.763  14.958  67.156  1.00  0.00    -0.224 N  
HETATM    8  C   UNL     1     -10.105  14.940  68.572  1.00  0.00    -0.232 C  
HETATM    9  C   UNL     1      -9.938  16.312  66.595  1.00  0.00    -0.264 C  
HETATM   10  C   UNL     1     -11.064  16.116  68.755  1.00  0.00    -0.354 C  
HETATM   11  C   UNL     1     -10.587  17.135  67.720  1.00  0.00    -0.360 C  
HETATM   12  O   UNL     1      -7.514  16.305  66.321  1.00  0.00    -0.136 OA 
HETATM   13  O   UNL     1      -8.623  18.178  65.745  1.00  0.00    -0.472 OA 
ENDROOT
BRANCH   3  14
HETATM   14  S   UNL     1     -11.116  10.240  67.334  1.00  0.00    -0.062 SA 
BRANCH  14  15
HETATM   15  C   UNL     1     -10.720  10.525  69.026  1.00  0.00    -0.225 C  
HETATM   16  O   UNL     1     -11.291  11.385  69.684  1.00  0.00    -0.265 OA 
BRANCH  15  17
HETATM   17  C   UNL     1      -9.680   9.637  69.623  1.00  0.00    -0.230 A  
HETATM   18  C   UNL     1     -10.005   8.457  70.311  1.00  0.00    -0.193 A  
HETATM   19  C   UNL     1      -9.000   7.661  70.864  1.00  0.00    -0.148 A  
HETATM   20  C   UNL     1      -7.665   8.031  70.728  1.00  0.00    -0.082 A  
HETATM   21  C   UNL     1      -8.332   9.994  69.479  1.00  0.00    -0.180 A  
HETATM   22  C   UNL     1      -7.329   9.195  70.036  1.00  0.00    -0.070 A  
ENDBRANCH  15  17
ENDBRANCH  14  15
ENDBRANCH   3  14
BRANCH  10  23
HETATM   23  S   UNL     1     -11.002  16.705  70.486  1.00  0.00     0.319 SA 
BRANCH  23  24
HETATM   24  C   UNL     1     -12.059  15.553  71.348  1.00  0.00    -0.393 A  
HETATM   25  C   UNL     1     -12.591  14.406  70.750  1.00  0.00    -0.426 A  
HETATM   26  C   UNL     1     -13.656  13.781  72.831  1.00  0.00    -0.239 A  
HETATM   27  C   UNL     1     -13.393  13.529  71.486  1.00  0.00    -0.363 A  
HETATM   28  C   UNL     1     -13.115  14.908  73.443  1.00  0.00    -0.506 A  
HETATM   29  C   UNL     1     -12.317  15.786  72.706  1.00  0.00    -0.564 A  
ENDBRANCH  23  24
ENDBRANCH  10  23
TORSDOF 5
ENDMDL
MODEL      175
REMARK 921   NORMALIZED FREE ENERGY PREDICTED BY IDOCK:   -4.64 KCAL/MOL
REMARK 922        TOTAL FREE ENERGY PREDICTED BY IDOCK:   -7.16 KCAL/MOL
REMARK 923 INTER-LIGAND FREE ENERGY PREDICTED BY IDOCK:   -5.78 KCAL/MOL
REMARK 924 INTRA-LIGAND FREE ENERGY PREDICTED BY IDOCK:   -1.38 KCAL/MOL
REMARK 927      BINDING AFFINITY PREDICTED BY RF-SCORE:    0.00 PKD
ROOT
HETATM    1  C   UNL     1      -6.275   5.855  64.965  1.00  0.00    -0.036 C  
HETATM    2  C   UNL     1      -7.396   6.204  65.952  1.00  0.00    -0.080 C  
HETATM    3  C   UNL     1      -8.327   5.024  66.265  1.00  0.00    -0.112 C  
HETATM    4  C   UNL     1      -8.256   7.320  65.374  1.00  0.00    -0.137 C  
HETATM    5  O   UNL     1      -8.524   7.365  64.174  1.00  0.00     0.072 OA 
HETATM    6  C   UNL     1      -9.194  10.396  64.828  1.00  0.00    -0.230 C  
HETATM    7  N   UNL     1      -8.721   8.308  66.213  1.00  0.00    -0.143 N  
HETATM    8  C   UNL     1      -8.502   8.436  67.647  1.00  0.00    -0.130 C  
HETATM    9  C   UNL     1      -9.724   9.287  65.749  1.00  0.00    -0.269 C  
HETATM   10  C   UNL     1      -9.789   9.065  68.182  1.00  0.00    -0.166 C  
HETATM   11  C   UNL     1     -10.267   9.946  67.029  1.00  0.00    -0.294 C  
HETATM   12  O   UNL     1      -7.878  10.314  64.528  1.00  0.00    -0.148 OA 
HETATM   13  O   UNL     1      -9.889  11.320  64.418  1.00  0.00    -0.239 OA 
ENDROOT
BRANCH   3  14
HETATM   14  S   UNL     1      -7.402   3.641  66.985  1.00  0.00    -0.068 SA 
BRANCH  14  15
HETATM   15  C   UNL     1      -6.773   4.381  68.453  1.00  0.00    -0.047 C  
HETATM   16  O   UNL     1      -5.591   4.681  68.566  1.00  0.00    -0.014 OA 
BRANCH  15  17
HETATM   17  C   UNL     1      -7.763   4.657  69.535  1.00  0.00    -0.055 A  
HETATM   18  C   UNL     1      -7.681   5.793  70.356  1.00  0.00    -0.095 A  
HETATM   19  C   UNL     1      -8.622   6.005  71.365  1.00  0.00    -0.129 A  
HETATM   20  C   UNL     1      -9.656   5.093  71.556  1.00  0.00    -0.208 A  
HETATM   21  C   UNL     1      -8.815   3.750  69.727  1.00  0.00    -0.148 A  
HETATM   22  C   UNL     1      -9.754   3.967  70.739  1.00  0.00    -0.255 A  
ENDBRANCH  15  17
ENDBRANCH  14  15
ENDBRANCH   3  14
BRANCH  10  23
HETATM   23  S   UNL     1      -9.441   9.967  69.735  1.00  0.00    -0.210 SA 
BRANCH  23  24
HETATM   24  C   UNL     1     -10.905   9.674  70.715  1.00  0.00    -0.330 A  
HETATM   25  C   UNL     1     -11.120   8.498  71.439  1.00  0.00    -0.328 A  
HETATM   26  C   UNL     1     -13.221   9.361  72.273  1.00  0.00    -0.528 A  
HETATM   27  C   UNL     1     -12.277   8.339  72.208  1.00  0.00    -0.428 A  
HETATM   28  C   UNL     1     -13.008  10.546  71.573  1.00  0.00    -0.565 A  
HETATM   29  C   UNL     1     -11.854  10.702  70.802  1.00  0.00    -0.459 A  
ENDBRANCH  23  24
ENDBRANCH  10  23
TORSDOF 5
ENDMDL
MODEL      176
REMARK 921   NORMALIZED FREE ENERGY PREDICTED BY IDOCK:   -4.62 KCAL/MOL
REMARK 922        TOTAL FREE ENERGY PREDICTED BY IDOCK:   -7.13 KCAL/MOL
REMARK 923 INTER-LIGAND FREE ENERGY PREDICTED BY IDOCK:   -6.79 KCAL/MOL
REMARK 924 INTRA-LIGAND FREE ENERGY PREDICTED BY IDOCK:   -0.35 KCAL/MOL
REMARK 927      BINDING AFFINITY PREDICTED BY RF-SCORE:    0.00 PKD
ROOT
HETATM    1  C   UNL     1     -13.529  10.009  71.028  1.00  0.00    -0.253 C  
HETATM    2  C   UNL     1     -12.088   9.724  70.588  1.00  0.00    -0.311 C  
HETATM    3  C   UNL     1     -11.178   9.259  71.734  1.00  0.00    -0.343 C  
HETATM    4  C   UNL     1     -11.473  10.989  70.006  1.00  0.00    -0.314 C  
HETATM    5  O   UNL     1     -11.710  12.096  70.488  1.00  0.00    -0.205 OA 
HETATM    6  C   UNL     1     -10.663  13.121  67.674  1.00  0.00    -0.238 C  
HETATM    7  N   UNL     1     -10.653  10.887  68.903  1.00  0.00    -0.198 N  
HETATM    8  C   UNL     1     -10.268   9.679  68.187  1.00  0.00    -0.190 C  
HETATM    9  C   UNL     1      -9.869  12.046  68.431  1.00  0.00    -0.204 C  
HETATM   10  C   UNL     1      -8.842   9.950  67.709  1.00  0.00    -0.129 C  
HETATM   11  C   UNL     1      -8.821  11.459  67.471  1.00  0.00    -0.146 C  
HETATM   12  O   UNL     1     -11.990  12.887  67.566  1.00  0.00    -0.359 OA 
HETATM   13  O   UNL     1     -10.141  14.106  67.160  1.00  0.00    -0.253 OA 
ENDROOT
BRANCH   3  14
HETATM   14  S   UNL     1     -11.811   7.736  72.488  1.00  0.00    -0.257 SA 
BRANCH  14  15
HETATM   15  C   UNL     1     -11.290   6.534  71.311  1.00  0.00    -0.303 C  
HETATM   16  O   UNL     1     -11.718   6.529  70.164  1.00  0.00    -0.418 OA 
BRANCH  15  17
HETATM   17  C   UNL     1     -10.271   5.547  71.776  1.00  0.00    -0.256 A  
HETATM   18  C   UNL     1      -8.941   5.574  71.328  1.00  0.00    -0.153 A  
HETATM   19  C   UNL     1      -8.023   4.624  71.780  1.00  0.00    -0.099 A  
HETATM   20  C   UNL     1      -8.423   3.647  72.688  1.00  0.00    -0.090 A  
HETATM   21  C   UNL     1     -10.661   4.567  72.700  1.00  0.00    -0.247 A  
HETATM   22  C   UNL     1      -9.739   3.618  73.149  1.00  0.00    -0.162 A  
ENDBRANCH  15  17
ENDBRANCH  14  15
ENDBRANCH   3  14
BRANCH  10  23
HETATM   23  S   UNL     1      -8.482   8.941  66.226  1.00  0.00    -0.128 SA 
BRANCH  23  24
HETATM   24  C   UNL     1      -9.046   9.973  64.882  1.00  0.00    -0.221 A  
HETATM   25  C   UNL     1     -10.263  10.660  64.903  1.00  0.00    -0.395 A  
HETATM   26  C   UNL     1      -9.791  11.620  62.732  1.00  0.00    -0.058 A  
HETATM   27  C   UNL     1     -10.638  11.472  63.829  1.00  0.00    -0.465 A  
HETATM   28  C   UNL     1      -8.566  10.957  62.710  1.00  0.00    -0.229 A  
HETATM   29  C   UNL     1      -8.195  10.142  63.781  1.00  0.00    -0.163 A  
ENDBRANCH  23  24
ENDBRANCH  10  23
TORSDOF 5
ENDMDL
MODEL      177
REMARK 921   NORMALIZED FREE ENERGY PREDICTED BY IDOCK:   -4.61 KCAL/MOL
REMARK 922        TOTAL FREE ENERGY PREDICTED BY IDOCK:   -7.12 KCAL/MOL
REMARK 923 INTER-LIGAND FREE ENERGY PREDICTED BY IDOCK:   -6.10 KCAL/MOL
REMARK 924 INTRA-LIGAND FREE ENERGY PREDICTED BY IDOCK:   -1.03 KCAL/MOL
REMARK 927      BINDING AFFINITY PREDICTED BY RF-SCORE:    0.00 PKD
ROOT
HETATM    1  C   UNL     1     -12.367  13.097  70.594  1.00  0.00    -0.405 C  
HETATM    2  C   UNL     1     -11.634  12.063  69.731  1.00  0.00    -0.348 C  
HETATM    3  C   UNL     1     -11.900  12.222  68.226  1.00  0.00    -0.310 C  
HETATM    4  C   UNL     1     -12.081  10.661  70.125  1.00  0.00    -0.333 C  
HETATM    5  O   UNL     1     -13.250  10.423  70.424  1.00  0.00    -0.243 OA 
HETATM    6  C   UNL     1     -11.979   7.838  71.755  1.00  0.00    -0.296 C  
HETATM    7  N   UNL     1     -11.147   9.649  70.165  1.00  0.00    -0.256 N  
HETATM    8  C   UNL     1      -9.725   9.736  69.861  1.00  0.00    -0.238 C  
HETATM    9  C   UNL     1     -11.560   8.242  70.333  1.00  0.00    -0.060 C  
HETATM   10  C   UNL     1      -9.378   8.382  69.242  1.00  0.00    -0.154 C  
HETATM   11  C   UNL     1     -10.326   7.410  69.943  1.00  0.00    -0.222 C  
HETATM   12  O   UNL     1     -11.951   8.835  72.667  1.00  0.00    -0.298 OA 
HETATM   13  O   UNL     1     -12.280   6.690  72.067  1.00  0.00    -0.329 OA 
ENDROOT
BRANCH   3  14
HETATM   14  S   UNL     1     -11.380  13.858  67.645  1.00  0.00    -0.327 SA 
BRANCH  14  15
HETATM   15  C   UNL     1      -9.979  13.440  66.664  1.00  0.00    -0.277 C  
HETATM   16  O   UNL     1     -10.085  13.162  65.476  1.00  0.00    -0.289 OA 
BRANCH  15  17
HETATM   17  C   UNL     1      -8.653  13.481  67.348  1.00  0.00    -0.209 A  
HETATM   18  C   UNL     1      -8.081  12.347  67.946  1.00  0.00    -0.161 A  
HETATM   19  C   UNL     1      -6.844  12.432  68.586  1.00  0.00    -0.087 A  
HETATM   20  C   UNL     1      -6.164  13.647  68.628  1.00  0.00    -0.088 A  
HETATM   21  C   UNL     1      -7.955  14.696  67.384  1.00  0.00    -0.223 A  
HETATM   22  C   UNL     1      -6.717  14.778  68.027  1.00  0.00    -0.154 A  
ENDBRANCH  15  17
ENDBRANCH  14  15
ENDBRANCH   3  14
BRANCH  10  23
HETATM   23  S   UNL     1      -7.601   8.022  69.491  1.00  0.00    -0.103 SA 
BRANCH  23  24
HETATM   24  C   UNL     1      -7.532   7.446  71.180  1.00  0.00    -0.077 A  
HETATM   25  C   UNL     1      -7.697   8.288  72.283  1.00  0.00    -0.168 A  
HETATM   26  C   UNL     1      -7.469   6.405  73.788  1.00  0.00    -0.085 A  
HETATM   27  C   UNL     1      -7.656   7.771  73.582  1.00  0.00    -0.174 A  
HETATM   28  C   UNL     1      -7.325   5.554  72.695  1.00  0.00    -0.095 A  
HETATM   29  C   UNL     1      -7.361   6.072  71.398  1.00  0.00    -0.084 A  
ENDBRANCH  23  24
ENDBRANCH  10  23
TORSDOF 5
ENDMDL
MODEL      178
REMARK 921   NORMALIZED FREE ENERGY PREDICTED BY IDOCK:   -4.59 KCAL/MOL
REMARK 922        TOTAL FREE ENERGY PREDICTED BY IDOCK:   -7.10 KCAL/MOL
REMARK 923 INTER-LIGAND FREE ENERGY PREDICTED BY IDOCK:   -6.01 KCAL/MOL
REMARK 924 INTRA-LIGAND FREE ENERGY PREDICTED BY IDOCK:   -1.09 KCAL/MOL
REMARK 927      BINDING AFFINITY PREDICTED BY RF-SCORE:    0.00 PKD
ROOT
HETATM    1  C   UNL     1      -8.873   9.341  70.537  1.00  0.00    -0.285 C  
HETATM    2  C   UNL     1      -9.217   8.883  69.115  1.00  0.00    -0.144 C  
HETATM    3  C   UNL     1     -10.340   9.702  68.462  1.00  0.00    -0.205 C  
HETATM    4  C   UNL     1      -9.672   7.430  69.142  1.00  0.00    -0.165 C  
HETATM    5  O   UNL     1     -10.365   6.995  70.061  1.00  0.00    -0.194 OA 
HETATM    6  C   UNL     1      -9.341   4.189  68.990  1.00  0.00    -0.165 C  
HETATM    7  N   UNL     1      -9.278   6.588  68.127  1.00  0.00    -0.114 N  
HETATM    8  C   UNL     1      -8.453   6.909  66.970  1.00  0.00    -0.121 C  
HETATM    9  C   UNL     1      -9.859   5.237  67.993  1.00  0.00    -0.149 C  
HETATM   10  C   UNL     1      -8.999   6.028  65.847  1.00  0.00    -0.133 C  
HETATM   11  C   UNL     1      -9.485   4.775  66.575  1.00  0.00    -0.159 C  
HETATM   12  O   UNL     1      -8.442   4.647  69.889  1.00  0.00    -0.073 OA 
HETATM   13  O   UNL     1      -9.676   3.009  68.960  1.00  0.00    -0.070 OA 
ENDROOT
BRANCH   3  14
HETATM   14  S   UNL     1      -9.888  11.455  68.357  1.00  0.00    -0.209 SA 
BRANCH  14  15
HETATM   15  C   UNL     1     -11.374  12.152  67.721  1.00  0.00    -0.307 C  
HETATM   16  O   UNL     1     -12.283  12.512  68.459  1.00  0.00    -0.168 OA 
BRANCH  15  17
HETATM   17  C   UNL     1     -11.450  12.315  66.239  1.00  0.00    -0.435 A  
HETATM   18  C   UNL     1     -12.281  13.269  65.631  1.00  0.00    -0.514 A  
HETATM   19  C   UNL     1     -12.331  13.379  64.240  1.00  0.00    -0.396 A  
HETATM   20  C   UNL     1     -11.546  12.546  63.447  1.00  0.00    -0.547 A  
HETATM   21  C   UNL     1     -10.654  11.490  65.433  1.00  0.00    -0.336 A  
HETATM   22  C   UNL     1     -10.707  11.603  64.042  1.00  0.00    -0.442 A  
ENDBRANCH  15  17
ENDBRANCH  14  15
ENDBRANCH   3  14
BRANCH  10  23
HETATM   23  S   UNL     1      -7.692   5.726  64.603  1.00  0.00    -0.104 SA 
BRANCH  23  24
HETATM   24  C   UNL     1      -7.211   7.373  64.106  1.00  0.00    -0.080 A  
HETATM   25  C   UNL     1      -8.108   8.305  63.577  1.00  0.00    -0.130 A  
HETATM   26  C   UNL     1      -6.345   9.956  63.424  1.00  0.00    -0.126 A  
HETATM   27  C   UNL     1      -7.675   9.589  63.230  1.00  0.00    -0.127 A  
HETATM   28  C   UNL     1      -5.447   9.042  63.970  1.00  0.00    -0.061 A  
HETATM   29  C   UNL     1      -5.880   7.759  64.313  1.00  0.00    -0.052 A  
ENDBRANCH  23  24
ENDBRANCH  10  23
TORSDOF 5
ENDMDL
MODEL      179
REMARK 921   NORMALIZED FREE ENERGY PREDICTED BY IDOCK:   -4.59 KCAL/MOL
REMARK 922        TOTAL FREE ENERGY PREDICTED BY IDOCK:   -7.10 KCAL/MOL
REMARK 923 INTER-LIGAND FREE ENERGY PREDICTED BY IDOCK:   -5.99 KCAL/MOL
REMARK 924 INTRA-LIGAND FREE ENERGY PREDICTED BY IDOCK:   -1.11 KCAL/MOL
REMARK 927      BINDING AFFINITY PREDICTED BY RF-SCORE:    0.00 PKD
ROOT
HETATM    1  C   UNL     1      -8.329   5.779  70.792  1.00  0.00    -0.124 C  
HETATM    2  C   UNL     1      -8.630   7.279  70.890  1.00  0.00    -0.136 C  
HETATM    3  C   UNL     1      -7.567   8.068  71.667  1.00  0.00    -0.083 C  
HETATM    4  C   UNL     1      -9.960   7.486  71.603  1.00  0.00    -0.175 C  
HETATM    5  O   UNL     1     -10.294   6.778  72.552  1.00  0.00    -0.191 OA 
HETATM    6  C   UNL     1     -13.188   7.878  71.858  1.00  0.00    -0.285 C  
HETATM    7  N   UNL     1     -10.810   8.475  71.158  1.00  0.00    -0.232 N  
HETATM    8  C   UNL     1     -10.601   9.399  70.052  1.00  0.00    -0.235 C  
HETATM    9  C   UNL     1     -12.005   8.855  71.936  1.00  0.00    -0.371 C  
HETATM   10  C   UNL     1     -11.292  10.690  70.489  1.00  0.00    -0.267 C  
HETATM   11  C   UNL     1     -12.457  10.203  71.349  1.00  0.00    -0.524 C  
HETATM   12  O   UNL     1     -12.971   6.772  71.112  1.00  0.00    -0.282 OA 
HETATM   13  O   UNL     1     -14.272   8.090  72.391  1.00  0.00    -0.218 OA 
ENDROOT
BRANCH   3  14
HETATM   14  S   UNL     1      -5.939   7.907  70.884  1.00  0.00    -0.034 SA 
BRANCH  14  15
HETATM   15  C   UNL     1      -6.169   8.862  69.423  1.00  0.00    -0.041 C  
HETATM   16  O   UNL     1      -6.082  10.084  69.432  1.00  0.00    -0.040 OA 
BRANCH  15  17
HETATM   17  C   UNL     1      -6.437   8.101  68.167  1.00  0.00    -0.056 A  
HETATM   18  C   UNL     1      -5.673   6.986  67.788  1.00  0.00    -0.024 A  
HETATM   19  C   UNL     1      -5.951   6.311  66.598  1.00  0.00    -0.025 A  
HETATM   20  C   UNL     1      -6.997   6.736  65.784  1.00  0.00    -0.064 A  
HETATM   21  C   UNL     1      -7.497   8.514  67.348  1.00  0.00    -0.093 A  
HETATM   22  C   UNL     1      -7.771   7.835  66.157  1.00  0.00    -0.089 A  
ENDBRANCH  15  17
ENDBRANCH  14  15
ENDBRANCH   3  14
BRANCH  10  23
HETATM   23  S   UNL     1     -11.786  11.659  69.018  1.00  0.00    -0.338 SA 
BRANCH  23  24
HETATM   24  C   UNL     1     -11.777  13.342  69.615  1.00  0.00    -0.310 A  
HETATM   25  C   UNL     1     -12.613  13.796  70.640  1.00  0.00    -0.386 A  
HETATM   26  C   UNL     1     -11.620  16.000  70.511  1.00  0.00    -0.383 A  
HETATM   27  C   UNL     1     -12.541  15.121  71.080  1.00  0.00    -0.441 A  
HETATM   28  C   UNL     1     -10.768  15.553  69.505  1.00  0.00    -0.272 A  
HETATM   29  C   UNL     1     -10.844  14.231  69.062  1.00  0.00    -0.274 A  
ENDBRANCH  23  24
ENDBRANCH  10  23
TORSDOF 5
ENDMDL
MODEL      180
REMARK 921   NORMALIZED FREE ENERGY PREDICTED BY IDOCK:   -4.59 KCAL/MOL
REMARK 922        TOTAL FREE ENERGY PREDICTED BY IDOCK:   -7.09 KCAL/MOL
REMARK 923 INTER-LIGAND FREE ENERGY PREDICTED BY IDOCK:   -6.54 KCAL/MOL
REMARK 924 INTRA-LIGAND FREE ENERGY PREDICTED BY IDOCK:   -0.55 KCAL/MOL
REMARK 927      BINDING AFFINITY PREDICTED BY RF-SCORE:    0.00 PKD
ROOT
HETATM    1  C   UNL     1     -11.871  12.040  68.750  1.00  0.00    -0.358 C  
HETATM    2  C   UNL     1     -10.431  11.545  68.934  1.00  0.00    -0.212 C  
HETATM    3  C   UNL     1      -9.395  12.372  68.159  1.00  0.00    -0.209 C  
HETATM    4  C   UNL     1     -10.321  10.106  68.446  1.00  0.00    -0.183 C  
HETATM    5  O   UNL     1     -10.930   9.720  67.449  1.00  0.00    -0.259 OA 
HETATM    6  C   UNL     1     -10.369   6.854  68.688  1.00  0.00    -0.186 C  
HETATM    7  N   UNL     1      -9.538   9.220  69.152  1.00  0.00    -0.158 N  
HETATM    8  C   UNL     1      -8.758   9.480  70.354  1.00  0.00    -0.223 C  
HETATM    9  C   UNL     1      -9.230   7.881  68.610  1.00  0.00    -0.142 C  
HETATM   10  C   UNL     1      -7.532   8.577  70.224  1.00  0.00    -0.064 C  
HETATM   11  C   UNL     1      -8.057   7.362  69.459  1.00  0.00    -0.129 C  
HETATM   12  O   UNL     1     -11.525   7.317  69.212  1.00  0.00     0.068 OA 
HETATM   13  O   UNL     1     -10.243   5.683  68.343  1.00  0.00    -0.164 OA 
ENDROOT
BRANCH   3  14
HETATM   14  S   UNL     1      -9.427  14.107  68.683  1.00  0.00    -0.114 SA 
BRANCH  14  15
HETATM   15  C   UNL     1      -9.957  14.900  67.203  1.00  0.00    -0.231 C  
HETATM   16  O   UNL     1     -10.202  14.264  66.185  1.00  0.00    -0.287 OA 
BRANCH  15  17
HETATM   17  C   UNL     1     -10.130  16.381  67.268  1.00  0.00    -0.270 A  
HETATM   18  C   UNL     1     -10.068  17.092  68.477  1.00  0.00    -0.303 A  
HETATM   19  C   UNL     1     -10.247  18.476  68.493  1.00  0.00    -0.389 A  
HETATM   20  C   UNL     1     -10.480  19.162  67.304  1.00  0.00    -0.549 A  
HETATM   21  C   UNL     1     -10.352  17.082  66.075  1.00  0.00    -0.324 A  
HETATM   22  C   UNL     1     -10.532  18.467  66.096  1.00  0.00    -0.447 A  
ENDBRANCH  15  17
ENDBRANCH  14  15
ENDBRANCH   3  14
BRANCH  10  23
HETATM   23  S   UNL     1      -6.860   8.198  71.883  1.00  0.00    -0.082 SA 
BRANCH  23  24
HETATM   24  C   UNL     1      -8.182   7.283  72.661  1.00  0.00    -0.107 A  
HETATM   25  C   UNL     1      -9.297   7.893  73.243  1.00  0.00    -0.351 A  
HETATM   26  C   UNL     1     -10.228   5.728  73.795  1.00  0.00    -0.245 A  
HETATM   27  C   UNL     1     -10.312   7.119  73.815  1.00  0.00    -0.390 A  
HETATM   28  C   UNL     1      -9.133   5.109  73.199  1.00  0.00    -0.127 A  
HETATM   29  C   UNL     1      -8.117   5.883  72.632  1.00  0.00    -0.105 A  
ENDBRANCH  23  24
ENDBRANCH  10  23
TORSDOF 5
ENDMDL
MODEL      181
REMARK 921   NORMALIZED FREE ENERGY PREDICTED BY IDOCK:   -4.58 KCAL/MOL
REMARK 922        TOTAL FREE ENERGY PREDICTED BY IDOCK:   -7.09 KCAL/MOL
REMARK 923 INTER-LIGAND FREE ENERGY PREDICTED BY IDOCK:   -6.24 KCAL/MOL
REMARK 924 INTRA-LIGAND FREE ENERGY PREDICTED BY IDOCK:   -0.85 KCAL/MOL
REMARK 927      BINDING AFFINITY PREDICTED BY RF-SCORE:    0.00 PKD
ROOT
HETATM    1  C   UNL     1     -10.514   9.489  66.745  1.00  0.00    -0.263 C  
HETATM    2  C   UNL     1      -9.798  10.831  66.551  1.00  0.00    -0.246 C  
HETATM    3  C   UNL     1      -8.285  10.692  66.327  1.00  0.00    -0.153 C  
HETATM    4  C   UNL     1      -9.995  11.699  67.787  1.00  0.00    -0.181 C  
HETATM    5  O   UNL     1      -9.990  11.212  68.917  1.00  0.00    -0.201 OA 
HETATM    6  C   UNL     1     -11.445  13.928  69.675  1.00  0.00    -0.248 C  
HETATM    7  N   UNL     1     -10.205  13.051  67.628  1.00  0.00    -0.214 N  
HETATM    8  C   UNL     1     -10.259  13.804  66.382  1.00  0.00    -0.292 C  
HETATM    9  C   UNL     1     -10.192  13.962  68.789  1.00  0.00    -0.184 C  
HETATM   10  C   UNL     1      -9.669  15.171  66.730  1.00  0.00    -0.242 C  
HETATM   11  C   UNL     1     -10.066  15.374  68.192  1.00  0.00    -0.222 C  
HETATM   12  O   UNL     1     -12.390  13.038  69.299  1.00  0.00    -0.154 OA 
HETATM   13  O   UNL     1     -11.613  14.675  70.634  1.00  0.00    -0.278 OA 
ENDROOT
BRANCH   3  14
HETATM   14  S   UNL     1      -7.936   9.690  64.856  1.00  0.00    -0.132 SA 
BRANCH  14  15
HETATM   15  C   UNL     1      -6.618   8.678  65.439  1.00  0.00    -0.067 C  
HETATM   16  O   UNL     1      -5.449   9.029  65.346  1.00  0.00    -0.038 OA 
BRANCH  15  17
HETATM   17  C   UNL     1      -7.006   7.390  66.086  1.00  0.00    -0.065 A  
HETATM   18  C   UNL     1      -7.607   6.342  65.372  1.00  0.00    -0.089 A  
HETATM   19  C   UNL     1      -7.965   5.159  66.020  1.00  0.00    -0.107 A  
HETATM   20  C   UNL     1      -7.717   5.008  67.382  1.00  0.00    -0.092 A  
HETATM   21  C   UNL     1      -6.749   7.225  67.454  1.00  0.00    -0.068 A  
HETATM   22  C   UNL     1      -7.109   6.039  68.099  1.00  0.00    -0.078 A  
ENDBRANCH  15  17
ENDBRANCH  14  15
ENDBRANCH   3  14
BRANCH  10  23
HETATM   23  S   UNL     1     -10.319  16.438  65.582  1.00  0.00    -0.305 SA 
BRANCH  23  24
HETATM   24  C   UNL     1      -9.656  17.962  66.236  1.00  0.00    -0.241 A  
HETATM   25  C   UNL     1      -8.286  18.211  66.357  1.00  0.00    -0.282 A  
HETATM   26  C   UNL     1      -8.737  20.427  67.220  1.00  0.00    -0.429 A  
HETATM   27  C   UNL     1      -7.828  19.435  66.855  1.00  0.00    -0.278 A  
HETATM   28  C   UNL     1     -10.103  20.198  67.085  1.00  0.00    -0.590 A  
HETATM   29  C   UNL     1     -10.560  18.973  66.592  1.00  0.00    -0.499 A  
ENDBRANCH  23  24
ENDBRANCH  10  23
TORSDOF 5
ENDMDL
MODEL      182
REMARK 921   NORMALIZED FREE ENERGY PREDICTED BY IDOCK:   -4.58 KCAL/MOL
REMARK 922        TOTAL FREE ENERGY PREDICTED BY IDOCK:   -7.09 KCAL/MOL
REMARK 923 INTER-LIGAND FREE ENERGY PREDICTED BY IDOCK:   -5.75 KCAL/MOL
REMARK 924 INTRA-LIGAND FREE ENERGY PREDICTED BY IDOCK:   -1.33 KCAL/MOL
REMARK 927      BINDING AFFINITY PREDICTED BY RF-SCORE:    0.00 PKD
ROOT
HETATM    1  C   UNL     1      -6.902   7.988  65.593  1.00  0.00    -0.056 C  
HETATM    2  C   UNL     1      -8.227   8.211  66.331  1.00  0.00    -0.108 C  
HETATM    3  C   UNL     1      -9.062   6.932  66.490  1.00  0.00    -0.155 C  
HETATM    4  C   UNL     1      -9.076   9.215  65.563  1.00  0.00    -0.219 C  
HETATM    5  O   UNL     1      -9.105   9.220  64.333  1.00  0.00    -0.189 OA 
HETATM    6  C   UNL     1     -10.229  12.157  64.753  1.00  0.00    -0.281 C  
HETATM    7  N   UNL     1      -9.807  10.147  66.265  1.00  0.00    -0.216 N  
HETATM    8  C   UNL     1      -9.891  10.310  67.710  1.00  0.00    -0.169 C  
HETATM    9  C   UNL     1     -10.802  11.000  65.586  1.00  0.00    -0.090 C  
HETATM   10  C   UNL     1     -11.321  10.788  67.964  1.00  0.00    -0.307 C  
HETATM   11  C   UNL     1     -11.658  11.600  66.715  1.00  0.00    -0.220 C  
HETATM   12  O   UNL     1      -8.880  12.226  64.719  1.00  0.00     0.747 OA 
HETATM   13  O   UNL     1     -10.929  12.991  64.189  1.00  0.00    -0.373 OA 
ENDROOT
BRANCH   3  14
HETATM   14  S   UNL     1      -8.148   5.671  67.417  1.00  0.00    -0.101 SA 
BRANCH  14  15
HETATM   15  C   UNL     1      -7.878   6.502  68.946  1.00  0.00    -0.110 C  
HETATM   16  O   UNL     1      -7.061   7.408  69.050  1.00  0.00    -0.074 OA 
BRANCH  15  17
HETATM   17  C   UNL     1      -8.725   6.069  70.096  1.00  0.00    -0.139 A  
HETATM   18  C   UNL     1     -10.095   5.794  69.958  1.00  0.00    -0.279 A  
HETATM   19  C   UNL     1     -10.853   5.404  71.063  1.00  0.00    -0.189 A  
HETATM   20  C   UNL     1     -10.249   5.275  72.311  1.00  0.00    -0.250 A  
HETATM   21  C   UNL     1      -8.123   5.924  71.354  1.00  0.00    -0.115 A  
HETATM   22  C   UNL     1      -8.886   5.533  72.457  1.00  0.00    -0.130 A  
ENDBRANCH  15  17
ENDBRANCH  14  15
ENDBRANCH   3  14
BRANCH  10  23
HETATM   23  S   UNL     1     -11.391  11.735  69.528  1.00  0.00    -0.218 SA 
BRANCH  23  24
HETATM   24  C   UNL     1     -11.809  10.492  70.741  1.00  0.00    -0.365 A  
HETATM   25  C   UNL     1     -13.103  10.312  71.238  1.00  0.00    -0.492 A  
HETATM   26  C   UNL     1     -12.353   8.456  72.598  1.00  0.00    -0.278 A  
HETATM   27  C   UNL     1     -13.372   9.304  72.170  1.00  0.00    -0.537 A  
HETATM   28  C   UNL     1     -11.065   8.612  72.093  1.00  0.00    -0.434 A  
HETATM   29  C   UNL     1     -10.796   9.622  71.166  1.00  0.00    -0.404 A  
ENDBRANCH  23  24
ENDBRANCH  10  23
TORSDOF 5
ENDMDL
MODEL      183
REMARK 921   NORMALIZED FREE ENERGY PREDICTED BY IDOCK:   -4.56 KCAL/MOL
REMARK 922        TOTAL FREE ENERGY PREDICTED BY IDOCK:   -7.06 KCAL/MOL
REMARK 923 INTER-LIGAND FREE ENERGY PREDICTED BY IDOCK:   -6.34 KCAL/MOL
REMARK 924 INTRA-LIGAND FREE ENERGY PREDICTED BY IDOCK:   -0.71 KCAL/MOL
REMARK 927      BINDING AFFINITY PREDICTED BY RF-SCORE:    0.00 PKD
ROOT
HETATM    1  C   UNL     1      -7.779  10.135  69.323  1.00  0.00    -0.126 C  
HETATM    2  C   UNL     1      -8.718  11.115  68.610  1.00  0.00    -0.153 C  
HETATM    3  C   UNL     1      -9.587  10.456  67.529  1.00  0.00    -0.156 C  
HETATM    4  C   UNL     1      -7.898  12.204  67.931  1.00  0.00    -0.147 C  
HETATM    5  O   UNL     1      -6.824  11.951  67.386  1.00  0.00    -0.105 OA 
HETATM    6  C   UNL     1      -6.383  15.080  67.665  1.00  0.00    -0.131 C  
HETATM    7  N   UNL     1      -8.364  13.500  67.948  1.00  0.00    -0.161 N  
HETATM    8  C   UNL     1      -9.594  13.998  68.549  1.00  0.00    -0.201 C  
HETATM    9  C   UNL     1      -7.721  14.549  67.131  1.00  0.00    -0.062 C  
HETATM   10  C   UNL     1     -10.039  15.138  67.633  1.00  0.00    -0.231 C  
HETATM   11  C   UNL     1      -8.725  15.714  67.109  1.00  0.00    -0.233 C  
HETATM   12  O   UNL     1      -5.943  14.493  68.800  1.00  0.00    -0.081 OA 
HETATM   13  O   UNL     1      -5.765  15.999  67.137  1.00  0.00    -0.323 OA 
ENDROOT
BRANCH   3  14
HETATM   14  S   UNL     1     -10.627   9.151  68.239  1.00  0.00    -0.131 SA 
BRANCH  14  15
HETATM   15  C   UNL     1     -10.329   7.829  67.115  1.00  0.00    -0.319 C  
HETATM   16  O   UNL     1     -11.159   6.950  66.922  1.00  0.00    -0.379 OA 
BRANCH  15  17
HETATM   17  C   UNL     1      -9.028   7.859  66.384  1.00  0.00    -0.200 A  
HETATM   18  C   UNL     1      -8.897   8.426  65.107  1.00  0.00    -0.075 A  
HETATM   19  C   UNL     1      -7.663   8.422  64.454  1.00  0.00    -0.133 A  
HETATM   20  C   UNL     1      -6.550   7.861  65.073  1.00  0.00    -0.051 A  
HETATM   21  C   UNL     1      -7.898   7.309  67.006  1.00  0.00    -0.112 A  
HETATM   22  C   UNL     1      -6.665   7.306  66.348  1.00  0.00    -0.060 A  
ENDBRANCH  15  17
ENDBRANCH  14  15
ENDBRANCH   3  14
BRANCH  10  23
HETATM   23  S   UNL     1     -11.069  16.323  68.572  1.00  0.00    -0.357 SA 
BRANCH  23  24
HETATM   24  C   UNL     1     -10.534  17.911  67.953  1.00  0.00    -0.396 A  
HETATM   25  C   UNL     1      -9.760  18.803  68.700  1.00  0.00    -0.437 A  
HETATM   26  C   UNL     1      -9.699  20.351  66.841  1.00  0.00    -0.567 A  
HETATM   27  C   UNL     1      -9.352  20.022  68.150  1.00  0.00    -0.357 A  
HETATM   28  C   UNL     1     -10.452  19.461  66.080  1.00  0.00    -0.596 A  
HETATM   29  C   UNL     1     -10.863  18.245  66.632  1.00  0.00    -0.064 A  
ENDBRANCH  23  24
ENDBRANCH  10  23
TORSDOF 5
ENDMDL
MODEL      184
REMARK 921   NORMALIZED FREE ENERGY PREDICTED BY IDOCK:   -4.55 KCAL/MOL
REMARK 922        TOTAL FREE ENERGY PREDICTED BY IDOCK:   -7.05 KCAL/MOL
REMARK 923 INTER-LIGAND FREE ENERGY PREDICTED BY IDOCK:   -6.57 KCAL/MOL
REMARK 924 INTRA-LIGAND FREE ENERGY PREDICTED BY IDOCK:   -0.48 KCAL/MOL
REMARK 927      BINDING AFFINITY PREDICTED BY RF-SCORE:    0.00 PKD
ROOT
HETATM    1  C   UNL     1     -10.293  11.246  65.738  1.00  0.00    -0.310 C  
HETATM    2  C   UNL     1     -10.007  10.706  67.144  1.00  0.00    -0.234 C  
HETATM    3  C   UNL     1      -9.444  11.764  68.104  1.00  0.00    -0.193 C  
HETATM    4  C   UNL     1      -8.985   9.580  67.060  1.00  0.00    -0.134 C  
HETATM    5  O   UNL     1      -8.043   9.628  66.270  1.00  0.00    -0.110 OA 
HETATM    6  C   UNL     1      -7.942   6.501  66.794  1.00  0.00    -0.108 C  
HETATM    7  N   UNL     1      -9.136   8.478  67.873  1.00  0.00    -0.140 N  
HETATM    8  C   UNL     1     -10.183   8.232  68.855  1.00  0.00    -0.210 C  
HETATM    9  C   UNL     1      -8.068   7.464  67.983  1.00  0.00    -0.124 C  
HETATM   10  C   UNL     1      -9.493   7.444  69.969  1.00  0.00    -0.161 C  
HETATM   11  C   UNL     1      -8.423   6.640  69.233  1.00  0.00    -0.124 C  
HETATM   12  O   UNL     1      -8.803   6.727  65.777  1.00  0.00    -0.145 OA 
HETATM   13  O   UNL     1      -7.151   5.563  66.769  1.00  0.00    -0.067 OA 
ENDROOT
BRANCH   3  14
HETATM   14  S   UNL     1     -10.601  13.147  68.295  1.00  0.00    -0.253 SA 
BRANCH  14  15
HETATM   15  C   UNL     1      -9.531  14.522  68.044  1.00  0.00    -0.209 C  
HETATM   16  O   UNL     1      -8.420  14.574  68.555  1.00  0.00    -0.156 OA 
BRANCH  15  17
HETATM   17  C   UNL     1     -10.036  15.601  67.144  1.00  0.00    -0.240 A  
HETATM   18  C   UNL     1     -10.183  16.929  67.573  1.00  0.00    -0.295 A  
HETATM   19  C   UNL     1     -10.670  17.904  66.702  1.00  0.00    -0.137 A  
HETATM   20  C   UNL     1     -11.005  17.564  65.394  1.00  0.00     0.194 A  
HETATM   21  C   UNL     1     -10.363  15.271  65.821  1.00  0.00    -0.364 A  
HETATM   22  C   UNL     1     -10.851  16.250  64.952  1.00  0.00    -0.315 A  
ENDBRANCH  15  17
ENDBRANCH  14  15
ENDBRANCH   3  14
BRANCH  10  23
HETATM   23  S   UNL     1     -10.723   6.430  70.867  1.00  0.00    -0.264 SA 
BRANCH  23  24
HETATM   24  C   UNL     1     -11.957   7.624  71.359  1.00  0.00    -0.310 A  
HETATM   25  C   UNL     1     -11.663   8.966  71.619  1.00  0.00    -0.411 A  
HETATM   26  C   UNL     1     -13.999   9.420  72.062  1.00  0.00    -0.334 A  
HETATM   27  C   UNL     1     -12.679   9.858  71.978  1.00  0.00    -0.456 A  
HETATM   28  C   UNL     1     -14.306   8.090  71.785  1.00  0.00    -0.583 A  
HETATM   29  C   UNL     1     -13.291   7.199  71.431  1.00  0.00    -0.380 A  
ENDBRANCH  23  24
ENDBRANCH  10  23
TORSDOF 5
ENDMDL
MODEL      185
REMARK 921   NORMALIZED FREE ENERGY PREDICTED BY IDOCK:   -4.55 KCAL/MOL
REMARK 922        TOTAL FREE ENERGY PREDICTED BY IDOCK:   -7.05 KCAL/MOL
REMARK 923 INTER-LIGAND FREE ENERGY PREDICTED BY IDOCK:   -5.85 KCAL/MOL
REMARK 924 INTRA-LIGAND FREE ENERGY PREDICTED BY IDOCK:   -1.19 KCAL/MOL
REMARK 927      BINDING AFFINITY PREDICTED BY RF-SCORE:    0.00 PKD
ROOT
HETATM    1  C   UNL     1      -6.813  10.234  63.841  1.00  0.00    -0.057 C  
HETATM    2  C   UNL     1      -7.855   9.708  64.834  1.00  0.00    -0.123 C  
HETATM    3  C   UNL     1      -8.349   8.290  64.510  1.00  0.00    -0.087 C  
HETATM    4  C   UNL     1      -9.071  10.624  64.831  1.00  0.00    -0.204 C  
HETATM    5  O   UNL     1      -9.487  11.132  63.790  1.00  0.00    -0.224 OA 
HETATM    6  C   UNL     1     -10.937  13.121  65.792  1.00  0.00    -0.277 C  
HETATM    7  N   UNL     1      -9.701  10.903  66.024  1.00  0.00    -0.214 N  
HETATM    8  C   UNL     1      -9.354  10.413  67.351  1.00  0.00    -0.145 C  
HETATM    9  C   UNL     1     -10.998  11.608  66.051  1.00  0.00    -0.286 C  
HETATM   10  C   UNL     1     -10.693  10.275  68.076  1.00  0.00    -0.255 C  
HETATM   11  C   UNL     1     -11.549  11.386  67.470  1.00  0.00    -0.298 C  
HETATM   12  O   UNL     1      -9.704  13.611  65.536  1.00  0.00    -0.189 OA 
HETATM   13  O   UNL     1     -11.920  13.853  65.851  1.00  0.00    -0.366 OA 
ENDROOT
BRANCH   3  14
HETATM   14  S   UNL     1      -6.975   7.108  64.512  1.00  0.00    -0.054 SA 
BRANCH  14  15
HETATM   15  C   UNL     1      -6.902   6.674  66.217  1.00  0.00    -0.061 C  
HETATM   16  O   UNL     1      -6.166   7.262  66.999  1.00  0.00    -0.042 OA 
BRANCH  15  17
HETATM   17  C   UNL     1      -7.813   5.580  66.664  1.00  0.00    -0.101 A  
HETATM   18  C   UNL     1      -7.660   4.252  66.233  1.00  0.00    -0.089 A  
HETATM   19  C   UNL     1      -8.542   3.262  66.667  1.00  0.00    -0.117 A  
HETATM   20  C   UNL     1      -9.577   3.585  67.540  1.00  0.00    -0.177 A  
HETATM   21  C   UNL     1      -8.850   5.893  67.553  1.00  0.00    -0.106 A  
HETATM   22  C   UNL     1      -9.732   4.898  67.984  1.00  0.00    -0.202 A  
ENDBRANCH  15  17
ENDBRANCH  14  15
ENDBRANCH   3  14
BRANCH  10  23
HETATM   23  S   UNL     1     -10.438  10.410  69.883  1.00  0.00    -0.160 SA 
BRANCH  23  24
HETATM   24  C   UNL     1     -11.250   8.953  70.521  1.00  0.00    -0.252 A  
HETATM   25  C   UNL     1     -10.950   7.658  70.087  1.00  0.00    -0.255 A  
HETATM   26  C   UNL     1     -12.550   6.734  71.651  1.00  0.00    -0.380 A  
HETATM   27  C   UNL     1     -11.604   6.554  70.643  1.00  0.00    -0.442 A  
HETATM   28  C   UNL     1     -12.840   8.018  72.106  1.00  0.00    -0.269 A  
HETATM   29  C   UNL     1     -12.190   9.120  71.546  1.00  0.00    -0.422 A  
ENDBRANCH  23  24
ENDBRANCH  10  23
TORSDOF 5
ENDMDL
MODEL      186
REMARK 921   NORMALIZED FREE ENERGY PREDICTED BY IDOCK:   -4.54 KCAL/MOL
REMARK 922        TOTAL FREE ENERGY PREDICTED BY IDOCK:   -7.03 KCAL/MOL
REMARK 923 INTER-LIGAND FREE ENERGY PREDICTED BY IDOCK:   -6.11 KCAL/MOL
REMARK 924 INTRA-LIGAND FREE ENERGY PREDICTED BY IDOCK:   -0.92 KCAL/MOL
REMARK 927      BINDING AFFINITY PREDICTED BY RF-SCORE:    0.00 PKD
ROOT
HETATM    1  C   UNL     1      -5.332  10.613  68.253  1.00  0.00    -0.033 C  
HETATM    2  C   UNL     1      -6.789  10.136  68.247  1.00  0.00    -0.062 C  
HETATM    3  C   UNL     1      -6.948   8.658  67.863  1.00  0.00    -0.078 C  
HETATM    4  C   UNL     1      -7.590  10.955  67.244  1.00  0.00    -0.104 C  
HETATM    5  O   UNL     1      -7.104  11.303  66.169  1.00  0.00    -0.060 OA 
HETATM    6  C   UNL     1      -9.479  13.406  66.214  1.00  0.00    -0.183 C  
HETATM    7  N   UNL     1      -8.877  11.328  67.563  1.00  0.00    -0.139 N  
HETATM    8  C   UNL     1      -9.617  11.028  68.781  1.00  0.00    -0.187 C  
HETATM    9  C   UNL     1      -9.764  11.935  66.550  1.00  0.00    -0.210 C  
HETATM   10  C   UNL     1     -11.069  10.880  68.327  1.00  0.00    -0.266 C  
HETATM   11  C   UNL     1     -11.179  11.846  67.147  1.00  0.00    -0.377 C  
HETATM   12  O   UNL     1      -8.426  13.950  66.863  1.00  0.00    -0.174 OA 
HETATM   13  O   UNL     1     -10.171  14.067  65.446  1.00  0.00    -0.325 OA 
ENDROOT
BRANCH   3  14
HETATM   14  S   UNL     1      -6.046   7.587  69.015  1.00  0.00    -0.035 SA 
BRANCH  14  15
HETATM   15  C   UNL     1      -6.831   6.038  68.723  1.00  0.00    -0.066 C  
HETATM   16  O   UNL     1      -6.230   5.097  68.221  1.00  0.00    -0.032 OA 
BRANCH  15  17
HETATM   17  C   UNL     1      -8.254   5.922  69.157  1.00  0.00    -0.106 A  
HETATM   18  C   UNL     1      -8.621   5.339  70.380  1.00  0.00    -0.120 A  
HETATM   19  C   UNL     1      -9.966   5.240  70.741  1.00  0.00    -0.279 A  
HETATM   20  C   UNL     1     -10.953   5.731  69.890  1.00  0.00    -0.389 A  
HETATM   21  C   UNL     1      -9.254   6.425  68.313  1.00  0.00    -0.112 A  
HETATM   22  C   UNL     1     -10.599   6.324  68.678  1.00  0.00    -0.314 A  
ENDBRANCH  15  17
ENDBRANCH  14  15
ENDBRANCH   3  14
BRANCH  10  23
HETATM   23  S   UNL     1     -12.197  11.250  69.719  1.00  0.00    -0.240 SA 
BRANCH  23  24
HETATM   24  C   UNL     1     -11.899   9.905  70.855  1.00  0.00    -0.356 A  
HETATM   25  C   UNL     1     -10.618   9.463  71.200  1.00  0.00    -0.403 A  
HETATM   26  C   UNL     1     -11.559   7.821  72.708  1.00  0.00    -0.368 A  
HETATM   27  C   UNL     1     -10.449   8.420  72.116  1.00  0.00    -0.396 A  
HETATM   28  C   UNL     1     -12.839   8.266  72.388  1.00  0.00    -0.261 A  
HETATM   29  C   UNL     1     -13.007   9.305  71.470  1.00  0.00    -0.429 A  
ENDBRANCH  23  24
ENDBRANCH  10  23
TORSDOF 5
ENDMDL
MODEL      187
REMARK 921   NORMALIZED FREE ENERGY PREDICTED BY IDOCK:   -4.53 KCAL/MOL
REMARK 922        TOTAL FREE ENERGY PREDICTED BY IDOCK:   -7.02 KCAL/MOL
REMARK 923 INTER-LIGAND FREE ENERGY PREDICTED BY IDOCK:   -6.36 KCAL/MOL
REMARK 924 INTRA-LIGAND FREE ENERGY PREDICTED BY IDOCK:   -0.65 KCAL/MOL
REMARK 927      BINDING AFFINITY PREDICTED BY RF-SCORE:    0.00 PKD
ROOT
HETATM    1  C   UNL     1      -8.544   9.125  70.747  1.00  0.00    -0.265 C  
HETATM    2  C   UNL     1      -9.040   8.541  69.419  1.00  0.00    -0.150 C  
HETATM    3  C   UNL     1     -10.261   9.274  68.845  1.00  0.00    -0.202 C  
HETATM    4  C   UNL     1      -9.439   7.085  69.620  1.00  0.00    -0.147 C  
HETATM    5  O   UNL     1     -10.002   6.712  70.649  1.00  0.00    -0.183 OA 
HETATM    6  C   UNL     1      -9.018   3.851  69.692  1.00  0.00    -0.105 C  
HETATM    7  N   UNL     1      -9.141   6.169  68.636  1.00  0.00    -0.125 N  
HETATM    8  C   UNL     1      -8.473   6.411  67.365  1.00  0.00    -0.108 C  
HETATM    9  C   UNL     1      -9.688   4.798  68.685  1.00  0.00    -0.157 C  
HETATM   10  C   UNL     1      -9.119   5.424  66.392  1.00  0.00    -0.141 C  
HETATM   11  C   UNL     1      -9.471   4.226  67.273  1.00  0.00    -0.209 C  
HETATM   12  O   UNL     1      -8.034   4.405  70.434  1.00  0.00    -0.055 OA 
HETATM   13  O   UNL     1      -9.313   2.665  69.800  1.00  0.00    -0.130 OA 
ENDROOT
BRANCH   3  14
HETATM   14  S   UNL     1      -9.885  11.022  68.543  1.00  0.00    -0.197 SA 
BRANCH  14  15
HETATM   15  C   UNL     1     -11.369  11.559  67.762  1.00  0.00    -0.296 C  
HETATM   16  O   UNL     1     -12.404  11.727  68.393  1.00  0.00    -0.364 OA 
BRANCH  15  17
HETATM   17  C   UNL     1     -11.286  11.835  66.297  1.00  0.00    -0.370 A  
HETATM   18  C   UNL     1     -10.381  11.166  65.457  1.00  0.00    -0.326 A  
HETATM   19  C   UNL     1     -10.328  11.464  64.095  1.00  0.00    -0.400 A  
HETATM   20  C   UNL     1     -11.183  12.423  63.558  1.00  0.00    -0.540 A  
HETATM   21  C   UNL     1     -12.151  12.789  65.746  1.00  0.00    -0.505 A  
HETATM   22  C   UNL     1     -12.095  13.085  64.381  1.00  0.00    -0.473 A  
ENDBRANCH  15  17
ENDBRANCH  14  15
ENDBRANCH   3  14
BRANCH  10  23
HETATM   23  S   UNL     1      -7.962   5.050  65.026  1.00  0.00    -0.106 SA 
BRANCH  23  24
HETATM   24  C   UNL     1      -8.764   3.706  64.166  1.00  0.00    -0.101 A  
HETATM   25  C   UNL     1      -8.109   2.522  63.814  1.00  0.00    -0.081 A  
HETATM   26  C   UNL     1     -10.155   1.636  62.874  1.00  0.00    -0.103 A  
HETATM   27  C   UNL     1      -8.799   1.495  63.162  1.00  0.00    -0.085 A  
HETATM   28  C   UNL     1     -10.824   2.802  63.239  1.00  0.00    -0.230 A  
HETATM   29  C   UNL     1     -10.132   3.829  63.885  1.00  0.00    -0.208 A  
ENDBRANCH  23  24
ENDBRANCH  10  23
TORSDOF 5
ENDMDL
MODEL      188
REMARK 921   NORMALIZED FREE ENERGY PREDICTED BY IDOCK:   -4.47 KCAL/MOL
REMARK 922        TOTAL FREE ENERGY PREDICTED BY IDOCK:   -6.94 KCAL/MOL
REMARK 923 INTER-LIGAND FREE ENERGY PREDICTED BY IDOCK:   -5.95 KCAL/MOL
REMARK 924 INTRA-LIGAND FREE ENERGY PREDICTED BY IDOCK:   -0.99 KCAL/MOL
REMARK 927      BINDING AFFINITY PREDICTED BY RF-SCORE:    0.00 PKD
ROOT
HETATM    1  C   UNL     1      -9.126   5.647  68.384  1.00  0.00    -0.121 C  
HETATM    2  C   UNL     1      -9.676   7.058  68.620  1.00  0.00    -0.139 C  
HETATM    3  C   UNL     1     -10.972   7.080  69.443  1.00  0.00    -0.201 C  
HETATM    4  C   UNL     1      -9.976   7.720  67.282  1.00  0.00    -0.212 C  
HETATM    5  O   UNL     1     -10.446   7.079  66.343  1.00  0.00    -0.071 OA 
HETATM    6  C   UNL     1      -9.367   9.525  64.635  1.00  0.00    -0.134 C  
HETATM    7  N   UNL     1      -9.693   9.058  67.120  1.00  0.00    -0.169 N  
HETATM    8  C   UNL     1      -9.127   9.975  68.100  1.00  0.00    -0.121 C  
HETATM    9  C   UNL     1     -10.156   9.792  65.926  1.00  0.00    -0.243 C  
HETATM   10  C   UNL     1      -9.780  11.323  67.793  1.00  0.00    -0.173 C  
HETATM   11  C   UNL     1     -10.002  11.281  66.282  1.00  0.00    -0.260 C  
HETATM   12  O   UNL     1      -8.368   8.622  64.749  1.00  0.00    -0.153 OA 
HETATM   13  O   UNL     1      -9.585  10.111  63.579  1.00  0.00    -0.293 OA 
ENDROOT
BRANCH   3  14
HETATM   14  S   UNL     1     -10.718   6.333  71.075  1.00  0.00    -0.272 SA 
BRANCH  14  15
HETATM   15  C   UNL     1     -10.487   7.765  72.073  1.00  0.00    -0.224 C  
HETATM   16  O   UNL     1     -11.429   8.466  72.420  1.00  0.00    -0.367 OA 
BRANCH  15  17
HETATM   17  C   UNL     1      -9.088   8.056  72.503  1.00  0.00    -0.271 A  
HETATM   18  C   UNL     1      -8.107   8.515  71.609  1.00  0.00    -0.195 A  
HETATM   19  C   UNL     1      -6.807   8.763  72.053  1.00  0.00    -0.051 A  
HETATM   20  C   UNL     1      -6.478   8.564  73.391  1.00  0.00    -0.103 A  
HETATM   21  C   UNL     1      -8.750   7.871  73.851  1.00  0.00    -0.332 A  
HETATM   22  C   UNL     1      -7.447   8.120  74.290  1.00  0.00    -0.247 A  
ENDBRANCH  15  17
ENDBRANCH  14  15
ENDBRANCH   3  14
BRANCH  10  23
HETATM   23  S   UNL     1      -8.697  12.682  68.365  1.00  0.00    -0.063 SA 
BRANCH  23  24
HETATM   24  C   UNL     1      -9.763  14.113  68.291  1.00  0.00    -0.227 A  
HETATM   25  C   UNL     1     -11.005  14.176  68.929  1.00  0.00    -0.280 A  
HETATM   26  C   UNL     1     -11.319  16.447  68.154  1.00  0.00    -0.205 A  
HETATM   27  C   UNL     1     -11.784  15.336  68.853  1.00  0.00    -0.362 A  
HETATM   28  C   UNL     1     -10.074  16.403  67.532  1.00  0.00    -0.261 A  
HETATM   29  C   UNL     1      -9.299  15.243  67.604  1.00  0.00    -0.199 A  
ENDBRANCH  23  24
ENDBRANCH  10  23
TORSDOF 5
ENDMDL
MODEL      189
REMARK 921   NORMALIZED FREE ENERGY PREDICTED BY IDOCK:   -4.46 KCAL/MOL
REMARK 922        TOTAL FREE ENERGY PREDICTED BY IDOCK:   -6.93 KCAL/MOL
REMARK 923 INTER-LIGAND FREE ENERGY PREDICTED BY IDOCK:   -4.73 KCAL/MOL
REMARK 924 INTRA-LIGAND FREE ENERGY PREDICTED BY IDOCK:   -2.20 KCAL/MOL
REMARK 927      BINDING AFFINITY PREDICTED BY RF-SCORE:    0.00 PKD
ROOT
HETATM    1  C   UNL     1     -11.110   9.189  71.680  1.00  0.00    -0.445 C  
HETATM    2  C   UNL     1      -9.877   8.482  71.105  1.00  0.00    -0.263 C  
HETATM    3  C   UNL     1      -8.609   8.681  71.946  1.00  0.00    -0.162 C  
HETATM    4  C   UNL     1      -9.586   9.020  69.710  1.00  0.00    -0.175 C  
HETATM    5  O   UNL     1      -9.733  10.212  69.440  1.00  0.00    -0.207 OA 
HETATM    6  C   UNL     1      -9.751   9.138  66.455  1.00  0.00    -0.262 C  
HETATM    7  N   UNL     1      -9.169   8.146  68.730  1.00  0.00    -0.144 N  
HETATM    8  C   UNL     1      -8.951   6.711  68.850  1.00  0.00    -0.130 C  
HETATM    9  C   UNL     1      -8.674   8.642  67.431  1.00  0.00    -0.134 C  
HETATM   10  C   UNL     1      -7.786   6.415  67.905  1.00  0.00    -0.104 C  
HETATM   11  C   UNL     1      -7.958   7.443  66.787  1.00  0.00    -0.115 C  
HETATM   12  O   UNL     1     -11.017   9.090  66.924  1.00  0.00    -0.059 OA 
HETATM   13  O   UNL     1      -9.503   9.513  65.313  1.00  0.00    -0.259 OA 
ENDROOT
BRANCH   3  14
HETATM   14  S   UNL     1      -8.841   8.049  73.630  1.00  0.00    -0.226 SA 
BRANCH  14  15
HETATM   15  C   UNL     1      -8.220   6.409  73.466  1.00  0.00    -0.119 C  
HETATM   16  O   UNL     1      -7.029   6.188  73.288  1.00  0.00    -0.078 OA 
BRANCH  15  17
HETATM   17  C   UNL     1      -9.217   5.306  73.593  1.00  0.00    -0.129 A  
HETATM   18  C   UNL     1      -8.998   4.187  74.413  1.00  0.00    -0.105 A  
HETATM   19  C   UNL     1      -9.952   3.171  74.493  1.00  0.00    -0.178 A  
HETATM   20  C   UNL     1     -11.135   3.268  73.765  1.00  0.00    -0.288 A  
HETATM   21  C   UNL     1     -10.416   5.401  72.874  1.00  0.00    -0.250 A  
HETATM   22  C   UNL     1     -11.368   4.381  72.957  1.00  0.00    -0.204 A  
ENDBRANCH  15  17
ENDBRANCH  14  15
ENDBRANCH   3  14
BRANCH  10  23
HETATM   23  S   UNL     1      -7.860   4.672  67.354  1.00  0.00    -0.090 SA 
BRANCH  23  24
HETATM   24  C   UNL     1      -8.042   3.767  68.883  1.00  0.00    -0.058 A  
HETATM   25  C   UNL     1      -7.047   3.712  69.863  1.00  0.00    -0.042 A  
HETATM   26  C   UNL     1      -8.476   2.363  71.276  1.00  0.00    -0.088 A  
HETATM   27  C   UNL     1      -7.260   3.005  71.051  1.00  0.00    -0.033 A  
HETATM   28  C   UNL     1      -9.482   2.429  70.316  1.00  0.00    -0.158 A  
HETATM   29  C   UNL     1      -9.267   3.131  69.128  1.00  0.00    -0.222 A  
ENDBRANCH  23  24
ENDBRANCH  10  23
TORSDOF 5
ENDMDL
MODEL      190
REMARK 921   NORMALIZED FREE ENERGY PREDICTED BY IDOCK:   -4.44 KCAL/MOL
REMARK 922        TOTAL FREE ENERGY PREDICTED BY IDOCK:   -6.90 KCAL/MOL
REMARK 923 INTER-LIGAND FREE ENERGY PREDICTED BY IDOCK:   -6.70 KCAL/MOL
REMARK 924 INTRA-LIGAND FREE ENERGY PREDICTED BY IDOCK:   -0.21 KCAL/MOL
REMARK 927      BINDING AFFINITY PREDICTED BY RF-SCORE:    0.00 PKD
ROOT
HETATM    1  C   UNL     1      -7.765   9.903  69.046  1.00  0.00    -0.089 C  
HETATM    2  C   UNL     1      -9.032  10.185  68.229  1.00  0.00    -0.120 C  
HETATM    3  C   UNL     1     -10.261   9.407  68.720  1.00  0.00    -0.203 C  
HETATM    4  C   UNL     1      -8.799   9.796  66.776  1.00  0.00    -0.138 C  
HETATM    5  O   UNL     1      -8.143   8.799  66.477  1.00  0.00    -0.101 OA 
HETATM    6  C   UNL     1      -7.944  10.244  63.660  1.00  0.00    -0.139 C  
HETATM    7  N   UNL     1      -9.318  10.593  65.780  1.00  0.00    -0.177 N  
HETATM    8  C   UNL     1     -10.103  11.810  65.930  1.00  0.00    -0.234 C  
HETATM    9  C   UNL     1      -9.303  10.153  64.370  1.00  0.00    -0.293 C  
HETATM   10  C   UNL     1     -11.072  11.796  64.748  1.00  0.00    -0.296 C  
HETATM   11  C   UNL     1     -10.286  11.087  63.645  1.00  0.00    -0.415 C  
HETATM   12  O   UNL     1      -6.923  10.683  64.428  1.00  0.00     0.046 OA 
HETATM   13  O   UNL     1      -7.787   9.982  62.472  1.00  0.00    -0.119 OA 
ENDROOT
BRANCH   3  14
HETATM   14  S   UNL     1     -10.643   9.816  70.444  1.00  0.00    -0.316 SA 
BRANCH  14  15
HETATM   15  C   UNL     1      -9.675   8.620  71.300  1.00  0.00    -0.237 C  
HETATM   16  O   UNL     1      -9.047   8.906  72.312  1.00  0.00    -0.381 OA 
BRANCH  15  17
HETATM   17  C   UNL     1      -9.692   7.234  70.748  1.00  0.00    -0.171 A  
HETATM   18  C   UNL     1      -8.532   6.447  70.658  1.00  0.00    -0.135 A  
HETATM   19  C   UNL     1      -8.591   5.159  70.123  1.00  0.00    -0.116 A  
HETATM   20  C   UNL     1      -9.807   4.643  69.683  1.00  0.00    -0.293 A  
HETATM   21  C   UNL     1     -10.913   6.701  70.314  1.00  0.00    -0.355 A  
HETATM   22  C   UNL     1     -10.967   5.411  69.779  1.00  0.00    -0.005 A  
ENDBRANCH  15  17
ENDBRANCH  14  15
ENDBRANCH   3  14
BRANCH  10  23
HETATM   23  S   UNL     1     -11.581  13.505  64.341  1.00  0.00    -0.403 SA 
BRANCH  23  24
HETATM   24  C   UNL     1     -11.163  14.420  65.817  1.00  0.00    -0.326 A  
HETATM   25  C   UNL     1     -10.092  15.315  65.885  1.00  0.00    -0.359 A  
HETATM   26  C   UNL     1     -10.648  15.849  68.179  1.00  0.00    -0.280 A  
HETATM   27  C   UNL     1      -9.830  16.020  67.064  1.00  0.00    -0.240 A  
HETATM   28  C   UNL     1     -11.731  14.976  68.116  1.00  0.00    -0.335 A  
HETATM   29  C   UNL     1     -11.989  14.269  66.939  1.00  0.00    -0.467 A  
ENDBRANCH  23  24
ENDBRANCH  10  23
TORSDOF 5
ENDMDL
MODEL      191
REMARK 921   NORMALIZED FREE ENERGY PREDICTED BY IDOCK:   -4.44 KCAL/MOL
REMARK 922        TOTAL FREE ENERGY PREDICTED BY IDOCK:   -6.90 KCAL/MOL
REMARK 923 INTER-LIGAND FREE ENERGY PREDICTED BY IDOCK:   -6.46 KCAL/MOL
REMARK 924 INTRA-LIGAND FREE ENERGY PREDICTED BY IDOCK:   -0.44 KCAL/MOL
REMARK 927      BINDING AFFINITY PREDICTED BY RF-SCORE:    0.00 PKD
ROOT
HETATM    1  C   UNL     1      -5.725  11.890  69.432  1.00  0.00    -0.073 C  
HETATM    2  C   UNL     1      -7.135  12.337  69.029  1.00  0.00    -0.051 C  
HETATM    3  C   UNL     1      -7.986  11.209  68.427  1.00  0.00    -0.137 C  
HETATM    4  C   UNL     1      -7.042  13.442  67.985  1.00  0.00    -0.125 C  
HETATM    5  O   UNL     1      -6.182  13.420  67.106  1.00  0.00    -0.257 OA 
HETATM    6  C   UNL     1      -6.881  16.506  66.881  1.00  0.00    -0.213 C  
HETATM    7  N   UNL     1      -7.928  14.494  68.046  1.00  0.00    -0.125 N  
HETATM    8  C   UNL     1      -8.999  14.705  69.011  1.00  0.00    -0.093 C  
HETATM    9  C   UNL     1      -8.018  15.475  66.946  1.00  0.00    -0.229 C  
HETATM   10  C   UNL     1     -10.102  15.407  68.220  1.00  0.00    -0.218 C  
HETATM   11  C   UNL     1      -9.337  16.230  67.185  1.00  0.00    -0.232 C  
HETATM   12  O   UNL     1      -5.921  16.363  67.820  1.00  0.00    -0.111 OA 
HETATM   13  O   UNL     1      -6.853  17.426  66.069  1.00  0.00    -0.252 OA 
ENDROOT
BRANCH   3  14
HETATM   14  S   UNL     1      -8.181   9.844  69.604  1.00  0.00    -0.180 SA 
BRANCH  14  15
HETATM   15  C   UNL     1      -7.727   8.467  68.605  1.00  0.00    -0.107 C  
HETATM   16  O   UNL     1      -6.578   8.306  68.214  1.00  0.00    -0.057 OA 
BRANCH  15  17
HETATM   17  C   UNL     1      -8.809   7.487  68.293  1.00  0.00    -0.125 A  
HETATM   18  C   UNL     1     -10.055   7.514  68.939  1.00  0.00    -0.195 A  
HETATM   19  C   UNL     1     -11.035   6.570  68.625  1.00  0.00    -0.363 A  
HETATM   20  C   UNL     1     -10.782   5.599  67.659  1.00  0.00    -0.260 A  
HETATM   21  C   UNL     1      -8.569   6.514  67.313  1.00  0.00    -0.111 A  
HETATM   22  C   UNL     1      -9.552   5.571  67.002  1.00  0.00    -0.144 A  
ENDBRANCH  15  17
ENDBRANCH  14  15
ENDBRANCH   3  14
BRANCH  10  23
HETATM   23  S   UNL     1     -11.148  16.392  69.352  1.00  0.00    -0.260 SA 
BRANCH  23  24
HETATM   24  C   UNL     1     -12.001  15.148  70.309  1.00  0.00    -0.319 A  
HETATM   25  C   UNL     1     -11.993  13.789  69.978  1.00  0.00    -0.407 A  
HETATM   26  C   UNL     1     -13.326  13.278  71.932  1.00  0.00    -0.540 A  
HETATM   27  C   UNL     1     -12.661  12.860  70.782  1.00  0.00    -0.314 A  
HETATM   28  C   UNL     1     -13.322  14.625  72.283  1.00  0.00    -0.485 A  
HETATM   29  C   UNL     1     -12.659  15.554  71.477  1.00  0.00    -0.484 A  
ENDBRANCH  23  24
ENDBRANCH  10  23
TORSDOF 5
ENDMDL
MODEL      192
REMARK 921   NORMALIZED FREE ENERGY PREDICTED BY IDOCK:   -4.41 KCAL/MOL
REMARK 922        TOTAL FREE ENERGY PREDICTED BY IDOCK:   -6.87 KCAL/MOL
REMARK 923 INTER-LIGAND FREE ENERGY PREDICTED BY IDOCK:   -6.71 KCAL/MOL
REMARK 924 INTRA-LIGAND FREE ENERGY PREDICTED BY IDOCK:   -0.15 KCAL/MOL
REMARK 927      BINDING AFFINITY PREDICTED BY RF-SCORE:    0.00 PKD
ROOT
HETATM    1  C   UNL     1     -14.335   9.298  72.176  1.00  0.00    -0.179 C  
HETATM    2  C   UNL     1     -13.172   9.551  71.210  1.00  0.00    -0.400 C  
HETATM    3  C   UNL     1     -11.949   8.661  71.478  1.00  0.00    -0.306 C  
HETATM    4  C   UNL     1     -12.714  10.998  71.330  1.00  0.00    -0.429 C  
HETATM    5  O   UNL     1     -12.681  11.570  72.419  1.00  0.00     0.117 OA 
HETATM    6  C   UNL     1     -12.636  14.179  70.614  1.00  0.00    -0.351 C  
HETATM    7  N   UNL     1     -12.352  11.681  70.190  1.00  0.00    -0.252 N  
HETATM    8  C   UNL     1     -12.338  11.186  68.821  1.00  0.00     0.202 C  
HETATM    9  C   UNL     1     -11.706  13.006  70.273  1.00  0.00    -0.114 C  
HETATM   10  C   UNL     1     -11.161  11.904  68.161  1.00  0.00    -0.242 C  
HETATM   11  C   UNL     1     -11.115  13.254  68.874  1.00  0.00    -0.304 C  
HETATM   12  O   UNL     1     -13.927  13.844  70.833  1.00  0.00     0.089 OA 
HETATM   13  O   UNL     1     -12.262  15.347  70.650  1.00  0.00    -0.326 OA 
ENDROOT
BRANCH   3  14
HETATM   14  S   UNL     1     -12.380   6.905  71.336  1.00  0.00    -0.362 SA 
BRANCH  14  15
HETATM   15  C   UNL     1     -10.979   6.149  72.087  1.00  0.00    -0.262 C  
HETATM   16  O   UNL     1     -10.689   6.353  73.259  1.00  0.00    -0.248 OA 
BRANCH  15  17
HETATM   17  C   UNL     1     -10.188   5.218  71.230  1.00  0.00    -0.291 A  
HETATM   18  C   UNL     1      -9.408   4.182  71.768  1.00  0.00    -0.194 A  
HETATM   19  C   UNL     1      -8.674   3.341  70.930  1.00  0.00    -0.126 A  
HETATM   20  C   UNL     1      -8.719   3.520  69.550  1.00  0.00    -0.127 A  
HETATM   21  C   UNL     1     -10.238   5.383  69.839  1.00  0.00    -0.351 A  
HETATM   22  C   UNL     1      -9.500   4.539  69.004  1.00  0.00    -0.229 A  
ENDBRANCH  15  17
ENDBRANCH  14  15
ENDBRANCH   3  14
BRANCH  10  23
HETATM   23  S   UNL     1     -11.429  12.007  66.354  1.00  0.00    -0.306 SA 
BRANCH  23  24
HETATM   24  C   UNL     1     -10.835  13.640  65.944  1.00  0.00    -0.275 A  
HETATM   25  C   UNL     1     -11.585  14.566  65.212  1.00  0.00    -0.359 A  
HETATM   26  C   UNL     1      -9.816  16.205  65.421  1.00  0.00    -0.063 A  
HETATM   27  C   UNL     1     -11.074  15.840  64.944  1.00  0.00    -0.411 A  
HETATM   28  C   UNL     1      -9.070  15.298  66.170  1.00  0.00    -0.314 A  
HETATM   29  C   UNL     1      -9.579  14.025  66.433  1.00  0.00    -0.299 A  
ENDBRANCH  23  24
ENDBRANCH  10  23
TORSDOF 5
ENDMDL
MODEL      193
REMARK 921   NORMALIZED FREE ENERGY PREDICTED BY IDOCK:   -4.40 KCAL/MOL
REMARK 922        TOTAL FREE ENERGY PREDICTED BY IDOCK:   -6.86 KCAL/MOL
REMARK 923 INTER-LIGAND FREE ENERGY PREDICTED BY IDOCK:   -6.28 KCAL/MOL
REMARK 924 INTRA-LIGAND FREE ENERGY PREDICTED BY IDOCK:   -0.58 KCAL/MOL
REMARK 927      BINDING AFFINITY PREDICTED BY RF-SCORE:    0.00 PKD
ROOT
HETATM    1  C   UNL     1      -7.367  10.450  69.911  1.00  0.00    -0.149 C  
HETATM    2  C   UNL     1      -8.573   9.672  69.371  1.00  0.00    -0.160 C  
HETATM    3  C   UNL     1      -9.866  10.499  69.329  1.00  0.00    -0.205 C  
HETATM    4  C   UNL     1      -8.837   8.461  70.255  1.00  0.00    -0.142 C  
HETATM    5  O   UNL     1      -8.702   8.520  71.477  1.00  0.00    -0.154 OA 
HETATM    6  C   UNL     1      -8.589   5.359  71.231  1.00  0.00    -0.126 C  
HETATM    7  N   UNL     1      -9.214   7.274  69.668  1.00  0.00    -0.144 N  
HETATM    8  C   UNL     1      -9.412   7.004  68.251  1.00  0.00    -0.128 C  
HETATM    9  C   UNL     1      -9.683   6.138  70.486  1.00  0.00    -0.173 C  
HETATM   10  C   UNL     1     -10.547   5.981  68.205  1.00  0.00    -0.261 C  
HETATM   11  C   UNL     1     -10.362   5.179  69.493  1.00  0.00    -0.292 C  
HETATM   12  O   UNL     1      -7.334   5.836  71.072  1.00  0.00    -0.080 OA 
HETATM   13  O   UNL     1      -8.813   4.350  71.893  1.00  0.00    -0.113 OA 
ENDROOT
BRANCH   3  14
HETATM   14  S   UNL     1      -9.668  11.962  68.276  1.00  0.00    -0.196 SA 
BRANCH  14  15
HETATM   15  C   UNL     1     -11.331  12.529  68.165  1.00  0.00    -0.295 C  
HETATM   16  O   UNL     1     -12.081  12.150  67.274  1.00  0.00    -0.565 OA 
BRANCH  15  17
HETATM   17  C   UNL     1     -11.787  13.464  69.235  1.00  0.00    -0.385 A  
HETATM   18  C   UNL     1     -11.722  14.859  69.091  1.00  0.00    -0.338 A  
HETATM   19  C   UNL     1     -12.148  15.697  70.122  1.00  0.00    -0.400 A  
HETATM   20  C   UNL     1     -12.651  15.151  71.300  1.00  0.00    -0.421 A  
HETATM   21  C   UNL     1     -12.307  12.924  70.419  1.00  0.00    -0.333 A  
HETATM   22  C   UNL     1     -12.732  13.766  71.449  1.00  0.00    -0.450 A  
ENDBRANCH  15  17
ENDBRANCH  14  15
ENDBRANCH   3  14
BRANCH  10  23
HETATM   23  S   UNL     1     -10.432   4.992  66.671  1.00  0.00    -0.192 SA 
BRANCH  23  24
HETATM   24  C   UNL     1      -9.026   3.932  66.972  1.00  0.00    -0.138 A  
HETATM   25  C   UNL     1      -7.703   4.379  66.911  1.00  0.00    -0.093 A  
HETATM   26  C   UNL     1      -6.903   2.181  67.531  1.00  0.00    -0.039 A  
HETATM   27  C   UNL     1      -6.645   3.505  67.181  1.00  0.00    -0.038 A  
HETATM   28  C   UNL     1      -8.217   1.730  67.615  1.00  0.00    -0.073 A  
HETATM   29  C   UNL     1      -9.273   2.602  67.340  1.00  0.00    -0.196 A  
ENDBRANCH  23  24
ENDBRANCH  10  23
TORSDOF 5
ENDMDL
MODEL      194
REMARK 921   NORMALIZED FREE ENERGY PREDICTED BY IDOCK:   -4.40 KCAL/MOL
REMARK 922        TOTAL FREE ENERGY PREDICTED BY IDOCK:   -6.86 KCAL/MOL
REMARK 923 INTER-LIGAND FREE ENERGY PREDICTED BY IDOCK:   -8.45 KCAL/MOL
REMARK 924 INTRA-LIGAND FREE ENERGY PREDICTED BY IDOCK:    1.59 KCAL/MOL
REMARK 927      BINDING AFFINITY PREDICTED BY RF-SCORE:    0.00 PKD
ROOT
HETATM    1  C   UNL     1     -10.482  16.575  66.848  1.00  0.00    -0.282 C  
HETATM    2  C   UNL     1      -9.876  15.169  66.927  1.00  0.00    -0.243 C  
HETATM    3  C   UNL     1      -8.340  15.163  66.930  1.00  0.00    -0.232 C  
HETATM    4  C   UNL     1     -10.330  14.349  65.727  1.00  0.00    -0.326 C  
HETATM    5  O   UNL     1     -10.442  14.855  64.611  1.00  0.00    -0.337 OA 
HETATM    6  C   UNL     1     -12.241  12.302  64.054  1.00  0.00    -0.475 C  
HETATM    7  N   UNL     1     -10.641  13.019  65.906  1.00  0.00    -0.271 N  
HETATM    8  C   UNL     1     -10.587  12.248  67.140  1.00  0.00    -0.225 C  
HETATM    9  C   UNL     1     -10.881  12.134  64.749  1.00  0.00    -0.307 C  
HETATM   10  C   UNL     1     -10.185  10.841  66.702  1.00  0.00    -0.233 C  
HETATM   11  C   UNL     1     -10.805  10.704  65.312  1.00  0.00     0.020 C  
HETATM   12  O   UNL     1     -13.033  13.268  64.569  1.00  0.00    -0.670 OA 
HETATM   13  O   UNL     1     -12.614  11.593  63.125  1.00  0.00    -0.453 OA 
ENDROOT
BRANCH   3  14
HETATM   14  S   UNL     1      -7.690  16.098  68.341  1.00  0.00    -0.162 SA 
BRANCH  14  15
HETATM   15  C   UNL     1      -7.226  17.608  67.563  1.00  0.00    -0.181 C  
HETATM   16  O   UNL     1      -6.190  17.707  66.919  1.00  0.00    -0.140 OA 
BRANCH  15  17
HETATM   17  C   UNL     1      -8.182  18.746  67.700  1.00  0.00    -0.282 A  
HETATM   18  C   UNL     1      -8.157  19.854  66.837  1.00  0.00    -0.346 A  
HETATM   19  C   UNL     1      -9.062  20.903  67.008  1.00  0.00    -0.163 A  
HETATM   20  C   UNL     1     -10.003  20.851  68.033  1.00  0.00     0.068 A  
HETATM   21  C   UNL     1      -9.141  18.697  68.720  1.00  0.00    -0.297 A  
HETATM   22  C   UNL     1     -10.045  19.749  68.888  1.00  0.00    -0.481 A  
ENDBRANCH  15  17
ENDBRANCH  14  15
ENDBRANCH   3  14
BRANCH  10  23
HETATM   23  S   UNL     1     -10.780   9.615  67.923  1.00  0.00    -0.215 SA 
BRANCH  23  24
HETATM   24  C   UNL     1     -11.480  10.631  69.215  1.00  0.00    -0.281 A  
HETATM   25  C   UNL     1     -11.579  12.023  69.125  1.00  0.00    -0.370 A  
HETATM   26  C   UNL     1     -12.662  12.113  71.287  1.00  0.00    -0.363 A  
HETATM   27  C   UNL     1     -12.159  12.761  70.161  1.00  0.00    -0.370 A  
HETATM   28  C   UNL     1     -12.588  10.725  71.378  1.00  0.00    -0.516 A  
HETATM   29  C   UNL     1     -12.004   9.989  70.345  1.00  0.00    -0.318 A  
ENDBRANCH  23  24
ENDBRANCH  10  23
TORSDOF 5
ENDMDL
MODEL      195
REMARK 921   NORMALIZED FREE ENERGY PREDICTED BY IDOCK:   -4.40 KCAL/MOL
REMARK 922        TOTAL FREE ENERGY PREDICTED BY IDOCK:   -6.85 KCAL/MOL
REMARK 923 INTER-LIGAND FREE ENERGY PREDICTED BY IDOCK:   -5.66 KCAL/MOL
REMARK 924 INTRA-LIGAND FREE ENERGY PREDICTED BY IDOCK:   -1.19 KCAL/MOL
REMARK 927      BINDING AFFINITY PREDICTED BY RF-SCORE:    0.00 PKD
ROOT
HETATM    1  C   UNL     1     -12.222  11.007  70.808  1.00  0.00    -0.480 C  
HETATM    2  C   UNL     1     -11.057  10.646  69.879  1.00  0.00    -0.364 C  
HETATM    3  C   UNL     1     -11.387  10.815  68.389  1.00  0.00    -0.302 C  
HETATM    4  C   UNL     1     -10.665   9.191  70.095  1.00  0.00    -0.233 C  
HETATM    5  O   UNL     1     -11.512   8.323  70.304  1.00  0.00    -0.201 OA 
HETATM    6  C   UNL     1      -9.023   6.700  71.414  1.00  0.00    -0.139 C  
HETATM    7  N   UNL     1      -9.331   8.849  70.076  1.00  0.00    -0.166 N  
HETATM    8  C   UNL     1      -8.188   9.726  69.861  1.00  0.00    -0.183 C  
HETATM    9  C   UNL     1      -8.910   7.433  70.069  1.00  0.00    -0.141 C  
HETATM   10  C   UNL     1      -7.169   8.861  69.119  1.00  0.00    -0.067 C  
HETATM   11  C   UNL     1      -7.428   7.455  69.658  1.00  0.00    -0.093 C  
HETATM   12  O   UNL     1      -9.529   7.435  72.429  1.00  0.00    -0.146 OA 
HETATM   13  O   UNL     1      -8.647   5.544  71.583  1.00  0.00    -0.129 OA 
ENDROOT
BRANCH   3  14
HETATM   14  S   UNL     1     -11.848  12.528  68.016  1.00  0.00    -0.246 SA 
BRANCH  14  15
HETATM   15  C   UNL     1     -10.440  13.068  67.108  1.00  0.00    -0.243 C  
HETATM   16  O   UNL     1      -9.881  14.129  67.357  1.00  0.00    -0.233 OA 
BRANCH  15  17
HETATM   17  C   UNL     1      -9.941  12.146  66.045  1.00  0.00    -0.257 A  
HETATM   18  C   UNL     1      -8.843  11.295  66.245  1.00  0.00    -0.194 A  
HETATM   19  C   UNL     1      -8.402  10.457  65.219  1.00  0.00    -0.166 A  
HETATM   20  C   UNL     1      -9.058  10.455  63.991  1.00  0.00    -0.271 A  
HETATM   21  C   UNL     1     -10.603  12.129  64.810  1.00  0.00    -0.335 A  
HETATM   22  C   UNL     1     -10.158  11.289  63.785  1.00  0.00    -0.412 A  
ENDBRANCH  15  17
ENDBRANCH  14  15
ENDBRANCH   3  14
BRANCH  10  23
HETATM   23  S   UNL     1      -5.479   9.493  69.422  1.00  0.00    -0.035 SA 
BRANCH  23  24
HETATM   24  C   UNL     1      -5.668  11.262  69.259  1.00  0.00    -0.043 A  
HETATM   25  C   UNL     1      -5.640  12.138  70.348  1.00  0.00    -0.162 A  
HETATM   26  C   UNL     1      -5.910  14.032  68.865  1.00  0.00    -0.083 A  
HETATM   27  C   UNL     1      -5.770  13.517  70.152  1.00  0.00    -0.140 A  
HETATM   28  C   UNL     1      -5.918  13.170  67.772  1.00  0.00    -0.148 A  
HETATM   29  C   UNL     1      -5.793  11.793  67.968  1.00  0.00    -0.046 A  
ENDBRANCH  23  24
ENDBRANCH  10  23
TORSDOF 5
ENDMDL
MODEL      196
REMARK 921   NORMALIZED FREE ENERGY PREDICTED BY IDOCK:   -4.38 KCAL/MOL
REMARK 922        TOTAL FREE ENERGY PREDICTED BY IDOCK:   -6.82 KCAL/MOL
REMARK 923 INTER-LIGAND FREE ENERGY PREDICTED BY IDOCK:   -6.13 KCAL/MOL
REMARK 924 INTRA-LIGAND FREE ENERGY PREDICTED BY IDOCK:   -0.69 KCAL/MOL
REMARK 927      BINDING AFFINITY PREDICTED BY RF-SCORE:    0.00 PKD
ROOT
HETATM    1  C   UNL     1     -13.063   9.655  71.264  1.00  0.00    -0.437 C  
HETATM    2  C   UNL     1     -12.145  10.371  70.266  1.00  0.00    -0.370 C  
HETATM    3  C   UNL     1     -10.714   9.814  70.241  1.00  0.00    -0.302 C  
HETATM    4  C   UNL     1     -12.051  11.847  70.627  1.00  0.00    -0.294 C  
HETATM    5  O   UNL     1     -12.010  12.218  71.799  1.00  0.00     0.800 OA 
HETATM    6  C   UNL     1     -12.869  15.004  70.548  1.00  0.00    -0.333 C  
HETATM    7  N   UNL     1     -12.033  12.783  69.616  1.00  0.00    -0.310 N  
HETATM    8  C   UNL     1     -12.086  12.545  68.180  1.00  0.00    -0.067 C  
HETATM    9  C   UNL     1     -11.732  14.200  69.899  1.00  0.00    -0.309 C  
HETATM   10  C   UNL     1     -11.229  13.654  67.570  1.00  0.00    -0.294 C  
HETATM   11  C   UNL     1     -11.423  14.828  68.529  1.00  0.00    -0.330 C  
HETATM   12  O   UNL     1     -13.992  14.300  70.811  1.00  0.00     0.026 OA 
HETATM   13  O   UNL     1     -12.796  16.207  70.778  1.00  0.00    -0.235 OA 
ENDROOT
BRANCH   3  14
HETATM   14  S   UNL     1     -10.710   8.056  69.795  1.00  0.00    -0.197 SA 
BRANCH  14  15
HETATM   15  C   UNL     1      -9.293   7.487  70.672  1.00  0.00    -0.163 C  
HETATM   16  O   UNL     1      -8.162   7.837  70.362  1.00  0.00    -0.116 OA 
BRANCH  15  17
HETATM   17  C   UNL     1      -9.549   6.587  71.835  1.00  0.00    -0.156 A  
HETATM   18  C   UNL     1      -8.525   6.167  72.699  1.00  0.00    -0.121 A  
HETATM   19  C   UNL     1      -8.808   5.315  73.768  1.00  0.00    -0.118 A  
HETATM   20  C   UNL     1     -10.113   4.884  73.989  1.00  0.00    -0.231 A  
HETATM   21  C   UNL     1     -10.863   6.159  72.074  1.00  0.00    -0.292 A  
HETATM   22  C   UNL     1     -11.140   5.306  73.145  1.00  0.00    -0.384 A  
ENDBRANCH  15  17
ENDBRANCH  14  15
ENDBRANCH   3  14
BRANCH  10  23
HETATM   23  S   UNL     1     -11.763  13.979  65.851  1.00  0.00    -0.381 SA 
BRANCH  23  24
HETATM   24  C   UNL     1     -10.909  12.723  64.912  1.00  0.00    -0.299 A  
HETATM   25  C   UNL     1      -9.909  11.910  65.454  1.00  0.00    -0.258 A  
HETATM   26  C   UNL     1      -9.686  10.736  63.349  1.00  0.00    -0.394 A  
HETATM   27  C   UNL     1      -9.294  10.926  64.673  1.00  0.00    -0.256 A  
HETATM   28  C   UNL     1     -10.696  11.526  62.806  1.00  0.00     0.246 A  
HETATM   29  C   UNL     1     -11.306  12.511  63.585  1.00  0.00    -0.555 A  
ENDBRANCH  23  24
ENDBRANCH  10  23
TORSDOF 5
ENDMDL
MODEL      197
REMARK 921   NORMALIZED FREE ENERGY PREDICTED BY IDOCK:   -4.37 KCAL/MOL
REMARK 922        TOTAL FREE ENERGY PREDICTED BY IDOCK:   -6.81 KCAL/MOL
REMARK 923 INTER-LIGAND FREE ENERGY PREDICTED BY IDOCK:   -6.23 KCAL/MOL
REMARK 924 INTRA-LIGAND FREE ENERGY PREDICTED BY IDOCK:   -0.58 KCAL/MOL
REMARK 927      BINDING AFFINITY PREDICTED BY RF-SCORE:    0.00 PKD
ROOT
HETATM    1  C   UNL     1      -7.098  10.123  64.693  1.00  0.00    -0.124 C  
HETATM    2  C   UNL     1      -8.274   9.722  65.592  1.00  0.00    -0.130 C  
HETATM    3  C   UNL     1      -8.897   8.369  65.218  1.00  0.00    -0.069 C  
HETATM    4  C   UNL     1      -9.373  10.771  65.492  1.00  0.00    -0.207 C  
HETATM    5  O   UNL     1      -9.639  11.320  64.423  1.00  0.00    -0.234 OA 
HETATM    6  C   UNL     1     -11.018  13.467  66.309  1.00  0.00    -0.288 C  
HETATM    7  N   UNL     1     -10.066  11.123  66.630  1.00  0.00    -0.210 N  
HETATM    8  C   UNL     1      -9.890  10.602  67.978  1.00  0.00    -0.160 C  
HETATM    9  C   UNL     1     -11.272  11.971  66.552  1.00  0.00    -0.334 C  
HETATM   10  C   UNL     1     -11.292  10.619  68.587  1.00  0.00    -0.281 C  
HETATM   11  C   UNL     1     -11.962  11.818  67.918  1.00  0.00    -0.168 C  
HETATM   12  O   UNL     1      -9.720  13.813  66.160  1.00  0.00    -0.290 OA 
HETATM   13  O   UNL     1     -11.913  14.306  66.289  1.00  0.00    -0.396 OA 
ENDROOT
BRANCH   3  14
HETATM   14  S   UNL     1      -7.671   7.038  65.328  1.00  0.00    -0.121 SA 
BRANCH  14  15
HETATM   15  C   UNL     1      -8.681   5.687  65.832  1.00  0.00    -0.147 C  
HETATM   16  O   UNL     1      -9.341   5.726  66.863  1.00  0.00    -0.121 OA 
BRANCH  15  17
HETATM   17  C   UNL     1      -8.720   4.509  64.915  1.00  0.00    -0.140 A  
HETATM   18  C   UNL     1      -7.826   4.362  63.843  1.00  0.00    -0.088 A  
HETATM   19  C   UNL     1      -7.905   3.250  63.003  1.00  0.00    -0.068 A  
HETATM   20  C   UNL     1      -8.870   2.272  63.232  1.00  0.00    -0.085 A  
HETATM   21  C   UNL     1      -9.680   3.513  65.145  1.00  0.00    -0.129 A  
HETATM   22  C   UNL     1      -9.756   2.402  64.301  1.00  0.00    -0.110 A  
ENDBRANCH  15  17
ENDBRANCH  14  15
ENDBRANCH   3  14
BRANCH  10  23
HETATM   23  S   UNL     1     -11.177  10.731  70.409  1.00  0.00    -0.061 SA 
BRANCH  23  24
HETATM   24  C   UNL     1     -12.140   9.334  70.967  1.00  0.00    -0.280 A  
HETATM   25  C   UNL     1     -11.620   8.041  71.078  1.00  0.00    -0.303 A  
HETATM   26  C   UNL     1     -13.739   7.231  71.920  1.00  0.00    -0.317 A  
HETATM   27  C   UNL     1     -12.419   6.992  71.544  1.00  0.00    -0.426 A  
HETATM   28  C   UNL     1     -14.261   8.519  71.834  1.00  0.00    -0.536 A  
HETATM   29  C   UNL     1     -13.464   9.565  71.364  1.00  0.00    -0.405 A  
ENDBRANCH  23  24
ENDBRANCH  10  23
TORSDOF 5
ENDMDL
MODEL      198
REMARK 921   NORMALIZED FREE ENERGY PREDICTED BY IDOCK:   -4.36 KCAL/MOL
REMARK 922        TOTAL FREE ENERGY PREDICTED BY IDOCK:   -6.80 KCAL/MOL
REMARK 923 INTER-LIGAND FREE ENERGY PREDICTED BY IDOCK:   -5.96 KCAL/MOL
REMARK 924 INTRA-LIGAND FREE ENERGY PREDICTED BY IDOCK:   -0.84 KCAL/MOL
REMARK 927      BINDING AFFINITY PREDICTED BY RF-SCORE:    0.00 PKD
ROOT
HETATM    1  C   UNL     1     -10.260  17.377  69.445  1.00  0.00    -0.119 C  
HETATM    2  C   UNL     1     -10.134  15.869  69.689  1.00  0.00    -0.271 C  
HETATM    3  C   UNL     1     -10.419  15.458  71.141  1.00  0.00     0.425 C  
HETATM    4  C   UNL     1      -8.719  15.415  69.358  1.00  0.00    -0.252 C  
HETATM    5  O   UNL     1      -7.743  16.116  69.625  1.00  0.00    -0.120 OA 
HETATM    6  C   UNL     1      -6.309  14.262  67.487  1.00  0.00    -0.006 C  
HETATM    7  N   UNL     1      -8.536  14.204  68.727  1.00  0.00    -0.117 N  
HETATM    8  C   UNL     1      -9.556  13.248  68.320  1.00  0.00    -0.221 C  
HETATM    9  C   UNL     1      -7.187  13.625  68.575  1.00  0.00    -0.109 C  
HETATM   10  C   UNL     1      -8.896  11.880  68.491  1.00  0.00    -0.108 C  
HETATM   11  C   UNL     1      -7.421  12.152  68.199  1.00  0.00    -0.114 C  
HETATM   12  O   UNL     1      -6.871  15.300  66.830  1.00  0.00    -0.184 OA 
HETATM   13  O   UNL     1      -5.192  13.846  67.194  1.00  0.00    -0.152 OA 
ENDROOT
BRANCH   3  14
HETATM   14  S   UNL     1     -12.098  15.933  71.634  1.00  0.00    -0.498 SA 
BRANCH  14  15
HETATM   15  C   UNL     1     -13.064  14.888  70.597  1.00  0.00    -0.315 C  
HETATM   16  O   UNL     1     -13.771  15.342  69.707  1.00  0.00     0.799 OA 
BRANCH  15  17
HETATM   17  C   UNL     1     -12.944  13.420  70.837  1.00  0.00    -0.195 A  
HETATM   18  C   UNL     1     -13.465  12.802  71.984  1.00  0.00    -0.540 A  
HETATM   19  C   UNL     1     -13.320  11.426  72.174  1.00  0.00    -0.271 A  
HETATM   20  C   UNL     1     -12.663  10.657  71.218  1.00  0.00    -0.537 A  
HETATM   21  C   UNL     1     -12.296  12.635  69.873  1.00  0.00    -0.126 A  
HETATM   22  C   UNL     1     -12.152  11.259  70.068  1.00  0.00    -0.425 A  
ENDBRANCH  15  17
ENDBRANCH  14  15
ENDBRANCH   3  14
BRANCH  10  23
HETATM   23  S   UNL     1      -9.682  10.666  67.371  1.00  0.00    -0.170 SA 
BRANCH  23  24
HETATM   24  C   UNL     1     -10.518  11.694  66.174  1.00  0.00    -0.247 A  
HETATM   25  C   UNL     1     -11.759  12.293  66.413  1.00  0.00    -0.431 A  
HETATM   26  C   UNL     1     -11.701  13.346  64.235  1.00  0.00    -0.455 A  
HETATM   27  C   UNL     1     -12.352  13.108  65.444  1.00  0.00    -0.532 A  
HETATM   28  C   UNL     1     -10.455  12.773  63.995  1.00  0.00    -0.433 A  
HETATM   29  C   UNL     1      -9.866  11.955  64.962  1.00  0.00    -0.234 A  
ENDBRANCH  23  24
ENDBRANCH  10  23
TORSDOF 5
ENDMDL
MODEL      199
REMARK 921   NORMALIZED FREE ENERGY PREDICTED BY IDOCK:   -4.34 KCAL/MOL
REMARK 922        TOTAL FREE ENERGY PREDICTED BY IDOCK:   -6.78 KCAL/MOL
REMARK 923 INTER-LIGAND FREE ENERGY PREDICTED BY IDOCK:   -5.70 KCAL/MOL
REMARK 924 INTRA-LIGAND FREE ENERGY PREDICTED BY IDOCK:   -1.08 KCAL/MOL
REMARK 927      BINDING AFFINITY PREDICTED BY RF-SCORE:    0.00 PKD
ROOT
HETATM    1  C   UNL     1      -6.830   6.805  70.888  1.00  0.00    -0.059 C  
HETATM    2  C   UNL     1      -7.241   7.253  69.480  1.00  0.00    -0.080 C  
HETATM    3  C   UNL     1      -6.832   6.264  68.379  1.00  0.00    -0.071 C  
HETATM    4  C   UNL     1      -6.584   8.588  69.157  1.00  0.00    -0.047 C  
HETATM    5  O   UNL     1      -5.435   8.840  69.519  1.00  0.00    -0.033 OA 
HETATM    6  C   UNL     1      -6.335  11.836  68.991  1.00  0.00    -0.078 C  
HETATM    7  N   UNL     1      -7.304   9.537  68.465  1.00  0.00    -0.078 N  
HETATM    8  C   UNL     1      -8.668   9.433  67.967  1.00  0.00    -0.124 C  
HETATM    9  C   UNL     1      -6.651  10.755  67.946  1.00  0.00    -0.063 C  
HETATM   10  C   UNL     1      -8.672  10.244  66.671  1.00  0.00    -0.127 C  
HETATM   11  C   UNL     1      -7.645  11.345  66.931  1.00  0.00    -0.151 C  
HETATM   12  O   UNL     1      -6.664  11.519  70.263  1.00  0.00    -0.126 OA 
HETATM   13  O   UNL     1      -5.859  12.930  68.704  1.00  0.00    -0.064 OA 
ENDROOT
BRANCH   3  14
HETATM   14  S   UNL     1      -7.584   4.638  68.656  1.00  0.00    -0.068 SA 
BRANCH  14  15
HETATM   15  C   UNL     1      -9.279   4.988  68.334  1.00  0.00    -0.120 C  
HETATM   16  O   UNL     1      -9.762   4.855  67.216  1.00  0.00    -0.148 OA 
BRANCH  15  17
HETATM   17  C   UNL     1     -10.102   5.417  69.502  1.00  0.00    -0.310 A  
HETATM   18  C   UNL     1      -9.941   4.859  70.780  1.00  0.00    -0.292 A  
HETATM   19  C   UNL     1     -10.741   5.282  71.843  1.00  0.00    -0.252 A  
HETATM   20  C   UNL     1     -11.701   6.270  71.641  1.00  0.00    -0.342 A  
HETATM   21  C   UNL     1     -11.062   6.421  69.312  1.00  0.00    -0.437 A  
HETATM   22  C   UNL     1     -11.862   6.841  70.378  1.00  0.00    -0.395 A  
ENDBRANCH  15  17
ENDBRANCH  14  15
ENDBRANCH   3  14
BRANCH  10  23
HETATM   23  S   UNL     1     -10.363  10.848  66.321  1.00  0.00    -0.240 SA 
BRANCH  23  24
HETATM   24  C   UNL     1     -10.992  11.267  67.939  1.00  0.00    -0.248 A  
HETATM   25  C   UNL     1     -11.236  12.582  68.348  1.00  0.00    -0.313 A  
HETATM   26  C   UNL     1     -12.045  11.794  70.488  1.00  0.00    -0.439 A  
HETATM   27  C   UNL     1     -11.752  12.844  69.621  1.00  0.00    -0.367 A  
HETATM   28  C   UNL     1     -11.826  10.480  70.084  1.00  0.00    -0.404 A  
HETATM   29  C   UNL     1     -11.306  10.219  68.814  1.00  0.00    -0.226 A  
ENDBRANCH  23  24
ENDBRANCH  10  23
TORSDOF 5
ENDMDL
MODEL      200
REMARK 921   NORMALIZED FREE ENERGY PREDICTED BY IDOCK:   -4.33 KCAL/MOL
REMARK 922        TOTAL FREE ENERGY PREDICTED BY IDOCK:   -6.76 KCAL/MOL
REMARK 923 INTER-LIGAND FREE ENERGY PREDICTED BY IDOCK:   -5.93 KCAL/MOL
REMARK 924 INTRA-LIGAND FREE ENERGY PREDICTED BY IDOCK:   -0.83 KCAL/MOL
REMARK 927      BINDING AFFINITY PREDICTED BY RF-SCORE:    0.00 PKD
ROOT
HETATM    1  C   UNL     1      -8.844  11.077  67.686  1.00  0.00    -0.131 C  
HETATM    2  C   UNL     1      -9.339   9.641  67.477  1.00  0.00    -0.149 C  
HETATM    3  C   UNL     1      -9.957   9.401  66.092  1.00  0.00    -0.281 C  
HETATM    4  C   UNL     1     -10.405   9.312  68.514  1.00  0.00    -0.209 C  
HETATM    5  O   UNL     1     -11.233  10.151  68.867  1.00  0.00    -0.225 OA 
HETATM    6  C   UNL     1     -11.581   8.202  71.346  1.00  0.00    -0.278 C  
HETATM    7  N   UNL     1     -10.423   8.056  69.079  1.00  0.00    -0.217 N  
HETATM    8  C   UNL     1      -9.526   6.942  68.804  1.00  0.00    -0.135 C  
HETATM    9  C   UNL     1     -11.553   7.621  69.924  1.00  0.00     0.178 C  
HETATM   10  C   UNL     1     -10.397   5.696  68.959  1.00  0.00    -0.243 C  
HETATM   11  C   UNL     1     -11.409   6.093  70.033  1.00  0.00    -0.443 C  
HETATM   12  O   UNL     1     -10.585   9.069  71.632  1.00  0.00    -0.316 OA 
HETATM   13  O   UNL     1     -12.415   7.881  72.187  1.00  0.00    -0.303 OA 
ENDROOT
BRANCH   3  14
HETATM   14  S   UNL     1      -8.757   9.741  64.777  1.00  0.00    -0.209 SA 
BRANCH  14  15
HETATM   15  C   UNL     1      -9.748  10.649  63.639  1.00  0.00    -0.330 C  
HETATM   16  O   UNL     1      -9.882  10.292  62.476  1.00  0.00    -0.193 OA 
BRANCH  15  17
HETATM   17  C   UNL     1     -10.444  11.854  64.179  1.00  0.00    -0.393 A  
HETATM   18  C   UNL     1      -9.799  13.092  64.326  1.00  0.00     0.082 A  
HETATM   19  C   UNL     1     -10.485  14.190  64.847  1.00  0.00    -0.461 A  
HETATM   20  C   UNL     1     -11.822  14.064  65.216  1.00  0.00    -0.363 A  
HETATM   21  C   UNL     1     -11.794  11.741  64.542  1.00  0.00    -0.235 A  
HETATM   22  C   UNL     1     -12.477  12.842  65.063  1.00  0.00    -0.553 A  
ENDBRANCH  15  17
ENDBRANCH  14  15
ENDBRANCH   3  14
BRANCH  10  23
HETATM   23  S   UNL     1      -9.353   4.258  69.394  1.00  0.00    -0.181 SA 
BRANCH  23  24
HETATM   24  C   UNL     1      -7.941   4.436  68.315  1.00  0.00    -0.079 A  
HETATM   25  C   UNL     1      -6.634   4.600  68.785  1.00  0.00    -0.045 A  
HETATM   26  C   UNL     1      -5.794   4.639  66.515  1.00  0.00    -0.022 A  
HETATM   27  C   UNL     1      -5.567   4.710  67.888  1.00  0.00    -0.017 A  
HETATM   28  C   UNL     1      -7.089   4.455  66.037  1.00  0.00    -0.071 A  
HETATM   29  C   UNL     1      -8.155   4.350  66.933  1.00  0.00    -0.102 A  
ENDBRANCH  23  24
ENDBRANCH  10  23
TORSDOF 5
ENDMDL
MODEL      201
REMARK 921   NORMALIZED FREE ENERGY PREDICTED BY IDOCK:   -4.30 KCAL/MOL
REMARK 922        TOTAL FREE ENERGY PREDICTED BY IDOCK:   -6.73 KCAL/MOL
REMARK 923 INTER-LIGAND FREE ENERGY PREDICTED BY IDOCK:   -4.67 KCAL/MOL
REMARK 924 INTRA-LIGAND FREE ENERGY PREDICTED BY IDOCK:   -2.06 KCAL/MOL
REMARK 927      BINDING AFFINITY PREDICTED BY RF-SCORE:    0.00 PKD
ROOT
HETATM    1  C   UNL     1     -13.227   9.427  71.031  1.00  0.00    -0.200 C  
HETATM    2  C   UNL     1     -11.898   9.539  70.276  1.00  0.00    -0.109 C  
HETATM    3  C   UNL     1     -10.718   8.888  71.013  1.00  0.00    -0.247 C  
HETATM    4  C   UNL     1     -11.550  11.007  70.069  1.00  0.00    -0.344 C  
HETATM    5  O   UNL     1     -11.780  11.847  70.938  1.00  0.00     0.048 OA 
HETATM    6  C   UNL     1     -11.480  13.873  68.515  1.00  0.00    -0.311 C  
HETATM    7  N   UNL     1     -10.986  11.398  68.874  1.00  0.00    -0.212 N  
HETATM    8  C   UNL     1     -10.654  10.562  67.729  1.00  0.00    -0.243 C  
HETATM    9  C   UNL     1     -10.440  12.759  68.703  1.00  0.00    -0.211 C  
HETATM   10  C   UNL     1      -9.400  11.201  67.133  1.00  0.00    -0.165 C  
HETATM   11  C   UNL     1      -9.577  12.689  67.432  1.00  0.00    -0.194 C  
HETATM   12  O   UNL     1     -12.769  13.471  68.566  1.00  0.00     0.401 OA 
HETATM   13  O   UNL     1     -11.180  15.042  68.291  1.00  0.00    -0.273 OA 
ENDROOT
BRANCH   3  14
HETATM   14  S   UNL     1     -11.020   7.122  71.291  1.00  0.00    -0.245 SA 
BRANCH  14  15
HETATM   15  C   UNL     1      -9.709   6.403  70.362  1.00  0.00    -0.165 C  
HETATM   16  O   UNL     1      -8.594   6.243  70.842  1.00  0.00    -0.133 OA 
BRANCH  15  17
HETATM   17  C   UNL     1     -10.040   5.964  68.975  1.00  0.00    -0.237 A  
HETATM   18  C   UNL     1      -9.479   4.814  68.397  1.00  0.00    -0.196 A  
HETATM   19  C   UNL     1      -9.808   4.446  67.091  1.00  0.00    -0.217 A  
HETATM   20  C   UNL     1     -10.705   5.217  66.356  1.00  0.00    -0.275 A  
HETATM   21  C   UNL     1     -10.952   6.726  68.231  1.00  0.00    -0.270 A  
HETATM   22  C   UNL     1     -11.278   6.355  66.924  1.00  0.00    -0.208 A  
ENDBRANCH  15  17
ENDBRANCH  14  15
ENDBRANCH   3  14
BRANCH  10  23
HETATM   23  S   UNL     1      -9.280  10.792  65.353  1.00  0.00    -0.213 SA 
BRANCH  23  24
HETATM   24  C   UNL     1      -8.635   9.127  65.359  1.00  0.00    -0.169 A  
HETATM   25  C   UNL     1      -8.569   8.327  64.214  1.00  0.00     0.095 A  
HETATM   26  C   UNL     1      -7.536   6.545  65.484  1.00  0.00    -0.083 A  
HETATM   27  C   UNL     1      -8.030   7.038  64.279  1.00  0.00    -0.091 A  
HETATM   28  C   UNL     1      -7.577   7.340  66.627  1.00  0.00    -0.093 A  
HETATM   29  C   UNL     1      -8.120   8.625  66.562  1.00  0.00    -0.103 A  
ENDBRANCH  23  24
ENDBRANCH  10  23
TORSDOF 5
ENDMDL
MODEL      202
REMARK 921   NORMALIZED FREE ENERGY PREDICTED BY IDOCK:   -4.26 KCAL/MOL
REMARK 922        TOTAL FREE ENERGY PREDICTED BY IDOCK:   -6.67 KCAL/MOL
REMARK 923 INTER-LIGAND FREE ENERGY PREDICTED BY IDOCK:   -6.05 KCAL/MOL
REMARK 924 INTRA-LIGAND FREE ENERGY PREDICTED BY IDOCK:   -0.62 KCAL/MOL
REMARK 927      BINDING AFFINITY PREDICTED BY RF-SCORE:    0.00 PKD
ROOT
HETATM    1  C   UNL     1     -10.271  10.685  65.451  1.00  0.00    -0.341 C  
HETATM    2  C   UNL     1      -9.884  10.424  66.911  1.00  0.00    -0.236 C  
HETATM    3  C   UNL     1      -9.498  11.696  67.680  1.00  0.00    -0.177 C  
HETATM    4  C   UNL     1      -8.688   9.482  66.961  1.00  0.00    -0.128 C  
HETATM    5  O   UNL     1      -7.776   9.563  66.139  1.00  0.00    -0.099 OA 
HETATM    6  C   UNL     1      -7.145   6.614  67.124  1.00  0.00    -0.076 C  
HETATM    7  N   UNL     1      -8.643   8.510  67.936  1.00  0.00    -0.133 N  
HETATM    8  C   UNL     1      -9.624   8.249  68.981  1.00  0.00    -0.156 C  
HETATM    9  C   UNL     1      -7.419   7.715  68.159  1.00  0.00    -0.108 C  
HETATM   10  C   UNL     1      -8.800   7.768  70.175  1.00  0.00    -0.145 C  
HETATM   11  C   UNL     1      -7.617   7.047  69.530  1.00  0.00    -0.098 C  
HETATM   12  O   UNL     1      -8.042   6.535  66.117  1.00  0.00    -0.108 OA 
HETATM   13  O   UNL     1      -6.208   5.827  67.212  1.00  0.00    -0.031 OA 
ENDROOT
BRANCH   3  14
HETATM   14  S   UNL     1     -10.869  12.882  67.702  1.00  0.00    -0.238 SA 
BRANCH  14  15
HETATM   15  C   UNL     1     -10.173  14.222  66.797  1.00  0.00    -0.272 C  
HETATM   16  O   UNL     1     -10.602  14.547  65.698  1.00  0.00    -0.299 OA 
BRANCH  15  17
HETATM   17  C   UNL     1      -9.060  14.964  67.460  1.00  0.00    -0.186 A  
HETATM   18  C   UNL     1      -7.797  15.110  66.864  1.00  0.00    -0.110 A  
HETATM   19  C   UNL     1      -6.779  15.802  67.525  1.00  0.00    -0.220 A  
HETATM   20  C   UNL     1      -7.017  16.360  68.778  1.00  0.00    -0.172 A  
HETATM   21  C   UNL     1      -9.293  15.540  68.716  1.00  0.00    -0.209 A  
HETATM   22  C   UNL     1      -8.272  16.231  69.374  1.00  0.00    -0.035 A  
ENDBRANCH  15  17
ENDBRANCH  14  15
ENDBRANCH   3  14
BRANCH  10  23
HETATM   23  S   UNL     1      -9.832   6.716  71.259  1.00  0.00    -0.176 SA 
BRANCH  23  24
HETATM   24  C   UNL     1     -11.376   7.610  71.347  1.00  0.00    -0.258 A  
HETATM   25  C   UNL     1     -12.620   7.013  71.121  1.00  0.00    -0.387 A  
HETATM   26  C   UNL     1     -13.739   9.109  71.581  1.00  0.00    -0.433 A  
HETATM   27  C   UNL     1     -13.796   7.762  71.229  1.00  0.00    -0.301 A  
HETATM   28  C   UNL     1     -12.507   9.709  71.829  1.00  0.00    -0.487 A  
HETATM   29  C   UNL     1     -11.332   8.961  71.717  1.00  0.00    -0.431 A  
ENDBRANCH  23  24
ENDBRANCH  10  23
TORSDOF 5
ENDMDL
MODEL      203
REMARK 921   NORMALIZED FREE ENERGY PREDICTED BY IDOCK:   -4.26 KCAL/MOL
REMARK 922        TOTAL FREE ENERGY PREDICTED BY IDOCK:   -6.67 KCAL/MOL
REMARK 923 INTER-LIGAND FREE ENERGY PREDICTED BY IDOCK:   -6.17 KCAL/MOL
REMARK 924 INTRA-LIGAND FREE ENERGY PREDICTED BY IDOCK:   -0.50 KCAL/MOL
REMARK 927      BINDING AFFINITY PREDICTED BY RF-SCORE:    0.00 PKD
ROOT
HETATM    1  C   UNL     1      -9.940  10.162  69.959  1.00  0.00    -0.213 C  
HETATM    2  C   UNL     1      -9.838   8.941  69.038  1.00  0.00    -0.182 C  
HETATM    3  C   UNL     1     -10.613   9.101  67.721  1.00  0.00    -0.227 C  
HETATM    4  C   UNL     1     -10.399   7.717  69.749  1.00  0.00    -0.223 C  
HETATM    5  O   UNL     1     -11.389   7.797  70.476  1.00  0.00    -0.274 OA 
HETATM    6  C   UNL     1     -10.314   5.030  71.596  1.00  0.00    -0.192 C  
HETATM    7  N   UNL     1      -9.769   6.503  69.587  1.00  0.00    -0.156 N  
HETATM    8  C   UNL     1      -8.588   6.211  68.786  1.00  0.00    -0.120 C  
HETATM    9  C   UNL     1     -10.387   5.255  70.078  1.00  0.00    -0.295 C  
HETATM   10  C   UNL     1      -8.810   4.789  68.271  1.00  0.00    -0.104 C  
HETATM   11  C   UNL     1      -9.611   4.121  69.387  1.00  0.00    -0.265 C  
HETATM   12  O   UNL     1      -9.722   6.023  72.296  1.00  0.00    -0.157 OA 
HETATM   13  O   UNL     1     -10.719   4.011  72.145  1.00  0.00    -0.006 OA 
ENDROOT
BRANCH   3  14
HETATM   14  S   UNL     1     -10.004  10.525  66.779  1.00  0.00    -0.211 SA 
BRANCH  14  15
HETATM   15  C   UNL     1     -11.275  11.704  67.087  1.00  0.00    -0.309 C  
HETATM   16  O   UNL     1     -12.117  11.530  67.959  1.00  0.00    -0.617 OA 
BRANCH  15  17
HETATM   17  C   UNL     1     -11.246  12.944  66.256  1.00  0.00    -0.337 A  
HETATM   18  C   UNL     1     -12.329  13.334  65.452  1.00  0.00    -0.528 A  
HETATM   19  C   UNL     1     -12.255  14.495  64.681  1.00  0.00    -0.474 A  
HETATM   20  C   UNL     1     -11.105  15.281  64.714  1.00  0.00    -0.407 A  
HETATM   21  C   UNL     1     -10.098  13.748  66.293  1.00  0.00    -0.304 A  
HETATM   22  C   UNL     1     -10.028  14.909  65.519  1.00  0.00    -0.392 A  
ENDBRANCH  15  17
ENDBRANCH  14  15
ENDBRANCH   3  14
BRANCH  10  23
HETATM   23  S   UNL     1      -7.199   3.999  67.913  1.00  0.00    -0.060 SA 
BRANCH  23  24
HETATM   24  C   UNL     1      -6.677   3.392  69.509  1.00  0.00    -0.034 A  
HETATM   25  C   UNL     1      -6.702   2.038  69.859  1.00  0.00    -0.033 A  
HETATM   26  C   UNL     1      -5.767   2.554  72.031  1.00  0.00    -0.008 A  
HETATM   27  C   UNL     1      -6.257   1.622  71.118  1.00  0.00    -0.018 A  
HETATM   28  C   UNL     1      -5.718   3.902  71.686  1.00  0.00    -0.008 A  
HETATM   29  C   UNL     1      -6.167   4.317  70.430  1.00  0.00    -0.019 A  
ENDBRANCH  23  24
ENDBRANCH  10  23
TORSDOF 5
ENDMDL
MODEL      204
REMARK 921   NORMALIZED FREE ENERGY PREDICTED BY IDOCK:   -4.24 KCAL/MOL
REMARK 922        TOTAL FREE ENERGY PREDICTED BY IDOCK:   -6.65 KCAL/MOL
REMARK 923 INTER-LIGAND FREE ENERGY PREDICTED BY IDOCK:   -5.58 KCAL/MOL
REMARK 924 INTRA-LIGAND FREE ENERGY PREDICTED BY IDOCK:   -1.07 KCAL/MOL
REMARK 927      BINDING AFFINITY PREDICTED BY RF-SCORE:    0.00 PKD
ROOT
HETATM    1  C   UNL     1      -8.669   5.365  69.554  1.00  0.00    -0.108 C  
HETATM    2  C   UNL     1      -9.154   6.621  68.822  1.00  0.00    -0.131 C  
HETATM    3  C   UNL     1     -10.650   6.591  68.477  1.00  0.00    -0.244 C  
HETATM    4  C   UNL     1      -8.390   6.776  67.513  1.00  0.00    -0.122 C  
HETATM    5  O   UNL     1      -8.093   5.799  66.826  1.00  0.00    -0.102 OA 
HETATM    6  C   UNL     1      -6.003   7.814  65.548  1.00  0.00    -0.038 C  
HETATM    7  N   UNL     1      -8.009   8.036  67.107  1.00  0.00    -0.111 N  
HETATM    8  C   UNL     1      -8.252   9.302  67.783  1.00  0.00    -0.115 C  
HETATM    9  C   UNL     1      -7.457   8.263  65.756  1.00  0.00    -0.080 C  
HETATM   10  C   UNL     1      -8.430  10.317  66.654  1.00  0.00    -0.124 C  
HETATM   11  C   UNL     1      -7.524   9.785  65.544  1.00  0.00    -0.115 C  
HETATM   12  O   UNL     1      -5.422   7.234  66.621  1.00  0.00    -0.022 OA 
HETATM   13  O   UNL     1      -5.384   8.000  64.505  1.00  0.00    -0.036 OA 
ENDROOT
BRANCH   3  14
HETATM   14  S   UNL     1     -11.658   6.432  69.976  1.00  0.00    -0.246 SA 
BRANCH  14  15
HETATM   15  C   UNL     1     -11.062   7.786  70.931  1.00  0.00    -0.259 C  
HETATM   16  O   UNL     1     -11.265   8.947  70.597  1.00  0.00    -0.256 OA 
BRANCH  15  17
HETATM   17  C   UNL     1     -10.331   7.444  72.186  1.00  0.00    -0.232 A  
HETATM   18  C   UNL     1     -10.668   6.329  72.970  1.00  0.00    -0.278 A  
HETATM   19  C   UNL     1      -9.966   6.052  74.145  1.00  0.00    -0.257 A  
HETATM   20  C   UNL     1      -8.918   6.879  74.540  1.00  0.00    -0.222 A  
HETATM   21  C   UNL     1      -9.266   8.263  72.586  1.00  0.00    -0.345 A  
HETATM   22  C   UNL     1      -8.566   7.982  73.762  1.00  0.00    -0.328 A  
ENDBRANCH  15  17
ENDBRANCH  14  15
ENDBRANCH   3  14
BRANCH  10  23
HETATM   23  S   UNL     1      -7.998  11.992  67.250  1.00  0.00    -0.178 SA 
BRANCH  23  24
HETATM   24  C   UNL     1      -9.549  12.616  67.878  1.00  0.00    -0.211 A  
HETATM   25  C   UNL     1      -9.841  13.979  67.980  1.00  0.00    -0.228 A  
HETATM   26  C   UNL     1     -12.052  13.471  68.821  1.00  0.00    -0.305 A  
HETATM   27  C   UNL     1     -11.084  14.405  68.458  1.00  0.00    -0.270 A  
HETATM   28  C   UNL     1     -11.781  12.110  68.703  1.00  0.00    -0.382 A  
HETATM   29  C   UNL     1     -10.537  11.686  68.230  1.00  0.00    -0.232 A  
ENDBRANCH  23  24
ENDBRANCH  10  23
TORSDOF 5
ENDMDL
MODEL      205
REMARK 921   NORMALIZED FREE ENERGY PREDICTED BY IDOCK:   -4.23 KCAL/MOL
REMARK 922        TOTAL FREE ENERGY PREDICTED BY IDOCK:   -6.64 KCAL/MOL
REMARK 923 INTER-LIGAND FREE ENERGY PREDICTED BY IDOCK:   -5.95 KCAL/MOL
REMARK 924 INTRA-LIGAND FREE ENERGY PREDICTED BY IDOCK:   -0.69 KCAL/MOL
REMARK 927      BINDING AFFINITY PREDICTED BY RF-SCORE:    0.00 PKD
ROOT
HETATM    1  C   UNL     1      -6.881  16.112  69.944  1.00  0.00     0.060 C  
HETATM    2  C   UNL     1      -7.739  15.574  68.793  1.00  0.00    -0.159 C  
HETATM    3  C   UNL     1      -7.460  16.260  67.448  1.00  0.00    -0.161 C  
HETATM    4  C   UNL     1      -9.213  15.786  69.113  1.00  0.00    -0.256 C  
HETATM    5  O   UNL     1      -9.604  16.804  69.683  1.00  0.00     0.010 OA 
HETATM    6  C   UNL     1     -12.158  15.022  70.288  1.00  0.00    -0.329 C  
HETATM    7  N   UNL     1     -10.118  14.805  68.774  1.00  0.00    -0.232 N  
HETATM    8  C   UNL     1      -9.851  13.535  68.113  1.00  0.00    -0.237 C  
HETATM    9  C   UNL     1     -11.571  15.048  68.868  1.00  0.00    -0.326 C  
HETATM   10  C   UNL     1     -11.090  13.273  67.258  1.00  0.00    -0.279 C  
HETATM   11  C   UNL     1     -12.223  13.913  68.060  1.00  0.00    -0.188 C  
HETATM   12  O   UNL     1     -11.261  14.816  71.277  1.00  0.00    -0.201 OA 
HETATM   13  O   UNL     1     -13.357  15.137  70.522  1.00  0.00    -0.286 OA 
ENDROOT
BRANCH   3  14
HETATM   14  S   UNL     1      -5.727  16.047  66.958  1.00  0.00     0.382 SA 
BRANCH  14  15
HETATM   15  C   UNL     1      -5.415  17.573  66.138  1.00  0.00    -0.183 C  
HETATM   16  O   UNL     1      -5.147  17.619  64.944  1.00  0.00    -0.017 OA 
BRANCH  15  17
HETATM   17  C   UNL     1      -5.534  18.809  66.966  1.00  0.00    -0.147 A  
HETATM   18  C   UNL     1      -5.874  20.054  66.414  1.00  0.00    -0.183 A  
HETATM   19  C   UNL     1      -5.962  21.187  67.224  1.00  0.00    -0.389 A  
HETATM   20  C   UNL     1      -5.722  21.086  68.591  1.00  0.00    -0.360 A  
HETATM   21  C   UNL     1      -5.307  18.714  68.346  1.00  0.00    -0.180 A  
HETATM   22  C   UNL     1      -5.395  19.851  69.154  1.00  0.00    -0.224 A  
ENDBRANCH  15  17
ENDBRANCH  14  15
ENDBRANCH   3  14
BRANCH  10  23
HETATM   23  S   UNL     1     -11.281  11.476  66.974  1.00  0.00    -0.266 SA 
BRANCH  23  24
HETATM   24  C   UNL     1     -10.443  11.217  65.418  1.00  0.00    -0.259 A  
HETATM   25  C   UNL     1     -10.393  12.179  64.405  1.00  0.00    -0.348 A  
HETATM   26  C   UNL     1      -9.034  10.713  63.041  1.00  0.00    -0.254 A  
HETATM   27  C   UNL     1      -9.699  11.925  63.218  1.00  0.00    -0.280 A  
HETATM   28  C   UNL     1      -9.059   9.755  64.051  1.00  0.00    -0.280 A  
HETATM   29  C   UNL     1      -9.757  10.008  65.235  1.00  0.00    -0.373 A  
ENDBRANCH  23  24
ENDBRANCH  10  23
TORSDOF 5
ENDMDL
MODEL      206
REMARK 921   NORMALIZED FREE ENERGY PREDICTED BY IDOCK:   -4.23 KCAL/MOL
REMARK 922        TOTAL FREE ENERGY PREDICTED BY IDOCK:   -6.63 KCAL/MOL
REMARK 923 INTER-LIGAND FREE ENERGY PREDICTED BY IDOCK:   -5.94 KCAL/MOL
REMARK 924 INTRA-LIGAND FREE ENERGY PREDICTED BY IDOCK:   -0.69 KCAL/MOL
REMARK 927      BINDING AFFINITY PREDICTED BY RF-SCORE:    0.00 PKD
ROOT
HETATM    1  C   UNL     1     -10.298  10.719  66.490  1.00  0.00    -0.300 C  
HETATM    2  C   UNL     1     -10.255  10.219  67.939  1.00  0.00    -0.217 C  
HETATM    3  C   UNL     1     -10.231  11.350  68.977  1.00  0.00    -0.117 C  
HETATM    4  C   UNL     1      -9.001   9.381  68.152  1.00  0.00    -0.128 C  
HETATM    5  O   UNL     1      -7.931   9.685  67.626  1.00  0.00    -0.105 OA 
HETATM    6  C   UNL     1      -7.203   6.661  68.255  1.00  0.00    -0.085 C  
HETATM    7  N   UNL     1      -9.079   8.250  68.934  1.00  0.00    -0.147 N  
HETATM    8  C   UNL     1     -10.247   7.721  69.625  1.00  0.00    -0.206 C  
HETATM    9  C   UNL     1      -7.859   7.525  69.343  1.00  0.00    -0.121 C  
HETATM   10  C   UNL     1      -9.691   7.090  70.901  1.00  0.00    -0.174 C  
HETATM   11  C   UNL     1      -8.305   6.597  70.486  1.00  0.00    -0.130 C  
HETATM   12  O   UNL     1      -7.807   6.703  67.046  1.00  0.00    -0.105 OA 
HETATM   13  O   UNL     1      -6.227   5.947  68.460  1.00  0.00    -0.026 OA 
ENDROOT
BRANCH   3  14
HETATM   14  S   UNL     1     -11.701  12.401  68.825  1.00  0.00    -0.326 SA 
BRANCH  14  15
HETATM   15  C   UNL     1     -10.975  13.935  68.356  1.00  0.00    -0.253 C  
HETATM   16  O   UNL     1     -10.261  14.569  69.123  1.00  0.00    -0.226 OA 
BRANCH  15  17
HETATM   17  C   UNL     1     -11.245  14.399  66.964  1.00  0.00    -0.336 A  
HETATM   18  C   UNL     1     -10.467  15.385  66.337  1.00  0.00    -0.307 A  
HETATM   19  C   UNL     1     -10.762  15.799  65.037  1.00  0.00    -0.443 A  
HETATM   20  C   UNL     1     -11.829  15.226  64.350  1.00  0.00    -0.288 A  
HETATM   21  C   UNL     1     -12.309  13.819  66.259  1.00  0.00    -0.479 A  
HETATM   22  C   UNL     1     -12.602  14.237  64.958  1.00  0.00    -0.360 A  
ENDBRANCH  15  17
ENDBRANCH  14  15
ENDBRANCH   3  14
BRANCH  10  23
HETATM   23  S   UNL     1     -10.821   5.777  71.488  1.00  0.00    -0.230 SA 
BRANCH  23  24
HETATM   24  C   UNL     1      -9.815   4.303  71.403  1.00  0.00    -0.190 A  
HETATM   25  C   UNL     1      -9.524   3.643  70.206  1.00  0.00    -0.257 A  
HETATM   26  C   UNL     1      -8.165   2.031  71.394  1.00  0.00    -0.055 A  
HETATM   27  C   UNL     1      -8.710   2.506  70.202  1.00  0.00    -0.125 A  
HETATM   28  C   UNL     1      -8.430   2.693  72.589  1.00  0.00    -0.070 A  
HETATM   29  C   UNL     1      -9.248   3.825  72.593  1.00  0.00    -0.138 A  
ENDBRANCH  23  24
ENDBRANCH  10  23
TORSDOF 5
ENDMDL
MODEL      207
REMARK 921   NORMALIZED FREE ENERGY PREDICTED BY IDOCK:   -4.21 KCAL/MOL
REMARK 922        TOTAL FREE ENERGY PREDICTED BY IDOCK:   -6.61 KCAL/MOL
REMARK 923 INTER-LIGAND FREE ENERGY PREDICTED BY IDOCK:   -6.03 KCAL/MOL
REMARK 924 INTRA-LIGAND FREE ENERGY PREDICTED BY IDOCK:   -0.58 KCAL/MOL
REMARK 927      BINDING AFFINITY PREDICTED BY RF-SCORE:    0.00 PKD
ROOT
HETATM    1  C   UNL     1      -6.654   7.555  67.080  1.00  0.00    -0.062 C  
HETATM    2  C   UNL     1      -8.066   7.828  67.611  1.00  0.00    -0.124 C  
HETATM    3  C   UNL     1      -8.918   6.559  67.764  1.00  0.00    -0.114 C  
HETATM    4  C   UNL     1      -8.801   8.755  66.653  1.00  0.00    -0.131 C  
HETATM    5  O   UNL     1      -8.664   8.656  65.434  1.00  0.00    -0.173 OA 
HETATM    6  C   UNL     1      -9.827  11.608  65.449  1.00  0.00    -0.238 C  
HETATM    7  N   UNL     1      -9.618   9.737  67.169  1.00  0.00    -0.164 N  
HETATM    8  C   UNL     1      -9.896  10.021  68.570  1.00  0.00    -0.156 C  
HETATM    9  C   UNL     1     -10.510  10.520  66.291  1.00  0.00    -0.183 C  
HETATM   10  C   UNL     1     -11.346  10.505  68.588  1.00  0.00    -0.252 C  
HETATM   11  C   UNL     1     -11.509  11.206  67.239  1.00  0.00    -0.218 C  
HETATM   12  O   UNL     1      -8.485  11.686  65.591  1.00  0.00     0.078 OA 
HETATM   13  O   UNL     1     -10.442  12.385  64.726  1.00  0.00    -0.284 OA 
ENDROOT
BRANCH   3  14
HETATM   14  S   UNL     1      -8.141   5.389  68.910  1.00  0.00    -0.094 SA 
BRANCH  14  15
HETATM   15  C   UNL     1      -9.552   4.723  69.725  1.00  0.00    -0.179 C  
HETATM   16  O   UNL     1      -9.862   3.543  69.613  1.00  0.00    -0.110 OA 
BRANCH  15  17
HETATM   17  C   UNL     1     -10.327   5.663  70.587  1.00  0.00    -0.320 A  
HETATM   18  C   UNL     1      -9.964   5.933  71.916  1.00  0.00    -0.203 A  
HETATM   19  C   UNL     1     -10.724   6.810  72.692  1.00  0.00    -0.271 A  
HETATM   20  C   UNL     1     -11.845   7.430  72.146  1.00  0.00    -0.323 A  
HETATM   21  C   UNL     1     -11.449   6.302  70.042  1.00  0.00    -0.460 A  
HETATM   22  C   UNL     1     -12.207   7.178  70.822  1.00  0.00    -0.308 A  
ENDBRANCH  15  17
ENDBRANCH  14  15
ENDBRANCH   3  14
BRANCH  10  23
HETATM   23  S   UNL     1     -11.624  11.580  70.042  1.00  0.00    -0.241 SA 
BRANCH  23  24
HETATM   24  C   UNL     1     -11.302  13.218  69.408  1.00  0.00    -0.219 A  
HETATM   25  C   UNL     1     -12.214  14.273  69.513  1.00  0.00    -0.341 A  
HETATM   26  C   UNL     1     -10.651  15.769  68.428  1.00  0.00    -0.264 A  
HETATM   27  C   UNL     1     -11.893  15.541  69.018  1.00  0.00    -0.373 A  
HETATM   28  C   UNL     1      -9.727  14.731  68.336  1.00  0.00    -0.214 A  
HETATM   29  C   UNL     1     -10.050  13.464  68.827  1.00  0.00    -0.094 A  
ENDBRANCH  23  24
ENDBRANCH  10  23
TORSDOF 5
ENDMDL
MODEL      208
REMARK 921   NORMALIZED FREE ENERGY PREDICTED BY IDOCK:   -4.21 KCAL/MOL
REMARK 922        TOTAL FREE ENERGY PREDICTED BY IDOCK:   -6.60 KCAL/MOL
REMARK 923 INTER-LIGAND FREE ENERGY PREDICTED BY IDOCK:   -5.29 KCAL/MOL
REMARK 924 INTRA-LIGAND FREE ENERGY PREDICTED BY IDOCK:   -1.31 KCAL/MOL
REMARK 927      BINDING AFFINITY PREDICTED BY RF-SCORE:    0.00 PKD
ROOT
HETATM    1  C   UNL     1      -9.654   6.090  69.042  1.00  0.00    -0.153 C  
HETATM    2  C   UNL     1      -9.617   7.563  69.468  1.00  0.00    -0.156 C  
HETATM    3  C   UNL     1      -8.241   8.020  69.974  1.00  0.00    -0.118 C  
HETATM    4  C   UNL     1     -10.615   7.793  70.595  1.00  0.00    -0.222 C  
HETATM    5  O   UNL     1     -10.789   6.953  71.477  1.00  0.00    -0.226 OA 
HETATM    6  C   UNL     1     -13.489   8.555  71.936  1.00  0.00    -0.383 C  
HETATM    7  N   UNL     1     -11.349   8.959  70.609  1.00  0.00    -0.263 N  
HETATM    8  C   UNL     1     -11.296  10.058  69.655  1.00  0.00    -0.202 C  
HETATM    9  C   UNL     1     -12.168   9.325  71.782  1.00  0.00    -0.385 C  
HETATM   10  C   UNL     1     -11.566  11.309  70.490  1.00  0.00    -0.133 C  
HETATM   11  C   UNL     1     -12.502  10.814  71.592  1.00  0.00    -0.381 C  
HETATM   12  O   UNL     1     -13.717   7.612  70.996  1.00  0.00    -0.170 OA 
HETATM   13  O   UNL     1     -14.308   8.794  72.817  1.00  0.00    -0.569 OA 
ENDROOT
BRANCH   3  14
HETATM   14  S   UNL     1      -6.976   7.810  68.693  1.00  0.00    -0.069 SA 
BRANCH  14  15
HETATM   15  C   UNL     1      -7.289   9.210  67.672  1.00  0.00    -0.087 C  
HETATM   16  O   UNL     1      -7.246  10.351  68.115  1.00  0.00    -0.084 OA 
BRANCH  15  17
HETATM   17  C   UNL     1      -7.570   8.934  66.233  1.00  0.00    -0.095 A  
HETATM   18  C   UNL     1      -6.961   9.658  65.196  1.00  0.00    -0.106 A  
HETATM   19  C   UNL     1      -7.262   9.374  63.863  1.00  0.00    -0.102 A  
HETATM   20  C   UNL     1      -8.166   8.361  63.554  1.00  0.00    -0.106 A  
HETATM   21  C   UNL     1      -8.469   7.907  65.912  1.00  0.00    -0.147 A  
HETATM   22  C   UNL     1      -8.768   7.626  64.576  1.00  0.00     0.376 A  
ENDBRANCH  15  17
ENDBRANCH  14  15
ENDBRANCH   3  14
BRANCH  10  23
HETATM   23  S   UNL     1     -12.269  12.624  69.429  1.00  0.00     0.051 SA 
BRANCH  23  24
HETATM   24  C   UNL     1     -11.233  12.576  67.976  1.00  0.00    -0.270 A  
HETATM   25  C   UNL     1     -11.367  11.613  66.971  1.00  0.00    -0.373 A  
HETATM   26  C   UNL     1      -9.583  12.647  65.704  1.00  0.00    -0.076 A  
HETATM   27  C   UNL     1     -10.540  11.643  65.844  1.00  0.00    -0.318 A  
HETATM   28  C   UNL     1      -9.454  13.623  66.688  1.00  0.00    -0.285 A  
HETATM   29  C   UNL     1     -10.278  13.589  67.816  1.00  0.00    -0.242 A  
ENDBRANCH  23  24
ENDBRANCH  10  23
TORSDOF 5
ENDMDL
MODEL      209
REMARK 921   NORMALIZED FREE ENERGY PREDICTED BY IDOCK:   -4.21 KCAL/MOL
REMARK 922        TOTAL FREE ENERGY PREDICTED BY IDOCK:   -6.60 KCAL/MOL
REMARK 923 INTER-LIGAND FREE ENERGY PREDICTED BY IDOCK:   -5.63 KCAL/MOL
REMARK 924 INTRA-LIGAND FREE ENERGY PREDICTED BY IDOCK:   -0.97 KCAL/MOL
REMARK 927      BINDING AFFINITY PREDICTED BY RF-SCORE:    0.00 PKD
ROOT
HETATM    1  C   UNL     1      -9.556   5.556  66.013  1.00  0.00    -0.128 C  
HETATM    2  C   UNL     1      -8.814   6.385  67.069  1.00  0.00    -0.115 C  
HETATM    3  C   UNL     1      -7.659   7.218  66.493  1.00  0.00    -0.092 C  
HETATM    4  C   UNL     1      -8.224   5.459  68.123  1.00  0.00    -0.099 C  
HETATM    5  O   UNL     1      -7.742   4.368  67.819  1.00  0.00    -0.079 OA 
HETATM    6  C   UNL     1      -8.146   3.761  70.907  1.00  0.00    -0.066 C  
HETATM    7  N   UNL     1      -8.252   5.847  69.444  1.00  0.00    -0.112 N  
HETATM    8  C   UNL     1      -8.786   7.082  70.000  1.00  0.00    -0.142 C  
HETATM    9  C   UNL     1      -7.511   5.090  70.473  1.00  0.00    -0.062 C  
HETATM   10  C   UNL     1      -7.880   7.397  71.190  1.00  0.00    -0.092 C  
HETATM   11  C   UNL     1      -7.460   6.019  71.698  1.00  0.00    -0.094 C  
HETATM   12  O   UNL     1      -9.289   3.433  70.263  1.00  0.00    -0.142 OA 
HETATM   13  O   UNL     1      -7.687   3.055  71.800  1.00  0.00    -0.051 OA 
ENDROOT
BRANCH   3  14
HETATM   14  S   UNL     1      -8.260   8.379  65.236  1.00  0.00    -0.157 SA 
BRANCH  14  15
HETATM   15  C   UNL     1      -8.030   9.918  66.059  1.00  0.00    -0.114 C  
HETATM   16  O   UNL     1      -6.916  10.398  66.225  1.00  0.00    -0.104 OA 
BRANCH  15  17
HETATM   17  C   UNL     1      -9.267  10.624  66.507  1.00  0.00    -0.187 A  
HETATM   18  C   UNL     1     -10.157  10.062  67.436  1.00  0.00    -0.256 A  
HETATM   19  C   UNL     1     -11.309  10.752  67.818  1.00  0.00    -0.354 A  
HETATM   20  C   UNL     1     -11.577  12.009  67.284  1.00  0.00    -0.383 A  
HETATM   21  C   UNL     1      -9.538  11.896  65.984  1.00  0.00    -0.251 A  
HETATM   22  C   UNL     1     -10.693  12.582  66.369  1.00  0.00    -0.275 A  
ENDBRANCH  15  17
ENDBRANCH  14  15
ENDBRANCH   3  14
BRANCH  10  23
HETATM   23  S   UNL     1      -8.787   8.414  72.410  1.00  0.00    -0.207 SA 
BRANCH  23  24
HETATM   24  C   UNL     1     -10.498   8.050  72.056  1.00  0.00    -0.246 A  
HETATM   25  C   UNL     1     -11.035   6.760  72.119  1.00  0.00    -0.270 A  
HETATM   26  C   UNL     1     -13.225   7.614  71.540  1.00  0.00    -0.380 A  
HETATM   27  C   UNL     1     -12.391   6.542  71.853  1.00  0.00    -0.339 A  
HETATM   28  C   UNL     1     -12.705   8.905  71.495  1.00  0.00    -0.386 A  
HETATM   29  C   UNL     1     -11.350   9.121  71.756  1.00  0.00    -0.451 A  
ENDBRANCH  23  24
ENDBRANCH  10  23
TORSDOF 5
ENDMDL
MODEL      210
REMARK 921   NORMALIZED FREE ENERGY PREDICTED BY IDOCK:   -4.20 KCAL/MOL
REMARK 922        TOTAL FREE ENERGY PREDICTED BY IDOCK:   -6.60 KCAL/MOL
REMARK 923 INTER-LIGAND FREE ENERGY PREDICTED BY IDOCK:   -5.97 KCAL/MOL
REMARK 924 INTRA-LIGAND FREE ENERGY PREDICTED BY IDOCK:   -0.63 KCAL/MOL
REMARK 927      BINDING AFFINITY PREDICTED BY RF-SCORE:    0.00 PKD
ROOT
HETATM    1  C   UNL     1     -10.500  18.027  68.917  1.00  0.00    -0.117 C  
HETATM    2  C   UNL     1     -10.695  16.704  68.166  1.00  0.00    -0.349 C  
HETATM    3  C   UNL     1     -11.319  16.876  66.774  1.00  0.00     0.666 C  
HETATM    4  C   UNL     1     -11.616  15.794  68.967  1.00  0.00    -0.400 C  
HETATM    5  O   UNL     1     -12.582  16.243  69.583  1.00  0.00     0.104 OA 
HETATM    6  C   UNL     1     -12.393  13.481  71.132  1.00  0.00    -0.290 C  
HETATM    7  N   UNL     1     -11.345  14.444  69.016  1.00  0.00    -0.254 N  
HETATM    8  C   UNL     1     -10.251  13.731  68.372  1.00  0.00    -0.248 C  
HETATM    9  C   UNL     1     -12.315  13.496  69.598  1.00  0.00    -0.165 C  
HETATM   10  C   UNL     1     -10.835  12.364  68.017  1.00  0.00    -0.221 C  
HETATM   11  C   UNL     1     -11.853  12.106  69.127  1.00  0.00    -0.361 C  
HETATM   12  O   UNL     1     -11.586  14.367  71.756  1.00  0.00    -0.070 OA 
HETATM   13  O   UNL     1     -13.099  12.700  71.762  1.00  0.00    -0.416 OA 
ENDROOT
BRANCH   3  14
HETATM   14  S   UNL     1     -10.282  17.930  65.724  1.00  0.00     0.001 SA 
BRANCH  14  15
HETATM   15  C   UNL     1      -8.676  17.325  66.115  1.00  0.00    -0.162 C  
HETATM   16  O   UNL     1      -8.433  16.126  66.156  1.00  0.00    -0.327 OA 
BRANCH  15  17
HETATM   17  C   UNL     1      -7.620  18.352  66.356  1.00  0.00    -0.282 A  
HETATM   18  C   UNL     1      -7.829  19.464  67.187  1.00  0.00    -0.279 A  
HETATM   19  C   UNL     1      -6.817  20.407  67.375  1.00  0.00    -0.322 A  
HETATM   20  C   UNL     1      -5.587  20.244  66.743  1.00  0.00    -0.193 A  
HETATM   21  C   UNL     1      -6.374  18.189  65.735  1.00  0.00    -0.297 A  
HETATM   22  C   UNL     1      -5.364  19.136  65.925  1.00  0.00    -0.168 A  
ENDBRANCH  15  17
ENDBRANCH  14  15
ENDBRANCH   3  14
BRANCH  10  23
HETATM   23  S   UNL     1      -9.494  11.123  67.912  1.00  0.00    -0.180 SA 
BRANCH  23  24
HETATM   24  C   UNL     1      -9.432  10.734  66.170  1.00  0.00    -0.187 A  
HETATM   25  C   UNL     1      -8.569   9.776  65.629  1.00  0.00    -0.154 A  
HETATM   26  C   UNL     1      -9.477  10.165  63.420  1.00  0.00    -0.308 A  
HETATM   27  C   UNL     1      -8.586   9.499  64.259  1.00  0.00    -0.215 A  
HETATM   28  C   UNL     1     -10.356  11.106  63.950  1.00  0.00    -0.441 A  
HETATM   29  C   UNL     1     -10.336  11.385  65.318  1.00  0.00    -0.336 A  
ENDBRANCH  23  24
ENDBRANCH  10  23
TORSDOF 5
ENDMDL
MODEL      211
REMARK 921   NORMALIZED FREE ENERGY PREDICTED BY IDOCK:   -4.20 KCAL/MOL
REMARK 922        TOTAL FREE ENERGY PREDICTED BY IDOCK:   -6.59 KCAL/MOL
REMARK 923 INTER-LIGAND FREE ENERGY PREDICTED BY IDOCK:   -5.86 KCAL/MOL
REMARK 924 INTRA-LIGAND FREE ENERGY PREDICTED BY IDOCK:   -0.74 KCAL/MOL
REMARK 927      BINDING AFFINITY PREDICTED BY RF-SCORE:    0.00 PKD
ROOT
HETATM    1  C   UNL     1     -13.981   9.540  71.554  1.00  0.00    -0.170 C  
HETATM    2  C   UNL     1     -12.760  10.259  70.969  1.00  0.00    -0.491 C  
HETATM    3  C   UNL     1     -11.431   9.548  71.264  1.00  0.00    -0.377 C  
HETATM    4  C   UNL     1     -12.665  11.661  71.556  1.00  0.00    -0.318 C  
HETATM    5  O   UNL     1     -12.941  11.882  72.734  1.00  0.00     0.482 OA 
HETATM    6  C   UNL     1     -13.183  14.877  71.717  1.00  0.00    -0.349 C  
HETATM    7  N   UNL     1     -12.280  12.702  70.739  1.00  0.00    -0.331 N  
HETATM    8  C   UNL     1     -11.929  12.645  69.327  1.00  0.00    -0.246 C  
HETATM    9  C   UNL     1     -11.970  14.032  71.301  1.00  0.00    -0.115 C  
HETATM   10  C   UNL     1     -10.849  13.713  69.153  1.00  0.00    -0.152 C  
HETATM   11  C   UNL     1     -11.226  14.779  70.181  1.00  0.00    -0.256 C  
HETATM   12  O   UNL     1     -14.383  14.281  71.549  1.00  0.00    -0.378 OA 
HETATM   13  O   UNL     1     -13.090  16.028  72.133  1.00  0.00    -0.429 OA 
ENDROOT
BRANCH   3  14
HETATM   14  S   UNL     1     -11.430   7.868  70.583  1.00  0.00    -0.190 SA 
BRANCH  14  15
HETATM   15  C   UNL     1     -10.106   7.137  71.485  1.00  0.00    -0.186 C  
HETATM   16  O   UNL     1     -10.296   6.227  72.283  1.00  0.00    -0.187 OA 
BRANCH  15  17
HETATM   17  C   UNL     1      -8.738   7.659  71.198  1.00  0.00    -0.138 A  
HETATM   18  C   UNL     1      -8.306   7.956  69.895  1.00  0.00    -0.122 A  
HETATM   19  C   UNL     1      -7.013   8.431  69.670  1.00  0.00    -0.048 A  
HETATM   20  C   UNL     1      -6.145   8.623  70.741  1.00  0.00    -0.035 A  
HETATM   21  C   UNL     1      -7.861   7.868  72.271  1.00  0.00    -0.138 A  
HETATM   22  C   UNL     1      -6.567   8.343  72.041  1.00  0.00    -0.075 A  
ENDBRANCH  15  17
ENDBRANCH  14  15
ENDBRANCH   3  14
BRANCH  10  23
HETATM   23  S   UNL     1     -10.831  14.300  67.420  1.00  0.00    -0.291 SA 
BRANCH  23  24
HETATM   24  C   UNL     1      -9.634  15.625  67.450  1.00  0.00    -0.217 A  
HETATM   25  C   UNL     1      -8.434  15.558  68.164  1.00  0.00    -0.147 A  
HETATM   26  C   UNL     1      -7.801  17.752  67.364  1.00  0.00    -0.217 A  
HETATM   27  C   UNL     1      -7.526  16.620  68.129  1.00  0.00    -0.170 A  
HETATM   28  C   UNL     1      -8.983  17.822  66.631  1.00  0.00    -0.283 A  
HETATM   29  C   UNL     1      -9.892  16.762  66.671  1.00  0.00    -0.287 A  
ENDBRANCH  23  24
ENDBRANCH  10  23
TORSDOF 5
ENDMDL
MODEL      212
REMARK 921   NORMALIZED FREE ENERGY PREDICTED BY IDOCK:   -4.17 KCAL/MOL
REMARK 922        TOTAL FREE ENERGY PREDICTED BY IDOCK:   -6.55 KCAL/MOL
REMARK 923 INTER-LIGAND FREE ENERGY PREDICTED BY IDOCK:   -5.66 KCAL/MOL
REMARK 924 INTRA-LIGAND FREE ENERGY PREDICTED BY IDOCK:   -0.89 KCAL/MOL
REMARK 927      BINDING AFFINITY PREDICTED BY RF-SCORE:    0.00 PKD
ROOT
HETATM    1  C   UNL     1     -11.821  12.837  69.727  1.00  0.00    -0.380 C  
HETATM    2  C   UNL     1     -11.364  11.627  68.903  1.00  0.00    -0.328 C  
HETATM    3  C   UNL     1     -11.931  11.608  67.476  1.00  0.00     0.033 C  
HETATM    4  C   UNL     1     -11.814  10.344  69.588  1.00  0.00    -0.180 C  
HETATM    5  O   UNL     1     -12.907  10.267  70.148  1.00  0.00    -0.186 OA 
HETATM    6  C   UNL     1     -11.568   7.770  71.577  1.00  0.00    -0.270 C  
HETATM    7  N   UNL     1     -10.967   9.258  69.595  1.00  0.00    -0.213 N  
HETATM    8  C   UNL     1      -9.639   9.158  69.004  1.00  0.00    -0.156 C  
HETATM    9  C   UNL     1     -11.433   7.935  70.056  1.00  0.00     0.054 C  
HETATM   10  C   UNL     1      -9.528   7.705  68.543  1.00  0.00    -0.147 C  
HETATM   11  C   UNL     1     -10.372   6.938  69.559  1.00  0.00    -0.224 C  
HETATM   12  O   UNL     1     -11.277   8.873  72.302  1.00  0.00    -0.340 OA 
HETATM   13  O   UNL     1     -11.876   6.711  72.115  1.00  0.00    -0.299 OA 
ENDROOT
BRANCH   3  14
HETATM   14  S   UNL     1     -11.432  13.089  66.559  1.00  0.00    -0.358 SA 
BRANCH  14  15
HETATM   15  C   UNL     1      -9.759  12.701  66.171  1.00  0.00    -0.251 C  
HETATM   16  O   UNL     1      -8.823  13.228  66.759  1.00  0.00    -0.208 OA 
BRANCH  15  17
HETATM   17  C   UNL     1      -9.544  11.668  65.115  1.00  0.00    -0.206 A  
HETATM   18  C   UNL     1      -9.817  11.911  63.760  1.00  0.00    -0.309 A  
HETATM   19  C   UNL     1      -9.614  10.912  62.807  1.00  0.00    -0.339 A  
HETATM   20  C   UNL     1      -9.128   9.666  63.197  1.00  0.00    -0.228 A  
HETATM   21  C   UNL     1      -9.043  10.415  65.497  1.00  0.00    -0.208 A  
HETATM   22  C   UNL     1      -8.842   9.417  64.540  1.00  0.00    -0.235 A  
ENDBRANCH  15  17
ENDBRANCH  14  15
ENDBRANCH   3  14
BRANCH  10  23
HETATM   23  S   UNL     1      -7.769   7.205  68.483  1.00  0.00    -0.122 SA 
BRANCH  23  24
HETATM   24  C   UNL     1      -7.846   5.499  67.961  1.00  0.00    -0.096 A  
HETATM   25  C   UNL     1      -6.866   4.555  68.282  1.00  0.00    -0.051 A  
HETATM   26  C   UNL     1      -8.115   2.828  67.135  1.00  0.00    -0.075 A  
HETATM   27  C   UNL     1      -6.996   3.227  67.863  1.00  0.00    -0.050 A  
HETATM   28  C   UNL     1      -9.108   3.755  66.827  1.00  0.00    -0.171 A  
HETATM   29  C   UNL     1      -8.975   5.082  67.242  1.00  0.00    -0.113 A  
ENDBRANCH  23  24
ENDBRANCH  10  23
TORSDOF 5
ENDMDL
MODEL      213
REMARK 921   NORMALIZED FREE ENERGY PREDICTED BY IDOCK:   -4.13 KCAL/MOL
REMARK 922        TOTAL FREE ENERGY PREDICTED BY IDOCK:   -6.51 KCAL/MOL
REMARK 923 INTER-LIGAND FREE ENERGY PREDICTED BY IDOCK:   -6.46 KCAL/MOL
REMARK 924 INTRA-LIGAND FREE ENERGY PREDICTED BY IDOCK:   -0.05 KCAL/MOL
REMARK 927      BINDING AFFINITY PREDICTED BY RF-SCORE:    0.00 PKD
ROOT
HETATM    1  C   UNL     1      -8.644   5.958  70.833  1.00  0.00    -0.131 C  
HETATM    2  C   UNL     1      -8.880   7.473  70.831  1.00  0.00    -0.144 C  
HETATM    3  C   UNL     1      -7.748   8.271  71.496  1.00  0.00    -0.098 C  
HETATM    4  C   UNL     1     -10.163   7.791  71.588  1.00  0.00    -0.186 C  
HETATM    5  O   UNL     1     -10.478   7.169  72.602  1.00  0.00    -0.208 OA 
HETATM    6  C   UNL     1     -13.356   8.340  71.962  1.00  0.00    -0.313 C  
HETATM    7  N   UNL     1     -10.993   8.780  71.109  1.00  0.00    -0.249 N  
HETATM    8  C   UNL     1     -10.803   9.609  69.928  1.00  0.00    -0.256 C  
HETATM    9  C   UNL     1     -12.133   9.268  71.911  1.00  0.00    -0.370 C  
HETATM   10  C   UNL     1     -11.419  10.958  70.297  1.00  0.00    -0.302 C  
HETATM   11  C   UNL     1     -12.559  10.587  71.245  1.00  0.00    -0.531 C  
HETATM   12  O   UNL     1     -13.221   7.174  71.293  1.00  0.00    -0.377 OA 
HETATM   13  O   UNL     1     -14.403   8.638  72.528  1.00  0.00    -0.523 OA 
ENDROOT
BRANCH   3  14
HETATM   14  S   UNL     1      -6.169   7.982  70.652  1.00  0.00    -0.036 SA 
BRANCH  14  15
HETATM   15  C   UNL     1      -6.556   8.508  69.017  1.00  0.00    -0.048 C  
HETATM   16  O   UNL     1      -6.920   7.717  68.156  1.00  0.00    -0.074 OA 
BRANCH  15  17
HETATM   17  C   UNL     1      -6.454   9.973  68.749  1.00  0.00    -0.045 A  
HETATM   18  C   UNL     1      -7.082  10.581  67.650  1.00  0.00    -0.084 A  
HETATM   19  C   UNL     1      -6.950  11.953  67.430  1.00  0.00    -0.128 A  
HETATM   20  C   UNL     1      -6.200  12.730  68.309  1.00  0.00    -0.078 A  
HETATM   21  C   UNL     1      -5.712  10.765  69.636  1.00  0.00    -0.044 A  
HETATM   22  C   UNL     1      -5.582  12.139  69.411  1.00  0.00    -0.077 A  
ENDBRANCH  15  17
ENDBRANCH  14  15
ENDBRANCH   3  14
BRANCH  10  23
HETATM   23  S   UNL     1     -11.947  11.837  68.782  1.00  0.00    -0.161 SA 
BRANCH  23  24
HETATM   24  C   UNL     1     -11.102  10.953  67.480  1.00  0.00    -0.310 A  
HETATM   25  C   UNL     1     -10.694   9.621  67.600  1.00  0.00    -0.324 A  
HETATM   26  C   UNL     1      -9.840   9.651  65.336  1.00  0.00    -0.322 A  
HETATM   27  C   UNL     1     -10.058   8.975  66.535  1.00  0.00    -0.354 A  
HETATM   28  C   UNL     1     -10.261  10.971  65.198  1.00  0.00    -0.352 A  
HETATM   29  C   UNL     1     -10.892  11.616  66.264  1.00  0.00    -0.333 A  
ENDBRANCH  23  24
ENDBRANCH  10  23
TORSDOF 5
ENDMDL
MODEL      214
REMARK 921   NORMALIZED FREE ENERGY PREDICTED BY IDOCK:   -4.12 KCAL/MOL
REMARK 922        TOTAL FREE ENERGY PREDICTED BY IDOCK:   -6.49 KCAL/MOL
REMARK 923 INTER-LIGAND FREE ENERGY PREDICTED BY IDOCK:   -5.83 KCAL/MOL
REMARK 924 INTRA-LIGAND FREE ENERGY PREDICTED BY IDOCK:   -0.67 KCAL/MOL
REMARK 927      BINDING AFFINITY PREDICTED BY RF-SCORE:    0.00 PKD
ROOT
HETATM    1  C   UNL     1      -6.120  11.380  69.228  1.00  0.00    -0.065 C  
HETATM    2  C   UNL     1      -7.402  12.144  68.874  1.00  0.00    -0.054 C  
HETATM    3  C   UNL     1      -8.460  11.275  68.179  1.00  0.00    -0.145 C  
HETATM    4  C   UNL     1      -7.068  13.293  67.932  1.00  0.00    -0.133 C  
HETATM    5  O   UNL     1      -6.219  13.170  67.049  1.00  0.00    -0.192 OA 
HETATM    6  C   UNL     1      -6.260  16.342  67.102  1.00  0.00    -0.141 C  
HETATM    7  N   UNL     1      -7.717  14.497  68.090  1.00  0.00    -0.117 N  
HETATM    8  C   UNL     1      -8.733  14.840  69.076  1.00  0.00    -0.139 C  
HETATM    9  C   UNL     1      -7.587  15.568  67.082  1.00  0.00    -0.218 C  
HETATM   10  C   UNL     1      -9.656  15.822  68.356  1.00  0.00    -0.200 C  
HETATM   11  C   UNL     1      -8.723  16.556  67.394  1.00  0.00    -0.195 C  
HETATM   12  O   UNL     1      -5.363  15.920  68.020  1.00  0.00    -0.107 OA 
HETATM   13  O   UNL     1      -6.031  17.303  66.375  1.00  0.00    -0.194 OA 
ENDROOT
BRANCH   3  14
HETATM   14  S   UNL     1      -8.949   9.882  69.231  1.00  0.00    -0.190 SA 
BRANCH  14  15
HETATM   15  C   UNL     1      -8.347   8.519  68.293  1.00  0.00    -0.124 C  
HETATM   16  O   UNL     1      -8.267   7.395  68.771  1.00  0.00    -0.126 OA 
BRANCH  15  17
HETATM   17  C   UNL     1      -7.975   8.801  66.875  1.00  0.00    -0.098 A  
HETATM   18  C   UNL     1      -8.937   8.967  65.867  1.00  0.00    -0.233 A  
HETATM   19  C   UNL     1      -8.546   9.218  64.550  1.00  0.00    -0.217 A  
HETATM   20  C   UNL     1      -7.193   9.313  64.233  1.00  0.00    -0.101 A  
HETATM   21  C   UNL     1      -6.617   8.912  66.548  1.00  0.00    -0.067 A  
HETATM   22  C   UNL     1      -6.229   9.161  65.229  1.00  0.00    -0.064 A  
ENDBRANCH  15  17
ENDBRANCH  14  15
ENDBRANCH   3  14
BRANCH  10  23
HETATM   23  S   UNL     1     -10.490  16.900  69.577  1.00  0.00    -0.132 SA 
BRANCH  23  24
HETATM   24  C   UNL     1     -11.527  15.764  70.485  1.00  0.00    -0.381 A  
HETATM   25  C   UNL     1     -12.056  14.597  69.927  1.00  0.00    -0.385 A  
HETATM   26  C   UNL     1     -13.092  14.023  72.037  1.00  0.00    -0.487 A  
HETATM   27  C   UNL     1     -12.842  13.735  70.697  1.00  0.00    -0.262 A  
HETATM   28  C   UNL     1     -12.552  15.172  72.610  1.00  0.00    -0.466 A  
HETATM   29  C   UNL     1     -11.771  16.035  71.838  1.00  0.00    -0.594 A  
ENDBRANCH  23  24
ENDBRANCH  10  23
TORSDOF 5
ENDMDL
MODEL      215
REMARK 921   NORMALIZED FREE ENERGY PREDICTED BY IDOCK:   -4.12 KCAL/MOL
REMARK 922        TOTAL FREE ENERGY PREDICTED BY IDOCK:   -6.49 KCAL/MOL
REMARK 923 INTER-LIGAND FREE ENERGY PREDICTED BY IDOCK:   -5.82 KCAL/MOL
REMARK 924 INTRA-LIGAND FREE ENERGY PREDICTED BY IDOCK:   -0.67 KCAL/MOL
REMARK 927      BINDING AFFINITY PREDICTED BY RF-SCORE:    0.00 PKD
ROOT
HETATM    1  C   UNL     1     -10.845  10.384  67.417  1.00  0.00    -0.344 C  
HETATM    2  C   UNL     1      -9.748  11.449  67.524  1.00  0.00    -0.191 C  
HETATM    3  C   UNL     1      -8.403  10.896  68.018  1.00  0.00    -0.122 C  
HETATM    4  C   UNL     1     -10.180  12.531  68.504  1.00  0.00    -0.203 C  
HETATM    5  O   UNL     1     -10.803  12.254  69.529  1.00  0.00    -0.040 OA 
HETATM    6  C   UNL     1     -11.550  15.337  69.449  1.00  0.00    -0.330 C  
HETATM    7  N   UNL     1      -9.885  13.847  68.221  1.00  0.00    -0.226 N  
HETATM    8  C   UNL     1      -9.175  14.372  67.063  1.00  0.00    -0.234 C  
HETATM    9  C   UNL     1     -10.092  14.905  69.230  1.00  0.00    -0.195 C  
HETATM   10  C   UNL     1      -8.407  15.582  67.594  1.00  0.00    -0.155 C  
HETATM   11  C   UNL     1      -9.306  16.119  68.708  1.00  0.00    -0.229 C  
HETATM   12  O   UNL     1     -12.465  14.666  68.715  1.00  0.00    -0.071 OA 
HETATM   13  O   UNL     1     -11.874  16.251  70.201  1.00  0.00    -0.199 OA 
ENDROOT
BRANCH   3  14
HETATM   14  S   UNL     1      -7.782   9.609  66.902  1.00  0.00    -0.098 SA 
BRANCH  14  15
HETATM   15  C   UNL     1      -7.781   8.207  67.967  1.00  0.00    -0.114 C  
HETATM   16  O   UNL     1      -7.150   8.197  69.016  1.00  0.00    -0.059 OA 
BRANCH  15  17
HETATM   17  C   UNL     1      -8.621   7.049  67.541  1.00  0.00    -0.121 A  
HETATM   18  C   UNL     1      -9.979   7.187  67.213  1.00  0.00    -0.243 A  
HETATM   19  C   UNL     1     -10.730   6.074  66.831  1.00  0.00    -0.407 A  
HETATM   20  C   UNL     1     -10.131   4.819  66.764  1.00  0.00    -0.261 A  
HETATM   21  C   UNL     1      -8.023   5.783  67.459  1.00  0.00    -0.102 A  
HETATM   22  C   UNL     1      -8.780   4.672  67.077  1.00  0.00    -0.104 A  
ENDBRANCH  15  17
ENDBRANCH  14  15
ENDBRANCH   3  14
BRANCH  10  23
HETATM   23  S   UNL     1      -8.093  16.764  66.234  1.00  0.00    -0.276 SA 
BRANCH  23  24
HETATM   24  C   UNL     1      -7.233  18.103  67.046  1.00  0.00    -0.201 A  
HETATM   25  C   UNL     1      -6.010  17.941  67.702  1.00  0.00    -0.159 A  
HETATM   26  C   UNL     1      -5.948  20.303  68.228  1.00  0.00    -0.304 A  
HETATM   27  C   UNL     1      -5.374  19.035  68.299  1.00  0.00    -0.187 A  
HETATM   28  C   UNL     1      -7.156  20.480  67.558  1.00  0.00    -0.370 A  
HETATM   29  C   UNL     1      -7.792  19.386  66.967  1.00  0.00    -0.275 A  
ENDBRANCH  23  24
ENDBRANCH  10  23
TORSDOF 5
ENDMDL
MODEL      216
REMARK 921   NORMALIZED FREE ENERGY PREDICTED BY IDOCK:   -4.09 KCAL/MOL
REMARK 922        TOTAL FREE ENERGY PREDICTED BY IDOCK:   -6.45 KCAL/MOL
REMARK 923 INTER-LIGAND FREE ENERGY PREDICTED BY IDOCK:   -5.75 KCAL/MOL
REMARK 924 INTRA-LIGAND FREE ENERGY PREDICTED BY IDOCK:   -0.70 KCAL/MOL
REMARK 927      BINDING AFFINITY PREDICTED BY RF-SCORE:    0.00 PKD
ROOT
HETATM    1  C   UNL     1      -7.363  16.316  69.778  1.00  0.00     0.221 C  
HETATM    2  C   UNL     1      -8.155  15.590  68.684  1.00  0.00    -0.159 C  
HETATM    3  C   UNL     1      -8.062  16.267  67.308  1.00  0.00    -0.176 C  
HETATM    4  C   UNL     1      -9.628  15.541  69.067  1.00  0.00    -0.238 C  
HETATM    5  O   UNL     1     -10.175  16.491  69.626  1.00  0.00    -0.238 OA 
HETATM    6  C   UNL     1     -12.332  14.296  70.400  1.00  0.00    -0.352 C  
HETATM    7  N   UNL     1     -10.351  14.400  68.798  1.00  0.00    -0.239 N  
HETATM    8  C   UNL     1      -9.883  13.177  68.160  1.00  0.00    -0.228 C  
HETATM    9  C   UNL     1     -11.819  14.377  68.954  1.00  0.00    -0.320 C  
HETATM   10  C   UNL     1     -11.088  12.664  67.373  1.00  0.00    -0.273 C  
HETATM   11  C   UNL     1     -12.284  13.115  68.209  1.00  0.00    -0.065 C  
HETATM   12  O   UNL     1     -11.372  14.292  71.351  1.00  0.00     0.168 OA 
HETATM   13  O   UNL     1     -13.521  14.199  70.687  1.00  0.00    -0.132 OA 
ENDROOT
BRANCH   3  14
HETATM   14  S   UNL     1      -6.342  16.356  66.744  1.00  0.00     0.183 SA 
BRANCH  14  15
HETATM   15  C   UNL     1      -6.262  18.013  66.155  1.00  0.00    -0.227 C  
HETATM   16  O   UNL     1      -6.441  18.286  64.974  1.00  0.00    -0.392 OA 
BRANCH  15  17
HETATM   17  C   UNL     1      -6.004  19.070  67.177  1.00  0.00    -0.166 A  
HETATM   18  C   UNL     1      -6.339  20.417  66.965  1.00  0.00    -0.255 A  
HETATM   19  C   UNL     1      -6.068  21.375  67.944  1.00  0.00    -0.282 A  
HETATM   20  C   UNL     1      -5.472  20.995  69.144  1.00  0.00    -0.375 A  
HETATM   21  C   UNL     1      -5.416  18.695  68.393  1.00  0.00    -0.191 A  
HETATM   22  C   UNL     1      -5.147  19.658  69.370  1.00  0.00    -0.197 A  
ENDBRANCH  15  17
ENDBRANCH  14  15
ENDBRANCH   3  14
BRANCH  10  23
HETATM   23  S   UNL     1     -10.957  10.853  67.147  1.00  0.00    -0.238 SA 
BRANCH  23  24
HETATM   24  C   UNL     1     -10.747  10.247  68.813  1.00  0.00    -0.219 A  
HETATM   25  C   UNL     1     -11.819   9.974  69.669  1.00  0.00    -0.037 A  
HETATM   26  C   UNL     1     -10.289   9.232  71.392  1.00  0.00    -0.392 A  
HETATM   27  C   UNL     1     -11.590   9.477  70.956  1.00  0.00    -0.419 A  
HETATM   28  C   UNL     1      -9.216   9.480  70.540  1.00  0.00    -0.284 A  
HETATM   29  C   UNL     1      -9.445   9.980  69.257  1.00  0.00    -0.227 A  
ENDBRANCH  23  24
ENDBRANCH  10  23
TORSDOF 5
ENDMDL
MODEL      217
REMARK 921   NORMALIZED FREE ENERGY PREDICTED BY IDOCK:   -4.01 KCAL/MOL
REMARK 922        TOTAL FREE ENERGY PREDICTED BY IDOCK:   -6.35 KCAL/MOL
REMARK 923 INTER-LIGAND FREE ENERGY PREDICTED BY IDOCK:   -4.58 KCAL/MOL
REMARK 924 INTRA-LIGAND FREE ENERGY PREDICTED BY IDOCK:   -1.77 KCAL/MOL
REMARK 927      BINDING AFFINITY PREDICTED BY RF-SCORE:    0.00 PKD
ROOT
HETATM    1  C   UNL     1      -9.126  12.155  67.312  1.00  0.00    -0.181 C  
HETATM    2  C   UNL     1      -9.530  10.727  66.930  1.00  0.00    -0.192 C  
HETATM    3  C   UNL     1     -10.420  10.656  65.680  1.00  0.00    -0.165 C  
HETATM    4  C   UNL     1     -10.306  10.092  68.076  1.00  0.00    -0.198 C  
HETATM    5  O   UNL     1     -11.103  10.745  68.748  1.00  0.00    -0.221 OA 
HETATM    6  C   UNL     1     -10.722   8.365  70.812  1.00  0.00    -0.212 C  
HETATM    7  N   UNL     1     -10.091   8.764  68.374  1.00  0.00    -0.184 N  
HETATM    8  C   UNL     1      -9.187   7.836  67.708  1.00  0.00    -0.136 C  
HETATM    9  C   UNL     1     -10.962   8.050  69.328  1.00  0.00     0.039 C  
HETATM   10  C   UNL     1      -9.893   6.483  67.788  1.00  0.00    -0.123 C  
HETATM   11  C   UNL     1     -10.669   6.557  69.102  1.00  0.00    -0.323 C  
HETATM   12  O   UNL     1      -9.764   9.287  71.055  1.00  0.00    -0.272 OA 
HETATM   13  O   UNL     1     -11.316   7.801  71.725  1.00  0.00    -0.248 OA 
ENDROOT
BRANCH   3  14
HETATM   14  S   UNL     1      -9.577  11.369  64.242  1.00  0.00    -0.149 SA 
BRANCH  14  15
HETATM   15  C   UNL     1      -8.952   9.919  63.462  1.00  0.00    -0.252 C  
HETATM   16  O   UNL     1      -9.403   9.516  62.398  1.00  0.00    -0.245 OA 
BRANCH  15  17
HETATM   17  C   UNL     1      -7.818   9.233  64.148  1.00  0.00    -0.125 A  
HETATM   18  C   UNL     1      -6.768   9.940  64.755  1.00  0.00    -0.122 A  
HETATM   19  C   UNL     1      -5.720   9.257  65.375  1.00  0.00    -0.057 A  
HETATM   20  C   UNL     1      -5.716   7.865  65.402  1.00  0.00    -0.037 A  
HETATM   21  C   UNL     1      -7.811   7.832  64.192  1.00  0.00    -0.133 A  
HETATM   22  C   UNL     1      -6.760   7.152  64.813  1.00  0.00    -0.046 A  
ENDBRANCH  15  17
ENDBRANCH  14  15
ENDBRANCH   3  14
BRANCH  10  23
HETATM   23  S   UNL     1      -8.659   5.133  67.709  1.00  0.00    -0.103 SA 
BRANCH  23  24
HETATM   24  C   UNL     1      -8.960   4.397  66.110  1.00  0.00    -0.121 A  
HETATM   25  C   UNL     1     -10.205   4.427  65.475  1.00  0.00    -0.260 A  
HETATM   26  C   UNL     1      -9.289   3.261  63.563  1.00  0.00    -0.097 A  
HETATM   27  C   UNL     1     -10.371   3.853  64.211  1.00  0.00    -0.245 A  
HETATM   28  C   UNL     1      -8.040   3.244  64.176  1.00  0.00    -0.082 A  
HETATM   29  C   UNL     1      -7.876   3.813  65.441  1.00  0.00    -0.089 A  
ENDBRANCH  23  24
ENDBRANCH  10  23
TORSDOF 5
ENDMDL
MODEL      218
REMARK 921   NORMALIZED FREE ENERGY PREDICTED BY IDOCK:   -4.00 KCAL/MOL
REMARK 922        TOTAL FREE ENERGY PREDICTED BY IDOCK:   -6.34 KCAL/MOL
REMARK 923 INTER-LIGAND FREE ENERGY PREDICTED BY IDOCK:   -5.59 KCAL/MOL
REMARK 924 INTRA-LIGAND FREE ENERGY PREDICTED BY IDOCK:   -0.74 KCAL/MOL
REMARK 927      BINDING AFFINITY PREDICTED BY RF-SCORE:    0.00 PKD
ROOT
HETATM    1  C   UNL     1     -10.218   6.287  70.980  1.00  0.00    -0.234 C  
HETATM    2  C   UNL     1      -9.878   7.685  70.449  1.00  0.00    -0.183 C  
HETATM    3  C   UNL     1      -8.401   8.065  70.627  1.00  0.00    -0.123 C  
HETATM    4  C   UNL     1     -10.707   8.727  71.188  1.00  0.00    -0.248 C  
HETATM    5  O   UNL     1     -10.944   8.620  72.391  1.00  0.00    -0.353 OA 
HETATM    6  C   UNL     1     -13.258  10.686  71.727  1.00  0.00    -0.421 C  
HETATM    7  N   UNL     1     -11.216   9.797  70.486  1.00  0.00    -0.290 N  
HETATM    8  C   UNL     1     -11.058  10.089  69.068  1.00  0.00    -0.180 C  
HETATM    9  C   UNL     1     -11.842  10.936  71.186  1.00  0.00    -0.088 C  
HETATM   10  C   UNL     1     -11.020  11.615  68.988  1.00  0.00    -0.233 C  
HETATM   11  C   UNL     1     -11.920  12.060  70.139  1.00  0.00    -0.401 C  
HETATM   12  O   UNL     1     -13.740   9.440  71.523  1.00  0.00    -0.367 OA 
HETATM   13  O   UNL     1     -13.934  11.555  72.268  1.00  0.00     0.118 OA 
ENDROOT
BRANCH   3  14
HETATM   14  S   UNL     1      -7.321   6.895  69.760  1.00  0.00    -0.087 SA 
BRANCH  14  15
HETATM   15  C   UNL     1      -6.701   7.906  68.458  1.00  0.00    -0.062 C  
HETATM   16  O   UNL     1      -6.304   9.046  68.662  1.00  0.00    -0.052 OA 
BRANCH  15  17
HETATM   17  C   UNL     1      -6.650   7.284  67.102  1.00  0.00    -0.063 A  
HETATM   18  C   UNL     1      -5.743   7.705  66.117  1.00  0.00    -0.036 A  
HETATM   19  C   UNL     1      -5.738   7.104  64.857  1.00  0.00    -0.033 A  
HETATM   20  C   UNL     1      -6.631   6.074  64.573  1.00  0.00    -0.038 A  
HETATM   21  C   UNL     1      -7.537   6.238  66.812  1.00  0.00    -0.099 A  
HETATM   22  C   UNL     1      -7.529   5.640  65.549  1.00  0.00    -0.074 A  
ENDBRANCH  15  17
ENDBRANCH  14  15
ENDBRANCH   3  14
BRANCH  10  23
HETATM   23  S   UNL     1     -11.574  12.165  67.333  1.00  0.00    -0.316 SA 
BRANCH  23  24
HETATM   24  C   UNL     1     -10.755  13.739  67.130  1.00  0.00    -0.281 A  
HETATM   25  C   UNL     1      -9.456  13.868  66.629  1.00  0.00    -0.296 A  
HETATM   26  C   UNL     1      -9.602  16.278  66.795  1.00  0.00    -0.254 A  
HETATM   27  C   UNL     1      -8.879  15.132  66.471  1.00  0.00    -0.312 A  
HETATM   28  C   UNL     1     -10.904  16.163  67.274  1.00  0.00    -0.235 A  
HETATM   29  C   UNL     1     -11.478  14.900  67.437  1.00  0.00    -0.354 A  
ENDBRANCH  23  24
ENDBRANCH  10  23
TORSDOF 5
ENDMDL
MODEL      219
REMARK 921   NORMALIZED FREE ENERGY PREDICTED BY IDOCK:   -3.98 KCAL/MOL
REMARK 922        TOTAL FREE ENERGY PREDICTED BY IDOCK:   -6.31 KCAL/MOL
REMARK 923 INTER-LIGAND FREE ENERGY PREDICTED BY IDOCK:   -5.65 KCAL/MOL
REMARK 924 INTRA-LIGAND FREE ENERGY PREDICTED BY IDOCK:   -0.66 KCAL/MOL
REMARK 927      BINDING AFFINITY PREDICTED BY RF-SCORE:    0.00 PKD
ROOT
HETATM    1  C   UNL     1      -9.526   3.139  67.591  1.00  0.00    -0.202 C  
HETATM    2  C   UNL     1      -9.706   4.526  68.220  1.00  0.00    -0.186 C  
HETATM    3  C   UNL     1      -8.772   5.592  67.629  1.00  0.00    -0.107 C  
HETATM    4  C   UNL     1      -9.421   4.450  69.714  1.00  0.00    -0.184 C  
HETATM    5  O   UNL     1      -8.519   3.740  70.158  1.00  0.00    -0.059 OA 
HETATM    6  C   UNL     1     -10.119   4.070  72.877  1.00  0.00    -0.154 C  
HETATM    7  N   UNL     1     -10.205   5.177  70.582  1.00  0.00    -0.253 N  
HETATM    8  C   UNL     1     -11.318   6.057  70.254  1.00  0.00    -0.266 C  
HETATM    9  C   UNL     1      -9.841   5.305  72.007  1.00  0.00    -0.174 C  
HETATM   10  C   UNL     1     -11.256   7.168  71.302  1.00  0.00    -0.259 C  
HETATM   11  C   UNL     1     -10.697   6.468  72.539  1.00  0.00    -0.255 C  
HETATM   12  O   UNL     1     -10.630   3.006  72.218  1.00  0.00    -0.034 OA 
HETATM   13  O   UNL     1      -9.937   4.046  74.090  1.00  0.00    -0.120 OA 
ENDROOT
BRANCH   3  14
HETATM   14  S   UNL     1      -9.048   5.781  65.847  1.00  0.00    -0.100 SA 
BRANCH  14  15
HETATM   15  C   UNL     1      -9.204   7.530  65.711  1.00  0.00     0.100 C  
HETATM   16  O   UNL     1     -10.034   8.154  66.360  1.00  0.00    -0.240 OA 
BRANCH  15  17
HETATM   17  C   UNL     1      -8.245   8.212  64.793  1.00  0.00    -0.137 A  
HETATM   18  C   UNL     1      -7.517   7.516  63.816  1.00  0.00    -0.108 A  
HETATM   19  C   UNL     1      -6.621   8.193  62.986  1.00  0.00    -0.085 A  
HETATM   20  C   UNL     1      -6.453   9.569  63.118  1.00  0.00    -0.103 A  
HETATM   21  C   UNL     1      -8.079   9.599  64.910  1.00  0.00    -0.133 A  
HETATM   22  C   UNL     1      -7.181  10.272  64.078  1.00  0.00    -0.057 A  
ENDBRANCH  15  17
ENDBRANCH  14  15
ENDBRANCH   3  14
BRANCH  10  23
HETATM   23  S   UNL     1     -12.917   7.902  71.529  1.00  0.00    -0.279 SA 
BRANCH  23  24
HETATM   24  C   UNL     1     -12.659   9.626  71.143  1.00  0.00    -0.322 A  
HETATM   25  C   UNL     1     -13.269  10.668  71.848  1.00  0.00    -0.528 A  
HETATM   26  C   UNL     1     -12.121  12.302  70.480  1.00  0.00    -0.371 A  
HETATM   27  C   UNL     1     -13.008  12.000  71.512  1.00  0.00    -0.407 A  
HETATM   28  C   UNL     1     -11.492  11.273  69.785  1.00  0.00    -0.386 A  
HETATM   29  C   UNL     1     -11.757   9.942  70.118  1.00  0.00    -0.239 A  
ENDBRANCH  23  24
ENDBRANCH  10  23
TORSDOF 5
ENDMDL
MODEL      220
REMARK 921   NORMALIZED FREE ENERGY PREDICTED BY IDOCK:   -3.95 KCAL/MOL
REMARK 922        TOTAL FREE ENERGY PREDICTED BY IDOCK:   -6.27 KCAL/MOL
REMARK 923 INTER-LIGAND FREE ENERGY PREDICTED BY IDOCK:   -4.73 KCAL/MOL
REMARK 924 INTRA-LIGAND FREE ENERGY PREDICTED BY IDOCK:   -1.54 KCAL/MOL
REMARK 927      BINDING AFFINITY PREDICTED BY RF-SCORE:    0.00 PKD
ROOT
HETATM    1  C   UNL     1      -5.537   5.782  66.108  1.00  0.00    -0.013 C  
HETATM    2  C   UNL     1      -6.863   5.956  66.859  1.00  0.00    -0.063 C  
HETATM    3  C   UNL     1      -7.599   4.632  67.117  1.00  0.00    -0.086 C  
HETATM    4  C   UNL     1      -7.797   6.843  66.047  1.00  0.00    -0.104 C  
HETATM    5  O   UNL     1      -7.846   6.766  64.820  1.00  0.00    -0.108 OA 
HETATM    6  C   UNL     1      -9.177   9.635  65.077  1.00  0.00    -0.250 C  
HETATM    7  N   UNL     1      -8.583   7.764  66.704  1.00  0.00    -0.130 N  
HETATM    8  C   UNL     1      -8.655   8.013  68.137  1.00  0.00    -0.126 C  
HETATM    9  C   UNL     1      -9.650   8.496  65.993  1.00  0.00    -0.165 C  
HETATM   10  C   UNL     1     -10.111   8.401  68.391  1.00  0.00    -0.198 C  
HETATM   11  C   UNL     1     -10.528   9.104  67.100  1.00  0.00    -0.325 C  
HETATM   12  O   UNL     1      -7.838   9.800  65.010  1.00  0.00    -0.117 OA 
HETATM   13  O   UNL     1      -9.947  10.377  64.476  1.00  0.00    -0.332 OA 
ENDROOT
BRANCH   3  14
HETATM   14  S   UNL     1      -6.578   3.504  68.102  1.00  0.00    -0.038 SA 
BRANCH  14  15
HETATM   15  C   UNL     1      -6.613   4.299  69.673  1.00  0.00    -0.033 C  
HETATM   16  O   UNL     1      -5.867   5.233  69.938  1.00  0.00    -0.015 OA 
BRANCH  15  17
HETATM   17  C   UNL     1      -7.626   3.798  70.649  1.00  0.00    -0.041 A  
HETATM   18  C   UNL     1      -8.827   3.196  70.241  1.00  0.00    -0.146 A  
HETATM   19  C   UNL     1      -9.752   2.752  71.188  1.00  0.00    -0.184 A  
HETATM   20  C   UNL     1      -9.482   2.897  72.546  1.00  0.00    -0.168 A  
HETATM   21  C   UNL     1      -7.357   3.927  72.018  1.00  0.00    -0.059 A  
HETATM   22  C   UNL     1      -8.286   3.483  72.962  1.00  0.00    -0.082 A  
ENDBRANCH  15  17
ENDBRANCH  14  15
ENDBRANCH   3  14
BRANCH  10  23
HETATM   23  S   UNL     1     -10.226   9.440  69.893  1.00  0.00    -0.240 SA 
BRANCH  23  24
HETATM   24  C   UNL     1     -10.577   8.256  71.183  1.00  0.00    -0.214 A  
HETATM   25  C   UNL     1     -10.198   8.441  72.516  1.00  0.00    -0.369 A  
HETATM   26  C   UNL     1     -11.248   6.350  73.134  1.00  0.00    -0.114 A  
HETATM   27  C   UNL     1     -10.525   7.488  73.486  1.00  0.00    -0.362 A  
HETATM   28  C   UNL     1     -11.650   6.165  71.814  1.00  0.00    -0.333 A  
HETATM   29  C   UNL     1     -11.319   7.116  70.845  1.00  0.00    -0.319 A  
ENDBRANCH  23  24
ENDBRANCH  10  23
TORSDOF 5
ENDMDL
MODEL      221
REMARK 921   NORMALIZED FREE ENERGY PREDICTED BY IDOCK:   -3.95 KCAL/MOL
REMARK 922        TOTAL FREE ENERGY PREDICTED BY IDOCK:   -6.27 KCAL/MOL
REMARK 923 INTER-LIGAND FREE ENERGY PREDICTED BY IDOCK:   -5.57 KCAL/MOL
REMARK 924 INTRA-LIGAND FREE ENERGY PREDICTED BY IDOCK:   -0.70 KCAL/MOL
REMARK 927      BINDING AFFINITY PREDICTED BY RF-SCORE:    0.00 PKD
ROOT
HETATM    1  C   UNL     1      -6.782   5.257  65.123  1.00  0.00    -0.048 C  
HETATM    2  C   UNL     1      -7.947   6.042  65.739  1.00  0.00    -0.113 C  
HETATM    3  C   UNL     1      -9.192   5.183  66.003  1.00  0.00    -0.155 C  
HETATM    4  C   UNL     1      -8.360   7.164  64.797  1.00  0.00     0.021 C  
HETATM    5  O   UNL     1      -8.367   7.006  63.577  1.00  0.00     0.034 OA 
HETATM    6  C   UNL     1      -8.351  10.178  63.550  1.00  0.00    -0.169 C  
HETATM    7  N   UNL     1      -8.712   8.386  65.328  1.00  0.00    -0.150 N  
HETATM    8  C   UNL     1      -8.754   8.770  66.732  1.00  0.00    -0.124 C  
HETATM    9  C   UNL     1      -9.319   9.434  64.482  1.00  0.00    -0.004 C  
HETATM   10  C   UNL     1      -9.915   9.759  66.830  1.00  0.00    -0.218 C  
HETATM   11  C   UNL     1      -9.914  10.453  65.468  1.00  0.00    -0.348 C  
HETATM   12  O   UNL     1      -7.069   9.754  63.596  1.00  0.00    -0.108 OA 
HETATM   13  O   UNL     1      -8.691  11.120  62.841  1.00  0.00    -0.207 OA 
ENDROOT
BRANCH   3  14
HETATM   14  S   UNL     1      -8.814   3.823  67.140  1.00  0.00    -0.134 SA 
BRANCH  14  15
HETATM   15  C   UNL     1      -8.304   4.709  68.573  1.00  0.00    -0.086 C  
HETATM   16  O   UNL     1      -7.121   4.842  68.861  1.00  0.00    -0.051 OA 
BRANCH  15  17
HETATM   17  C   UNL     1      -9.389   5.321  69.396  1.00  0.00    -0.172 A  
HETATM   18  C   UNL     1     -10.591   5.779  68.833  1.00  0.00    -0.337 A  
HETATM   19  C   UNL     1     -11.573   6.356  69.639  1.00  0.00    -0.351 A  
HETATM   20  C   UNL     1     -11.369   6.473  71.011  1.00  0.00    -0.378 A  
HETATM   21  C   UNL     1      -9.197   5.431  70.780  1.00  0.00    -0.183 A  
HETATM   22  C   UNL     1     -10.184   6.011  71.583  1.00  0.00    -0.245 A  
ENDBRANCH  15  17
ENDBRANCH  14  15
ENDBRANCH   3  14
BRANCH  10  23
HETATM   23  S   UNL     1      -9.660  10.878  68.254  1.00  0.00    -0.173 SA 
BRANCH  23  24
HETATM   24  C   UNL     1     -10.295  12.440  67.666  1.00  0.00    -0.216 A  
HETATM   25  C   UNL     1      -9.475  13.506  67.285  1.00  0.00    -0.230 A  
HETATM   26  C   UNL     1     -11.416  14.825  66.694  1.00  0.00    -0.339 A  
HETATM   27  C   UNL     1     -10.033  14.697  66.809  1.00  0.00    -0.265 A  
HETATM   28  C   UNL     1     -12.242  13.763  67.052  1.00  0.00    -0.381 A  
HETATM   29  C   UNL     1     -11.684  12.576  67.531  1.00  0.00    -0.439 A  
ENDBRANCH  23  24
ENDBRANCH  10  23
TORSDOF 5
ENDMDL
MODEL      222
REMARK 921   NORMALIZED FREE ENERGY PREDICTED BY IDOCK:   -3.93 KCAL/MOL
REMARK 922        TOTAL FREE ENERGY PREDICTED BY IDOCK:   -6.24 KCAL/MOL
REMARK 923 INTER-LIGAND FREE ENERGY PREDICTED BY IDOCK:   -5.59 KCAL/MOL
REMARK 924 INTRA-LIGAND FREE ENERGY PREDICTED BY IDOCK:   -0.65 KCAL/MOL
REMARK 927      BINDING AFFINITY PREDICTED BY RF-SCORE:    0.00 PKD
ROOT
HETATM    1  C   UNL     1     -12.549  14.728  71.426  1.00  0.00    -0.394 C  
HETATM    2  C   UNL     1     -11.800  14.369  70.137  1.00  0.00    -0.380 C  
HETATM    3  C   UNL     1     -11.091  13.009  70.198  1.00  0.00     0.628 C  
HETATM    4  C   UNL     1     -10.737  15.423  69.854  1.00  0.00    -0.303 C  
HETATM    5  O   UNL     1     -10.086  15.934  70.763  1.00  0.00     0.376 OA 
HETATM    6  C   UNL     1      -9.504  18.160  68.578  1.00  0.00    -0.329 C  
HETATM    7  N   UNL     1     -10.522  15.822  68.553  1.00  0.00    -0.230 N  
HETATM    8  C   UNL     1     -11.195  15.348  67.352  1.00  0.00    -0.287 C  
HETATM    9  C   UNL     1      -9.370  16.676  68.203  1.00  0.00    -0.224 C  
HETATM   10  C   UNL     1     -10.125  15.399  66.262  1.00  0.00    -0.292 C  
HETATM   11  C   UNL     1      -9.245  16.578  66.673  1.00  0.00    -0.275 C  
HETATM   12  O   UNL     1     -10.649  18.489  69.216  1.00  0.00     0.147 OA 
HETATM   13  O   UNL     1      -8.663  19.005  68.290  1.00  0.00    -0.306 OA 
ENDROOT
BRANCH   3  14
HETATM   14  S   UNL     1     -12.276  11.673  70.509  1.00  0.00    -0.313 SA 
BRANCH  14  15
HETATM   15  C   UNL     1     -11.382  10.279  69.908  1.00  0.00    -0.290 C  
HETATM   16  O   UNL     1     -10.562  10.382  69.005  1.00  0.00    -0.194 OA 
BRANCH  15  17
HETATM   17  C   UNL     1     -11.651   8.976  70.584  1.00  0.00    -0.265 A  
HETATM   18  C   UNL     1     -11.624   7.753  69.895  1.00  0.00     0.200 A  
HETATM   19  C   UNL     1     -11.893   6.558  70.565  1.00  0.00    -0.393 A  
HETATM   20  C   UNL     1     -12.181   6.573  71.927  1.00  0.00    -0.373 A  
HETATM   21  C   UNL     1     -11.929   8.980  71.958  1.00  0.00    -0.433 A  
HETATM   22  C   UNL     1     -12.198   7.781  72.624  1.00  0.00    -0.117 A  
ENDBRANCH  15  17
ENDBRANCH  14  15
ENDBRANCH   3  14
BRANCH  10  23
HETATM   23  S   UNL     1     -10.916  15.576  64.621  1.00  0.00    -0.206 SA 
BRANCH  23  24
HETATM   24  C   UNL     1     -11.304  13.892  64.170  1.00  0.00    -0.207 A  
HETATM   25  C   UNL     1     -12.595  13.463  63.848  1.00  0.00    -0.186 A  
HETATM   26  C   UNL     1     -11.774  11.229  63.411  1.00  0.00     0.224 A  
HETATM   27  C   UNL     1     -12.830  12.135  63.478  1.00  0.00    -0.453 A  
HETATM   28  C   UNL     1     -10.481  11.649  63.709  1.00  0.00    -0.454 A  
HETATM   29  C   UNL     1     -10.247  12.975  64.082  1.00  0.00    -0.263 A  
ENDBRANCH  23  24
ENDBRANCH  10  23
TORSDOF 5
ENDMDL
MODEL      223
REMARK 921   NORMALIZED FREE ENERGY PREDICTED BY IDOCK:   -3.92 KCAL/MOL
REMARK 922        TOTAL FREE ENERGY PREDICTED BY IDOCK:   -6.23 KCAL/MOL
REMARK 923 INTER-LIGAND FREE ENERGY PREDICTED BY IDOCK:   -5.60 KCAL/MOL
REMARK 924 INTRA-LIGAND FREE ENERGY PREDICTED BY IDOCK:   -0.62 KCAL/MOL
REMARK 927      BINDING AFFINITY PREDICTED BY RF-SCORE:    0.00 PKD
ROOT
HETATM    1  C   UNL     1      -8.791   2.656  68.523  1.00  0.00    -0.158 C  
HETATM    2  C   UNL     1      -8.403   4.108  68.826  1.00  0.00    -0.093 C  
HETATM    3  C   UNL     1      -6.965   4.456  68.412  1.00  0.00    -0.052 C  
HETATM    4  C   UNL     1      -8.520   4.366  70.322  1.00  0.00    -0.073 C  
HETATM    5  O   UNL     1      -8.199   3.511  71.146  1.00  0.00    -0.065 OA 
HETATM    6  C   UNL     1      -9.978   5.272  73.095  1.00  0.00    -0.167 C  
HETATM    7  N   UNL     1      -9.015   5.576  70.754  1.00  0.00    -0.140 N  
HETATM    8  C   UNL     1      -9.457   6.701  69.940  1.00  0.00    -0.156 C  
HETATM    9  C   UNL     1      -8.953   5.957  72.179  1.00  0.00    -0.143 C  
HETATM   10  C   UNL     1      -9.089   7.939  70.756  1.00  0.00    -0.152 C  
HETATM   11  C   UNL     1      -9.224   7.471  72.205  1.00  0.00    -0.171 C  
HETATM   12  O   UNL     1     -10.786   4.377  72.485  1.00  0.00    -0.140 OA 
HETATM   13  O   UNL     1     -10.096   5.535  74.288  1.00  0.00    -0.207 OA 
ENDROOT
BRANCH   3  14
HETATM   14  S   UNL     1      -6.723   4.204  66.633  1.00  0.00    -0.051 SA 
BRANCH  14  15
HETATM   15  C   UNL     1      -7.929   5.301  65.968  1.00  0.00    -0.104 C  
HETATM   16  O   UNL     1      -8.079   6.434  66.406  1.00  0.00    -0.107 OA 
BRANCH  15  17
HETATM   17  C   UNL     1      -8.730   4.788  64.817  1.00  0.00    -0.153 A  
HETATM   18  C   UNL     1      -8.274   4.865  63.491  1.00  0.00    -0.111 A  
HETATM   19  C   UNL     1      -9.061   4.384  62.444  1.00  0.00    -0.125 A  
HETATM   20  C   UNL     1     -10.303   3.815  62.711  1.00  0.00    -0.194 A  
HETATM   21  C   UNL     1      -9.976   4.202  65.077  1.00  0.00    -0.216 A  
HETATM   22  C   UNL     1     -10.761   3.723  64.025  1.00  0.00    -0.256 A  
ENDBRANCH  15  17
ENDBRANCH  14  15
ENDBRANCH   3  14
BRANCH  10  23
HETATM   23  S   UNL     1     -10.185   9.332  70.303  1.00  0.00    -0.247 SA 
BRANCH  23  24
HETATM   24  C   UNL     1     -11.763   8.851  70.987  1.00  0.00    -0.289 A  
HETATM   25  C   UNL     1     -12.272   7.552  70.899  1.00  0.00    -0.224 A  
HETATM   26  C   UNL     1     -14.229   8.204  72.164  1.00  0.00    -0.427 A  
HETATM   27  C   UNL     1     -13.504   7.232  71.477  1.00  0.00    -0.439 A  
HETATM   28  C   UNL     1     -13.722   9.495  72.277  1.00  0.00    -0.444 A  
HETATM   29  C   UNL     1     -12.493   9.815  71.695  1.00  0.00    -0.500 A  
ENDBRANCH  23  24
ENDBRANCH  10  23
TORSDOF 5
ENDMDL
MODEL      224
REMARK 921   NORMALIZED FREE ENERGY PREDICTED BY IDOCK:   -3.86 KCAL/MOL
REMARK 922        TOTAL FREE ENERGY PREDICTED BY IDOCK:   -6.16 KCAL/MOL
REMARK 923 INTER-LIGAND FREE ENERGY PREDICTED BY IDOCK:   -6.22 KCAL/MOL
REMARK 924 INTRA-LIGAND FREE ENERGY PREDICTED BY IDOCK:    0.06 KCAL/MOL
REMARK 927      BINDING AFFINITY PREDICTED BY RF-SCORE:    0.00 PKD
ROOT
HETATM    1  C   UNL     1     -10.064  10.392  64.934  1.00  0.00    -0.382 C  
HETATM    2  C   UNL     1      -9.371  10.905  66.202  1.00  0.00    -0.211 C  
HETATM    3  C   UNL     1      -9.217   9.834  67.292  1.00  0.00    -0.134 C  
HETATM    4  C   UNL     1     -10.181  12.048  66.800  1.00  0.00    -0.202 C  
HETATM    5  O   UNL     1     -11.412  12.031  66.794  1.00  0.00    -0.337 OA 
HETATM    6  C   UNL     1     -11.074  15.147  67.285  1.00  0.00    -0.332 C  
HETATM    7  N   UNL     1      -9.517  13.128  67.337  1.00  0.00    -0.207 N  
HETATM    8  C   UNL     1      -8.078  13.338  67.423  1.00  0.00    -0.175 C  
HETATM    9  C   UNL     1     -10.241  14.155  68.112  1.00  0.00    -0.241 C  
HETATM   10  C   UNL     1      -7.877  14.110  68.726  1.00  0.00    -0.114 C  
HETATM   11  C   UNL     1      -9.149  14.947  68.851  1.00  0.00    -0.191 C  
HETATM   12  O   UNL     1     -11.068  14.931  65.951  1.00  0.00    -0.330 OA 
HETATM   13  O   UNL     1     -11.674  16.097  67.779  1.00  0.00    -0.033 OA 
ENDROOT
BRANCH   3  14
HETATM   14  S   UNL     1      -8.241   8.430  66.689  1.00  0.00    -0.107 SA 
BRANCH  14  15
HETATM   15  C   UNL     1      -9.335   7.090  67.017  1.00  0.00    -0.146 C  
HETATM   16  O   UNL     1      -9.704   6.330  66.132  1.00  0.00    -0.097 OA 
BRANCH  15  17
HETATM   17  C   UNL     1      -9.755   6.909  68.438  1.00  0.00    -0.137 A  
HETATM   18  C   UNL     1     -10.834   6.088  68.803  1.00  0.00    -0.391 A  
HETATM   19  C   UNL     1     -11.201   5.957  70.143  1.00  0.00    -0.338 A  
HETATM   20  C   UNL     1     -10.489   6.635  71.130  1.00  0.00    -0.247 A  
HETATM   21  C   UNL     1      -9.036   7.577  69.439  1.00  0.00    -0.142 A  
HETATM   22  C   UNL     1      -9.407   7.443  70.780  1.00  0.00    -0.159 A  
ENDBRANCH  15  17
ENDBRANCH  14  15
ENDBRANCH   3  14
BRANCH  10  23
HETATM   23  S   UNL     1      -6.331  15.086  68.638  1.00  0.00    -0.092 SA 
BRANCH  23  24
HETATM   24  C   UNL     1      -6.838  16.581  67.802  1.00  0.00    -0.140 A  
HETATM   25  C   UNL     1      -6.502  16.868  66.476  1.00  0.00    -0.187 A  
HETATM   26  C   UNL     1      -7.753  18.937  66.579  1.00  0.00    -0.274 A  
HETATM   27  C   UNL     1      -6.951  18.046  65.869  1.00  0.00    -0.319 A  
HETATM   28  C   UNL     1      -8.111  18.652  67.893  1.00  0.00    -0.283 A  
HETATM   29  C   UNL     1      -7.659  17.477  68.500  1.00  0.00    -0.266 A  
ENDBRANCH  23  24
ENDBRANCH  10  23
TORSDOF 5
ENDMDL
MODEL      225
REMARK 921   NORMALIZED FREE ENERGY PREDICTED BY IDOCK:   -3.79 KCAL/MOL
REMARK 922        TOTAL FREE ENERGY PREDICTED BY IDOCK:   -6.06 KCAL/MOL
REMARK 923 INTER-LIGAND FREE ENERGY PREDICTED BY IDOCK:   -5.04 KCAL/MOL
REMARK 924 INTRA-LIGAND FREE ENERGY PREDICTED BY IDOCK:   -1.02 KCAL/MOL
REMARK 927      BINDING AFFINITY PREDICTED BY RF-SCORE:    0.00 PKD
ROOT
HETATM    1  C   UNL     1      -9.484   3.566  67.865  1.00  0.00    -0.220 C  
HETATM    2  C   UNL     1      -9.380   5.084  68.052  1.00  0.00    -0.152 C  
HETATM    3  C   UNL     1      -8.364   5.749  67.112  1.00  0.00    -0.104 C  
HETATM    4  C   UNL     1      -8.947   5.393  69.479  1.00  0.00    -0.105 C  
HETATM    5  O   UNL     1      -8.122   4.692  70.064  1.00  0.00    -0.067 OA 
HETATM    6  C   UNL     1      -9.346   6.075  72.644  1.00  0.00    -0.146 C  
HETATM    7  N   UNL     1      -9.511   6.468  70.130  1.00  0.00    -0.158 N  
HETATM    8  C   UNL     1     -10.506   7.400  69.617  1.00  0.00    -0.232 C  
HETATM    9  C   UNL     1      -8.979   6.935  71.426  1.00  0.00    -0.141 C  
HETATM   10  C   UNL     1     -10.161   8.736  70.272  1.00  0.00    -0.191 C  
HETATM   11  C   UNL     1      -9.583   8.335  71.629  1.00  0.00    -0.261 C  
HETATM   12  O   UNL     1     -10.082   4.975  72.370  1.00  0.00    -0.174 OA 
HETATM   13  O   UNL     1      -9.038   6.371  73.794  1.00  0.00    -0.126 OA 
ENDROOT
BRANCH   3  14
HETATM   14  S   UNL     1      -8.801   5.461  65.376  1.00  0.00    -0.112 SA 
BRANCH  14  15
HETATM   15  C   UNL     1      -7.718   6.585  64.562  1.00  0.00    -0.108 C  
HETATM   16  O   UNL     1      -6.717   6.200  63.971  1.00  0.00    -0.036 OA 
BRANCH  15  17
HETATM   17  C   UNL     1      -8.107   8.026  64.598  1.00  0.00    -0.140 A  
HETATM   18  C   UNL     1      -9.150   8.502  65.409  1.00  0.00    -0.103 A  
HETATM   19  C   UNL     1      -9.488   9.856  65.403  1.00  0.00    -0.319 A  
HETATM   20  C   UNL     1      -8.784  10.746  64.597  1.00  0.00    -0.105 A  
HETATM   21  C   UNL     1      -7.395   8.932  63.800  1.00  0.00    -0.101 A  
HETATM   22  C   UNL     1      -7.738  10.286  63.797  1.00  0.00    -0.100 A  
ENDBRANCH  15  17
ENDBRANCH  14  15
ENDBRANCH   3  14
BRANCH  10  23
HETATM   23  S   UNL     1     -11.655   9.789  70.363  1.00  0.00    -0.238 SA 
BRANCH  23  24
HETATM   24  C   UNL     1     -11.195  11.235  69.422  1.00  0.00    -0.280 A  
HETATM   25  C   UNL     1     -11.951  12.411  69.408  1.00  0.00    -0.319 A  
HETATM   26  C   UNL     1     -10.329  13.468  67.954  1.00  0.00    -0.249 A  
HETATM   27  C   UNL     1     -11.524  13.520  68.669  1.00  0.00    -0.343 A  
HETATM   28  C   UNL     1      -9.558  12.309  67.979  1.00  0.00    -0.206 A  
HETATM   29  C   UNL     1      -9.987  11.201  68.713  1.00  0.00    -0.207 A  
ENDBRANCH  23  24
ENDBRANCH  10  23
TORSDOF 5
ENDMDL
MODEL      226
REMARK 921   NORMALIZED FREE ENERGY PREDICTED BY IDOCK:   -3.79 KCAL/MOL
REMARK 922        TOTAL FREE ENERGY PREDICTED BY IDOCK:   -6.06 KCAL/MOL
REMARK 923 INTER-LIGAND FREE ENERGY PREDICTED BY IDOCK:   -5.48 KCAL/MOL
REMARK 924 INTRA-LIGAND FREE ENERGY PREDICTED BY IDOCK:   -0.59 KCAL/MOL
REMARK 927      BINDING AFFINITY PREDICTED BY RF-SCORE:    0.00 PKD
ROOT
HETATM    1  C   UNL     1     -10.911  11.872  67.049  1.00  0.00    -0.303 C  
HETATM    2  C   UNL     1      -9.642  11.146  67.510  1.00  0.00    -0.181 C  
HETATM    3  C   UNL     1      -8.344  11.844  67.078  1.00  0.00    -0.178 C  
HETATM    4  C   UNL     1      -9.617   9.740  66.925  1.00  0.00    -0.180 C  
HETATM    5  O   UNL     1     -10.014   9.517  65.781  1.00  0.00    -0.300 OA 
HETATM    6  C   UNL     1     -10.173   6.528  66.834  1.00  0.00    -0.215 C  
HETATM    7  N   UNL     1      -9.160   8.700  67.703  1.00  0.00    -0.134 N  
HETATM    8  C   UNL     1      -8.666   8.760  69.072  1.00  0.00    -0.133 C  
HETATM    9  C   UNL     1      -8.918   7.365  67.120  1.00  0.00    -0.126 C  
HETATM   10  C   UNL     1      -7.583   7.684  69.141  1.00  0.00    -0.100 C  
HETATM   11  C   UNL     1      -8.070   6.617  68.163  1.00  0.00    -0.111 C  
HETATM   12  O   UNL     1     -11.347   7.135  67.119  1.00  0.00    -0.160 OA 
HETATM   13  O   UNL     1     -10.132   5.375  66.416  1.00  0.00    -0.178 OA 
ENDROOT
BRANCH   3  14
HETATM   14  S   UNL     1      -8.260  13.528  67.746  1.00  0.00    -0.192 SA 
BRANCH  14  15
HETATM   15  C   UNL     1      -6.523  13.727  67.948  1.00  0.00    -0.161 C  
HETATM   16  O   UNL     1      -5.730  13.365  67.088  1.00  0.00    -0.302 OA 
BRANCH  15  17
HETATM   17  C   UNL     1      -6.072  14.396  69.204  1.00  0.00    -0.094 A  
HETATM   18  C   UNL     1      -5.776  15.767  69.260  1.00  0.00    -0.111 A  
HETATM   19  C   UNL     1      -5.345  16.349  70.453  1.00  0.00    -0.191 A  
HETATM   20  C   UNL     1      -5.216  15.571  71.601  1.00  0.00     0.006 A  
HETATM   21  C   UNL     1      -5.951  13.623  70.367  1.00  0.00    -0.148 A  
HETATM   22  C   UNL     1      -5.519  14.210  71.559  1.00  0.00    -0.216 A  
ENDBRANCH  15  17
ENDBRANCH  14  15
ENDBRANCH   3  14
BRANCH  10  23
HETATM   23  S   UNL     1      -7.393   7.105  70.866  1.00  0.00    -0.076 SA 
BRANCH  23  24
HETATM   24  C   UNL     1      -9.067   7.107  71.486  1.00  0.00    -0.142 A  
HETATM   25  C   UNL     1      -9.600   8.151  72.249  1.00  0.00    -0.319 A  
HETATM   26  C   UNL     1     -11.740   7.024  72.347  1.00  0.00    -0.252 A  
HETATM   27  C   UNL     1     -10.928   8.105  72.685  1.00  0.00    -0.440 A  
HETATM   28  C   UNL     1     -11.226   5.989  71.569  1.00  0.00    -0.326 A  
HETATM   29  C   UNL     1      -9.899   6.034  71.138  1.00  0.00    -0.214 A  
ENDBRANCH  23  24
ENDBRANCH  10  23
TORSDOF 5
ENDMDL
MODEL      227
REMARK 921   NORMALIZED FREE ENERGY PREDICTED BY IDOCK:   -3.78 KCAL/MOL
REMARK 922        TOTAL FREE ENERGY PREDICTED BY IDOCK:   -6.05 KCAL/MOL
REMARK 923 INTER-LIGAND FREE ENERGY PREDICTED BY IDOCK:   -5.33 KCAL/MOL
REMARK 924 INTRA-LIGAND FREE ENERGY PREDICTED BY IDOCK:   -0.72 KCAL/MOL
REMARK 927      BINDING AFFINITY PREDICTED BY RF-SCORE:    0.00 PKD
ROOT
HETATM    1  C   UNL     1     -11.318  11.041  69.564  1.00  0.00    -0.356 C  
HETATM    2  C   UNL     1     -11.304  12.414  68.883  1.00  0.00    -0.342 C  
HETATM    3  C   UNL     1     -12.491  13.305  69.276  1.00  0.00     0.177 C  
HETATM    4  C   UNL     1     -11.352  12.235  67.372  1.00  0.00    -0.325 C  
HETATM    5  O   UNL     1     -12.036  11.353  66.853  1.00  0.00    -0.440 OA 
HETATM    6  C   UNL     1     -10.145  11.885  64.362  1.00  0.00    -0.279 C  
HETATM    7  N   UNL     1     -10.595  13.066  66.576  1.00  0.00    -0.279 N  
HETATM    8  C   UNL     1      -9.719  14.151  66.998  1.00  0.00    -0.258 C  
HETATM    9  C   UNL     1     -10.765  13.074  65.109  1.00  0.00    -0.306 C  
HETATM   10  C   UNL     1      -9.829  15.194  65.887  1.00  0.00    -0.341 C  
HETATM   11  C   UNL     1     -10.067  14.358  64.629  1.00  0.00     0.059 C  
HETATM   12  O   UNL     1      -9.551  10.959  65.147  1.00  0.00    -0.214 OA 
HETATM   13  O   UNL     1     -10.142  11.786  63.139  1.00  0.00    -0.418 OA 
ENDROOT
BRANCH   3  14
HETATM   14  S   UNL     1     -12.515  13.604  71.064  1.00  0.00    -0.348 SA 
BRANCH  14  15
HETATM   15  C   UNL     1     -12.192  15.334  71.124  1.00  0.00    -0.350 C  
HETATM   16  O   UNL     1     -12.935  16.106  71.716  1.00  0.00    -0.323 OA 
BRANCH  15  17
HETATM   17  C   UNL     1     -10.945  15.801  70.450  1.00  0.00    -0.369 A  
HETATM   18  C   UNL     1     -10.891  16.998  69.718  1.00  0.00     0.091 A  
HETATM   19  C   UNL     1      -9.706  17.391  69.093  1.00  0.00    -0.110 A  
HETATM   20  C   UNL     1      -8.566  16.598  69.200  1.00  0.00    -0.110 A  
HETATM   21  C   UNL     1      -9.789  15.016  70.562  1.00  0.00     0.619 A  
HETATM   22  C   UNL     1      -8.606  15.413  69.934  1.00  0.00     0.162 A  
ENDBRANCH  15  17
ENDBRANCH  14  15
ENDBRANCH   3  14
BRANCH  10  23
HETATM   23  S   UNL     1      -8.314  16.218  65.843  1.00  0.00     0.492 SA 
BRANCH  23  24
HETATM   24  C   UNL     1      -8.933  17.876  66.083  1.00  0.00    -0.095 A  
HETATM   25  C   UNL     1      -8.112  18.962  66.401  1.00  0.00    -0.306 A  
HETATM   26  C   UNL     1     -10.021  20.450  66.371  1.00  0.00    -0.402 A  
HETATM   27  C   UNL     1      -8.655  20.242  66.552  1.00  0.00    -0.269 A  
HETATM   28  C   UNL     1     -10.845  19.379  66.034  1.00  0.00    -0.405 A  
HETATM   29  C   UNL     1     -10.303  18.101  65.887  1.00  0.00    -0.284 A  
ENDBRANCH  23  24
ENDBRANCH  10  23
TORSDOF 5
ENDMDL
MODEL      228
REMARK 921   NORMALIZED FREE ENERGY PREDICTED BY IDOCK:   -3.74 KCAL/MOL
REMARK 922        TOTAL FREE ENERGY PREDICTED BY IDOCK:   -5.99 KCAL/MOL
REMARK 923 INTER-LIGAND FREE ENERGY PREDICTED BY IDOCK:   -5.34 KCAL/MOL
REMARK 924 INTRA-LIGAND FREE ENERGY PREDICTED BY IDOCK:   -0.65 KCAL/MOL
REMARK 927      BINDING AFFINITY PREDICTED BY RF-SCORE:    0.00 PKD
ROOT
HETATM    1  C   UNL     1     -10.976   6.592  66.970  1.00  0.00    -0.463 C  
HETATM    2  C   UNL     1      -9.779   7.268  67.649  1.00  0.00    -0.173 C  
HETATM    3  C   UNL     1      -9.165   8.404  66.818  1.00  0.00    -0.171 C  
HETATM    4  C   UNL     1      -8.683   6.240  67.892  1.00  0.00    -0.114 C  
HETATM    5  O   UNL     1      -8.443   5.354  67.072  1.00  0.00    -0.108 OA 
HETATM    6  C   UNL     1      -7.020   3.976  69.550  1.00  0.00    -0.045 C  
HETATM    7  N   UNL     1      -7.963   6.295  69.065  1.00  0.00    -0.108 N  
HETATM    8  C   UNL     1      -8.107   7.250  70.155  1.00  0.00    -0.129 C  
HETATM    9  C   UNL     1      -6.760   5.461  69.257  1.00  0.00    -0.052 C  
HETATM   10  C   UNL     1      -6.691   7.432  70.701  1.00  0.00    -0.047 C  
HETATM   11  C   UNL     1      -6.037   6.070  70.471  1.00  0.00    -0.030 C  
HETATM   12  O   UNL     1      -8.321   3.612  69.559  1.00  0.00    -0.053 OA 
HETATM   13  O   UNL     1      -6.126   3.174  69.801  1.00  0.00    -0.023 OA 
ENDROOT
BRANCH   3  14
HETATM   14  S   UNL     1     -10.388   9.702  66.490  1.00  0.00    -0.151 SA 
BRANCH  14  15
HETATM   15  C   UNL     1      -9.879  10.944  67.630  1.00  0.00    -0.171 C  
HETATM   16  O   UNL     1      -9.221  10.672  68.627  1.00  0.00    -0.164 OA 
BRANCH  15  17
HETATM   17  C   UNL     1     -10.260  12.348  67.297  1.00  0.00    -0.224 A  
HETATM   18  C   UNL     1      -9.308  13.330  66.982  1.00  0.00    -0.242 A  
HETATM   19  C   UNL     1      -9.707  14.634  66.689  1.00  0.00    -0.283 A  
HETATM   20  C   UNL     1     -11.059  14.967  66.698  1.00  0.00    -0.326 A  
HETATM   21  C   UNL     1     -11.620  12.689  67.291  1.00  0.00    -0.428 A  
HETATM   22  C   UNL     1     -12.016  13.997  66.997  1.00  0.00    -0.472 A  
ENDBRANCH  15  17
ENDBRANCH  14  15
ENDBRANCH   3  14
BRANCH  10  23
HETATM   23  S   UNL     1      -6.761   7.956  72.452  1.00  0.00    -0.077 SA 
BRANCH  23  24
HETATM   24  C   UNL     1      -8.196   7.096  73.079  1.00  0.00    -0.105 A  
HETATM   25  C   UNL     1      -8.163   5.767  73.513  1.00  0.00    -0.112 A  
HETATM   26  C   UNL     1     -10.506   5.875  74.107  1.00  0.00    -0.253 A  
HETATM   27  C   UNL     1      -9.315   5.157  74.016  1.00  0.00    -0.128 A  
HETATM   28  C   UNL     1     -10.545   7.205  73.698  1.00  0.00    -0.375 A  
HETATM   29  C   UNL     1      -9.395   7.813  73.191  1.00  0.00    -0.315 A  
ENDBRANCH  23  24
ENDBRANCH  10  23
TORSDOF 5
ENDMDL
MODEL      229
REMARK 921   NORMALIZED FREE ENERGY PREDICTED BY IDOCK:   -3.73 KCAL/MOL
REMARK 922        TOTAL FREE ENERGY PREDICTED BY IDOCK:   -5.99 KCAL/MOL
REMARK 923 INTER-LIGAND FREE ENERGY PREDICTED BY IDOCK:   -4.90 KCAL/MOL
REMARK 924 INTRA-LIGAND FREE ENERGY PREDICTED BY IDOCK:   -1.08 KCAL/MOL
REMARK 927      BINDING AFFINITY PREDICTED BY RF-SCORE:    0.00 PKD
ROOT
HETATM    1  C   UNL     1     -11.205   8.773  71.724  1.00  0.00    -0.410 C  
HETATM    2  C   UNL     1      -9.881   8.181  71.228  1.00  0.00    -0.207 C  
HETATM    3  C   UNL     1      -8.678   8.546  72.110  1.00  0.00    -0.197 C  
HETATM    4  C   UNL     1      -9.587   8.693  69.824  1.00  0.00    -0.171 C  
HETATM    5  O   UNL     1      -9.847   9.850  69.498  1.00  0.00    -0.196 OA 
HETATM    6  C   UNL     1      -9.623   8.667  66.563  1.00  0.00    -0.237 C  
HETATM    7  N   UNL     1      -9.039   7.831  68.900  1.00  0.00    -0.141 N  
HETATM    8  C   UNL     1      -8.676   6.433  69.089  1.00  0.00    -0.127 C  
HETATM    9  C   UNL     1      -8.543   8.328  67.601  1.00  0.00    -0.130 C  
HETATM   10  C   UNL     1      -7.447   6.228  68.204  1.00  0.00    -0.090 C  
HETATM   11  C   UNL     1      -7.678   7.187  67.037  1.00  0.00    -0.107 C  
HETATM   12  O   UNL     1     -10.896   8.502  66.984  1.00  0.00    -0.211 OA 
HETATM   13  O   UNL     1      -9.366   9.023  65.417  1.00  0.00    -0.218 OA 
ENDROOT
BRANCH   3  14
HETATM   14  S   UNL     1      -8.915   7.958  73.808  1.00  0.00    -0.203 SA 
BRANCH  14  15
HETATM   15  C   UNL     1      -8.195   6.354  73.716  1.00  0.00    -0.111 C  
HETATM   16  O   UNL     1      -6.981   6.193  73.705  1.00  0.00    -0.079 OA 
BRANCH  15  17
HETATM   17  C   UNL     1      -9.143   5.200  73.690  1.00  0.00    -0.123 A  
HETATM   18  C   UNL     1     -10.504   5.354  73.380  1.00  0.00    -0.269 A  
HETATM   19  C   UNL     1     -11.357   4.249  73.379  1.00  0.00    -0.324 A  
HETATM   20  C   UNL     1     -10.859   2.984  73.677  1.00  0.00    -0.310 A  
HETATM   21  C   UNL     1      -8.648   3.921  73.975  1.00  0.00    -0.093 A  
HETATM   22  C   UNL     1      -9.506   2.818  73.974  1.00  0.00    -0.112 A  
ENDBRANCH  15  17
ENDBRANCH  14  15
ENDBRANCH   3  14
BRANCH  10  23
HETATM   23  S   UNL     1      -7.312   4.467  67.726  1.00  0.00    -0.070 SA 
BRANCH  23  24
HETATM   24  C   UNL     1      -8.459   4.324  66.364  1.00  0.00    -0.112 A  
HETATM   25  C   UNL     1      -9.847   4.329  66.529  1.00  0.00    -0.238 A  
HETATM   26  C   UNL     1     -10.159   4.159  64.135  1.00  0.00    -0.118 A  
HETATM   27  C   UNL     1     -10.693   4.238  65.419  1.00  0.00    -0.087 A  
HETATM   28  C   UNL     1      -8.778   4.175  63.957  1.00  0.00    -0.118 A  
HETATM   29  C   UNL     1      -7.933   4.261  65.066  1.00  0.00    -0.093 A  
ENDBRANCH  23  24
ENDBRANCH  10  23
TORSDOF 5
ENDMDL
MODEL      230
REMARK 921   NORMALIZED FREE ENERGY PREDICTED BY IDOCK:   -3.65 KCAL/MOL
REMARK 922        TOTAL FREE ENERGY PREDICTED BY IDOCK:   -5.88 KCAL/MOL
REMARK 923 INTER-LIGAND FREE ENERGY PREDICTED BY IDOCK:   -4.43 KCAL/MOL
REMARK 924 INTRA-LIGAND FREE ENERGY PREDICTED BY IDOCK:   -1.45 KCAL/MOL
REMARK 927      BINDING AFFINITY PREDICTED BY RF-SCORE:    0.00 PKD
ROOT
HETATM    1  C   UNL     1     -11.178   6.230  66.996  1.00  0.00    -0.248 C  
HETATM    2  C   UNL     1      -9.970   6.479  67.907  1.00  0.00    -0.148 C  
HETATM    3  C   UNL     1      -9.191   7.756  67.557  1.00  0.00    -0.132 C  
HETATM    4  C   UNL     1      -8.999   5.311  67.798  1.00  0.00    -0.109 C  
HETATM    5  O   UNL     1      -8.791   4.750  66.723  1.00  0.00    -0.111 OA 
HETATM    6  C   UNL     1      -7.684   2.432  68.584  1.00  0.00    -0.050 C  
HETATM    7  N   UNL     1      -8.360   4.865  68.934  1.00  0.00    -0.083 N  
HETATM    8  C   UNL     1      -8.483   5.385  70.289  1.00  0.00    -0.119 C  
HETATM    9  C   UNL     1      -7.260   3.884  68.850  1.00  0.00    -0.054 C  
HETATM   10  C   UNL     1      -7.097   5.197  70.904  1.00  0.00    -0.059 C  
HETATM   11  C   UNL     1      -6.566   3.937  70.221  1.00  0.00    -0.033 C  
HETATM   12  O   UNL     1      -9.012   2.241  68.424  1.00  0.00    -0.096 OA 
HETATM   13  O   UNL     1      -6.893   1.494  68.557  1.00  0.00    -0.032 OA 
ENDROOT
BRANCH   3  14
HETATM   14  S   UNL     1     -10.255   9.219  67.679  1.00  0.00    -0.245 SA 
BRANCH  14  15
HETATM   15  C   UNL     1      -9.308  10.238  68.759  1.00  0.00    -0.166 C  
HETATM   16  O   UNL     1      -9.056  11.404  68.485  1.00  0.00    -0.173 OA 
BRANCH  15  17
HETATM   17  C   UNL     1      -8.864   9.615  70.040  1.00  0.00    -0.259 A  
HETATM   18  C   UNL     1      -7.508   9.480  70.379  1.00  0.00    -0.158 A  
HETATM   19  C   UNL     1      -7.136   8.880  71.583  1.00  0.00    -0.056 A  
HETATM   20  C   UNL     1      -8.113   8.419  72.462  1.00  0.00    -0.177 A  
HETATM   21  C   UNL     1      -9.840   9.159  70.937  1.00  0.00    -0.359 A  
HETATM   22  C   UNL     1      -9.463   8.558  72.141  1.00  0.00    -0.375 A  
ENDBRANCH  15  17
ENDBRANCH  14  15
ENDBRANCH   3  14
BRANCH  10  23
HETATM   23  S   UNL     1      -7.236   5.074  72.724  1.00  0.00    -0.087 SA 
BRANCH  23  24
HETATM   24  C   UNL     1      -8.854   4.357  72.964  1.00  0.00    -0.114 A  
HETATM   25  C   UNL     1      -9.154   3.026  72.661  1.00  0.00    -0.120 A  
HETATM   26  C   UNL     1     -11.422   3.329  73.448  1.00  0.00    -0.126 A  
HETATM   27  C   UNL     1     -10.435   2.516  72.894  1.00  0.00    -0.240 A  
HETATM   28  C   UNL     1     -11.130   4.650  73.772  1.00  0.00    -0.333 A  
HETATM   29  C   UNL     1      -9.851   5.160  73.535  1.00  0.00    -0.170 A  
ENDBRANCH  23  24
ENDBRANCH  10  23
TORSDOF 5
ENDMDL
MODEL      231
REMARK 921   NORMALIZED FREE ENERGY PREDICTED BY IDOCK:   -3.61 KCAL/MOL
REMARK 922        TOTAL FREE ENERGY PREDICTED BY IDOCK:   -5.83 KCAL/MOL
REMARK 923 INTER-LIGAND FREE ENERGY PREDICTED BY IDOCK:   -4.83 KCAL/MOL
REMARK 924 INTRA-LIGAND FREE ENERGY PREDICTED BY IDOCK:   -1.00 KCAL/MOL
REMARK 927      BINDING AFFINITY PREDICTED BY RF-SCORE:    0.00 PKD
ROOT
HETATM    1  C   UNL     1     -12.176  10.578  70.655  1.00  0.00    -0.446 C  
HETATM    2  C   UNL     1     -10.875  10.329  69.884  1.00  0.00    -0.355 C  
HETATM    3  C   UNL     1     -11.095  10.000  68.400  1.00  0.00    -0.182 C  
HETATM    4  C   UNL     1     -10.132   9.153  70.504  1.00  0.00    -0.235 C  
HETATM    5  O   UNL     1     -10.735   8.168  70.931  1.00  0.00    -0.215 OA 
HETATM    6  C   UNL     1      -8.021   7.662  72.494  1.00  0.00    -0.108 C  
HETATM    7  N   UNL     1      -8.759   9.207  70.605  1.00  0.00    -0.213 N  
HETATM    8  C   UNL     1      -7.876  10.282  70.174  1.00  0.00     0.069 C  
HETATM    9  C   UNL     1      -7.979   8.018  71.000  1.00  0.00    -0.092 C  
HETATM   10  C   UNL     1      -6.598   9.576  69.721  1.00  0.00    -0.051 C  
HETATM   11  C   UNL     1      -6.524   8.347  70.626  1.00  0.00    -0.037 C  
HETATM   12  O   UNL     1      -8.798   8.464  73.254  1.00  0.00    -0.260 OA 
HETATM   13  O   UNL     1      -7.370   6.745  72.985  1.00  0.00    -0.079 OA 
ENDROOT
BRANCH   3  14
HETATM   14  S   UNL     1     -11.956  11.355  67.557  1.00  0.00     0.436 SA 
BRANCH  14  15
HETATM   15  C   UNL     1     -10.723  11.883  66.416  1.00  0.00    -0.266 C  
HETATM   16  O   UNL     1      -9.731  11.204  66.181  1.00  0.00    -0.204 OA 
BRANCH  15  17
HETATM   17  C   UNL     1     -10.972  13.181  65.722  1.00  0.00    -0.295 A  
HETATM   18  C   UNL     1     -11.807  13.283  64.598  1.00  0.00    -0.420 A  
HETATM   19  C   UNL     1     -12.002  14.516  63.973  1.00  0.00    -0.238 A  
HETATM   20  C   UNL     1     -11.375  15.655  64.469  1.00  0.00    -0.327 A  
HETATM   21  C   UNL     1     -10.355  14.336  66.222  1.00  0.00    -0.297 A  
HETATM   22  C   UNL     1     -10.553  15.567  65.592  1.00  0.00    -0.389 A  
ENDBRANCH  15  17
ENDBRANCH  14  15
ENDBRANCH   3  14
BRANCH  10  23
HETATM   23  S   UNL     1      -5.173  10.714  69.867  1.00  0.00    -0.042 SA 
BRANCH  23  24
HETATM   24  C   UNL     1      -5.822  12.262  69.255  1.00  0.00    -0.080 A  
HETATM   25  C   UNL     1      -6.016  13.384  70.066  1.00  0.00    -0.137 A  
HETATM   26  C   UNL     1      -6.787  14.661  68.160  1.00  0.00    -0.128 A  
HETATM   27  C   UNL     1      -6.505  14.576  69.522  1.00  0.00    -0.134 A  
HETATM   28  C   UNL     1      -6.577  13.557  67.339  1.00  0.00    -0.014 A  
HETATM   29  C   UNL     1      -6.093  12.365  67.884  1.00  0.00    -0.093 A  
ENDBRANCH  23  24
ENDBRANCH  10  23
TORSDOF 5
ENDMDL
MODEL      232
REMARK 921   NORMALIZED FREE ENERGY PREDICTED BY IDOCK:   -3.61 KCAL/MOL
REMARK 922        TOTAL FREE ENERGY PREDICTED BY IDOCK:   -5.83 KCAL/MOL
REMARK 923 INTER-LIGAND FREE ENERGY PREDICTED BY IDOCK:   -5.59 KCAL/MOL
REMARK 924 INTRA-LIGAND FREE ENERGY PREDICTED BY IDOCK:   -0.24 KCAL/MOL
REMARK 927      BINDING AFFINITY PREDICTED BY RF-SCORE:    0.00 PKD
ROOT
HETATM    1  C   UNL     1      -9.320  19.906  69.088  1.00  0.00    -0.052 C  
HETATM    2  C   UNL     1      -9.055  18.630  68.280  1.00  0.00    -0.347 C  
HETATM    3  C   UNL     1      -8.808  18.891  66.788  1.00  0.00    -0.309 C  
HETATM    4  C   UNL     1     -10.257  17.701  68.386  1.00  0.00    -0.381 C  
HETATM    5  O   UNL     1     -11.407  18.140  68.390  1.00  0.00     0.504 OA 
HETATM    6  C   UNL     1     -12.078  15.295  69.624  1.00  0.00    -0.312 C  
HETATM    7  N   UNL     1     -10.045  16.345  68.499  1.00  0.00    -0.238 N  
HETATM    8  C   UNL     1      -8.770  15.641  68.526  1.00  0.00    -0.182 C  
HETATM    9  C   UNL     1     -11.166  15.390  68.392  1.00  0.00    -0.315 C  
HETATM   10  C   UNL     1      -9.048  14.309  67.829  1.00  0.00    -0.195 C  
HETATM   11  C   UNL     1     -10.507  14.017  68.176  1.00  0.00    -0.243 C  
HETATM   12  O   UNL     1     -11.759  16.127  70.640  1.00  0.00    -0.368 OA 
HETATM   13  O   UNL     1     -13.007  14.499  69.714  1.00  0.00    -0.011 OA 
ENDROOT
BRANCH   3  14
HETATM   14  S   UNL     1      -7.374  19.975  66.547  1.00  0.00    -0.277 SA 
BRANCH  14  15
HETATM   15  C   UNL     1      -6.485  19.699  68.042  1.00  0.00    -0.237 C  
HETATM   16  O   UNL     1      -6.295  20.597  68.852  1.00  0.00    -0.304 OA 
BRANCH  15  17
HETATM   17  C   UNL     1      -6.010  18.305  68.284  1.00  0.00    -0.175 A  
HETATM   18  C   UNL     1      -5.641  17.444  67.238  1.00  0.00    -0.155 A  
HETATM   19  C   UNL     1      -5.214  16.144  67.509  1.00  0.00    -0.136 A  
HETATM   20  C   UNL     1      -5.143  15.694  68.825  1.00  0.00    -0.100 A  
HETATM   21  C   UNL     1      -5.923  17.848  69.607  1.00  0.00    -0.250 A  
HETATM   22  C   UNL     1      -5.496  16.545  69.874  1.00  0.00    -0.185 A  
ENDBRANCH  15  17
ENDBRANCH  14  15
ENDBRANCH   3  14
BRANCH  10  23
HETATM   23  S   UNL     1      -7.861  13.044  68.410  1.00  0.00    -0.113 SA 
BRANCH  23  24
HETATM   24  C   UNL     1      -8.713  11.507  68.095  1.00  0.00    -0.157 A  
HETATM   25  C   UNL     1      -9.152  10.652  69.110  1.00  0.00    -0.152 A  
HETATM   26  C   UNL     1     -10.102   9.147  67.470  1.00  0.00    -0.284 A  
HETATM   27  C   UNL     1      -9.836   9.473  68.799  1.00  0.00    -0.177 A  
HETATM   28  C   UNL     1      -9.687  10.001  66.452  1.00  0.00    -0.266 A  
HETATM   29  C   UNL     1      -9.000  11.176  66.763  1.00  0.00    -0.169 A  
ENDBRANCH  23  24
ENDBRANCH  10  23
TORSDOF 5
ENDMDL
MODEL      233
REMARK 921   NORMALIZED FREE ENERGY PREDICTED BY IDOCK:   -3.54 KCAL/MOL
REMARK 922        TOTAL FREE ENERGY PREDICTED BY IDOCK:   -5.75 KCAL/MOL
REMARK 923 INTER-LIGAND FREE ENERGY PREDICTED BY IDOCK:   -5.18 KCAL/MOL
REMARK 924 INTRA-LIGAND FREE ENERGY PREDICTED BY IDOCK:   -0.57 KCAL/MOL
REMARK 927      BINDING AFFINITY PREDICTED BY RF-SCORE:    0.00 PKD
ROOT
HETATM    1  C   UNL     1      -9.930  17.328  69.860  1.00  0.00     0.566 C  
HETATM    2  C   UNL     1     -10.137  15.812  69.763  1.00  0.00    -0.277 C  
HETATM    3  C   UNL     1     -10.645  15.179  71.066  1.00  0.00     0.192 C  
HETATM    4  C   UNL     1      -8.816  15.138  69.416  1.00  0.00    -0.172 C  
HETATM    5  O   UNL     1      -7.752  15.535  69.888  1.00  0.00    -0.127 OA 
HETATM    6  C   UNL     1      -6.511  13.901  67.469  1.00  0.00    -0.058 C  
HETATM    7  N   UNL     1      -8.818  14.076  68.539  1.00  0.00    -0.183 N  
HETATM    8  C   UNL     1      -9.964  13.474  67.870  1.00  0.00    -0.245 C  
HETATM    9  C   UNL     1      -7.606  13.259  68.333  1.00  0.00    -0.137 C  
HETATM   10  C   UNL     1      -9.615  11.990  67.764  1.00  0.00    -0.193 C  
HETATM   11  C   UNL     1      -8.093  11.985  67.622  1.00  0.00    -0.155 C  
HETATM   12  O   UNL     1      -6.782  15.151  67.033  1.00  0.00    -0.235 OA 
HETATM   13  O   UNL     1      -5.478  13.320  67.151  1.00  0.00    -0.328 OA 
ENDROOT
BRANCH   3  14
HETATM   14  S   UNL     1     -12.235  15.898  71.560  1.00  0.00    -0.444 SA 
BRANCH  14  15
HETATM   15  C   UNL     1     -13.364  14.760  70.831  1.00  0.00    -0.322 C  
HETATM   16  O   UNL     1     -14.352  15.139  70.216  1.00  0.00     0.765 OA 
BRANCH  15  17
HETATM   17  C   UNL     1     -13.030  13.312  70.970  1.00  0.00    -0.233 A  
HETATM   18  C   UNL     1     -13.446  12.547  72.072  1.00  0.00    -0.486 A  
HETATM   19  C   UNL     1     -13.101  11.198  72.167  1.00  0.00    -0.288 A  
HETATM   20  C   UNL     1     -12.346  10.599  71.162  1.00  0.00    -0.505 A  
HETATM   21  C   UNL     1     -12.282  12.697  69.956  1.00  0.00    -0.267 A  
HETATM   22  C   UNL     1     -11.937  11.346  70.057  1.00  0.00    -0.442 A  
ENDBRANCH  15  17
ENDBRANCH  14  15
ENDBRANCH   3  14
BRANCH  10  23
HETATM   23  S   UNL     1     -10.512  11.240  66.356  1.00  0.00    -0.264 SA 
BRANCH  23  24
HETATM   24  C   UNL     1     -10.138   9.500  66.513  1.00  0.00    -0.256 A  
HETATM   25  C   UNL     1      -9.215   8.839  65.697  1.00  0.00    -0.244 A  
HETATM   26  C   UNL     1      -9.588   6.774  66.902  1.00  0.00    -0.200 A  
HETATM   27  C   UNL     1      -8.948   7.479  65.886  1.00  0.00    -0.128 A  
HETATM   28  C   UNL     1     -10.494   7.427  67.734  1.00  0.00    -0.298 A  
HETATM   29  C   UNL     1     -10.763   8.784  67.543  1.00  0.00    -0.213 A  
ENDBRANCH  23  24
ENDBRANCH  10  23
TORSDOF 5
ENDMDL
MODEL      234
REMARK 921   NORMALIZED FREE ENERGY PREDICTED BY IDOCK:   -3.54 KCAL/MOL
REMARK 922        TOTAL FREE ENERGY PREDICTED BY IDOCK:   -5.74 KCAL/MOL
REMARK 923 INTER-LIGAND FREE ENERGY PREDICTED BY IDOCK:   -4.35 KCAL/MOL
REMARK 924 INTRA-LIGAND FREE ENERGY PREDICTED BY IDOCK:   -1.39 KCAL/MOL
REMARK 927      BINDING AFFINITY PREDICTED BY RF-SCORE:    0.00 PKD
ROOT
HETATM    1  C   UNL     1      -8.132   9.776  68.093  1.00  0.00    -0.108 C  
HETATM    2  C   UNL     1      -8.649   8.540  68.840  1.00  0.00    -0.127 C  
HETATM    3  C   UNL     1      -8.639   7.262  67.989  1.00  0.00    -0.125 C  
HETATM    4  C   UNL     1     -10.085   8.777  69.286  1.00  0.00    -0.204 C  
HETATM    5  O   UNL     1     -10.885   9.384  68.573  1.00  0.00    -0.191 OA 
HETATM    6  C   UNL     1     -12.477   9.710  71.298  1.00  0.00    -0.355 C  
HETATM    7  N   UNL     1     -10.486   8.319  70.521  1.00  0.00    -0.207 N  
HETATM    8  C   UNL     1      -9.690   7.598  71.506  1.00  0.00    -0.165 C  
HETATM    9  C   UNL     1     -11.909   8.336  70.912  1.00  0.00    -0.216 C  
HETATM   10  C   UNL     1     -10.679   6.651  72.185  1.00  0.00    -0.218 C  
HETATM   11  C   UNL     1     -12.001   7.417  72.142  1.00  0.00    -0.307 C  
HETATM   12  O   UNL     1     -11.608  10.739  71.196  1.00  0.00    -0.208 OA 
HETATM   13  O   UNL     1     -13.621   9.873  71.711  1.00  0.00    -0.347 OA 
ENDROOT
BRANCH   3  14
HETATM   14  S   UNL     1      -6.962   6.872  67.422  1.00  0.00    -0.081 SA 
BRANCH  14  15
HETATM   15  C   UNL     1      -6.871   5.152  67.785  1.00  0.00    -0.060 C  
HETATM   16  O   UNL     1      -7.179   4.303  66.958  1.00  0.00    -0.066 OA 
BRANCH  15  17
HETATM   17  C   UNL     1      -6.363   4.785  69.140  1.00  0.00    -0.032 A  
HETATM   18  C   UNL     1      -5.967   3.477  69.464  1.00  0.00    -0.023 A  
HETATM   19  C   UNL     1      -5.508   3.175  70.747  1.00  0.00    -0.012 A  
HETATM   20  C   UNL     1      -5.433   4.175  71.713  1.00  0.00    -0.007 A  
HETATM   21  C   UNL     1      -6.271   5.787  70.115  1.00  0.00    -0.027 A  
HETATM   22  C   UNL     1      -5.813   5.480  71.399  1.00  0.00    -0.028 A  
ENDBRANCH  15  17
ENDBRANCH  14  15
ENDBRANCH   3  14
BRANCH  10  23
HETATM   23  S   UNL     1     -10.091   6.241  73.868  1.00  0.00    -0.302 SA 
BRANCH  23  24
HETATM   24  C   UNL     1      -9.878   4.469  73.808  1.00  0.00    -0.143 A  
HETATM   25  C   UNL     1     -10.948   3.569  73.823  1.00  0.00    -0.308 A  
HETATM   26  C   UNL     1      -9.416   1.704  73.641  1.00  0.00    -0.083 A  
HETATM   27  C   UNL     1     -10.717   2.191  73.749  1.00  0.00    -0.245 A  
HETATM   28  C   UNL     1      -8.345   2.592  73.603  1.00  0.00    -0.064 A  
HETATM   29  C   UNL     1      -8.576   3.967  73.682  1.00  0.00    -0.091 A  
ENDBRANCH  23  24
ENDBRANCH  10  23
TORSDOF 5
ENDMDL
MODEL      235
REMARK 921   NORMALIZED FREE ENERGY PREDICTED BY IDOCK:   -3.50 KCAL/MOL
REMARK 922        TOTAL FREE ENERGY PREDICTED BY IDOCK:   -5.69 KCAL/MOL
REMARK 923 INTER-LIGAND FREE ENERGY PREDICTED BY IDOCK:   -4.01 KCAL/MOL
REMARK 924 INTRA-LIGAND FREE ENERGY PREDICTED BY IDOCK:   -1.68 KCAL/MOL
REMARK 927      BINDING AFFINITY PREDICTED BY RF-SCORE:    0.00 PKD
ROOT
HETATM    1  C   UNL     1      -7.842   4.256  70.872  1.00  0.00    -0.063 C  
HETATM    2  C   UNL     1      -8.377   5.072  69.690  1.00  0.00    -0.088 C  
HETATM    3  C   UNL     1      -9.648   5.869  70.021  1.00  0.00    -0.163 C  
HETATM    4  C   UNL     1      -8.715   4.138  68.536  1.00  0.00    -0.098 C  
HETATM    5  O   UNL     1      -9.217   3.032  68.735  1.00  0.00    -0.139 OA 
HETATM    6  C   UNL     1      -8.179   2.458  65.792  1.00  0.00    -0.088 C  
HETATM    7  N   UNL     1      -8.431   4.536  67.248  1.00  0.00    -0.104 N  
HETATM    8  C   UNL     1      -7.830   5.790  66.815  1.00  0.00    -0.101 C  
HETATM    9  C   UNL     1      -8.926   3.766  66.090  1.00  0.00    -0.135 C  
HETATM   10  C   UNL     1      -8.485   6.088  65.466  1.00  0.00    -0.151 C  
HETATM   11  C   UNL     1      -8.754   4.702  64.881  1.00  0.00    -0.145 C  
HETATM   12  O   UNL     1      -7.182   2.157  66.654  1.00  0.00    -0.054 OA 
HETATM   13  O   UNL     1      -8.427   1.747  64.824  1.00  0.00    -0.082 OA 
ENDROOT
BRANCH   3  14
HETATM   14  S   UNL     1      -9.348   7.037  71.374  1.00  0.00    -0.154 SA 
BRANCH  14  15
HETATM   15  C   UNL     1      -8.655   8.399  70.500  1.00  0.00    -0.134 C  
HETATM   16  O   UNL     1      -7.503   8.768  70.692  1.00  0.00    -0.060 OA 
BRANCH  15  17
HETATM   17  C   UNL     1      -9.534   9.054  69.487  1.00  0.00    -0.164 A  
HETATM   18  C   UNL     1      -9.949   8.399  68.317  1.00  0.00    -0.214 A  
HETATM   19  C   UNL     1     -10.761   9.053  67.390  1.00  0.00    -0.231 A  
HETATM   20  C   UNL     1     -11.173  10.362  67.627  1.00  0.00    -0.287 A  
HETATM   21  C   UNL     1      -9.964  10.368  69.723  1.00  0.00    -0.167 A  
HETATM   22  C   UNL     1     -10.776  11.020  68.791  1.00  0.00    -0.240 A  
ENDBRANCH  15  17
ENDBRANCH  14  15
ENDBRANCH   3  14
BRANCH  10  23
HETATM   23  S   UNL     1      -7.379   7.138  64.457  1.00  0.00    -0.088 SA 
BRANCH  23  24
HETATM   24  C   UNL     1      -7.952   8.793  64.808  1.00  0.00    -0.132 A  
HETATM   25  C   UNL     1      -9.046   9.377  64.162  1.00  0.00    -0.132 A  
HETATM   26  C   UNL     1      -8.798  11.381  65.497  1.00  0.00    -0.034 A  
HETATM   27  C   UNL     1      -9.461  10.669  64.499  1.00  0.00    -0.313 A  
HETATM   28  C   UNL     1      -7.720  10.801  66.161  1.00  0.00    -0.149 A  
HETATM   29  C   UNL     1      -7.303   9.512  65.821  1.00  0.00    -0.097 A  
ENDBRANCH  23  24
ENDBRANCH  10  23
TORSDOF 5
ENDMDL
MODEL      236
REMARK 921   NORMALIZED FREE ENERGY PREDICTED BY IDOCK:   -3.48 KCAL/MOL
REMARK 922        TOTAL FREE ENERGY PREDICTED BY IDOCK:   -5.66 KCAL/MOL
REMARK 923 INTER-LIGAND FREE ENERGY PREDICTED BY IDOCK:   -5.05 KCAL/MOL
REMARK 924 INTRA-LIGAND FREE ENERGY PREDICTED BY IDOCK:   -0.61 KCAL/MOL
REMARK 927      BINDING AFFINITY PREDICTED BY RF-SCORE:    0.00 PKD
ROOT
HETATM    1  C   UNL     1      -6.781  12.867  69.205  1.00  0.00    -0.086 C  
HETATM    2  C   UNL     1      -7.659  11.818  68.513  1.00  0.00    -0.131 C  
HETATM    3  C   UNL     1      -9.155  12.166  68.526  1.00  0.00    -0.090 C  
HETATM    4  C   UNL     1      -7.499  10.476  69.216  1.00  0.00    -0.122 C  
HETATM    5  O   UNL     1      -7.387  10.404  70.439  1.00  0.00    -0.245 OA 
HETATM    6  C   UNL     1      -6.223   7.527  69.777  1.00  0.00    -0.030 C  
HETATM    7  N   UNL     1      -7.459   9.326  68.458  1.00  0.00    -0.080 N  
HETATM    8  C   UNL     1      -7.561   9.208  67.010  1.00  0.00    -0.091 C  
HETATM    9  C   UNL     1      -7.518   7.996  69.096  1.00  0.00    -0.095 C  
HETATM   10  C   UNL     1      -8.288   7.883  66.779  1.00  0.00    -0.120 C  
HETATM   11  C   UNL     1      -7.841   7.016  67.955  1.00  0.00    -0.114 C  
HETATM   12  O   UNL     1      -5.202   8.411  69.738  1.00  0.00    -0.029 OA 
HETATM   13  O   UNL     1      -6.094   6.419  70.287  1.00  0.00    -0.032 OA 
ENDROOT
BRANCH   3  14
HETATM   14  S   UNL     1      -9.461  13.744  67.688  1.00  0.00    -0.225 SA 
BRANCH  14  15
HETATM   15  C   UNL     1     -11.172  13.983  68.029  1.00  0.00    -0.279 C  
HETATM   16  O   UNL     1     -12.038  13.673  67.221  1.00  0.00    -0.380 OA 
BRANCH  15  17
HETATM   17  C   UNL     1     -11.510  14.546  69.369  1.00  0.00    -0.323 A  
HETATM   18  C   UNL     1     -10.877  15.688  69.885  1.00  0.00    -0.324 A  
HETATM   19  C   UNL     1     -11.216  16.174  71.149  1.00  0.00    -0.257 A  
HETATM   20  C   UNL     1     -12.194  15.531  71.903  1.00  0.00    -0.477 A  
HETATM   21  C   UNL     1     -12.503  13.913  70.130  1.00  0.00    -0.355 A  
HETATM   22  C   UNL     1     -12.838  14.403  71.395  1.00  0.00    -0.410 A  
ENDBRANCH  15  17
ENDBRANCH  14  15
ENDBRANCH   3  14
BRANCH  10  23
HETATM   23  S   UNL     1      -7.854   7.215  65.132  1.00  0.00    -0.129 SA 
BRANCH  23  24
HETATM   24  C   UNL     1      -7.969   5.448  65.364  1.00  0.00    -0.107 A  
HETATM   25  C   UNL     1      -6.883   4.653  65.740  1.00  0.00    -0.058 A  
HETATM   26  C   UNL     1      -8.294   2.687  65.762  1.00  0.00    -0.094 A  
HETATM   27  C   UNL     1      -7.043   3.276  65.930  1.00  0.00    -0.066 A  
HETATM   28  C   UNL     1      -9.388   3.473  65.408  1.00  0.00    -0.158 A  
HETATM   29  C   UNL     1      -9.226   4.846  65.215  1.00  0.00    -0.144 A  
ENDBRANCH  23  24
ENDBRANCH  10  23
TORSDOF 5
ENDMDL
MODEL      237
REMARK 921   NORMALIZED FREE ENERGY PREDICTED BY IDOCK:   -3.47 KCAL/MOL
REMARK 922        TOTAL FREE ENERGY PREDICTED BY IDOCK:   -5.65 KCAL/MOL
REMARK 923 INTER-LIGAND FREE ENERGY PREDICTED BY IDOCK:   -5.67 KCAL/MOL
REMARK 924 INTRA-LIGAND FREE ENERGY PREDICTED BY IDOCK:    0.02 KCAL/MOL
REMARK 927      BINDING AFFINITY PREDICTED BY RF-SCORE:    0.00 PKD
ROOT
HETATM    1  C   UNL     1     -11.834  13.328  69.692  1.00  0.00    -0.391 C  
HETATM    2  C   UNL     1     -11.165  12.251  68.830  1.00  0.00    -0.323 C  
HETATM    3  C   UNL     1     -11.470  12.389  67.331  1.00  0.00    -0.352 C  
HETATM    4  C   UNL     1     -11.649  10.875  69.267  1.00  0.00    -0.318 C  
HETATM    5  O   UNL     1     -12.817  10.685  69.605  1.00  0.00    -0.177 OA 
HETATM    6  C   UNL     1     -11.601   8.083  70.953  1.00  0.00    -0.269 C  
HETATM    7  N   UNL     1     -10.752   9.831  69.301  1.00  0.00    -0.218 N  
HETATM    8  C   UNL     1      -9.338   9.858  68.955  1.00  0.00    -0.170 C  
HETATM    9  C   UNL     1     -11.210   8.443  69.511  1.00  0.00     0.163 C  
HETATM   10  C   UNL     1      -9.058   8.481  68.354  1.00  0.00    -0.139 C  
HETATM   11  C   UNL     1     -10.020   7.559  69.103  1.00  0.00    -0.179 C  
HETATM   12  O   UNL     1     -11.510   9.096  71.842  1.00  0.00    -0.360 OA 
HETATM   13  O   UNL     1     -11.933   6.954  71.297  1.00  0.00    -0.317 OA 
ENDROOT
BRANCH   3  14
HETATM   14  S   UNL     1     -10.909  13.993  66.700  1.00  0.00    -0.300 SA 
BRANCH  14  15
HETATM   15  C   UNL     1      -9.273  14.060  67.348  1.00  0.00    -0.216 C  
HETATM   16  O   UNL     1      -8.804  13.140  68.007  1.00  0.00    -0.176 OA 
BRANCH  15  17
HETATM   17  C   UNL     1      -8.477  15.279  67.019  1.00  0.00    -0.258 A  
HETATM   18  C   UNL     1      -7.131  15.421  67.394  1.00  0.00    -0.229 A  
HETATM   19  C   UNL     1      -6.428  16.583  67.075  1.00  0.00    -0.221 A  
HETATM   20  C   UNL     1      -7.057  17.608  66.373  1.00  0.00    -0.310 A  
HETATM   21  C   UNL     1      -9.098  16.310  66.300  1.00  0.00    -0.366 A  
HETATM   22  C   UNL     1      -8.389  17.472  65.984  1.00  0.00    -0.116 A  
ENDBRANCH  15  17
ENDBRANCH  14  15
ENDBRANCH   3  14
BRANCH  10  23
HETATM   23  S   UNL     1      -7.289   8.062  68.558  1.00  0.00    -0.099 SA 
BRANCH  23  24
HETATM   24  C   UNL     1      -6.889   7.220  67.035  1.00  0.00    -0.076 A  
HETATM   25  C   UNL     1      -5.771   6.394  66.886  1.00  0.00    -0.013 A  
HETATM   26  C   UNL     1      -6.406   5.898  64.604  1.00  0.00    -0.033 A  
HETATM   27  C   UNL     1      -5.525   5.743  65.674  1.00  0.00    -0.013 A  
HETATM   28  C   UNL     1      -7.534   6.701  64.747  1.00  0.00    -0.095 A  
HETATM   29  C   UNL     1      -7.776   7.355  65.957  1.00  0.00    -0.095 A  
ENDBRANCH  23  24
ENDBRANCH  10  23
TORSDOF 5
ENDMDL
MODEL      238
REMARK 921   NORMALIZED FREE ENERGY PREDICTED BY IDOCK:   -3.44 KCAL/MOL
REMARK 922        TOTAL FREE ENERGY PREDICTED BY IDOCK:   -5.62 KCAL/MOL
REMARK 923 INTER-LIGAND FREE ENERGY PREDICTED BY IDOCK:   -4.64 KCAL/MOL
REMARK 924 INTRA-LIGAND FREE ENERGY PREDICTED BY IDOCK:   -0.97 KCAL/MOL
REMARK 927      BINDING AFFINITY PREDICTED BY RF-SCORE:    0.00 PKD
ROOT
HETATM    1  C   UNL     1      -8.212   9.999  68.611  1.00  0.00    -0.111 C  
HETATM    2  C   UNL     1      -8.725   8.638  69.094  1.00  0.00    -0.136 C  
HETATM    3  C   UNL     1      -8.566   7.519  68.055  1.00  0.00    -0.122 C  
HETATM    4  C   UNL     1     -10.207   8.740  69.427  1.00  0.00    -0.210 C  
HETATM    5  O   UNL     1     -10.971   9.424  68.745  1.00  0.00    -0.159 OA 
HETATM    6  C   UNL     1     -12.822   9.231  71.314  1.00  0.00    -0.288 C  
HETATM    7  N   UNL     1     -10.693   8.069  70.527  1.00  0.00    -0.225 N  
HETATM    8  C   UNL     1      -9.953   7.228  71.458  1.00  0.00    -0.182 C  
HETATM    9  C   UNL     1     -12.145   7.963  70.772  1.00  0.00    -0.084 C  
HETATM   10  C   UNL     1     -10.945   6.143  71.874  1.00  0.00    -0.263 C  
HETATM   11  C   UNL     1     -12.298   6.851  71.823  1.00  0.00    -0.401 C  
HETATM   12  O   UNL     1     -12.006  10.298  71.465  1.00  0.00    -0.358 OA 
HETATM   13  O   UNL     1     -14.006   9.278  71.632  1.00  0.00    -0.328 OA 
ENDROOT
BRANCH   3  14
HETATM   14  S   UNL     1      -6.824   7.296  67.603  1.00  0.00    -0.076 SA 
BRANCH  14  15
HETATM   15  C   UNL     1      -6.618   5.570  67.886  1.00  0.00    -0.053 C  
HETATM   16  O   UNL     1      -5.868   5.145  68.755  1.00  0.00    -0.018 OA 
BRANCH  15  17
HETATM   17  C   UNL     1      -7.435   4.656  67.034  1.00  0.00    -0.086 A  
HETATM   18  C   UNL     1      -7.335   4.644  65.634  1.00  0.00    -0.077 A  
HETATM   19  C   UNL     1      -8.128   3.781  64.876  1.00  0.00    -0.093 A  
HETATM   20  C   UNL     1      -9.018   2.917  65.508  1.00  0.00    -0.145 A  
HETATM   21  C   UNL     1      -8.325   3.773  67.663  1.00  0.00    -0.098 A  
HETATM   22  C   UNL     1      -9.117   2.911  66.899  1.00  0.00    -0.181 A  
ENDBRANCH  15  17
ENDBRANCH  14  15
ENDBRANCH   3  14
BRANCH  10  23
HETATM   23  S   UNL     1     -10.492   5.486  73.521  1.00  0.00    -0.273 SA 
BRANCH  23  24
HETATM   24  C   UNL     1      -9.564   4.011  73.131  1.00  0.00    -0.117 A  
HETATM   25  C   UNL     1     -10.123   2.900  72.492  1.00  0.00    -0.234 A  
HETATM   26  C   UNL     1      -7.981   1.774  72.513  1.00  0.00    -0.048 A  
HETATM   27  C   UNL     1      -9.337   1.783  72.193  1.00  0.00    -0.143 A  
HETATM   28  C   UNL     1      -7.408   2.883  73.130  1.00  0.00    -0.045 A  
HETATM   29  C   UNL     1      -8.195   3.996  73.434  1.00  0.00    -0.089 A  
ENDBRANCH  23  24
ENDBRANCH  10  23
TORSDOF 5
ENDMDL
MODEL      239
REMARK 921   NORMALIZED FREE ENERGY PREDICTED BY IDOCK:   -3.41 KCAL/MOL
REMARK 922        TOTAL FREE ENERGY PREDICTED BY IDOCK:   -5.57 KCAL/MOL
REMARK 923 INTER-LIGAND FREE ENERGY PREDICTED BY IDOCK:   -4.90 KCAL/MOL
REMARK 924 INTRA-LIGAND FREE ENERGY PREDICTED BY IDOCK:   -0.67 KCAL/MOL
REMARK 927      BINDING AFFINITY PREDICTED BY RF-SCORE:    0.00 PKD
ROOT
HETATM    1  C   UNL     1     -10.083   9.838  70.952  1.00  0.00    -0.135 C  
HETATM    2  C   UNL     1     -10.312   9.283  69.541  1.00  0.00    -0.223 C  
HETATM    3  C   UNL     1     -11.527   9.897  68.831  1.00  0.00     0.080 C  
HETATM    4  C   UNL     1     -10.543   7.779  69.616  1.00  0.00    -0.242 C  
HETATM    5  O   UNL     1     -11.188   7.276  70.535  1.00  0.00    -0.267 OA 
HETATM    6  C   UNL     1      -9.720   4.623  69.601  1.00  0.00    -0.213 C  
HETATM    7  N   UNL     1      -9.997   6.970  68.644  1.00  0.00    -0.152 N  
HETATM    8  C   UNL     1      -9.198   7.372  67.495  1.00  0.00    -0.130 C  
HETATM    9  C   UNL     1     -10.362   5.543  68.552  1.00  0.00    -0.178 C  
HETATM   10  C   UNL     1      -9.571   6.378  66.396  1.00  0.00    -0.113 C  
HETATM   11  C   UNL     1      -9.882   5.092  67.162  1.00  0.00    -0.191 C  
HETATM   12  O   UNL     1      -8.927   5.245  70.502  1.00  0.00    -0.131 OA 
HETATM   13  O   UNL     1      -9.871   3.405  69.611  1.00  0.00    -0.071 OA 
ENDROOT
BRANCH   3  14
HETATM   14  S   UNL     1     -11.343  11.693  68.667  1.00  0.00    -0.297 SA 
BRANCH  14  15
HETATM   15  C   UNL     1     -10.375  11.803  67.200  1.00  0.00    -0.215 C  
HETATM   16  O   UNL     1     -10.046  10.805  66.571  1.00  0.00    -0.212 OA 
BRANCH  15  17
HETATM   17  C   UNL     1     -10.012  13.177  66.745  1.00  0.00    -0.250 A  
HETATM   18  C   UNL     1      -8.847  13.829  67.181  1.00  0.00    -0.240 A  
HETATM   19  C   UNL     1      -8.552  15.119  66.740  1.00  0.00    -0.297 A  
HETATM   20  C   UNL     1      -9.410  15.766  65.853  1.00  0.00    -0.356 A  
HETATM   21  C   UNL     1     -10.863  13.830  65.843  1.00  0.00    -0.283 A  
HETATM   22  C   UNL     1     -10.564  15.123  65.404  1.00  0.00    -0.410 A  
ENDBRANCH  15  17
ENDBRANCH  14  15
ENDBRANCH   3  14
BRANCH  10  23
HETATM   23  S   UNL     1      -8.199   6.234  65.195  1.00  0.00    -0.118 SA 
BRANCH  23  24
HETATM   24  C   UNL     1      -7.252   4.853  65.818  1.00  0.00    -0.076 A  
HETATM   25  C   UNL     1      -7.226   3.601  65.196  1.00  0.00    -0.067 A  
HETATM   26  C   UNL     1      -5.671   2.779  66.859  1.00  0.00    -0.022 A  
HETATM   27  C   UNL     1      -6.445   2.566  65.720  1.00  0.00    -0.028 A  
HETATM   28  C   UNL     1      -5.673   4.028  67.474  1.00  0.00    -0.022 A  
HETATM   29  C   UNL     1      -6.457   5.060  66.953  1.00  0.00    -0.041 A  
ENDBRANCH  23  24
ENDBRANCH  10  23
TORSDOF 5
ENDMDL
MODEL      240
REMARK 921   NORMALIZED FREE ENERGY PREDICTED BY IDOCK:   -3.33 KCAL/MOL
REMARK 922        TOTAL FREE ENERGY PREDICTED BY IDOCK:   -5.47 KCAL/MOL
REMARK 923 INTER-LIGAND FREE ENERGY PREDICTED BY IDOCK:   -4.69 KCAL/MOL
REMARK 924 INTRA-LIGAND FREE ENERGY PREDICTED BY IDOCK:   -0.78 KCAL/MOL
REMARK 927      BINDING AFFINITY PREDICTED BY RF-SCORE:    0.00 PKD
ROOT
HETATM    1  C   UNL     1      -8.057   5.521  69.156  1.00  0.00    -0.095 C  
HETATM    2  C   UNL     1      -8.935   6.672  68.652  1.00  0.00    -0.124 C  
HETATM    3  C   UNL     1     -10.435   6.343  68.652  1.00  0.00    -0.223 C  
HETATM    4  C   UNL     1      -8.547   7.022  67.222  1.00  0.00    -0.121 C  
HETATM    5  O   UNL     1      -8.237   6.150  66.411  1.00  0.00    -0.108 OA 
HETATM    6  C   UNL     1      -6.940   8.594  64.858  1.00  0.00    -0.073 C  
HETATM    7  N   UNL     1      -8.524   8.346  66.841  1.00  0.00    -0.116 N  
HETATM    8  C   UNL     1      -8.842   9.513  67.652  1.00  0.00    -0.118 C  
HETATM    9  C   UNL     1      -8.362   8.724  65.423  1.00  0.00    -0.151 C  
HETATM   10  C   UNL     1      -9.475  10.504  66.675  1.00  0.00    -0.168 C  
HETATM   11  C   UNL     1      -8.772  10.205  65.351  1.00  0.00    -0.176 C  
HETATM   12  O   UNL     1      -6.020   8.113  65.724  1.00  0.00    -0.040 OA 
HETATM   13  O   UNL     1      -6.634   8.936  63.721  1.00  0.00    -0.087 OA 
ENDROOT
BRANCH   3  14
HETATM   14  S   UNL     1     -11.010   5.932  70.321  1.00  0.00    -0.290 SA 
BRANCH  14  15
HETATM   15  C   UNL     1     -10.522   7.370  71.212  1.00  0.00    -0.208 C  
HETATM   16  O   UNL     1      -9.379   7.513  71.626  1.00  0.00    -0.145 OA 
BRANCH  15  17
HETATM   17  C   UNL     1     -11.566   8.421  71.400  1.00  0.00    -0.332 A  
HETATM   18  C   UNL     1     -11.290   9.789  71.244  1.00  0.00    -0.445 A  
HETATM   19  C   UNL     1     -12.294  10.739  71.442  1.00  0.00    -0.433 A  
HETATM   20  C   UNL     1     -13.580  10.332  71.787  1.00  0.00    -0.281 A  
HETATM   21  C   UNL     1     -12.866   8.020  71.735  1.00  0.00    -0.353 A  
HETATM   22  C   UNL     1     -13.867   8.974  71.933  1.00  0.00    -0.477 A  
ENDBRANCH  15  17
ENDBRANCH  14  15
ENDBRANCH   3  14
BRANCH  10  23
HETATM   23  S   UNL     1      -9.248  12.212  67.288  1.00  0.00    -0.192 SA 
BRANCH  23  24
HETATM   24  C   UNL     1      -7.675  12.140  68.129  1.00  0.00    -0.129 A  
HETATM   25  C   UNL     1      -7.552  11.954  69.510  1.00  0.00     0.480 A  
HETATM   26  C   UNL     1      -5.139  11.977  69.326  1.00  0.00    -0.052 A  
HETATM   27  C   UNL     1      -6.289  11.882  70.106  1.00  0.00    -0.012 A  
HETATM   28  C   UNL     1      -5.249  12.140  67.948  1.00  0.00    -0.065 A  
HETATM   29  C   UNL     1      -6.510  12.217  67.353  1.00  0.00    -0.157 A  
ENDBRANCH  23  24
ENDBRANCH  10  23
TORSDOF 5
ENDMDL
MODEL      241
REMARK 921   NORMALIZED FREE ENERGY PREDICTED BY IDOCK:   -3.20 KCAL/MOL
REMARK 922        TOTAL FREE ENERGY PREDICTED BY IDOCK:   -5.30 KCAL/MOL
REMARK 923 INTER-LIGAND FREE ENERGY PREDICTED BY IDOCK:   -5.26 KCAL/MOL
REMARK 924 INTRA-LIGAND FREE ENERGY PREDICTED BY IDOCK:   -0.03 KCAL/MOL
REMARK 927      BINDING AFFINITY PREDICTED BY RF-SCORE:    0.00 PKD
ROOT
HETATM    1  C   UNL     1     -11.919  15.012  66.621  1.00  0.00     0.019 C  
HETATM    2  C   UNL     1     -10.460  14.915  67.081  1.00  0.00    -0.271 C  
HETATM    3  C   UNL     1     -10.158  13.648  67.895  1.00  0.00    -0.244 C  
HETATM    4  C   UNL     1     -10.122  16.111  67.960  1.00  0.00    -0.242 C  
HETATM    5  O   UNL     1     -10.938  16.570  68.759  1.00  0.00    -0.319 OA 
HETATM    6  C   UNL     1      -9.048  19.116  68.639  1.00  0.00    -0.369 C  
HETATM    7  N   UNL     1      -8.882  16.700  67.839  1.00  0.00    -0.202 N  
HETATM    8  C   UNL     1      -7.795  16.315  66.949  1.00  0.00    -0.243 C  
HETATM    9  C   UNL     1      -8.429  17.720  68.805  1.00  0.00    -0.211 C  
HETATM   10  C   UNL     1      -6.522  16.631  67.733  1.00  0.00    -0.146 C  
HETATM   11  C   UNL     1      -6.912  17.839  68.584  1.00  0.00    -0.247 C  
HETATM   12  O   UNL     1      -9.960  19.225  67.647  1.00  0.00    -0.323 OA 
HETATM   13  O   UNL     1      -8.721  20.083  69.319  1.00  0.00     0.072 OA 
ENDROOT
BRANCH   3  14
HETATM   14  S   UNL     1     -10.506  12.156  66.927  1.00  0.00    -0.229 SA 
BRANCH  14  15
HETATM   15  C   UNL     1      -8.935  11.359  66.954  1.00  0.00    -0.171 C  
HETATM   16  O   UNL     1      -7.952  11.894  67.449  1.00  0.00    -0.144 OA 
BRANCH  15  17
HETATM   17  C   UNL     1      -8.878   9.984  66.377  1.00  0.00    -0.158 A  
HETATM   18  C   UNL     1      -8.550   9.748  65.032  1.00  0.00    -0.178 A  
HETATM   19  C   UNL     1      -8.520   8.445  64.530  1.00  0.00    -0.078 A  
HETATM   20  C   UNL     1      -8.807   7.370  65.367  1.00  0.00     0.071 A  
HETATM   21  C   UNL     1      -9.152   8.894  67.214  1.00  0.00    -0.153 A  
HETATM   22  C   UNL     1      -9.122   7.593  66.708  1.00  0.00    -0.181 A  
ENDBRANCH  15  17
ENDBRANCH  14  15
ENDBRANCH   3  14
BRANCH  10  23
HETATM   23  S   UNL     1      -5.137  16.931  66.576  1.00  0.00     0.128 SA 
BRANCH  23  24
HETATM   24  C   UNL     1      -5.547  18.509  65.847  1.00  0.00    -0.172 A  
HETATM   25  C   UNL     1      -5.996  19.603  66.593  1.00  0.00    -0.164 A  
HETATM   26  C   UNL     1      -6.095  20.961  64.592  1.00  0.00    -0.319 A  
HETATM   27  C   UNL     1      -6.277  20.821  65.967  1.00  0.00    -0.284 A  
HETATM   28  C   UNL     1      -5.628  19.885  63.843  1.00  0.00    -0.299 A  
HETATM   29  C   UNL     1      -5.352  18.667  64.468  1.00  0.00    -0.208 A  
ENDBRANCH  23  24
ENDBRANCH  10  23
TORSDOF 5
ENDMDL
MODEL      242
REMARK 921   NORMALIZED FREE ENERGY PREDICTED BY IDOCK:   -3.20 KCAL/MOL
REMARK 922        TOTAL FREE ENERGY PREDICTED BY IDOCK:   -5.30 KCAL/MOL
REMARK 923 INTER-LIGAND FREE ENERGY PREDICTED BY IDOCK:   -4.77 KCAL/MOL
REMARK 924 INTRA-LIGAND FREE ENERGY PREDICTED BY IDOCK:   -0.53 KCAL/MOL
REMARK 927      BINDING AFFINITY PREDICTED BY RF-SCORE:    0.00 PKD
ROOT
HETATM    1  C   UNL     1      -5.608  12.562  68.881  1.00  0.00    -0.063 C  
HETATM    2  C   UNL     1      -6.707  12.396  67.825  1.00  0.00    -0.115 C  
HETATM    3  C   UNL     1      -7.714  13.555  67.802  1.00  0.00    -0.163 C  
HETATM    4  C   UNL     1      -7.490  11.120  68.100  1.00  0.00    -0.093 C  
HETATM    5  O   UNL     1      -7.750  10.764  69.250  1.00  0.00    -0.137 OA 
HETATM    6  C   UNL     1      -8.225   7.951  67.861  1.00  0.00    -0.129 C  
HETATM    7  N   UNL     1      -7.895  10.342  67.038  1.00  0.00    -0.106 N  
HETATM    8  C   UNL     1      -7.674  10.585  65.620  1.00  0.00    -0.139 C  
HETATM    9  C   UNL     1      -8.830   9.216  67.235  1.00  0.00    -0.124 C  
HETATM   10  C   UNL     1      -8.919  10.027  64.931  1.00  0.00    -0.205 C  
HETATM   11  C   UNL     1      -9.334   8.860  65.826  1.00  0.00    -0.286 C  
HETATM   12  O   UNL     1      -6.917   8.041  68.188  1.00  0.00    -0.072 OA 
HETATM   13  O   UNL     1      -8.858   6.912  68.022  1.00  0.00    -0.125 OA 
ENDROOT
BRANCH   3  14
HETATM   14  S   UNL     1      -6.884  15.129  67.455  1.00  0.00    -0.133 SA 
BRANCH  14  15
HETATM   15  C   UNL     1      -8.252  16.144  67.010  1.00  0.00    -0.216 C  
HETATM   16  O   UNL     1      -8.142  17.049  66.193  1.00  0.00    -0.364 OA 
BRANCH  15  17
HETATM   17  C   UNL     1      -9.558  15.817  67.653  1.00  0.00    -0.220 A  
HETATM   18  C   UNL     1      -9.848  16.160  68.983  1.00  0.00    -0.245 A  
HETATM   19  C   UNL     1     -11.079  15.824  69.548  1.00  0.00    -0.306 A  
HETATM   20  C   UNL     1     -12.033  15.152  68.789  1.00  0.00    -0.280 A  
HETATM   21  C   UNL     1     -10.530  15.152  66.893  1.00  0.00    -0.282 A  
HETATM   22  C   UNL     1     -11.761  14.817  67.463  1.00  0.00    -0.370 A  
ENDBRANCH  15  17
ENDBRANCH  14  15
ENDBRANCH   3  14
BRANCH  10  23
HETATM   23  S   UNL     1      -8.520   9.559  63.208  1.00  0.00    -0.214 SA 
BRANCH  23  24
HETATM   24  C   UNL     1      -7.502   8.105  63.403  1.00  0.00    -0.124 A  
HETATM   25  C   UNL     1      -6.247   8.126  64.020  1.00  0.00    -0.066 A  
HETATM   26  C   UNL     1      -6.025   5.736  63.710  1.00  0.00    -0.025 A  
HETATM   27  C   UNL     1      -5.508   6.948  64.164  1.00  0.00    -0.032 A  
HETATM   28  C   UNL     1      -7.283   5.700  63.114  1.00  0.00    -0.051 A  
HETATM   29  C   UNL     1      -8.018   6.878  62.965  1.00  0.00    -0.081 A  
ENDBRANCH  23  24
ENDBRANCH  10  23
TORSDOF 5
ENDMDL
MODEL      243
REMARK 921   NORMALIZED FREE ENERGY PREDICTED BY IDOCK:   -3.18 KCAL/MOL
REMARK 922        TOTAL FREE ENERGY PREDICTED BY IDOCK:   -5.27 KCAL/MOL
REMARK 923 INTER-LIGAND FREE ENERGY PREDICTED BY IDOCK:   -4.80 KCAL/MOL
REMARK 924 INTRA-LIGAND FREE ENERGY PREDICTED BY IDOCK:   -0.48 KCAL/MOL
REMARK 927      BINDING AFFINITY PREDICTED BY RF-SCORE:    0.00 PKD
ROOT
HETATM    1  C   UNL     1      -7.771   8.675  68.483  1.00  0.00    -0.100 C  
HETATM    2  C   UNL     1      -8.515   7.465  69.061  1.00  0.00    -0.129 C  
HETATM    3  C   UNL     1      -8.668   6.307  68.064  1.00  0.00    -0.114 C  
HETATM    4  C   UNL     1      -9.915   7.883  69.489  1.00  0.00    -0.189 C  
HETATM    5  O   UNL     1     -10.571   8.690  68.831  1.00  0.00    -0.209 OA 
HETATM    6  C   UNL     1     -12.222   8.962  71.527  1.00  0.00    -0.327 C  
HETATM    7  N   UNL     1     -10.443   7.360  70.649  1.00  0.00    -0.213 N  
HETATM    8  C   UNL     1      -9.823   6.411  71.563  1.00  0.00    -0.168 C  
HETATM    9  C   UNL     1     -11.864   7.566  70.996  1.00  0.00    -0.293 C  
HETATM   10  C   UNL     1     -10.982   5.569  72.094  1.00  0.00    -0.231 C  
HETATM   11  C   UNL     1     -12.160   6.541  72.104  1.00  0.00    -0.309 C  
HETATM   12  O   UNL     1     -11.196   9.840  71.575  1.00  0.00    -0.360 OA 
HETATM   13  O   UNL     1     -13.344   9.264  71.922  1.00  0.00    -0.371 OA 
ENDROOT
BRANCH   3  14
HETATM   14  S   UNL     1      -7.049   5.713  67.505  1.00  0.00    -0.075 SA 
BRANCH  14  15
HETATM   15  C   UNL     1      -7.485   4.169  66.780  1.00  0.00    -0.080 C  
HETATM   16  O   UNL     1      -7.194   3.105  67.311  1.00  0.00    -0.057 OA 
BRANCH  15  17
HETATM   17  C   UNL     1      -8.261   4.228  65.506  1.00  0.00    -0.109 A  
HETATM   18  C   UNL     1      -7.740   4.804  64.337  1.00  0.00    -0.082 A  
HETATM   19  C   UNL     1      -8.505   4.849  63.170  1.00  0.00    -0.119 A  
HETATM   20  C   UNL     1      -9.789   4.312  63.158  1.00  0.00    -0.052 A  
HETATM   21  C   UNL     1      -9.550   3.678  65.481  1.00  0.00    -0.149 A  
HETATM   22  C   UNL     1     -10.312   3.726  64.311  1.00  0.00    -0.253 A  
ENDBRANCH  15  17
ENDBRANCH  14  15
ENDBRANCH   3  14
BRANCH  10  23
HETATM   23  S   UNL     1     -10.550   4.880  73.733  1.00  0.00    -0.297 SA 
BRANCH  23  24
HETATM   24  C   UNL     1      -8.777   5.076  73.805  1.00  0.00    -0.109 A  
HETATM   25  C   UNL     1      -7.884   4.200  73.181  1.00  0.00    -0.085 A  
HETATM   26  C   UNL     1      -6.008   5.529  73.936  1.00  0.00    -0.056 A  
HETATM   27  C   UNL     1      -6.505   4.421  73.253  1.00  0.00    -0.046 A  
HETATM   28  C   UNL     1      -6.889   6.420  74.544  1.00  0.00    -0.089 A  
HETATM   29  C   UNL     1      -8.266   6.196  74.474  1.00  0.00    -0.124 A  
ENDBRANCH  23  24
ENDBRANCH  10  23
TORSDOF 5
ENDMDL
MODEL      244
REMARK 921   NORMALIZED FREE ENERGY PREDICTED BY IDOCK:   -3.17 KCAL/MOL
REMARK 922        TOTAL FREE ENERGY PREDICTED BY IDOCK:   -5.26 KCAL/MOL
REMARK 923 INTER-LIGAND FREE ENERGY PREDICTED BY IDOCK:   -4.68 KCAL/MOL
REMARK 924 INTRA-LIGAND FREE ENERGY PREDICTED BY IDOCK:   -0.58 KCAL/MOL
REMARK 927      BINDING AFFINITY PREDICTED BY RF-SCORE:    0.00 PKD
ROOT
HETATM    1  C   UNL     1      -7.187   8.923  70.915  1.00  0.00    -0.093 C  
HETATM    2  C   UNL     1      -7.794   8.388  69.613  1.00  0.00    -0.100 C  
HETATM    3  C   UNL     1      -8.759   9.372  68.937  1.00  0.00    -0.132 C  
HETATM    4  C   UNL     1      -8.573   7.111  69.900  1.00  0.00    -0.141 C  
HETATM    5  O   UNL     1      -9.238   6.985  70.928  1.00  0.00    -0.156 OA 
HETATM    6  C   UNL     1      -9.039   3.899  70.218  1.00  0.00    -0.119 C  
HETATM    7  N   UNL     1      -8.512   6.074  68.996  1.00  0.00    -0.116 N  
HETATM    8  C   UNL     1      -7.776   6.027  67.740  1.00  0.00    -0.101 C  
HETATM    9  C   UNL     1      -9.408   4.906  69.119  1.00  0.00    -0.128 C  
HETATM   10  C   UNL     1      -8.643   5.174  66.814  1.00  0.00    -0.109 C  
HETATM   11  C   UNL     1      -9.322   4.187  67.762  1.00  0.00    -0.211 C  
HETATM   12  O   UNL     1      -7.958   4.228  70.960  1.00  0.00    -0.068 OA 
HETATM   13  O   UNL     1      -9.645   2.847  70.397  1.00  0.00    -0.153 OA 
ENDROOT
BRANCH   3  14
HETATM   14  S   UNL     1      -7.921  10.927  68.529  1.00  0.00    -0.141 SA 
BRANCH  14  15
HETATM   15  C   UNL     1      -9.076  11.653  67.416  1.00  0.00    -0.169 C  
HETATM   16  O   UNL     1      -9.083  11.375  66.224  1.00  0.00    -0.193 OA 
BRANCH  15  17
HETATM   17  C   UNL     1     -10.069  12.595  68.012  1.00  0.00    -0.229 A  
HETATM   18  C   UNL     1     -10.364  13.840  67.433  1.00  0.00    -0.252 A  
HETATM   19  C   UNL     1     -11.291  14.696  68.030  1.00  0.00    -0.329 A  
HETATM   20  C   UNL     1     -11.937  14.313  69.203  1.00  0.00    -0.372 A  
HETATM   21  C   UNL     1     -10.735  12.213  69.185  1.00  0.00    -0.107 A  
HETATM   22  C   UNL     1     -11.661  13.073  69.780  1.00  0.00    -0.346 A  
ENDBRANCH  15  17
ENDBRANCH  14  15
ENDBRANCH   3  14
BRANCH  10  23
HETATM   23  S   UNL     1      -7.599   4.397  65.527  1.00  0.00    -0.086 SA 
BRANCH  23  24
HETATM   24  C   UNL     1      -8.778   3.495  64.534  1.00  0.00    -0.101 A  
HETATM   25  C   UNL     1      -8.985   2.118  64.653  1.00  0.00    -0.121 A  
HETATM   26  C   UNL     1     -10.711   2.202  62.959  1.00  0.00    -0.197 A  
HETATM   27  C   UNL     1      -9.941   1.472  63.863  1.00  0.00    -0.113 A  
HETATM   28  C   UNL     1     -10.528   3.578  62.847  1.00  0.00    -0.205 A  
HETATM   29  C   UNL     1      -9.570   4.221  63.633  1.00  0.00    -0.094 A  
ENDBRANCH  23  24
ENDBRANCH  10  23
TORSDOF 5
ENDMDL
MODEL      245
REMARK 921   NORMALIZED FREE ENERGY PREDICTED BY IDOCK:   -3.12 KCAL/MOL
REMARK 922        TOTAL FREE ENERGY PREDICTED BY IDOCK:   -5.19 KCAL/MOL
REMARK 923 INTER-LIGAND FREE ENERGY PREDICTED BY IDOCK:   -4.50 KCAL/MOL
REMARK 924 INTRA-LIGAND FREE ENERGY PREDICTED BY IDOCK:   -0.70 KCAL/MOL
REMARK 927      BINDING AFFINITY PREDICTED BY RF-SCORE:    0.00 PKD
ROOT
HETATM    1  C   UNL     1      -8.186   9.931  68.689  1.00  0.00    -0.108 C  
HETATM    2  C   UNL     1      -8.682   8.618  69.305  1.00  0.00    -0.133 C  
HETATM    3  C   UNL     1      -8.481   7.399  68.393  1.00  0.00    -0.125 C  
HETATM    4  C   UNL     1     -10.172   8.723  69.601  1.00  0.00    -0.210 C  
HETATM    5  O   UNL     1     -10.935   9.314  68.838  1.00  0.00    -0.146 OA 
HETATM    6  C   UNL     1     -12.830   9.354  71.382  1.00  0.00    -0.345 C  
HETATM    7  N   UNL     1     -10.665   8.162  70.758  1.00  0.00    -0.219 N  
HETATM    8  C   UNL     1      -9.925   7.440  71.785  1.00  0.00    -0.171 C  
HETATM    9  C   UNL     1     -12.119   8.051  70.988  1.00  0.00    -0.217 C  
HETATM   10  C   UNL     1     -10.903   6.384  72.298  1.00  0.00    -0.239 C  
HETATM   11  C   UNL     1     -12.269   7.054  72.149  1.00  0.00    -0.255 C  
HETATM   12  O   UNL     1     -12.039  10.448  71.433  1.00  0.00    -0.363 OA 
HETATM   13  O   UNL     1     -14.021   9.409  71.673  1.00  0.00    -0.294 OA 
ENDROOT
BRANCH   3  14
HETATM   14  S   UNL     1      -6.727   7.167  67.997  1.00  0.00    -0.063 SA 
BRANCH  14  15
HETATM   15  C   UNL     1      -6.820   5.912  66.765  1.00  0.00    -0.059 C  
HETATM   16  O   UNL     1      -6.754   4.723  67.052  1.00  0.00    -0.049 OA 
BRANCH  15  17
HETATM   17  C   UNL     1      -7.023   6.374  65.361  1.00  0.00    -0.052 A  
HETATM   18  C   UNL     1      -7.408   5.500  64.331  1.00  0.00    -0.057 A  
HETATM   19  C   UNL     1      -7.574   5.973  63.028  1.00  0.00    -0.084 A  
HETATM   20  C   UNL     1      -7.367   7.320  62.744  1.00  0.00    -0.090 A  
HETATM   21  C   UNL     1      -6.828   7.731  65.068  1.00  0.00    -0.051 A  
HETATM   22  C   UNL     1      -6.995   8.199  63.762  1.00  0.00    -0.076 A  
ENDBRANCH  15  17
ENDBRANCH  14  15
ENDBRANCH   3  14
BRANCH  10  23
HETATM   23  S   UNL     1     -10.469   5.914  74.012  1.00  0.00    -0.211 SA 
BRANCH  23  24
HETATM   24  C   UNL     1     -10.082   4.176  73.874  1.00  0.00    -0.149 A  
HETATM   25  C   UNL     1     -11.058   3.180  73.778  1.00  0.00    -0.288 A  
HETATM   26  C   UNL     1      -9.344   1.480  73.595  1.00  0.00    -0.074 A  
HETATM   27  C   UNL     1     -10.690   1.837  73.648  1.00  0.00    -0.217 A  
HETATM   28  C   UNL     1      -8.364   2.466  73.669  1.00  0.00    -0.063 A  
HETATM   29  C   UNL     1      -8.731   3.807  73.804  1.00  0.00    -0.089 A  
ENDBRANCH  23  24
ENDBRANCH  10  23
TORSDOF 5
ENDMDL
MODEL      246
REMARK 921   NORMALIZED FREE ENERGY PREDICTED BY IDOCK:   -3.00 KCAL/MOL
REMARK 922        TOTAL FREE ENERGY PREDICTED BY IDOCK:   -5.04 KCAL/MOL
REMARK 923 INTER-LIGAND FREE ENERGY PREDICTED BY IDOCK:   -4.44 KCAL/MOL
REMARK 924 INTRA-LIGAND FREE ENERGY PREDICTED BY IDOCK:   -0.61 KCAL/MOL
REMARK 927      BINDING AFFINITY PREDICTED BY RF-SCORE:    0.00 PKD
ROOT
HETATM    1  C   UNL     1     -10.267  10.162  69.983  1.00  0.00    -0.271 C  
HETATM    2  C   UNL     1     -10.098   8.720  69.492  1.00  0.00    -0.202 C  
HETATM    3  C   UNL     1     -10.768   8.451  68.137  1.00  0.00    -0.034 C  
HETATM    4  C   UNL     1     -10.714   7.761  70.501  1.00  0.00    -0.236 C  
HETATM    5  O   UNL     1     -11.757   8.039  71.093  1.00  0.00    -0.281 OA 
HETATM    6  C   UNL     1     -10.776   5.773  73.087  1.00  0.00    -0.262 C  
HETATM    7  N   UNL     1     -10.076   6.570  70.768  1.00  0.00    -0.184 N  
HETATM    8  C   UNL     1      -8.837   6.072  70.186  1.00  0.00    -0.143 C  
HETATM    9  C   UNL     1     -10.732   5.520  71.572  1.00  0.00    -0.222 C  
HETATM   10  C   UNL     1      -9.022   4.557  70.117  1.00  0.00    -0.090 C  
HETATM   11  C   UNL     1      -9.908   4.246  71.323  1.00  0.00    -0.257 C  
HETATM   12  O   UNL     1     -10.238   6.946  73.489  1.00  0.00    -0.245 OA 
HETATM   13  O   UNL     1     -11.225   4.963  73.891  1.00  0.00    -0.263 OA 
ENDROOT
BRANCH   3  14
HETATM   14  S   UNL     1     -10.086   9.530  66.849  1.00  0.00    -0.238 SA 
BRANCH  14  15
HETATM   15  C   UNL     1      -9.060   8.402  65.969  1.00  0.00    -0.183 C  
HETATM   16  O   UNL     1      -8.898   7.250  66.349  1.00  0.00    -0.138 OA 
BRANCH  15  17
HETATM   17  C   UNL     1      -8.432   8.915  64.716  1.00  0.00    -0.193 A  
HETATM   18  C   UNL     1      -7.302   8.311  64.141  1.00  0.00    -0.098 A  
HETATM   19  C   UNL     1      -6.739   8.831  62.974  1.00  0.00    -0.090 A  
HETATM   20  C   UNL     1      -7.303   9.950  62.368  1.00  0.00    -0.127 A  
HETATM   21  C   UNL     1      -9.001  10.033  64.091  1.00  0.00    -0.268 A  
HETATM   22  C   UNL     1      -8.433  10.551  62.924  1.00  0.00    -0.191 A  
ENDBRANCH  15  17
ENDBRANCH  14  15
ENDBRANCH   3  14
BRANCH  10  23
HETATM   23  S   UNL     1      -7.390   3.730  70.140  1.00  0.00    -0.041 SA 
BRANCH  23  24
HETATM   24  C   UNL     1      -6.743   4.145  71.752  1.00  0.00    -0.030 A  
HETATM   25  C   UNL     1      -6.974   3.370  72.892  1.00  0.00    -0.043 A  
HETATM   26  C   UNL     1      -5.614   4.868  74.220  1.00  0.00    -0.018 A  
HETATM   27  C   UNL     1      -6.419   3.735  74.123  1.00  0.00    -0.038 A  
HETATM   28  C   UNL     1      -5.359   5.635  73.086  1.00  0.00    -0.023 A  
HETATM   29  C   UNL     1      -5.918   5.273  71.858  1.00  0.00    -0.025 A  
ENDBRANCH  23  24
ENDBRANCH  10  23
TORSDOF 5
ENDMDL
MODEL      247
REMARK 921   NORMALIZED FREE ENERGY PREDICTED BY IDOCK:   -2.95 KCAL/MOL
REMARK 922        TOTAL FREE ENERGY PREDICTED BY IDOCK:   -4.97 KCAL/MOL
REMARK 923 INTER-LIGAND FREE ENERGY PREDICTED BY IDOCK:   -4.50 KCAL/MOL
REMARK 924 INTRA-LIGAND FREE ENERGY PREDICTED BY IDOCK:   -0.47 KCAL/MOL
REMARK 927      BINDING AFFINITY PREDICTED BY RF-SCORE:    0.00 PKD
ROOT
HETATM    1  C   UNL     1     -10.497  10.681  69.781  1.00  0.00    -0.189 C  
HETATM    2  C   UNL     1      -9.711  10.456  68.483  1.00  0.00    -0.174 C  
HETATM    3  C   UNL     1      -9.952  11.544  67.426  1.00  0.00    -0.190 C  
HETATM    4  C   UNL     1     -10.116   9.125  67.865  1.00  0.00    -0.199 C  
HETATM    5  O   UNL     1     -11.282   8.734  67.896  1.00  0.00     0.178 OA 
HETATM    6  C   UNL     1      -9.950   5.917  67.298  1.00  0.00    -0.153 C  
HETATM    7  N   UNL     1      -9.149   8.338  67.280  1.00  0.00    -0.136 N  
HETATM    8  C   UNL     1      -7.725   8.618  67.158  1.00  0.00    -0.096 C  
HETATM    9  C   UNL     1      -9.516   7.148  66.487  1.00  0.00    -0.156 C  
HETATM   10  C   UNL     1      -7.318   7.987  65.827  1.00  0.00    -0.079 C  
HETATM   11  C   UNL     1      -8.246   6.780  65.700  1.00  0.00    -0.134 C  
HETATM   12  O   UNL     1      -9.976   6.091  68.637  1.00  0.00    -0.134 OA 
HETATM   13  O   UNL     1     -10.217   4.835  66.786  1.00  0.00    -0.225 OA 
ENDROOT
BRANCH   3  14
HETATM   14  S   UNL     1      -9.476  13.176  68.054  1.00  0.00    -0.223 SA 
BRANCH  14  15
HETATM   15  C   UNL     1      -9.857  14.197  66.671  1.00  0.00    -0.283 C  
HETATM   16  O   UNL     1     -10.256  13.725  65.614  1.00  0.00    -0.296 OA 
BRANCH  15  17
HETATM   17  C   UNL     1      -9.705  15.668  66.869  1.00  0.00    -0.240 A  
HETATM   18  C   UNL     1     -10.633  16.428  67.600  1.00  0.00    -0.313 A  
HETATM   19  C   UNL     1     -10.458  17.804  67.750  1.00  0.00    -0.402 A  
HETATM   20  C   UNL     1      -9.353  18.432  67.182  1.00  0.00    -0.271 A  
HETATM   21  C   UNL     1      -8.589  16.307  66.312  1.00  0.00    -0.374 A  
HETATM   22  C   UNL     1      -8.418  17.686  66.464  1.00  0.00    -0.294 A  
ENDBRANCH  15  17
ENDBRANCH  14  15
ENDBRANCH   3  14
BRANCH  10  23
HETATM   23  S   UNL     1      -5.535   7.576  65.853  1.00  0.00    -0.029 SA 
BRANCH  23  24
HETATM   24  C   UNL     1      -5.527   5.808  66.107  1.00  0.00    -0.013 A  
HETATM   25  C   UNL     1      -5.669   5.215  67.365  1.00  0.00    -0.014 A  
HETATM   26  C   UNL     1      -5.563   3.012  66.368  1.00  0.00    -0.018 A  
HETATM   27  C   UNL     1      -5.678   3.823  67.496  1.00  0.00    -0.022 A  
HETATM   28  C   UNL     1      -5.443   3.592  65.108  1.00  0.00    -0.010 A  
HETATM   29  C   UNL     1      -5.429   4.983  64.979  1.00  0.00    -0.013 A  
ENDBRANCH  23  24
ENDBRANCH  10  23
TORSDOF 5
ENDMDL
MODEL      248
REMARK 921   NORMALIZED FREE ENERGY PREDICTED BY IDOCK:   -2.93 KCAL/MOL
REMARK 922        TOTAL FREE ENERGY PREDICTED BY IDOCK:   -4.95 KCAL/MOL
REMARK 923 INTER-LIGAND FREE ENERGY PREDICTED BY IDOCK:   -4.19 KCAL/MOL
REMARK 924 INTRA-LIGAND FREE ENERGY PREDICTED BY IDOCK:   -0.76 KCAL/MOL
REMARK 927      BINDING AFFINITY PREDICTED BY RF-SCORE:    0.00 PKD
ROOT
HETATM    1  C   UNL     1      -7.770   8.676  68.484  1.00  0.00    -0.100 C  
HETATM    2  C   UNL     1      -8.520   7.463  69.049  1.00  0.00    -0.129 C  
HETATM    3  C   UNL     1      -8.663   6.309  68.046  1.00  0.00    -0.114 C  
HETATM    4  C   UNL     1      -9.924   7.880  69.464  1.00  0.00    -0.189 C  
HETATM    5  O   UNL     1     -10.574   8.689  68.803  1.00  0.00    -0.211 OA 
HETATM    6  C   UNL     1     -12.252   8.951  71.482  1.00  0.00    -0.327 C  
HETATM    7  N   UNL     1     -10.464   7.353  70.617  1.00  0.00    -0.213 N  
HETATM    8  C   UNL     1      -9.853   6.400  71.533  1.00  0.00    -0.168 C  
HETATM    9  C   UNL     1     -11.888   7.557  70.950  1.00  0.00    -0.267 C  
HETATM   10  C   UNL     1     -11.017   5.556  72.049  1.00  0.00    -0.214 C  
HETATM   11  C   UNL     1     -12.196   6.528  72.051  1.00  0.00    -0.343 C  
HETATM   12  O   UNL     1     -11.226   9.829  71.544  1.00  0.00    -0.360 OA 
HETATM   13  O   UNL     1     -13.378   9.251  71.867  1.00  0.00    -0.371 OA 
ENDROOT
BRANCH   3  14
HETATM   14  S   UNL     1      -7.037   5.718  67.501  1.00  0.00    -0.076 SA 
BRANCH  14  15
HETATM   15  C   UNL     1      -7.235   5.745  65.752  1.00  0.00    -0.075 C  
HETATM   16  O   UNL     1      -7.338   4.714  65.100  1.00  0.00    -0.070 OA 
BRANCH  15  17
HETATM   17  C   UNL     1      -7.308   7.092  65.113  1.00  0.00    -0.081 A  
HETATM   18  C   UNL     1      -6.243   8.005  65.161  1.00  0.00    -0.045 A  
HETATM   19  C   UNL     1      -6.360   9.260  64.560  1.00  0.00    -0.077 A  
HETATM   20  C   UNL     1      -7.534   9.609  63.898  1.00  0.00    -0.123 A  
HETATM   21  C   UNL     1      -8.482   7.447  64.434  1.00  0.00     0.198 A  
HETATM   22  C   UNL     1      -8.594   8.704  63.834  1.00  0.00    -0.019 A  
ENDBRANCH  15  17
ENDBRANCH  14  15
ENDBRANCH   3  14
BRANCH  10  23
HETATM   23  S   UNL     1     -10.602   4.861  73.690  1.00  0.00    -0.292 SA 
BRANCH  23  24
HETATM   24  C   UNL     1      -8.829   5.057  73.781  1.00  0.00    -0.115 A  
HETATM   25  C   UNL     1      -7.930   4.184  73.163  1.00  0.00    -0.089 A  
HETATM   26  C   UNL     1      -6.063   5.512  73.943  1.00  0.00    -0.057 A  
HETATM   27  C   UNL     1      -6.552   4.405  73.251  1.00  0.00    -0.052 A  
HETATM   28  C   UNL     1      -6.950   6.400  74.545  1.00  0.00    -0.089 A  
HETATM   29  C   UNL     1      -8.326   6.175  74.461  1.00  0.00    -0.125 A  
ENDBRANCH  23  24
ENDBRANCH  10  23
TORSDOF 5
ENDMDL
MODEL      249
REMARK 921   NORMALIZED FREE ENERGY PREDICTED BY IDOCK:   -2.92 KCAL/MOL
REMARK 922        TOTAL FREE ENERGY PREDICTED BY IDOCK:   -4.94 KCAL/MOL
REMARK 923 INTER-LIGAND FREE ENERGY PREDICTED BY IDOCK:   -4.09 KCAL/MOL
REMARK 924 INTRA-LIGAND FREE ENERGY PREDICTED BY IDOCK:   -0.85 KCAL/MOL
REMARK 927      BINDING AFFINITY PREDICTED BY RF-SCORE:    0.00 PKD
ROOT
HETATM    1  C   UNL     1      -9.854  10.068  64.779  1.00  0.00    -0.325 C  
HETATM    2  C   UNL     1      -8.852   9.626  65.851  1.00  0.00    -0.180 C  
HETATM    3  C   UNL     1      -7.847  10.721  66.240  1.00  0.00    -0.156 C  
HETATM    4  C   UNL     1      -8.051   8.436  65.341  1.00  0.00    -0.133 C  
HETATM    5  O   UNL     1      -7.692   8.362  64.166  1.00  0.00    -0.121 OA 
HETATM    6  C   UNL     1      -7.348   5.286  64.864  1.00  0.00    -0.067 C  
HETATM    7  N   UNL     1      -7.742   7.414  66.212  1.00  0.00    -0.091 N  
HETATM    8  C   UNL     1      -8.086   7.313  67.624  1.00  0.00    -0.114 C  
HETATM    9  C   UNL     1      -6.797   6.348  65.828  1.00  0.00    -0.053 C  
HETATM   10  C   UNL     1      -6.907   6.576  68.258  1.00  0.00    -0.071 C  
HETATM   11  C   UNL     1      -6.419   5.650  67.145  1.00  0.00    -0.044 C  
HETATM   12  O   UNL     1      -8.623   5.483  64.461  1.00  0.00    -0.125 OA 
HETATM   13  O   UNL     1      -6.707   4.302  64.510  1.00  0.00    -0.042 OA 
ENDROOT
BRANCH   3  14
HETATM   14  S   UNL     1      -8.700  12.184  66.887  1.00  0.00    -0.180 SA 
BRANCH  14  15
HETATM   15  C   UNL     1      -9.922  11.439  67.913  1.00  0.00    -0.177 C  
HETATM   16  O   UNL     1     -11.118  11.594  67.705  1.00  0.00    -0.217 OA 
BRANCH  15  17
HETATM   17  C   UNL     1      -9.420  10.578  69.025  1.00  0.00    -0.211 A  
HETATM   18  C   UNL     1     -10.266   9.733  69.760  1.00  0.00    -0.271 A  
HETATM   19  C   UNL     1      -9.757   8.954  70.800  1.00  0.00    -0.281 A  
HETATM   20  C   UNL     1      -8.400   9.005  71.108  1.00  0.00    -0.212 A  
HETATM   21  C   UNL     1      -8.053  10.613  69.334  1.00  0.00    -0.102 A  
HETATM   22  C   UNL     1      -7.548   9.832  70.377  1.00  0.00    -0.165 A  
ENDBRANCH  15  17
ENDBRANCH  14  15
ENDBRANCH   3  14
BRANCH  10  23
HETATM   23  S   UNL     1      -7.456   5.715  69.777  1.00  0.00    -0.076 SA 
BRANCH  23  24
HETATM   24  C   UNL     1      -7.912   4.093  69.186  1.00  0.00    -0.060 A  
HETATM   25  C   UNL     1      -9.094   3.837  68.486  1.00  0.00    -0.196 A  
HETATM   26  C   UNL     1      -8.484   1.507  68.251  1.00  0.00    -0.081 A  
HETATM   27  C   UNL     1      -9.383   2.548  68.028  1.00  0.00    -0.254 A  
HETATM   28  C   UNL     1      -7.293   1.754  68.929  1.00  0.00    -0.043 A  
HETATM   29  C   UNL     1      -7.007   3.041  69.390  1.00  0.00    -0.041 A  
ENDBRANCH  23  24
ENDBRANCH  10  23
TORSDOF 5
ENDMDL
MODEL      250
REMARK 921   NORMALIZED FREE ENERGY PREDICTED BY IDOCK:   -2.90 KCAL/MOL
REMARK 922        TOTAL FREE ENERGY PREDICTED BY IDOCK:   -4.92 KCAL/MOL
REMARK 923 INTER-LIGAND FREE ENERGY PREDICTED BY IDOCK:   -5.43 KCAL/MOL
REMARK 924 INTRA-LIGAND FREE ENERGY PREDICTED BY IDOCK:    0.51 KCAL/MOL
REMARK 927      BINDING AFFINITY PREDICTED BY RF-SCORE:    0.00 PKD
ROOT
HETATM    1  C   UNL     1      -9.690  14.575  64.539  1.00  0.00     1.230 C  
HETATM    2  C   UNL     1     -10.801  14.673  65.590  1.00  0.00    -0.335 C  
HETATM    3  C   UNL     1     -12.215  14.670  64.990  1.00  0.00    -0.322 C  
HETATM    4  C   UNL     1     -10.646  15.967  66.378  1.00  0.00    -0.297 C  
HETATM    5  O   UNL     1     -10.290  17.010  65.831  1.00  0.00    -0.407 OA 
HETATM    6  C   UNL     1      -9.609  17.885  68.804  1.00  0.00    -0.286 C  
HETATM    7  N   UNL     1     -10.889  15.957  67.734  1.00  0.00    -0.319 N  
HETATM    8  C   UNL     1     -11.302  14.829  68.558  1.00  0.00    -0.290 C  
HETATM    9  C   UNL     1     -10.958  17.217  68.501  1.00  0.00    -0.204 C  
HETATM   10  C   UNL     1     -12.201  15.442  69.632  1.00  0.00    -0.282 C  
HETATM   11  C   UNL     1     -11.616  16.838  69.839  1.00  0.00     0.612 C  
HETATM   12  O   UNL     1      -8.528  17.253  68.296  1.00  0.00    -0.227 OA 
HETATM   13  O   UNL     1      -9.498  18.897  69.490  1.00  0.00     0.040 OA 
ENDROOT
BRANCH   3  14
HETATM   14  S   UNL     1     -12.515  13.152  64.045  1.00  0.00    -0.222 SA 
BRANCH  14  15
HETATM   15  C   UNL     1     -11.814  11.942  65.114  1.00  0.00    -0.121 C  
HETATM   16  O   UNL     1     -12.234  11.766  66.251  1.00  0.00    -0.344 OA 
BRANCH  15  17
HETATM   17  C   UNL     1     -10.706  11.117  64.548  1.00  0.00    -0.368 A  
HETATM   18  C   UNL     1     -10.059  10.117  65.291  1.00  0.00    -0.344 A  
HETATM   19  C   UNL     1      -9.019   9.377  64.725  1.00  0.00    -0.241 A  
HETATM   20  C   UNL     1      -8.624   9.622  63.413  1.00  0.00    -0.213 A  
HETATM   21  C   UNL     1     -10.310  11.347  63.223  1.00  0.00    -0.422 A  
HETATM   22  C   UNL     1      -9.268  10.605  62.661  1.00  0.00    -0.331 A  
ENDBRANCH  15  17
ENDBRANCH  14  15
ENDBRANCH   3  14
BRANCH  10  23
HETATM   23  S   UNL     1     -12.194  14.384  71.125  1.00  0.00    -0.359 SA 
BRANCH  23  24
HETATM   24  C   UNL     1     -11.889  12.752  70.469  1.00  0.00    -0.055 A  
HETATM   25  C   UNL     1     -12.574  11.612  70.901  1.00  0.00    -0.409 A  
HETATM   26  C   UNL     1     -11.363  10.247  69.311  1.00  0.00    -0.253 A  
HETATM   27  C   UNL     1     -12.306  10.364  70.331  1.00  0.00    -0.370 A  
HETATM   28  C   UNL     1     -10.690  11.379  68.858  1.00  0.00    -0.248 A  
HETATM   29  C   UNL     1     -10.955  12.624  69.431  1.00  0.00    -0.042 A  
ENDBRANCH  23  24
ENDBRANCH  10  23
TORSDOF 5
ENDMDL
MODEL      251
REMARK 921   NORMALIZED FREE ENERGY PREDICTED BY IDOCK:   -2.89 KCAL/MOL
REMARK 922        TOTAL FREE ENERGY PREDICTED BY IDOCK:   -4.91 KCAL/MOL
REMARK 923 INTER-LIGAND FREE ENERGY PREDICTED BY IDOCK:   -4.98 KCAL/MOL
REMARK 924 INTRA-LIGAND FREE ENERGY PREDICTED BY IDOCK:    0.07 KCAL/MOL
REMARK 927      BINDING AFFINITY PREDICTED BY RF-SCORE:    0.00 PKD
ROOT
HETATM    1  C   UNL     1     -11.937  15.031  66.624  1.00  0.00     0.019 C  
HETATM    2  C   UNL     1     -10.451  14.911  66.983  1.00  0.00    -0.272 C  
HETATM    3  C   UNL     1     -10.098  13.599  67.698  1.00  0.00    -0.242 C  
HETATM    4  C   UNL     1     -10.056  16.053  67.909  1.00  0.00    -0.241 C  
HETATM    5  O   UNL     1     -10.819  16.461  68.784  1.00  0.00    -0.297 OA 
HETATM    6  C   UNL     1      -8.939  19.015  68.696  1.00  0.00    -0.363 C  
HETATM    7  N   UNL     1      -8.827  16.652  67.743  1.00  0.00    -0.204 N  
HETATM    8  C   UNL     1      -7.800  16.325  66.764  1.00  0.00    -0.265 C  
HETATM    9  C   UNL     1      -8.311  17.614  68.738  1.00  0.00    -0.215 C  
HETATM   10  C   UNL     1      -6.478  16.597  67.482  1.00  0.00    -0.156 C  
HETATM   11  C   UNL     1      -6.811  17.751  68.427  1.00  0.00    -0.221 C  
HETATM   12  O   UNL     1      -9.913  19.180  67.774  1.00  0.00    -0.322 OA 
HETATM   13  O   UNL     1      -8.568  19.940  69.411  1.00  0.00     0.020 OA 
ENDROOT
BRANCH   3  14
HETATM   14  S   UNL     1     -10.509  12.166  66.666  1.00  0.00    -0.225 SA 
BRANCH  14  15
HETATM   15  C   UNL     1      -8.943  11.369  66.553  1.00  0.00    -0.189 C  
HETATM   16  O   UNL     1      -8.347  11.270  65.488  1.00  0.00    -0.028 OA 
BRANCH  15  17
HETATM   17  C   UNL     1      -8.364  10.856  67.830  1.00  0.00    -0.117 A  
HETATM   18  C   UNL     1      -8.583   9.544  68.279  1.00  0.00    -0.120 A  
HETATM   19  C   UNL     1      -8.032   9.109  69.486  1.00  0.00    -0.098 A  
HETATM   20  C   UNL     1      -7.253   9.976  70.248  1.00  0.00    -0.155 A  
HETATM   21  C   UNL     1      -7.568  11.717  68.597  1.00  0.00    -0.133 A  
HETATM   22  C   UNL     1      -7.020  11.278  69.805  1.00  0.00    -0.008 A  
ENDBRANCH  15  17
ENDBRANCH  14  15
ENDBRANCH   3  14
BRANCH  10  23
HETATM   23  S   UNL     1      -5.171  16.970  66.258  1.00  0.00     0.254 SA 
BRANCH  23  24
HETATM   24  C   UNL     1      -5.597  18.609  65.691  1.00  0.00    -0.179 A  
HETATM   25  C   UNL     1      -5.987  19.640  66.551  1.00  0.00    -0.167 A  
HETATM   26  C   UNL     1      -6.178  21.164  64.681  1.00  0.00    -0.170 A  
HETATM   27  C   UNL     1      -6.285  20.910  66.047  1.00  0.00    -0.293 A  
HETATM   28  C   UNL     1      -5.769  20.151  63.818  1.00  0.00    -0.308 A  
HETATM   29  C   UNL     1      -5.477  18.882  64.321  1.00  0.00    -0.279 A  
ENDBRANCH  23  24
ENDBRANCH  10  23
TORSDOF 5
ENDMDL
MODEL      252
REMARK 921   NORMALIZED FREE ENERGY PREDICTED BY IDOCK:   -2.79 KCAL/MOL
REMARK 922        TOTAL FREE ENERGY PREDICTED BY IDOCK:   -4.77 KCAL/MOL
REMARK 923 INTER-LIGAND FREE ENERGY PREDICTED BY IDOCK:   -3.58 KCAL/MOL
REMARK 924 INTRA-LIGAND FREE ENERGY PREDICTED BY IDOCK:   -1.18 KCAL/MOL
REMARK 927      BINDING AFFINITY PREDICTED BY RF-SCORE:    0.00 PKD
ROOT
HETATM    1  C   UNL     1      -9.955  10.028  70.102  1.00  0.00    -0.239 C  
HETATM    2  C   UNL     1      -9.732   8.654  69.459  1.00  0.00    -0.179 C  
HETATM    3  C   UNL     1     -10.244   8.562  68.015  1.00  0.00    -0.213 C  
HETATM    4  C   UNL     1     -10.459   7.588  70.268  1.00  0.00    -0.222 C  
HETATM    5  O   UNL     1     -11.562   7.807  70.768  1.00  0.00    -0.286 OA 
HETATM    6  C   UNL     1     -10.816   5.301  72.566  1.00  0.00    -0.245 C  
HETATM    7  N   UNL     1      -9.856   6.364  70.456  1.00  0.00    -0.182 N  
HETATM    8  C   UNL     1      -8.560   5.923  69.960  1.00  0.00    -0.130 C  
HETATM    9  C   UNL     1     -10.601   5.234  71.047  1.00  0.00    -0.170 C  
HETATM   10  C   UNL     1      -8.737   4.430  69.686  1.00  0.00    -0.077 C  
HETATM   11  C   UNL     1      -9.755   3.988  70.737  1.00  0.00    -0.263 C  
HETATM   12  O   UNL     1     -10.327   6.408  73.167  1.00  0.00    -0.198 OA 
HETATM   13  O   UNL     1     -11.354   4.406  73.209  1.00  0.00    -0.279 OA 
ENDROOT
BRANCH   3  14
HETATM   14  S   UNL     1      -9.420   9.780  66.955  1.00  0.00    -0.167 SA 
BRANCH  14  15
HETATM   15  C   UNL     1      -8.619   8.730  65.790  1.00  0.00    -0.164 C  
HETATM   16  O   UNL     1      -8.951   8.706  64.611  1.00  0.00    -0.040 OA 
BRANCH  15  17
HETATM   17  C   UNL     1      -7.492   7.901  66.308  1.00  0.00    -0.079 A  
HETATM   18  C   UNL     1      -7.208   6.621  65.805  1.00  0.00    -0.070 A  
HETATM   19  C   UNL     1      -6.150   5.875  66.328  1.00  0.00    -0.029 A  
HETATM   20  C   UNL     1      -5.363   6.402  67.348  1.00  0.00    -0.005 A  
HETATM   21  C   UNL     1      -6.685   8.429  67.326  1.00  0.00    -0.063 A  
HETATM   22  C   UNL     1      -5.628   7.678  67.846  1.00  0.00    -0.032 A  
ENDBRANCH  15  17
ENDBRANCH  14  15
ENDBRANCH   3  14
BRANCH  10  23
HETATM   23  S   UNL     1      -7.119   3.583  69.791  1.00  0.00    -0.042 SA 
BRANCH  23  24
HETATM   24  C   UNL     1      -6.978   3.182  71.525  1.00  0.00    -0.031 A  
HETATM   25  C   UNL     1      -6.977   1.870  72.010  1.00  0.00    -0.026 A  
HETATM   26  C   UNL     1      -6.683   2.678  74.272  1.00  0.00    -0.030 A  
HETATM   27  C   UNL     1      -6.838   1.620  73.379  1.00  0.00    -0.019 A  
HETATM   28  C   UNL     1      -6.662   3.987  73.799  1.00  0.00    -0.053 A  
HETATM   29  C   UNL     1      -6.804   4.236  72.432  1.00  0.00    -0.054 A  
ENDBRANCH  23  24
ENDBRANCH  10  23
TORSDOF 5
ENDMDL
MODEL      253
REMARK 921   NORMALIZED FREE ENERGY PREDICTED BY IDOCK:   -2.70 KCAL/MOL
REMARK 922        TOTAL FREE ENERGY PREDICTED BY IDOCK:   -4.66 KCAL/MOL
REMARK 923 INTER-LIGAND FREE ENERGY PREDICTED BY IDOCK:   -3.88 KCAL/MOL
REMARK 924 INTRA-LIGAND FREE ENERGY PREDICTED BY IDOCK:   -0.78 KCAL/MOL
REMARK 927      BINDING AFFINITY PREDICTED BY RF-SCORE:    0.00 PKD
ROOT
HETATM    1  C   UNL     1     -10.113  18.840  68.989  1.00  0.00    -0.295 C  
HETATM    2  C   UNL     1      -9.598  17.600  68.251  1.00  0.00    -0.306 C  
HETATM    3  C   UNL     1      -9.267  17.860  66.774  1.00  0.00    -0.271 C  
HETATM    4  C   UNL     1     -10.655  16.505  68.293  1.00  0.00    -0.326 C  
HETATM    5  O   UNL     1     -11.853  16.768  68.191  1.00  0.00     0.247 OA 
HETATM    6  C   UNL     1     -12.201  13.884  69.467  1.00  0.00    -0.306 C  
HETATM    7  N   UNL     1     -10.257  15.198  68.470  1.00  0.00    -0.226 N  
HETATM    8  C   UNL     1      -8.900  14.692  68.623  1.00  0.00    -0.183 C  
HETATM    9  C   UNL     1     -11.213  14.085  68.309  1.00  0.00    -0.268 C  
HETATM   10  C   UNL     1      -8.920  13.318  67.954  1.00  0.00    -0.199 C  
HETATM   11  C   UNL     1     -10.344  12.820  68.195  1.00  0.00    -0.243 C  
HETATM   12  O   UNL     1     -12.093  14.777  70.476  1.00  0.00    -0.275 OA 
HETATM   13  O   UNL     1     -13.008  12.960  69.511  1.00  0.00     0.702 OA 
ENDROOT
BRANCH   3  14
HETATM   14  S   UNL     1      -7.992  19.139  66.610  1.00  0.00    -0.284 SA 
BRANCH  14  15
HETATM   15  C   UNL     1      -7.006  18.820  68.033  1.00  0.00    -0.239 C  
HETATM   16  O   UNL     1      -6.856  19.658  68.913  1.00  0.00    -0.314 OA 
BRANCH  15  17
HETATM   17  C   UNL     1      -6.394  17.461  68.126  1.00  0.00    -0.167 A  
HETATM   18  C   UNL     1      -5.968  16.750  66.993  1.00  0.00    -0.213 A  
HETATM   19  C   UNL     1      -5.413  15.477  67.125  1.00  0.00     0.416 A  
HETATM   20  C   UNL     1      -5.269  14.907  68.388  1.00  0.00    -0.111 A  
HETATM   21  C   UNL     1      -6.234  16.886  69.394  1.00  0.00    -0.226 A  
HETATM   22  C   UNL     1      -5.678  15.610  69.522  1.00  0.00    -0.120 A  
ENDBRANCH  15  17
ENDBRANCH  14  15
ENDBRANCH   3  14
BRANCH  10  23
HETATM   23  S   UNL     1      -7.613  12.258  68.672  1.00  0.00    -0.050 SA 
BRANCH  23  24
HETATM   24  C   UNL     1      -6.898  11.464  67.241  1.00  0.00    -0.115 A  
HETATM   25  C   UNL     1      -5.654  11.817  66.711  1.00  0.00    -0.113 A  
HETATM   26  C   UNL     1      -5.852  10.092  65.025  1.00  0.00    -0.120 A  
HETATM   27  C   UNL     1      -5.137  11.140  65.601  1.00  0.00    -0.056 A  
HETATM   28  C   UNL     1      -7.082   9.717  65.558  1.00  0.00    -0.108 A  
HETATM   29  C   UNL     1      -7.600  10.397  66.663  1.00  0.00    -0.114 A  
ENDBRANCH  23  24
ENDBRANCH  10  23
TORSDOF 5
ENDMDL
MODEL      254
REMARK 921   NORMALIZED FREE ENERGY PREDICTED BY IDOCK:   -2.70 KCAL/MOL
REMARK 922        TOTAL FREE ENERGY PREDICTED BY IDOCK:   -4.65 KCAL/MOL
REMARK 923 INTER-LIGAND FREE ENERGY PREDICTED BY IDOCK:   -5.39 KCAL/MOL
REMARK 924 INTRA-LIGAND FREE ENERGY PREDICTED BY IDOCK:    0.74 KCAL/MOL
REMARK 927      BINDING AFFINITY PREDICTED BY RF-SCORE:    0.00 PKD
ROOT
HETATM    1  C   UNL     1     -13.701  10.233  70.206  1.00  0.00     0.861 C  
HETATM    2  C   UNL     1     -12.527  11.144  69.830  1.00  0.00    -0.257 C  
HETATM    3  C   UNL     1     -11.181  10.408  69.747  1.00  0.00    -0.293 C  
HETATM    4  C   UNL     1     -12.379  12.243  70.874  1.00  0.00    -0.267 C  
HETATM    5  O   UNL     1     -12.561  12.017  72.071  1.00  0.00    -0.067 OA 
HETATM    6  C   UNL     1     -12.869  15.171  72.225  1.00  0.00    -0.343 C  
HETATM    7  N   UNL     1     -12.056  13.517  70.463  1.00  0.00    -0.352 N  
HETATM    8  C   UNL     1     -11.817  13.981  69.103  1.00  0.00    -0.350 C  
HETATM    9  C   UNL     1     -11.697  14.562  71.442  1.00  0.00    -0.163 C  
HETATM   10  C   UNL     1     -10.751  15.067  69.246  1.00  0.00    -0.248 C  
HETATM   11  C   UNL     1     -11.041  15.681  70.614  1.00  0.00    -0.382 C  
HETATM   12  O   UNL     1     -14.082  14.645  71.944  1.00  0.00    -0.423 OA 
HETATM   13  O   UNL     1     -12.739  16.096  73.021  1.00  0.00    -0.453 OA 
ENDROOT
BRANCH   3  14
HETATM   14  S   UNL     1     -11.240   9.086  68.508  1.00  0.00     0.537 SA 
BRANCH  14  15
HETATM   15  C   UNL     1      -9.529   8.715  68.325  1.00  0.00    -0.141 C  
HETATM   16  O   UNL     1      -8.660   9.532  68.605  1.00  0.00    -0.117 OA 
BRANCH  15  17
HETATM   17  C   UNL     1      -9.195   7.341  67.848  1.00  0.00    -0.131 A  
HETATM   18  C   UNL     1      -9.877   6.728  66.786  1.00  0.00    -0.236 A  
HETATM   19  C   UNL     1      -9.540   5.436  66.380  1.00  0.00    -0.172 A  
HETATM   20  C   UNL     1      -8.514   4.750  67.024  1.00  0.00    -0.105 A  
HETATM   21  C   UNL     1      -8.154   6.648  68.482  1.00  0.00    -0.119 A  
HETATM   22  C   UNL     1      -7.820   5.354  68.073  1.00  0.00    -0.092 A  
ENDBRANCH  15  17
ENDBRANCH  14  15
ENDBRANCH   3  14
BRANCH  10  23
HETATM   23  S   UNL     1     -10.867  16.240  67.846  1.00  0.00    -0.306 SA 
BRANCH  23  24
HETATM   24  C   UNL     1     -11.327  15.194  66.473  1.00  0.00    -0.234 A  
HETATM   25  C   UNL     1     -11.886  13.923  66.633  1.00  0.00    -0.447 A  
HETATM   26  C   UNL     1     -12.070  13.672  64.232  1.00  0.00    -0.480 A  
HETATM   27  C   UNL     1     -12.248  13.162  65.517  1.00  0.00    -0.513 A  
HETATM   28  C   UNL     1     -11.534  14.946  64.062  1.00  0.00     0.189 A  
HETATM   29  C   UNL     1     -11.168  15.704  65.177  1.00  0.00    -0.286 A  
ENDBRANCH  23  24
ENDBRANCH  10  23
TORSDOF 5
ENDMDL
MODEL      255
REMARK 921   NORMALIZED FREE ENERGY PREDICTED BY IDOCK:   -2.50 KCAL/MOL
REMARK 922        TOTAL FREE ENERGY PREDICTED BY IDOCK:   -4.39 KCAL/MOL
REMARK 923 INTER-LIGAND FREE ENERGY PREDICTED BY IDOCK:   -4.07 KCAL/MOL
REMARK 924 INTRA-LIGAND FREE ENERGY PREDICTED BY IDOCK:   -0.32 KCAL/MOL
REMARK 927      BINDING AFFINITY PREDICTED BY RF-SCORE:    0.00 PKD
ROOT
HETATM    1  C   UNL     1     -10.784   6.627  66.711  1.00  0.00    -0.329 C  
HETATM    2  C   UNL     1      -9.886   7.203  67.813  1.00  0.00    -0.175 C  
HETATM    3  C   UNL     1      -9.292   8.576  67.463  1.00  0.00    -0.144 C  
HETATM    4  C   UNL     1      -8.721   6.256  68.069  1.00  0.00    -0.114 C  
HETATM    5  O   UNL     1      -8.171   5.654  67.147  1.00  0.00    -0.102 OA 
HETATM    6  C   UNL     1      -7.126   3.795  69.496  1.00  0.00    -0.045 C  
HETATM    7  N   UNL     1      -8.294   6.058  69.363  1.00  0.00    -0.114 N  
HETATM    8  C   UNL     1      -8.820   6.663  70.579  1.00  0.00    -0.152 C  
HETATM    9  C   UNL     1      -7.045   5.322  69.645  1.00  0.00    -0.059 C  
HETATM   10  C   UNL     1      -7.605   6.823  71.491  1.00  0.00    -0.088 C  
HETATM   11  C   UNL     1      -6.711   5.643  71.112  1.00  0.00    -0.053 C  
HETATM   12  O   UNL     1      -8.323   3.320  69.088  1.00  0.00    -0.059 OA 
HETATM   13  O   UNL     1      -6.194   3.043  69.763  1.00  0.00    -0.026 OA 
ENDROOT
BRANCH   3  14
HETATM   14  S   UNL     1     -10.602   9.792  67.161  1.00  0.00    -0.196 SA 
BRANCH  14  15
HETATM   15  C   UNL     1      -9.743  11.299  67.464  1.00  0.00    -0.177 C  
HETATM   16  O   UNL     1     -10.217  12.383  67.151  1.00  0.00    -0.215 OA 
BRANCH  15  17
HETATM   17  C   UNL     1      -8.426  11.185  68.157  1.00  0.00    -0.138 A  
HETATM   18  C   UNL     1      -7.249  11.737  67.628  1.00  0.00    -0.111 A  
HETATM   19  C   UNL     1      -6.035  11.597  68.304  1.00  0.00    -0.045 A  
HETATM   20  C   UNL     1      -5.989  10.913  69.516  1.00  0.00    -0.054 A  
HETATM   21  C   UNL     1      -8.371  10.509  69.384  1.00  0.00    -0.117 A  
HETATM   22  C   UNL     1      -7.154  10.370  70.057  1.00  0.00    -0.155 A  
ENDBRANCH  15  17
ENDBRANCH  14  15
ENDBRANCH   3  14
BRANCH  10  23
HETATM   23  S   UNL     1      -8.138   6.841  73.241  1.00  0.00    -0.106 SA 
BRANCH  23  24
HETATM   24  C   UNL     1      -9.237   5.437  73.349  1.00  0.00    -0.131 A  
HETATM   25  C   UNL     1      -8.790   4.130  73.568  1.00  0.00    -0.093 A  
HETATM   26  C   UNL     1     -11.071   3.321  73.565  1.00  0.00    -0.314 A  
HETATM   27  C   UNL     1      -9.703   3.075  73.666  1.00  0.00    -0.139 A  
HETATM   28  C   UNL     1     -11.528   4.621  73.368  1.00  0.00    -0.335 A  
HETATM   29  C   UNL     1     -10.616   5.673  73.265  1.00  0.00    -0.280 A  
ENDBRANCH  23  24
ENDBRANCH  10  23
TORSDOF 5
ENDMDL
MODEL      256
REMARK 921   NORMALIZED FREE ENERGY PREDICTED BY IDOCK:   -2.26 KCAL/MOL
REMARK 922        TOTAL FREE ENERGY PREDICTED BY IDOCK:   -4.09 KCAL/MOL
REMARK 923 INTER-LIGAND FREE ENERGY PREDICTED BY IDOCK:   -3.66 KCAL/MOL
REMARK 924 INTRA-LIGAND FREE ENERGY PREDICTED BY IDOCK:   -0.43 KCAL/MOL
REMARK 927      BINDING AFFINITY PREDICTED BY RF-SCORE:    0.00 PKD
ROOT
HETATM    1  C   UNL     1      -8.156  12.149  69.027  1.00  0.00     0.245 C  
HETATM    2  C   UNL     1      -8.695  10.958  68.225  1.00  0.00    -0.140 C  
HETATM    3  C   UNL     1     -10.165  11.114  67.809  1.00  0.00    -0.180 C  
HETATM    4  C   UNL     1      -8.592   9.690  69.062  1.00  0.00    -0.133 C  
HETATM    5  O   UNL     1      -8.812   9.704  70.273  1.00  0.00    -0.223 OA 
HETATM    6  C   UNL     1      -7.213   6.964  70.206  1.00  0.00    -0.076 C  
HETATM    7  N   UNL     1      -8.224   8.513  68.450  1.00  0.00    -0.122 N  
HETATM    8  C   UNL     1      -7.911   8.299  67.044  1.00  0.00    -0.100 C  
HETATM    9  C   UNL     1      -8.313   7.225  69.166  1.00  0.00    -0.132 C  
HETATM   10  C   UNL     1      -8.402   6.882  66.748  1.00  0.00    -0.116 C  
HETATM   11  C   UNL     1      -8.205   6.147  68.074  1.00  0.00    -0.114 C  
HETATM   12  O   UNL     1      -6.320   7.967  70.360  1.00  0.00    -0.036 OA 
HETATM   13  O   UNL     1      -7.112   5.913  70.830  1.00  0.00    -0.064 OA 
ENDROOT
BRANCH   3  14
HETATM   14  S   UNL     1     -10.395  12.589  66.781  1.00  0.00    -0.228 SA 
BRANCH  14  15
HETATM   15  C   UNL     1     -10.825  11.863  65.236  1.00  0.00    -0.297 C  
HETATM   16  O   UNL     1     -11.973  11.887  64.811  1.00  0.00    -0.263 OA 
BRANCH  15  17
HETATM   17  C   UNL     1      -9.709  11.252  64.455  1.00  0.00    -0.293 A  
HETATM   18  C   UNL     1      -8.434  11.046  65.005  1.00  0.00     0.074 A  
HETATM   19  C   UNL     1      -7.415  10.482  64.235  1.00  0.00     0.093 A  
HETATM   20  C   UNL     1      -7.662  10.112  62.916  1.00  0.00    -0.148 A  
HETATM   21  C   UNL     1      -9.952  10.864  63.131  1.00  0.00    -0.368 A  
HETATM   22  C   UNL     1      -8.929  10.301  62.363  1.00  0.00    -0.288 A  
ENDBRANCH  15  17
ENDBRANCH  14  15
ENDBRANCH   3  14
BRANCH  10  23
HETATM   23  S   UNL     1      -7.464   6.179  65.343  1.00  0.00    -0.087 SA 
BRANCH  23  24
HETATM   24  C   UNL     1      -8.366   4.687  64.954  1.00  0.00    -0.129 A  
HETATM   25  C   UNL     1      -9.175   4.555  63.822  1.00  0.00    -0.087 A  
HETATM   26  C   UNL     1      -9.680   2.264  64.418  1.00  0.00    -0.071 A  
HETATM   27  C   UNL     1      -9.837   3.351  63.560  1.00  0.00    -0.148 A  
HETATM   28  C   UNL     1      -8.860   2.378  65.537  1.00  0.00    -0.127 A  
HETATM   29  C   UNL     1      -8.203   3.582  65.801  1.00  0.00    -0.097 A  
ENDBRANCH  23  24
ENDBRANCH  10  23
TORSDOF 5
ENDMDL
MODEL      257
REMARK 921   NORMALIZED FREE ENERGY PREDICTED BY IDOCK:   -2.18 KCAL/MOL
REMARK 922        TOTAL FREE ENERGY PREDICTED BY IDOCK:   -3.99 KCAL/MOL
REMARK 923 INTER-LIGAND FREE ENERGY PREDICTED BY IDOCK:   -2.70 KCAL/MOL
REMARK 924 INTRA-LIGAND FREE ENERGY PREDICTED BY IDOCK:   -1.29 KCAL/MOL
REMARK 927      BINDING AFFINITY PREDICTED BY RF-SCORE:    0.00 PKD
ROOT
HETATM    1  C   UNL     1     -12.012  14.227  71.024  1.00  0.00    -0.374 C  
HETATM    2  C   UNL     1     -11.291  14.063  69.681  1.00  0.00    -0.270 C  
HETATM    3  C   UNL     1     -10.301  12.889  69.657  1.00  0.00     0.920 C  
HETATM    4  C   UNL     1     -10.503  15.328  69.367  1.00  0.00    -0.251 C  
HETATM    5  O   UNL     1      -9.919  15.954  70.251  1.00  0.00    -0.069 OA 
HETATM    6  C   UNL     1      -9.979  18.290  68.105  1.00  0.00    -0.360 C  
HETATM    7  N   UNL     1     -10.465  15.787  68.069  1.00  0.00    -0.263 N  
HETATM    8  C   UNL     1     -11.098  15.198  66.897  1.00  0.00    -0.314 C  
HETATM    9  C   UNL     1      -9.552  16.878  67.676  1.00  0.00    -0.248 C  
HETATM   10  C   UNL     1     -10.139  15.500  65.745  1.00  0.00    -0.360 C  
HETATM   11  C   UNL     1      -9.511  16.836  66.139  1.00  0.00    -0.295 C  
HETATM   12  O   UNL     1     -11.124  18.350  68.822  1.00  0.00     0.616 OA 
HETATM   13  O   UNL     1      -9.363  19.303  67.793  1.00  0.00    -0.299 OA 
ENDROOT
BRANCH   3  14
HETATM   14  S   UNL     1     -11.145  11.321  69.997  1.00  0.00     0.094 SA 
BRANCH  14  15
HETATM   15  C   UNL     1     -11.480  10.754  68.364  1.00  0.00    -0.288 C  
HETATM   16  O   UNL     1     -12.489  11.093  67.760  1.00  0.00     0.189 OA 
BRANCH  15  17
HETATM   17  C   UNL     1     -10.449   9.871  67.744  1.00  0.00    -0.292 A  
HETATM   18  C   UNL     1     -10.573   8.473  67.722  1.00  0.00    -0.242 A  
HETATM   19  C   UNL     1      -9.578   7.684  67.142  1.00  0.00    -0.211 A  
HETATM   20  C   UNL     1      -8.459   8.283  66.570  1.00  0.00    -0.121 A  
HETATM   21  C   UNL     1      -9.325  10.466  67.154  1.00  0.00    -0.177 A  
HETATM   22  C   UNL     1      -8.332   9.672  66.575  1.00  0.00    -0.120 A  
ENDBRANCH  15  17
ENDBRANCH  14  15
ENDBRANCH   3  14
BRANCH  10  23
HETATM   23  S   UNL     1     -11.057  15.528  64.163  1.00  0.00     0.570 SA 
BRANCH  23  24
HETATM   24  C   UNL     1     -11.358  13.799  63.834  1.00  0.00    -0.028 A  
HETATM   25  C   UNL     1     -10.378  12.811  63.970  1.00  0.00    -0.392 A  
HETATM   26  C   UNL     1     -11.975  11.102  63.350  1.00  0.00     0.671 A  
HETATM   27  C   UNL     1     -10.683  11.469  63.720  1.00  0.00    -0.474 A  
HETATM   28  C   UNL     1     -12.965  12.074  63.232  1.00  0.00    -0.188 A  
HETATM   29  C   UNL     1     -12.658  13.414  63.477  1.00  0.00    -0.126 A  
ENDBRANCH  23  24
ENDBRANCH  10  23
TORSDOF 5
ENDMDL
MODEL      258
REMARK 921   NORMALIZED FREE ENERGY PREDICTED BY IDOCK:   -0.05 KCAL/MOL
REMARK 922        TOTAL FREE ENERGY PREDICTED BY IDOCK:   -1.23 KCAL/MOL
REMARK 923 INTER-LIGAND FREE ENERGY PREDICTED BY IDOCK:   -2.06 KCAL/MOL
REMARK 924 INTRA-LIGAND FREE ENERGY PREDICTED BY IDOCK:    0.83 KCAL/MOL
REMARK 927      BINDING AFFINITY PREDICTED BY RF-SCORE:    0.00 PKD
ROOT
HETATM    1  C   UNL     1      -6.970   8.451  71.087  1.00  0.00    -0.063 C  
HETATM    2  C   UNL     1      -7.936   9.539  70.602  1.00  0.00    -0.152 C  
HETATM    3  C   UNL     1      -9.407   9.097  70.604  1.00  0.00    -0.258 C  
HETATM    4  C   UNL     1      -7.583   9.935  69.175  1.00  0.00    -0.090 C  
HETATM    5  O   UNL     1      -7.212   9.099  68.352  1.00  0.00    -0.075 OA 
HETATM    6  C   UNL     1      -6.111  11.653  66.825  1.00  0.00    -0.134 C  
HETATM    7  N   UNL     1      -7.662  11.261  68.811  1.00  0.00    -0.134 N  
HETATM    8  C   UNL     1      -8.063  12.391  69.638  1.00  0.00     1.506 C  
HETATM    9  C   UNL     1      -7.537  11.668  67.397  1.00  0.00    -0.139 C  
HETATM   10  C   UNL     1      -8.774  13.343  68.676  1.00  0.00     0.015 C  
HETATM   11  C   UNL     1      -8.058  13.115  67.346  1.00  0.00    -0.181 C  
HETATM   12  O   UNL     1      -5.154  11.232  67.680  1.00  0.00    -0.040 OA 
HETATM   13  O   UNL     1      -5.838  12.031  65.690  1.00  0.00     0.819 OA 
ENDROOT
BRANCH   3  14
HETATM   14  S   UNL     1      -9.940   8.623  72.271  1.00  0.00    -0.236 SA 
BRANCH  14  15
HETATM   15  C   UNL     1     -11.564   9.303  72.314  1.00  0.00     0.060 C  
HETATM   16  O   UNL     1     -12.402   8.916  73.119  1.00  0.00     0.057 OA 
BRANCH  15  17
HETATM   17  C   UNL     1     -11.851  10.400  71.344  1.00  0.00    -0.312 A  
HETATM   18  C   UNL     1     -11.606  10.268  69.967  1.00  0.00    -0.349 A  
HETATM   19  C   UNL     1     -11.878  11.324  69.097  1.00  0.00    -0.423 A  
HETATM   20  C   UNL     1     -12.405  12.515  69.590  1.00  0.00    -0.035 A  
HETATM   21  C   UNL     1     -12.393  11.598  71.829  1.00  0.00     0.171 A  
HETATM   22  C   UNL     1     -12.663  12.653  70.953  1.00  0.00    -0.274 A  
ENDBRANCH  15  17
ENDBRANCH  14  15
ENDBRANCH   3  14
BRANCH  10  23
HETATM   23  S   UNL     1      -8.674  15.056  69.310  1.00  0.00    -0.113 SA 
BRANCH  23  24
HETATM   24  C   UNL     1      -9.379  16.024  67.986  1.00  0.00    -0.202 A  
HETATM   25  C   UNL     1      -9.765  17.360  68.136  1.00  0.00    -0.291 A  
HETATM   26  C   UNL     1     -10.415  17.461  65.807  1.00  0.00    -0.221 A  
HETATM   27  C   UNL     1     -10.289  18.073  67.053  1.00  0.00    -0.377 A  
HETATM   28  C   UNL     1     -10.014  16.138  65.641  1.00  0.00    -0.330 A  
HETATM   29  C   UNL     1      -9.495  15.426  66.724  1.00  0.00    -0.260 A  
ENDBRANCH  23  24
ENDBRANCH  10  23
TORSDOF 5
ENDMDL
MODEL      259
REMARK 921   NORMALIZED FREE ENERGY PREDICTED BY IDOCK:    0.51 KCAL/MOL
REMARK 922        TOTAL FREE ENERGY PREDICTED BY IDOCK:   -0.51 KCAL/MOL
REMARK 923 INTER-LIGAND FREE ENERGY PREDICTED BY IDOCK:   -3.25 KCAL/MOL
REMARK 924 INTRA-LIGAND FREE ENERGY PREDICTED BY IDOCK:    2.74 KCAL/MOL
REMARK 927      BINDING AFFINITY PREDICTED BY RF-SCORE:    0.00 PKD
ROOT
HETATM    1  C   UNL     1     -10.475   5.701  71.270  1.00  0.00    -0.299 C  
HETATM    2  C   UNL     1      -9.819   6.942  70.654  1.00  0.00    -0.191 C  
HETATM    3  C   UNL     1      -8.398   7.206  71.175  1.00  0.00    -0.113 C  
HETATM    4  C   UNL     1     -10.655   8.173  70.974  1.00  0.00    -0.210 C  
HETATM    5  O   UNL     1     -11.206   8.307  72.066  1.00  0.00    -0.278 OA 
HETATM    6  C   UNL     1     -12.959  10.431  70.492  1.00  0.00    -0.212 C  
HETATM    7  N   UNL     1     -10.812   9.143  70.009  1.00  0.00    -0.232 N  
HETATM    8  C   UNL     1     -10.257   9.160  68.663  1.00  0.00    -0.204 C  
HETATM    9  C   UNL     1     -11.431  10.444  70.333  1.00  0.00    -0.337 C  
HETATM   10  C   UNL     1      -9.985  10.636  68.373  1.00  0.00    -0.163 C  
HETATM   11  C   UNL     1     -11.080  11.364  69.152  1.00  0.00    -0.317 C  
HETATM   12  O   UNL     1     -13.542   9.220  70.349  1.00  0.00     0.433 OA 
HETATM   13  O   UNL     1     -13.623  11.444  70.692  1.00  0.00     0.670 OA 
ENDROOT
BRANCH   3  14
HETATM   14  S   UNL     1      -7.307   5.802  70.823  1.00  0.00    -0.087 SA 
BRANCH  14  15
HETATM   15  C   UNL     1      -8.466   4.479  70.752  1.00  0.00    -0.091 C  
HETATM   16  O   UNL     1      -9.102   4.235  69.735  1.00  0.00    -0.096 OA 
BRANCH  15  17
HETATM   17  C   UNL     1      -8.603   3.649  71.985  1.00  0.00    -0.107 A  
HETATM   18  C   UNL     1      -7.905   3.940  73.168  1.00  0.00    -0.083 A  
HETATM   19  C   UNL     1      -8.054   3.130  74.294  1.00  0.00    -0.069 A  
HETATM   20  C   UNL     1      -8.905   2.029  74.253  1.00  0.00    -0.068 A  
HETATM   21  C   UNL     1      -9.468   2.546  71.957  1.00  0.00    -0.185 A  
HETATM   22  C   UNL     1      -9.613   1.737  73.087  1.00  0.00    -0.106 A  
ENDBRANCH  15  17
ENDBRANCH  14  15
ENDBRANCH   3  14
BRANCH  10  23
HETATM   23  S   UNL     1     -10.013  10.931  66.567  1.00  0.00    -0.218 SA 
BRANCH  23  24
HETATM   24  C   UNL     1      -8.627   9.974  65.975  1.00  0.00    -0.138 A  
HETATM   25  C   UNL     1      -8.752   8.946  65.035  1.00  0.00    -0.200 A  
HETATM   26  C   UNL     1      -6.359   8.585  65.072  1.00  0.00    -0.060 A  
HETATM   27  C   UNL     1      -7.624   8.249  64.592  1.00  0.00    -0.106 A  
HETATM   28  C   UNL     1      -6.220   9.621  65.992  1.00  0.00    -0.065 A  
HETATM   29  C   UNL     1      -7.348  10.314  66.437  1.00  0.00    -0.114 A  
ENDBRANCH  23  24
ENDBRANCH  10  23
TORSDOF 5
ENDMDL
MODEL      260
REMARK 921   NORMALIZED FREE ENERGY PREDICTED BY IDOCK:    1.48 KCAL/MOL
REMARK 922        TOTAL FREE ENERGY PREDICTED BY IDOCK:    0.75 KCAL/MOL
REMARK 923 INTER-LIGAND FREE ENERGY PREDICTED BY IDOCK:   -2.18 KCAL/MOL
REMARK 924 INTRA-LIGAND FREE ENERGY PREDICTED BY IDOCK:    2.93 KCAL/MOL
REMARK 927      BINDING AFFINITY PREDICTED BY RF-SCORE:    0.00 PKD
ROOT
HETATM    1  C   UNL     1     -10.386   8.862  69.093  1.00  0.00    -0.230 C  
HETATM    2  C   UNL     1      -9.305   9.079  68.027  1.00  0.00    -0.153 C  
HETATM    3  C   UNL     1      -7.875   8.942  68.569  1.00  0.00    -0.103 C  
HETATM    4  C   UNL     1      -9.437  10.480  67.445  1.00  0.00    -0.153 C  
HETATM    5  O   UNL     1      -9.737  11.441  68.152  1.00  0.00    -0.179 OA 
HETATM    6  C   UNL     1     -10.477  12.769  65.367  1.00  0.00    -0.286 C  
HETATM    7  N   UNL     1      -9.237  10.664  66.094  1.00  0.00    -0.167 N  
HETATM    8  C   UNL     1      -8.892   9.658  65.099  1.00  0.00    -0.180 C  
HETATM    9  C   UNL     1      -9.145  12.020  65.519  1.00  0.00     0.144 C  
HETATM   10  C   UNL     1      -8.005  10.393  64.095  1.00  0.00    -0.073 C  
HETATM   11  C   UNL     1      -8.544  11.823  64.116  1.00  0.00     1.034 C  
HETATM   12  O   UNL     1     -11.565  12.104  65.815  1.00  0.00    -0.366 OA 
HETATM   13  O   UNL     1     -10.572  13.874  64.842  1.00  0.00    -0.372 OA 
ENDROOT
BRANCH   3  14
HETATM   14  S   UNL     1      -7.602   7.292  69.269  1.00  0.00    -0.104 SA 
BRANCH  14  15
HETATM   15  C   UNL     1      -9.149   6.520  68.934  1.00  0.00    -0.131 C  
HETATM   16  O   UNL     1     -10.207   7.013  69.304  1.00  0.00    -0.175 OA 
BRANCH  15  17
HETATM   17  C   UNL     1      -9.103   5.256  68.142  1.00  0.00    -0.120 A  
HETATM   18  C   UNL     1      -9.780   5.109  66.921  1.00  0.00    -0.175 A  
HETATM   19  C   UNL     1      -9.720   3.904  66.220  1.00  0.00    -0.176 A  
HETATM   20  C   UNL     1      -8.977   2.840  66.725  1.00  0.00    -0.168 A  
HETATM   21  C   UNL     1      -8.348   4.184  68.637  1.00  0.00    -0.093 A  
HETATM   22  C   UNL     1      -8.291   2.979  67.932  1.00  0.00    -0.094 A  
ENDBRANCH  15  17
ENDBRANCH  14  15
ENDBRANCH   3  14
BRANCH  10  23
HETATM   23  S   UNL     1      -8.098   9.570  62.464  1.00  0.00    -0.141 SA 
BRANCH  23  24
HETATM   24  C   UNL     1      -7.855   7.846  62.861  1.00  0.00    -0.140 A  
HETATM   25  C   UNL     1      -6.734   7.368  63.545  1.00  0.00    -0.053 A  
HETATM   26  C   UNL     1      -7.622   5.118  63.486  1.00  0.00    -0.065 A  
HETATM   27  C   UNL     1      -6.613   6.008  63.848  1.00  0.00    -0.037 A  
HETATM   28  C   UNL     1      -8.754   5.586  62.823  1.00  0.00     0.045 A  
HETATM   29  C   UNL     1      -8.871   6.943  62.517  1.00  0.00     0.525 A  
ENDBRANCH  23  24
ENDBRANCH  10  23
TORSDOF 5
ENDMDL
MODEL      261
REMARK 921   NORMALIZED FREE ENERGY PREDICTED BY IDOCK:    1.79 KCAL/MOL
REMARK 922        TOTAL FREE ENERGY PREDICTED BY IDOCK:    1.15 KCAL/MOL
REMARK 923 INTER-LIGAND FREE ENERGY PREDICTED BY IDOCK:    1.35 KCAL/MOL
REMARK 924 INTRA-LIGAND FREE ENERGY PREDICTED BY IDOCK:   -0.20 KCAL/MOL
REMARK 927      BINDING AFFINITY PREDICTED BY RF-SCORE:    0.00 PKD
ROOT
HETATM    1  C   UNL     1      -7.982   8.787  66.769  1.00  0.00    -0.097 C  
HETATM    2  C   UNL     1      -8.926   9.755  67.493  1.00  0.00    -0.138 C  
HETATM    3  C   UNL     1     -10.149   9.067  68.117  1.00  0.00    -0.191 C  
HETATM    4  C   UNL     1      -9.443  10.796  66.509  1.00  0.00    -0.169 C  
HETATM    5  O   UNL     1      -9.721  10.496  65.348  1.00  0.00    -0.219 OA 
HETATM    6  C   UNL     1      -9.469  13.624  64.886  1.00  0.00     0.693 C  
HETATM    7  N   UNL     1      -9.580  12.101  66.927  1.00  0.00    -0.201 N  
HETATM    8  C   UNL     1      -9.293  12.650  68.245  1.00  0.00    -0.195 C  
HETATM    9  C   UNL     1     -10.271  13.098  66.086  1.00  0.00    -0.290 C  
HETATM   10  C   UNL     1     -10.327  13.758  68.438  1.00  0.00    -0.247 C  
HETATM   11  C   UNL     1     -10.563  14.283  67.023  1.00  0.00    -0.280 C  
HETATM   12  O   UNL     1      -8.243  13.079  64.730  1.00  0.00     3.695 OA 
HETATM   13  O   UNL     1      -9.879  14.506  64.137  1.00  0.00     0.754 OA 
ENDROOT
BRANCH   3  14
HETATM   14  S   UNL     1      -9.642   7.818  69.329  1.00  0.00    -0.160 SA 
BRANCH  14  15
HETATM   15  C   UNL     1      -9.271   8.828  70.723  1.00  0.00    -0.198 C  
HETATM   16  O   UNL     1     -10.118   9.097  71.565  1.00  0.00    -0.319 OA 
BRANCH  15  17
HETATM   17  C   UNL     1      -7.862   9.304  70.842  1.00  0.00    -0.148 A  
HETATM   18  C   UNL     1      -7.187   9.925  69.779  1.00  0.00    -0.118 A  
HETATM   19  C   UNL     1      -5.864  10.344  69.930  1.00  0.00    -0.055 A  
HETATM   20  C   UNL     1      -5.208  10.156  71.144  1.00  0.00    -0.074 A  
HETATM   21  C   UNL     1      -7.197   9.130  72.064  1.00  0.00     0.267 A  
HETATM   22  C   UNL     1      -5.873   9.551  72.210  1.00  0.00     0.127 A  
ENDBRANCH  15  17
ENDBRANCH  14  15
ENDBRANCH   3  14
BRANCH  10  23
HETATM   23  S   UNL     1      -9.690  15.005  69.616  1.00  0.00     0.026 SA 
BRANCH  23  24
HETATM   24  C   UNL     1      -8.528  15.939  68.633  1.00  0.00    -0.200 A  
HETATM   25  C   UNL     1      -8.878  17.089  67.920  1.00  0.00    -0.224 A  
HETATM   26  C   UNL     1      -6.591  17.359  67.178  1.00  0.00    -0.193 A  
HETATM   27  C   UNL     1      -7.916  17.791  67.188  1.00  0.00    -0.229 A  
HETATM   28  C   UNL     1      -6.226  16.227  67.901  1.00  0.00    -0.142 A  
HETATM   29  C   UNL     1      -7.189  15.524  68.628  1.00  0.00    -0.123 A  
ENDBRANCH  23  24
ENDBRANCH  10  23
TORSDOF 5
ENDMDL
MODEL      262
REMARK 921   NORMALIZED FREE ENERGY PREDICTED BY IDOCK:    2.77 KCAL/MOL
REMARK 922        TOTAL FREE ENERGY PREDICTED BY IDOCK:    2.42 KCAL/MOL
REMARK 923 INTER-LIGAND FREE ENERGY PREDICTED BY IDOCK:   -1.72 KCAL/MOL
REMARK 924 INTRA-LIGAND FREE ENERGY PREDICTED BY IDOCK:    4.14 KCAL/MOL
REMARK 927      BINDING AFFINITY PREDICTED BY RF-SCORE:    0.00 PKD
ROOT
HETATM    1  C   UNL     1     -10.162   9.702  70.928  1.00  0.00    -0.303 C  
HETATM    2  C   UNL     1     -10.639   8.840  69.753  1.00  0.00    -0.227 C  
HETATM    3  C   UNL     1     -12.010   9.260  69.203  1.00  0.00     1.252 C  
HETATM    4  C   UNL     1     -10.754   7.389  70.198  1.00  0.00    -0.242 C  
HETATM    5  O   UNL     1     -11.165   7.094  71.320  1.00  0.00    -0.248 OA 
HETATM    6  C   UNL     1      -9.754   4.323  70.689  1.00  0.00    -0.204 C  
HETATM    7  N   UNL     1     -10.368   6.391  69.330  1.00  0.00    -0.190 N  
HETATM    8  C   UNL     1      -9.848   6.538  67.977  1.00  0.00    -0.123 C  
HETATM    9  C   UNL     1     -10.654   4.974  69.628  1.00  0.00     0.046 C  
HETATM   10  C   UNL     1     -10.374   5.317  67.224  1.00  0.00    -0.199 C  
HETATM   11  C   UNL     1     -10.440   4.231  68.298  1.00  0.00     0.672 C  
HETATM   12  O   UNL     1      -8.835   5.143  71.244  1.00  0.00    -0.131 OA 
HETATM   13  O   UNL     1      -9.822   3.136  70.993  1.00  0.00    -0.158 OA 
ENDROOT
BRANCH   3  14
HETATM   14  S   UNL     1     -11.977  10.976  68.619  1.00  0.00    -0.039 SA 
BRANCH  14  15
HETATM   15  C   UNL     1     -11.437  11.817  70.069  1.00  0.00    -0.151 C  
HETATM   16  O   UNL     1     -10.444  11.458  70.688  1.00  0.00     1.543 OA 
BRANCH  15  17
HETATM   17  C   UNL     1     -12.231  13.013  70.478  1.00  0.00    -0.392 A  
HETATM   18  C   UNL     1     -12.144  14.240  69.800  1.00  0.00    -0.401 A  
HETATM   19  C   UNL     1     -12.897  15.336  70.225  1.00  0.00    -0.298 A  
HETATM   20  C   UNL     1     -13.747  15.216  71.320  1.00  0.00    -0.555 A  
HETATM   21  C   UNL     1     -13.100  12.897  71.572  1.00  0.00    -0.390 A  
HETATM   22  C   UNL     1     -13.851  13.998  71.993  1.00  0.00    -0.582 A  
ENDBRANCH  15  17
ENDBRANCH  14  15
ENDBRANCH   3  14
BRANCH  10  23
HETATM   23  S   UNL     1      -9.269   4.930  65.818  1.00  0.00    -0.158 SA 
BRANCH  23  24
HETATM   24  C   UNL     1      -7.637   5.154  66.506  1.00  0.00    -0.088 A  
HETATM   25  C   UNL     1      -6.648   5.929  65.893  1.00  0.00    -0.047 A  
HETATM   26  C   UNL     1      -5.127   5.485  67.723  1.00  0.00    -0.004 A  
HETATM   27  C   UNL     1      -5.395   6.086  66.495  1.00  0.00    -0.009 A  
HETATM   28  C   UNL     1      -6.112   4.728  68.353  1.00  0.00    -0.031 A  
HETATM   29  C   UNL     1      -7.361   4.568  67.749  1.00  0.00    -0.069 A  
ENDBRANCH  23  24
ENDBRANCH  10  23
TORSDOF 5
ENDMDL
MODEL      263
REMARK 921   NORMALIZED FREE ENERGY PREDICTED BY IDOCK:    3.82 KCAL/MOL
REMARK 922        TOTAL FREE ENERGY PREDICTED BY IDOCK:    3.77 KCAL/MOL
REMARK 923 INTER-LIGAND FREE ENERGY PREDICTED BY IDOCK:    3.11 KCAL/MOL
REMARK 924 INTRA-LIGAND FREE ENERGY PREDICTED BY IDOCK:    0.66 KCAL/MOL
REMARK 927      BINDING AFFINITY PREDICTED BY RF-SCORE:    0.00 PKD
ROOT
HETATM    1  C   UNL     1      -8.117   8.733  66.791  1.00  0.00    -0.104 C  
HETATM    2  C   UNL     1      -9.228   8.882  67.838  1.00  0.00    -0.148 C  
HETATM    3  C   UNL     1      -9.804   7.540  68.314  1.00  0.00    -0.163 C  
HETATM    4  C   UNL     1     -10.379   9.687  67.250  1.00  0.00    -0.249 C  
HETATM    5  O   UNL     1     -10.722   9.549  66.076  1.00  0.00     0.084 OA 
HETATM    6  C   UNL     1     -12.108  12.363  66.552  1.00  0.00    -0.105 C  
HETATM    7  N   UNL     1     -11.032  10.600  68.047  1.00  0.00    -0.260 N  
HETATM    8  C   UNL     1     -10.767  10.914  69.445  1.00  0.00    -0.225 C  
HETATM    9  C   UNL     1     -12.279  11.249  67.595  1.00  0.00     0.813 C  
HETATM   10  C   UNL     1     -12.137  11.246  70.034  1.00  0.00    -0.348 C  
HETATM   11  C   UNL     1     -12.894  11.868  68.861  1.00  0.00     1.605 C  
HETATM   12  O   UNL     1     -10.836  12.586  66.152  1.00  0.00    -0.262 OA 
HETATM   13  O   UNL     1     -13.040  13.041  66.132  1.00  0.00     0.161 OA 
ENDROOT
BRANCH   3  14
HETATM   14  S   UNL     1      -8.513   6.507  69.058  1.00  0.00    -0.125 SA 
BRANCH  14  15
HETATM   15  C   UNL     1      -8.251   7.339  70.587  1.00  0.00    -0.116 C  
HETATM   16  O   UNL     1      -8.804   6.979  71.618  1.00  0.00    -0.130 OA 
BRANCH  15  17
HETATM   17  C   UNL     1      -7.291   8.482  70.565  1.00  0.00    -0.060 A  
HETATM   18  C   UNL     1      -7.356   9.499  69.600  1.00  0.00    -0.084 A  
HETATM   19  C   UNL     1      -6.429  10.543  69.609  1.00  0.00    -0.084 A  
HETATM   20  C   UNL     1      -5.438  10.585  70.586  1.00  0.00    -0.085 A  
HETATM   21  C   UNL     1      -6.297   8.540  71.552  1.00  0.00    -0.057 A  
HETATM   22  C   UNL     1      -5.371   9.586  71.557  1.00  0.00    -0.069 A  
ENDBRANCH  15  17
ENDBRANCH  14  15
ENDBRANCH   3  14
BRANCH  10  23
HETATM   23  S   UNL     1     -11.940  12.349  71.481  1.00  0.00     1.468 SA 
BRANCH  23  24
HETATM   24  C   UNL     1     -11.490  13.913  70.746  1.00  0.00     0.258 A  
HETATM   25  C   UNL     1     -12.427  14.877  70.363  1.00  0.00    -0.403 A  
HETATM   26  C   UNL     1     -10.651  16.364  69.661  1.00  0.00    -0.307 A  
HETATM   27  C   UNL     1     -12.009  16.093  69.814  1.00  0.00    -0.064 A  
HETATM   28  C   UNL     1      -9.708  15.420  70.059  1.00  0.00    -0.049 A  
HETATM   29  C   UNL     1     -10.126  14.203  70.603  1.00  0.00     2.225 A  
ENDBRANCH  23  24
ENDBRANCH  10  23
TORSDOF 5
ENDMDL
MODEL      264
REMARK 921   NORMALIZED FREE ENERGY PREDICTED BY IDOCK:    4.33 KCAL/MOL
REMARK 922        TOTAL FREE ENERGY PREDICTED BY IDOCK:    4.43 KCAL/MOL
REMARK 923 INTER-LIGAND FREE ENERGY PREDICTED BY IDOCK:    4.17 KCAL/MOL
REMARK 924 INTRA-LIGAND FREE ENERGY PREDICTED BY IDOCK:    0.26 KCAL/MOL
REMARK 927      BINDING AFFINITY PREDICTED BY RF-SCORE:    0.00 PKD
ROOT
HETATM    1  C   UNL     1     -10.819  13.273  71.086  1.00  0.00     3.733 C  
HETATM    2  C   UNL     1     -10.351  13.211  69.628  1.00  0.00     0.817 C  
HETATM    3  C   UNL     1      -9.430  12.019  69.329  1.00  0.00     0.676 C  
HETATM    4  C   UNL     1      -9.579  14.478  69.285  1.00  0.00     0.052 C  
HETATM    5  O   UNL     1      -8.824  15.007  70.100  1.00  0.00     0.232 OA 
HETATM    6  C   UNL     1      -9.164  17.527  68.202  1.00  0.00    -0.277 C  
HETATM    7  N   UNL     1      -9.751  15.050  68.044  1.00  0.00    -0.211 N  
HETATM    8  C   UNL     1     -10.603  14.586  66.958  1.00  0.00    -0.278 C  
HETATM    9  C   UNL     1      -8.876  16.149  67.587  1.00  0.00    -0.186 C  
HETATM   10  C   UNL     1      -9.849  14.964  65.684  1.00  0.00    -0.337 C  
HETATM   11  C   UNL     1      -9.107  16.243  66.070  1.00  0.00    -0.332 C  
HETATM   12  O   UNL     1     -10.161  17.552  69.113  1.00  0.00    -0.333 OA 
HETATM   13  O   UNL     1      -8.570  18.548  67.871  1.00  0.00    -0.276 OA 
ENDROOT
BRANCH   3  14
HETATM   14  S   UNL     1     -10.265  10.449  69.682  1.00  0.00    -0.169 SA 
BRANCH  14  15
HETATM   15  C   UNL     1      -8.948   9.304  69.452  1.00  0.00    -0.147 C  
HETATM   16  O   UNL     1      -9.073   8.312  68.746  1.00  0.00    -0.144 OA 
BRANCH  15  17
HETATM   17  C   UNL     1      -7.659   9.628  70.133  1.00  0.00    -0.165 A  
HETATM   18  C   UNL     1      -7.031   8.735  71.015  1.00  0.00    -0.077 A  
HETATM   19  C   UNL     1      -5.832   9.084  71.640  1.00  0.00    -0.064 A  
HETATM   20  C   UNL     1      -5.248  10.321  71.383  1.00  0.00    -0.080 A  
HETATM   21  C   UNL     1      -7.057  10.866  69.871  1.00  0.00    -0.052 A  
HETATM   22  C   UNL     1      -5.857  11.212  70.499  1.00  0.00    -0.133 A  
ENDBRANCH  15  17
ENDBRANCH  14  15
ENDBRANCH   3  14
BRANCH  10  23
HETATM   23  S   UNL     1     -11.027  15.158  64.298  1.00  0.00     0.436 SA 
BRANCH  23  24
HETATM   24  C   UNL     1     -11.466  13.474  63.896  1.00  0.00    -0.250 A  
HETATM   25  C   UNL     1     -12.613  13.134  63.172  1.00  0.00     0.026 A  
HETATM   26  C   UNL     1     -12.013  10.791  63.270  1.00  0.00     2.072 A  
HETATM   27  C   UNL     1     -12.889  11.797  62.868  1.00  0.00     0.379 A  
HETATM   28  C   UNL     1     -10.857  11.120  63.974  1.00  0.00    -0.351 A  
HETATM   29  C   UNL     1     -10.584  12.455  64.281  1.00  0.00    -0.391 A  
ENDBRANCH  23  24
ENDBRANCH  10  23
TORSDOF 5
ENDMDL
MODEL      265
REMARK 921   NORMALIZED FREE ENERGY PREDICTED BY IDOCK:    4.72 KCAL/MOL
REMARK 922        TOTAL FREE ENERGY PREDICTED BY IDOCK:    4.93 KCAL/MOL
REMARK 923 INTER-LIGAND FREE ENERGY PREDICTED BY IDOCK:    1.84 KCAL/MOL
REMARK 924 INTRA-LIGAND FREE ENERGY PREDICTED BY IDOCK:    3.10 KCAL/MOL
REMARK 927      BINDING AFFINITY PREDICTED BY RF-SCORE:    0.00 PKD
ROOT
HETATM    1  C   UNL     1      -6.383   7.034  68.661  1.00  0.00    -0.035 C  
HETATM    2  C   UNL     1      -7.809   7.585  68.777  1.00  0.00    -0.121 C  
HETATM    3  C   UNL     1      -8.817   6.563  69.323  1.00  0.00    -0.132 C  
HETATM    4  C   UNL     1      -8.301   8.019  67.403  1.00  0.00    -0.123 C  
HETATM    5  O   UNL     1      -8.023   7.377  66.391  1.00  0.00    -0.102 OA 
HETATM    6  C   UNL     1      -8.822  10.075  64.925  1.00  0.00    -0.192 C  
HETATM    7  N   UNL     1      -9.056   9.167  67.296  1.00  0.00    -0.126 N  
HETATM    8  C   UNL     1      -9.475  10.062  68.366  1.00  0.00    -0.141 C  
HETATM    9  C   UNL     1      -9.730   9.516  66.030  1.00  0.00    -0.272 C  
HETATM   10  C   UNL     1     -10.847  10.573  67.929  1.00  0.00    -0.282 C  
HETATM   11  C   UNL     1     -10.754  10.602  66.404  1.00  0.00    -0.198 C  
HETATM   12  O   UNL     1      -7.509  10.143  65.240  1.00  0.00    -0.136 OA 
HETATM   13  O   UNL     1      -9.244  10.475  63.845  1.00  0.00    -0.212 OA 
ENDROOT
BRANCH   3  14
HETATM   14  S   UNL     1      -8.335   5.995  70.976  1.00  0.00    -0.124 SA 
BRANCH  14  15
HETATM   15  C   UNL     1      -6.689   6.609  71.079  1.00  0.00    -0.054 C  
HETATM   16  O   UNL     1      -5.729   5.940  70.717  1.00  0.00    -0.016 OA 
BRANCH  15  17
HETATM   17  C   UNL     1      -6.530   8.000  71.595  1.00  0.00    -0.043 A  
HETATM   18  C   UNL     1      -5.279   8.633  71.674  1.00  0.00    -0.036 A  
HETATM   19  C   UNL     1      -5.175   9.932  72.175  1.00  0.00    -0.025 A  
HETATM   20  C   UNL     1      -6.316  10.612  72.591  1.00  0.00     2.546 A  
HETATM   21  C   UNL     1      -7.675   8.697  72.005  1.00  0.00    -0.096 A  
HETATM   22  C   UNL     1      -7.565   9.997  72.506  1.00  0.00     3.658 A  
ENDBRANCH  15  17
ENDBRANCH  14  15
ENDBRANCH   3  14
BRANCH  10  23
HETATM   23  S   UNL     1     -11.180  12.198  68.701  1.00  0.00    -0.293 SA 
BRANCH  23  24
HETATM   24  C   UNL     1     -10.480  13.356  67.536  1.00  0.00    -0.236 A  
HETATM   25  C   UNL     1      -9.410  14.201  67.844  1.00  0.00    -0.204 A  
HETATM   26  C   UNL     1      -9.425  15.088  65.592  1.00  0.00    -0.179 A  
HETATM   27  C   UNL     1      -8.891  15.070  66.879  1.00  0.00    -0.285 A  
HETATM   28  C   UNL     1     -10.477  14.235  65.267  1.00  0.00    -0.408 A  
HETATM   29  C   UNL     1     -10.998  13.371  66.233  1.00  0.00    -0.296 A  
ENDBRANCH  23  24
ENDBRANCH  10  23
TORSDOF 5
ENDMDL
MODEL      266
REMARK 921   NORMALIZED FREE ENERGY PREDICTED BY IDOCK:    5.92 KCAL/MOL
REMARK 922        TOTAL FREE ENERGY PREDICTED BY IDOCK:    6.49 KCAL/MOL
REMARK 923 INTER-LIGAND FREE ENERGY PREDICTED BY IDOCK:    7.05 KCAL/MOL
REMARK 924 INTRA-LIGAND FREE ENERGY PREDICTED BY IDOCK:   -0.56 KCAL/MOL
REMARK 927      BINDING AFFINITY PREDICTED BY RF-SCORE:    0.00 PKD
ROOT
HETATM    1  C   UNL     1      -6.615  14.901  70.859  1.00  0.00     0.373 C  
HETATM    2  C   UNL     1      -7.433  15.343  69.640  1.00  0.00    -0.170 C  
HETATM    3  C   UNL     1      -7.845  16.822  69.682  1.00  0.00     0.512 C  
HETATM    4  C   UNL     1      -8.711  14.519  69.558  1.00  0.00     0.331 C  
HETATM    5  O   UNL     1      -9.332  14.197  70.571  1.00  0.00     2.130 OA 
HETATM    6  C   UNL     1     -10.615  12.036  68.635  1.00  0.00    -0.229 C  
HETATM    7  N   UNL     1      -9.164  14.110  68.323  1.00  0.00    -0.194 N  
HETATM    8  C   UNL     1      -8.567  14.375  67.022  1.00  0.00    -0.203 C  
HETATM    9  C   UNL     1     -10.498  13.495  68.170  1.00  0.00    -0.244 C  
HETATM   10  C   UNL     1      -9.755  14.493  66.067  1.00  0.00    -0.303 C  
HETATM   11  C   UNL     1     -10.792  13.542  66.661  1.00  0.00    -0.283 C  
HETATM   12  O   UNL     1      -9.487  11.509  69.162  1.00  0.00     0.010 OA 
HETATM   13  O   UNL     1     -11.637  11.369  68.508  1.00  0.00    -0.271 OA 
ENDROOT
BRANCH   3  14
HETATM   14  S   UNL     1      -6.388  17.899  69.757  1.00  0.00    -0.036 SA 
BRANCH  14  15
HETATM   15  C   UNL     1      -7.103  19.464  69.387  1.00  0.00    -0.274 C  
HETATM   16  O   UNL     1      -7.742  20.093  70.222  1.00  0.00     0.429 OA 
BRANCH  15  17
HETATM   17  C   UNL     1      -6.857  20.000  68.016  1.00  0.00    -0.314 A  
HETATM   18  C   UNL     1      -5.721  20.763  67.701  1.00  0.00    -0.301 A  
HETATM   19  C   UNL     1      -5.537  21.254  66.408  1.00  0.00    -0.312 A  
HETATM   20  C   UNL     1      -6.477  20.982  65.418  1.00  0.00    -0.125 A  
HETATM   21  C   UNL     1      -7.792  19.719  67.010  1.00  0.00    -0.316 A  
HETATM   22  C   UNL     1      -7.603  20.214  65.717  1.00  0.00    -0.240 A  
ENDBRANCH  15  17
ENDBRANCH  14  15
ENDBRANCH   3  14
BRANCH  10  23
HETATM   23  S   UNL     1      -9.227  14.077  64.365  1.00  0.00     4.088 SA 
BRANCH  23  24
HETATM   24  C   UNL     1      -9.767  12.386  64.171  1.00  0.00     0.001 A  
HETATM   25  C   UNL     1     -10.704  11.985  63.215  1.00  0.00    -0.400 A  
HETATM   26  C   UNL     1     -10.483   9.681  63.922  1.00  0.00     2.639 A  
HETATM   27  C   UNL     1     -11.068  10.640  63.097  1.00  0.00     1.195 A  
HETATM   28  C   UNL     1      -9.533  10.065  64.864  1.00  0.00    -0.355 A  
HETATM   29  C   UNL     1      -9.174  11.410  64.984  1.00  0.00    -0.093 A  
ENDBRANCH  23  24
ENDBRANCH  10  23
TORSDOF 5
ENDMDL
MODEL      267
REMARK 921   NORMALIZED FREE ENERGY PREDICTED BY IDOCK:    6.70 KCAL/MOL
REMARK 922        TOTAL FREE ENERGY PREDICTED BY IDOCK:    7.49 KCAL/MOL
REMARK 923 INTER-LIGAND FREE ENERGY PREDICTED BY IDOCK:    6.62 KCAL/MOL
REMARK 924 INTRA-LIGAND FREE ENERGY PREDICTED BY IDOCK:    0.87 KCAL/MOL
REMARK 927      BINDING AFFINITY PREDICTED BY RF-SCORE:    0.00 PKD
ROOT
HETATM    1  C   UNL     1      -7.926   2.265  63.027  1.00  0.00    -0.068 C  
HETATM    2  C   UNL     1      -7.868   3.144  64.282  1.00  0.00    -0.081 C  
HETATM    3  C   UNL     1      -7.065   2.519  65.432  1.00  0.00    -0.057 C  
HETATM    4  C   UNL     1      -9.280   3.392  64.797  1.00  0.00    -0.142 C  
HETATM    5  O   UNL     1     -10.138   2.510  64.762  1.00  0.00     0.106 OA 
HETATM    6  C   UNL     1     -12.124   4.962  65.092  1.00  0.00     2.963 C  
HETATM    7  N   UNL     1      -9.603   4.636  65.291  1.00  0.00    -0.166 N  
HETATM    8  C   UNL     1      -8.738   5.803  65.402  1.00  0.00    -0.119 C  
HETATM    9  C   UNL     1     -10.882   4.867  65.991  1.00  0.00    -0.076 C  
HETATM   10  C   UNL     1      -9.213   6.519  66.666  1.00  0.00    -0.153 C  
HETATM   11  C   UNL     1     -10.709   6.214  66.714  1.00  0.00    -0.371 C  
HETATM   12  O   UNL     1     -11.892   4.786  63.772  1.00  0.00     1.251 OA 
HETATM   13  O   UNL     1     -13.245   5.220  65.518  1.00  0.00     5.234 OA 
ENDROOT
BRANCH   3  14
HETATM   14  S   UNL     1      -5.352   2.203  64.930  1.00  0.00    -0.009 SA 
BRANCH  14  15
HETATM   15  C   UNL     1      -5.265   3.114  63.426  1.00  0.00    -0.008 C  
HETATM   16  O   UNL     1      -5.271   2.556  62.335  1.00  0.00    -0.003 OA 
BRANCH  15  17
HETATM   17  C   UNL     1      -5.225   4.601  63.550  1.00  0.00    -0.009 A  
HETATM   18  C   UNL     1      -5.234   5.448  62.431  1.00  0.00    -0.013 A  
HETATM   19  C   UNL     1      -5.182   6.834  62.593  1.00  0.00    -0.031 A  
HETATM   20  C   UNL     1      -5.131   7.384  63.871  1.00  0.00    -0.029 A  
HETATM   21  C   UNL     1      -5.186   5.164  64.833  1.00  0.00    -0.009 A  
HETATM   22  C   UNL     1      -5.134   6.551  64.991  1.00  0.00    -0.018 A  
ENDBRANCH  15  17
ENDBRANCH  14  15
ENDBRANCH   3  14
BRANCH  10  23
HETATM   23  S   UNL     1      -8.803   8.300  66.563  1.00  0.00    -0.159 SA 
BRANCH  23  24
HETATM   24  C   UNL     1      -9.489   8.965  68.071  1.00  0.00    -0.143 A  
HETATM   25  C   UNL     1     -10.491   9.940  68.092  1.00  0.00    -0.256 A  
HETATM   26  C   UNL     1     -10.533   9.885  70.511  1.00  0.00    -0.330 A  
HETATM   27  C   UNL     1     -11.004  10.404  69.307  1.00  0.00    -0.287 A  
HETATM   28  C   UNL     1      -9.550   8.898  70.502  1.00  0.00    -0.242 A  
HETATM   29  C   UNL     1      -9.035   8.439  69.288  1.00  0.00    -0.150 A  
ENDBRANCH  23  24
ENDBRANCH  10  23
TORSDOF 5
ENDMDL
MODEL      268
REMARK 921   NORMALIZED FREE ENERGY PREDICTED BY IDOCK:    7.08 KCAL/MOL
REMARK 922        TOTAL FREE ENERGY PREDICTED BY IDOCK:    7.98 KCAL/MOL
REMARK 923 INTER-LIGAND FREE ENERGY PREDICTED BY IDOCK:    7.78 KCAL/MOL
REMARK 924 INTRA-LIGAND FREE ENERGY PREDICTED BY IDOCK:    0.20 KCAL/MOL
REMARK 927      BINDING AFFINITY PREDICTED BY RF-SCORE:    0.00 PKD
ROOT
HETATM    1  C   UNL     1     -10.750   7.654  69.241  1.00  0.00    -0.169 C  
HETATM    2  C   UNL     1     -10.623   8.795  68.226  1.00  0.00    -0.194 C  
HETATM    3  C   UNL     1     -11.971   9.266  67.662  1.00  0.00     3.683 C  
HETATM    4  C   UNL     1      -9.773   8.337  67.048  1.00  0.00    -0.211 C  
HETATM    5  O   UNL     1      -9.857   7.192  66.605  1.00  0.00    -0.194 OA 
HETATM    6  C   UNL     1      -7.039   7.891  65.327  1.00  0.00    -0.060 C  
HETATM    7  N   UNL     1      -8.880   9.222  66.484  1.00  0.00    -0.130 N  
HETATM    8  C   UNL     1      -8.628  10.602  66.872  1.00  0.00    -0.126 C  
HETATM    9  C   UNL     1      -8.191   8.901  65.219  1.00  0.00    -0.137 C  
HETATM   10  C   UNL     1      -8.293  11.318  65.563  1.00  0.00     0.140 C  
HETATM   11  C   UNL     1      -7.611  10.237  64.725  1.00  0.00    -0.109 C  
HETATM   12  O   UNL     1      -6.825   7.394  66.565  1.00  0.00    -0.059 OA 
HETATM   13  O   UNL     1      -6.327   7.577  64.378  1.00  0.00    -0.043 OA 
ENDROOT
BRANCH   3  14
HETATM   14  S   UNL     1     -13.058   9.859  68.987  1.00  0.00     4.416 SA 
BRANCH  14  15
HETATM   15  C   UNL     1     -11.991  10.981  69.825  1.00  0.00    -0.356 C  
HETATM   16  O   UNL     1     -10.775  10.832  69.828  1.00  0.00    -0.245 OA 
BRANCH  15  17
HETATM   17  C   UNL     1     -12.644  12.143  70.496  1.00  0.00    -0.184 A  
HETATM   18  C   UNL     1     -13.170  12.061  71.795  1.00  0.00    -0.421 A  
HETATM   19  C   UNL     1     -13.784  13.170  72.380  1.00  0.00    -0.640 A  
HETATM   20  C   UNL     1     -13.869  14.370  71.679  1.00  0.00    -0.492 A  
HETATM   21  C   UNL     1     -12.723  13.359  69.802  1.00  0.00     0.210 A  
HETATM   22  C   UNL     1     -13.339  14.466  70.392  1.00  0.00     0.161 A  
ENDBRANCH  15  17
ENDBRANCH  14  15
ENDBRANCH   3  14
BRANCH  10  23
HETATM   23  S   UNL     1      -7.254  12.784  65.905  1.00  0.00     3.854 SA 
BRANCH  23  24
HETATM   24  C   UNL     1      -8.361  13.876  66.783  1.00  0.00     0.109 A  
HETATM   25  C   UNL     1      -8.790  15.104  66.272  1.00  0.00    -0.211 A  
HETATM   26  C   UNL     1     -10.159  15.474  68.234  1.00  0.00    -0.218 A  
HETATM   27  C   UNL     1      -9.678  15.904  66.998  1.00  0.00    -0.235 A  
HETATM   28  C   UNL     1      -9.755  14.242  68.743  1.00  0.00    -0.173 A  
HETATM   29  C   UNL     1      -8.864  13.446  68.019  1.00  0.00    -0.183 A  
ENDBRANCH  23  24
ENDBRANCH  10  23
TORSDOF 5
ENDMDL
MODEL      269
REMARK 921   NORMALIZED FREE ENERGY PREDICTED BY IDOCK:    8.22 KCAL/MOL
REMARK 922        TOTAL FREE ENERGY PREDICTED BY IDOCK:    9.45 KCAL/MOL
REMARK 923 INTER-LIGAND FREE ENERGY PREDICTED BY IDOCK:    9.75 KCAL/MOL
REMARK 924 INTRA-LIGAND FREE ENERGY PREDICTED BY IDOCK:   -0.30 KCAL/MOL
REMARK 927      BINDING AFFINITY PREDICTED BY RF-SCORE:    0.00 PKD
ROOT
HETATM    1  C   UNL     1     -12.082   8.886  68.736  1.00  0.00     2.515 C  
HETATM    2  C   UNL     1     -10.829   8.032  68.509  1.00  0.00     0.042 C  
HETATM    3  C   UNL     1     -11.138   6.607  68.027  1.00  0.00    -0.205 C  
HETATM    4  C   UNL     1     -10.051   7.911  69.813  1.00  0.00    -0.199 C  
HETATM    5  O   UNL     1     -10.629   7.795  70.894  1.00  0.00    -0.210 OA 
HETATM    6  C   UNL     1      -7.826   8.723  72.055  1.00  0.00     0.023 C  
HETATM    7  N   UNL     1      -8.675   7.954  69.777  1.00  0.00    -0.137 N  
HETATM    8  C   UNL     1      -7.818   8.099  68.608  1.00  0.00    -0.114 C  
HETATM    9  C   UNL     1      -7.874   7.632  70.974  1.00  0.00    -0.090 C  
HETATM   10  C   UNL     1      -6.571   7.279  68.938  1.00  0.00    -0.048 C  
HETATM   11  C   UNL     1      -6.444   7.408  70.455  1.00  0.00    -0.039 C  
HETATM   12  O   UNL     1      -8.555   9.829  71.787  1.00  0.00     0.602 OA 
HETATM   13  O   UNL     1      -7.147   8.632  73.073  1.00  0.00    -0.297 OA 
ENDROOT
BRANCH   3  14
HETATM   14  S   UNL     1     -12.047   6.636  66.458  1.00  0.00     5.030 SA 
BRANCH  14  15
HETATM   15  C   UNL     1     -11.002   5.650  65.441  1.00  0.00     1.525 C  
HETATM   16  O   UNL     1     -11.269   5.430  64.267  1.00  0.00     2.310 OA 
BRANCH  15  17
HETATM   17  C   UNL     1      -9.755   5.131  66.076  1.00  0.00    -0.182 A  
HETATM   18  C   UNL     1      -9.757   4.025  66.940  1.00  0.00    -0.215 A  
HETATM   19  C   UNL     1      -8.568   3.580  67.522  1.00  0.00    -0.114 A  
HETATM   20  C   UNL     1      -7.369   4.229  67.240  1.00  0.00    -0.069 A  
HETATM   21  C   UNL     1      -8.541   5.770  65.788  1.00  0.00    -0.149 A  
HETATM   22  C   UNL     1      -7.354   5.322  66.374  1.00  0.00    -0.082 A  
ENDBRANCH  15  17
ENDBRANCH  14  15
ENDBRANCH   3  14
BRANCH  10  23
HETATM   23  S   UNL     1      -5.139   7.921  67.997  1.00  0.00    -0.032 SA 
BRANCH  23  24
HETATM   24  C   UNL     1      -5.693   9.529  67.454  1.00  0.00    -0.041 A  
HETATM   25  C   UNL     1      -6.599   9.713  66.406  1.00  0.00    -0.071 A  
HETATM   26  C   UNL     1      -6.539  12.109  66.737  1.00  0.00     0.114 A  
HETATM   27  C   UNL     1      -7.014  10.998  66.043  1.00  0.00    -0.014 A  
HETATM   28  C   UNL     1      -5.653  11.937  67.797  1.00  0.00    -0.063 A  
HETATM   29  C   UNL     1      -5.236  10.653  68.155  1.00  0.00    -0.037 A  
ENDBRANCH  23  24
ENDBRANCH  10  23
TORSDOF 5
ENDMDL
MODEL      270
REMARK 921   NORMALIZED FREE ENERGY PREDICTED BY IDOCK:    8.99 KCAL/MOL
REMARK 922        TOTAL FREE ENERGY PREDICTED BY IDOCK:   10.45 KCAL/MOL
REMARK 923 INTER-LIGAND FREE ENERGY PREDICTED BY IDOCK:    6.07 KCAL/MOL
REMARK 924 INTRA-LIGAND FREE ENERGY PREDICTED BY IDOCK:    4.38 KCAL/MOL
REMARK 927      BINDING AFFINITY PREDICTED BY RF-SCORE:    0.00 PKD
ROOT
HETATM    1  C   UNL     1      -7.944  17.660  68.393  1.00  0.00    -0.270 C  
HETATM    2  C   UNL     1      -8.546  16.436  67.692  1.00  0.00    -0.181 C  
HETATM    3  C   UNL     1     -10.076  16.487  67.578  1.00  0.00    -0.267 C  
HETATM    4  C   UNL     1      -8.190  15.177  68.470  1.00  0.00    -0.148 C  
HETATM    5  O   UNL     1      -8.167  15.170  69.701  1.00  0.00    -0.210 OA 
HETATM    6  C   UNL     1      -6.424  12.554  69.271  1.00  0.00    -0.104 C  
HETATM    7  N   UNL     1      -7.869  14.031  67.777  1.00  0.00    -0.154 N  
HETATM    8  C   UNL     1      -7.827  13.845  66.333  1.00  0.00     1.448 C  
HETATM    9  C   UNL     1      -7.724  12.737  68.474  1.00  0.00    -0.113 C  
HETATM   10  C   UNL     1      -8.266  12.397  66.115  1.00  0.00     0.598 C  
HETATM   11  C   UNL     1      -7.759  11.674  67.362  1.00  0.00    -0.147 C  
HETATM   12  O   UNL     1      -5.590  13.618  69.263  1.00  0.00    -0.078 OA 
HETATM   13  O   UNL     1      -6.128  11.510  69.844  1.00  0.00    -0.110 OA 
ENDROOT
BRANCH   3  14
HETATM   14  S   UNL     1     -10.609  17.945  66.642  1.00  0.00    -0.165 SA 
BRANCH  14  15
HETATM   15  C   UNL     1     -11.585  17.201  65.379  1.00  0.00     1.392 C  
HETATM   16  O   UNL     1     -12.208  17.873  64.567  1.00  0.00     3.554 OA 
BRANCH  15  17
HETATM   17  C   UNL     1     -11.580  15.709  65.328  1.00  0.00     0.081 A  
HETATM   18  C   UNL     1     -12.759  14.959  65.194  1.00  0.00     0.169 A  
HETATM   19  C   UNL     1     -12.710  13.564  65.164  1.00  0.00    -0.453 A  
HETATM   20  C   UNL     1     -11.485  12.909  65.256  1.00  0.00    -0.348 A  
HETATM   21  C   UNL     1     -10.350  15.041  65.408  1.00  0.00    -0.410 A  
HETATM   22  C   UNL     1     -10.306  13.645  65.378  1.00  0.00    -0.345 A  
ENDBRANCH  15  17
ENDBRANCH  14  15
ENDBRANCH   3  14
BRANCH  10  23
HETATM   23  S   UNL     1      -7.579  11.769  64.540  1.00  0.00     3.056 SA 
BRANCH  23  24
HETATM   24  C   UNL     1      -7.820  10.004  64.663  1.00  0.00    -0.145 A  
HETATM   25  C   UNL     1      -8.303   9.376  65.815  1.00  0.00    -0.126 A  
HETATM   26  C   UNL     1      -8.220   7.224  64.709  1.00  0.00    -0.055 A  
HETATM   27  C   UNL     1      -8.493   7.990  65.841  1.00  0.00    -0.154 A  
HETATM   28  C   UNL     1      -7.759   7.842  63.549  1.00  0.00    -0.136 A  
HETATM   29  C   UNL     1      -7.565   9.225  63.526  1.00  0.00    -0.107 A  
ENDBRANCH  23  24
ENDBRANCH  10  23
TORSDOF 5
ENDMDL
MODEL      271
REMARK 921   NORMALIZED FREE ENERGY PREDICTED BY IDOCK:   11.11 KCAL/MOL
REMARK 922        TOTAL FREE ENERGY PREDICTED BY IDOCK:   13.19 KCAL/MOL
REMARK 923 INTER-LIGAND FREE ENERGY PREDICTED BY IDOCK:   12.20 KCAL/MOL
REMARK 924 INTRA-LIGAND FREE ENERGY PREDICTED BY IDOCK:    0.99 KCAL/MOL
REMARK 927      BINDING AFFINITY PREDICTED BY RF-SCORE:    0.00 PKD
ROOT
HETATM    1  C   UNL     1      -7.725   3.599  62.784  1.00  0.00    -0.059 C  
HETATM    2  C   UNL     1      -7.840   4.091  64.231  1.00  0.00    -0.085 C  
HETATM    3  C   UNL     1      -7.009   3.268  65.226  1.00  0.00    -0.053 C  
HETATM    4  C   UNL     1      -9.293   4.015  64.682  1.00  0.00    -0.161 C  
HETATM    5  O   UNL     1     -10.021   3.083  64.341  1.00  0.00    -0.151 OA 
HETATM    6  C   UNL     1     -12.333   5.091  65.170  1.00  0.00     4.095 C  
HETATM    7  N   UNL     1      -9.802   5.024  65.470  1.00  0.00    -0.090 N  
HETATM    8  C   UNL     1      -9.109   6.207  65.962  1.00  0.00    -0.121 C  
HETATM    9  C   UNL     1     -11.129   4.896  66.103  1.00  0.00     0.374 C  
HETATM   10  C   UNL     1      -9.730   6.478  67.332  1.00  0.00    -0.126 C  
HETATM   11  C   UNL     1     -11.171   5.996  67.177  1.00  0.00    -0.089 C  
HETATM   12  O   UNL     1     -12.024   5.321  63.874  1.00  0.00     2.874 OA 
HETATM   13  O   UNL     1     -13.496   5.085  65.561  1.00  0.00     6.735 OA 
ENDROOT
BRANCH   3  14
HETATM   14  S   UNL     1      -5.249   3.311  64.793  1.00  0.00    -0.009 SA 
BRANCH  14  15
HETATM   15  C   UNL     1      -5.244   4.519  63.512  1.00  0.00    -0.009 C  
HETATM   16  O   UNL     1      -5.180   4.204  62.331  1.00  0.00    -0.005 OA 
BRANCH  15  17
HETATM   17  C   UNL     1      -5.360   5.944  63.942  1.00  0.00    -0.017 A  
HETATM   18  C   UNL     1      -5.507   6.312  65.289  1.00  0.00    -0.017 A  
HETATM   19  C   UNL     1      -5.625   7.656  65.646  1.00  0.00    -0.033 A  
HETATM   20  C   UNL     1      -5.587   8.643  64.664  1.00  0.00    -0.058 A  
HETATM   21  C   UNL     1      -5.310   6.945  62.963  1.00  0.00    -0.032 A  
HETATM   22  C   UNL     1      -5.429   8.289  63.324  1.00  0.00    -0.063 A  
ENDBRANCH  15  17
ENDBRANCH  14  15
ENDBRANCH   3  14
BRANCH  10  23
HETATM   23  S   UNL     1      -9.561   8.251  67.750  1.00  0.00    -0.154 SA 
BRANCH  23  24
HETATM   24  C   UNL     1      -8.283   8.258  68.997  1.00  0.00    -0.119 A  
HETATM   25  C   UNL     1      -8.326   9.072  70.133  1.00  0.00    -0.156 A  
HETATM   26  C   UNL     1      -6.241   8.128  70.922  1.00  0.00    -0.033 A  
HETATM   27  C   UNL     1      -7.304   9.014  71.087  1.00  0.00    -0.115 A  
HETATM   28  C   UNL     1      -6.199   7.298  69.805  1.00  0.00    -0.031 A  
HETATM   29  C   UNL     1      -7.217   7.360  68.851  1.00  0.00    -0.089 A  
ENDBRANCH  23  24
ENDBRANCH  10  23
TORSDOF 5
ENDMDL
MODEL      272
REMARK 921   NORMALIZED FREE ENERGY PREDICTED BY IDOCK:   11.78 KCAL/MOL
REMARK 922        TOTAL FREE ENERGY PREDICTED BY IDOCK:   14.05 KCAL/MOL
REMARK 923 INTER-LIGAND FREE ENERGY PREDICTED BY IDOCK:    3.46 KCAL/MOL
REMARK 924 INTRA-LIGAND FREE ENERGY PREDICTED BY IDOCK:   10.59 KCAL/MOL
REMARK 927      BINDING AFFINITY PREDICTED BY RF-SCORE:    0.00 PKD
ROOT
HETATM    1  C   UNL     1      -8.441  12.583  69.407  1.00  0.00     1.142 C  
HETATM    2  C   UNL     1      -8.902  11.129  69.253  1.00  0.00     0.168 C  
HETATM    3  C   UNL     1     -10.409  10.938  69.484  1.00  0.00    -0.101 C  
HETATM    4  C   UNL     1      -8.174  10.253  70.264  1.00  0.00     0.383 C  
HETATM    5  O   UNL     1      -7.933  10.654  71.402  1.00  0.00     2.673 OA 
HETATM    6  C   UNL     1      -5.812   8.295  71.370  1.00  0.00    -0.035 C  
HETATM    7  N   UNL     1      -7.760   8.996  69.882  1.00  0.00    -0.070 N  
HETATM    8  C   UNL     1      -7.937   8.354  68.587  1.00  0.00    -0.121 C  
HETATM    9  C   UNL     1      -7.242   8.034  70.875  1.00  0.00    -0.053 C  
HETATM   10  C   UNL     1      -8.113   6.870  68.911  1.00  0.00    -0.120 C  
HETATM   11  C   UNL     1      -7.261   6.671  70.164  1.00  0.00    -0.080 C  
HETATM   12  O   UNL     1      -5.219   9.397  70.860  1.00  0.00    -0.028 OA 
HETATM   13  O   UNL     1      -5.219   7.546  72.140  1.00  0.00    -0.035 OA 
ENDROOT
BRANCH   3  14
HETATM   14  S   UNL     1     -11.375  11.925  68.310  1.00  0.00    -0.304 SA 
BRANCH  14  15
HETATM   15  C   UNL     1     -10.995  11.116  66.792  1.00  0.00    -0.249 C  
HETATM   16  O   UNL     1     -11.873  10.744  66.024  1.00  0.00     0.607 OA 
BRANCH  15  17
HETATM   17  C   UNL     1      -9.547  10.944  66.476  1.00  0.00    -0.224 A  
HETATM   18  C   UNL     1      -9.041  11.079  65.173  1.00  0.00    -0.199 A  
HETATM   19  C   UNL     1      -7.681  10.898  64.920  1.00  0.00     0.303 A  
HETATM   20  C   UNL     1      -6.813  10.589  65.965  1.00  0.00    -0.134 A  
HETATM   21  C   UNL     1      -8.664  10.647  67.524  1.00  0.00    -0.125 A  
HETATM   22  C   UNL     1      -7.302  10.465  67.266  1.00  0.00    -0.090 A  
ENDBRANCH  15  17
ENDBRANCH  14  15
ENDBRANCH   3  14
BRANCH  10  23
HETATM   23  S   UNL     1      -7.603   5.857  67.476  1.00  0.00    -0.094 SA 
BRANCH  23  24
HETATM   24  C   UNL     1      -8.370   4.276  67.798  1.00  0.00    -0.098 A  
HETATM   25  C   UNL     1      -9.471   3.799  67.082  1.00  0.00    -0.234 A  
HETATM   26  C   UNL     1      -9.444   1.742  68.357  1.00  0.00    -0.239 A  
HETATM   27  C   UNL     1     -10.012   2.541  67.367  1.00  0.00     0.950 A  
HETATM   28  C   UNL     1      -8.333   2.198  69.062  1.00  0.00    -0.076 A  
HETATM   29  C   UNL     1      -7.797   3.456  68.781  1.00  0.00    -0.056 A  
ENDBRANCH  23  24
ENDBRANCH  10  23
TORSDOF 5
ENDMDL
MODEL      273
REMARK 921   NORMALIZED FREE ENERGY PREDICTED BY IDOCK:   12.22 KCAL/MOL
REMARK 922        TOTAL FREE ENERGY PREDICTED BY IDOCK:   14.62 KCAL/MOL
REMARK 923 INTER-LIGAND FREE ENERGY PREDICTED BY IDOCK:   14.95 KCAL/MOL
REMARK 924 INTRA-LIGAND FREE ENERGY PREDICTED BY IDOCK:   -0.33 KCAL/MOL
REMARK 927      BINDING AFFINITY PREDICTED BY RF-SCORE:    0.00 PKD
ROOT
HETATM    1  C   UNL     1      -7.635   4.351  63.081  1.00  0.00    -0.058 C  
HETATM    2  C   UNL     1      -7.881   4.746  64.542  1.00  0.00    -0.089 C  
HETATM    3  C   UNL     1      -7.021   3.960  65.542  1.00  0.00    -0.061 C  
HETATM    4  C   UNL     1      -9.339   4.496  64.900  1.00  0.00    -0.149 C  
HETATM    5  O   UNL     1      -9.944   3.514  64.470  1.00  0.00    -0.171 OA 
HETATM    6  C   UNL     1     -12.499   5.222  65.259  1.00  0.00     4.771 C  
HETATM    7  N   UNL     1      -9.995   5.401  65.705  1.00  0.00    -0.016 N  
HETATM    8  C   UNL     1      -9.459   6.620  66.296  1.00  0.00    -0.074 C  
HETATM    9  C   UNL     1     -11.333   5.101  66.252  1.00  0.00     0.848 C  
HETATM   10  C   UNL     1     -10.179   6.749  67.639  1.00  0.00    -0.179 C  
HETATM   11  C   UNL     1     -11.550   6.129  67.374  1.00  0.00     0.785 C  
HETATM   12  O   UNL     1     -12.146   5.555  63.997  1.00  0.00     4.012 OA 
HETATM   13  O   UNL     1     -13.673   5.073  65.580  1.00  0.00     7.568 OA 
ENDROOT
BRANCH   3  14
HETATM   14  S   UNL     1      -5.255   4.209  65.217  1.00  0.00    -0.009 SA 
BRANCH  14  15
HETATM   15  C   UNL     1      -5.226   5.918  64.794  1.00  0.00    -0.013 C  
HETATM   16  O   UNL     1      -5.141   6.291  63.631  1.00  0.00    -0.016 OA 
BRANCH  15  17
HETATM   17  C   UNL     1      -5.349   6.885  65.924  1.00  0.00    -0.023 A  
HETATM   18  C   UNL     1      -5.525   6.468  67.253  1.00  0.00    -0.012 A  
HETATM   19  C   UNL     1      -5.648   7.407  68.279  1.00  0.00    -0.026 A  
HETATM   20  C   UNL     1      -5.586   8.767  67.988  1.00  0.00    -0.035 A  
HETATM   21  C   UNL     1      -5.274   8.256  65.644  1.00  0.00    -0.031 A  
HETATM   22  C   UNL     1      -5.399   9.193  66.673  1.00  0.00    -0.038 A  
ENDBRANCH  15  17
ENDBRANCH  14  15
ENDBRANCH   3  14
BRANCH  10  23
HETATM   23  S   UNL     1     -10.223   8.504  68.154  1.00  0.00    -0.207 SA 
BRANCH  23  24
HETATM   24  C   UNL     1     -11.036   8.443  69.743  1.00  0.00    -0.056 A  
HETATM   25  C   UNL     1     -11.613   9.562  70.351  1.00  0.00    -0.268 A  
HETATM   26  C   UNL     1     -12.346   8.205  72.216  1.00  0.00    -0.371 A  
HETATM   27  C   UNL     1     -12.258   9.445  71.586  1.00  0.00    -0.467 A  
HETATM   28  C   UNL     1     -11.793   7.080  71.610  1.00  0.00    -0.348 A  
HETATM   29  C   UNL     1     -11.146   7.198  70.378  1.00  0.00    -0.309 A  
ENDBRANCH  23  24
ENDBRANCH  10  23
TORSDOF 5
ENDMDL
MODEL      274
REMARK 921   NORMALIZED FREE ENERGY PREDICTED BY IDOCK:   15.28 KCAL/MOL
REMARK 922        TOTAL FREE ENERGY PREDICTED BY IDOCK:   18.58 KCAL/MOL
REMARK 923 INTER-LIGAND FREE ENERGY PREDICTED BY IDOCK:   19.43 KCAL/MOL
REMARK 924 INTRA-LIGAND FREE ENERGY PREDICTED BY IDOCK:   -0.85 KCAL/MOL
REMARK 927      BINDING AFFINITY PREDICTED BY RF-SCORE:    0.00 PKD
ROOT
HETATM    1  C   UNL     1      -7.886   4.434  63.183  1.00  0.00    -0.071 C  
HETATM    2  C   UNL     1      -8.148   4.791  64.651  1.00  0.00    -0.107 C  
HETATM    3  C   UNL     1      -7.352   3.929  65.642  1.00  0.00    -0.073 C  
HETATM    4  C   UNL     1      -9.625   4.599  64.967  1.00  0.00    -0.102 C  
HETATM    5  O   UNL     1     -10.266   3.664  64.489  1.00  0.00    -0.196 OA 
HETATM    6  C   UNL     1     -12.754   5.466  65.280  1.00  0.00     5.894 C  
HETATM    7  N   UNL     1     -10.256   5.507  65.789  1.00  0.00     0.092 N  
HETATM    8  C   UNL     1      -9.677   6.677  66.435  1.00  0.00    -0.070 C  
HETATM    9  C   UNL     1     -11.620   5.253  66.294  1.00  0.00     1.526 C  
HETATM   10  C   UNL     1     -10.422   6.794  67.765  1.00  0.00    -0.222 C  
HETATM   11  C   UNL     1     -11.815   6.252  67.448  1.00  0.00     1.676 C  
HETATM   12  O   UNL     1     -12.355   5.824  64.040  1.00  0.00     5.483 OA 
HETATM   13  O   UNL     1     -13.942   5.364  65.569  1.00  0.00     7.228 OA 
ENDROOT
BRANCH   3  14
HETATM   14  S   UNL     1      -5.569   4.103  65.366  1.00  0.00    -0.018 SA 
BRANCH  14  15
HETATM   15  C   UNL     1      -5.317   5.785  65.822  1.00  0.00    -0.009 C  
HETATM   16  O   UNL     1      -5.156   6.118  66.989  1.00  0.00    -0.004 OA 
BRANCH  15  17
HETATM   17  C   UNL     1      -5.272   6.776  64.707  1.00  0.00    -0.027 A  
HETATM   18  C   UNL     1      -5.275   6.388  63.357  1.00  0.00    -0.018 A  
HETATM   19  C   UNL     1      -5.219   7.348  62.346  1.00  0.00    -0.041 A  
HETATM   20  C   UNL     1      -5.169   8.701  62.671  1.00  0.00    -0.070 A  
HETATM   21  C   UNL     1      -5.235   8.141  65.025  1.00  0.00    -0.032 A  
HETATM   22  C   UNL     1      -5.178   9.098  64.008  1.00  0.00    -0.059 A  
ENDBRANCH  15  17
ENDBRANCH  14  15
ENDBRANCH   3  14
BRANCH  10  23
HETATM   23  S   UNL     1     -10.395   8.530  68.342  1.00  0.00    -0.177 SA 
BRANCH  23  24
HETATM   24  C   UNL     1      -9.749   8.400  70.002  1.00  0.00    -0.176 A  
HETATM   25  C   UNL     1      -8.591   9.059  70.426  1.00  0.00    -0.215 A  
HETATM   26  C   UNL     1      -8.871   8.169  72.659  1.00  0.00    -0.285 A  
HETATM   27  C   UNL     1      -8.149   8.936  71.748  1.00  0.00    -0.045 A  
HETATM   28  C   UNL     1     -10.037   7.525  72.253  1.00  0.00    -0.244 A  
HETATM   29  C   UNL     1     -10.475   7.645  70.932  1.00  0.00    -0.210 A  
ENDBRANCH  23  24
ENDBRANCH  10  23
TORSDOF 5
ENDMDL
MODEL      275
REMARK 921   NORMALIZED FREE ENERGY PREDICTED BY IDOCK:   15.62 KCAL/MOL
REMARK 922        TOTAL FREE ENERGY PREDICTED BY IDOCK:   19.01 KCAL/MOL
REMARK 923 INTER-LIGAND FREE ENERGY PREDICTED BY IDOCK:   19.70 KCAL/MOL
REMARK 924 INTRA-LIGAND FREE ENERGY PREDICTED BY IDOCK:   -0.69 KCAL/MOL
REMARK 927      BINDING AFFINITY PREDICTED BY RF-SCORE:    0.00 PKD
ROOT
HETATM    1  C   UNL     1      -7.813   4.403  63.140  1.00  0.00    -0.071 C  
HETATM    2  C   UNL     1      -8.125   4.699  64.612  1.00  0.00    -0.104 C  
HETATM    3  C   UNL     1      -7.335   3.821  65.594  1.00  0.00    -0.072 C  
HETATM    4  C   UNL     1      -9.605   4.459  64.878  1.00  0.00    -0.154 C  
HETATM    5  O   UNL     1     -10.207   3.526  64.348  1.00  0.00    -0.191 OA 
HETATM    6  C   UNL     1     -12.763   5.237  65.131  1.00  0.00     5.843 C  
HETATM    7  N   UNL     1     -10.281   5.320  65.713  1.00  0.00    -0.043 N  
HETATM    8  C   UNL     1      -9.752   6.480  66.417  1.00  0.00    -0.079 C  
HETATM    9  C   UNL     1     -11.652   5.015  66.169  1.00  0.00     1.723 C  
HETATM   10  C   UNL     1     -10.536   6.530  67.728  1.00  0.00    -0.259 C  
HETATM   11  C   UNL     1     -11.905   5.966  67.352  1.00  0.00     2.284 C  
HETATM   12  O   UNL     1     -12.339   5.650  63.916  1.00  0.00     4.934 OA 
HETATM   13  O   UNL     1     -13.955   5.094  65.381  1.00  0.00     7.282 OA 
ENDROOT
BRANCH   3  14
HETATM   14  S   UNL     1      -5.550   4.049  65.377  1.00  0.00    -0.018 SA 
BRANCH  14  15
HETATM   15  C   UNL     1      -5.347   5.703  65.945  1.00  0.00    -0.013 C  
HETATM   16  O   UNL     1      -5.237   5.965  67.136  1.00  0.00    -0.005 OA 
BRANCH  15  17
HETATM   17  C   UNL     1      -5.277   6.762  64.895  1.00  0.00    -0.026 A  
HETATM   18  C   UNL     1      -5.213   6.459  63.526  1.00  0.00    -0.018 A  
HETATM   19  C   UNL     1      -5.137   7.482  62.578  1.00  0.00    -0.041 A  
HETATM   20  C   UNL     1      -5.133   8.812  62.988  1.00  0.00    -0.067 A  
HETATM   21  C   UNL     1      -5.286   8.105  65.298  1.00  0.00    -0.032 A  
HETATM   22  C   UNL     1      -5.209   9.125  64.346  1.00  0.00    -0.054 A  
ENDBRANCH  15  17
ENDBRANCH  14  15
ENDBRANCH   3  14
BRANCH  10  23
HETATM   23  S   UNL     1     -10.570   8.244  68.367  1.00  0.00    -0.033 SA 
BRANCH  23  24
HETATM   24  C   UNL     1      -9.494   9.122  67.243  1.00  0.00    -0.148 A  
HETATM   25  C   UNL     1      -9.806   9.338  65.898  1.00  0.00    -0.335 A  
HETATM   26  C   UNL     1      -7.748  10.575  65.592  1.00  0.00    -0.139 A  
HETATM   27  C   UNL     1      -8.932  10.054  65.073  1.00  0.00    -0.234 A  
HETATM   28  C   UNL     1      -7.438  10.384  66.936  1.00  0.00    -0.107 A  
HETATM   29  C   UNL     1      -8.309   9.665  67.757  1.00  0.00    -0.121 A  
ENDBRANCH  23  24
ENDBRANCH  10  23
TORSDOF 5
ENDMDL
MODEL      276
REMARK 921   NORMALIZED FREE ENERGY PREDICTED BY IDOCK:   20.42 KCAL/MOL
REMARK 922        TOTAL FREE ENERGY PREDICTED BY IDOCK:   25.23 KCAL/MOL
REMARK 923 INTER-LIGAND FREE ENERGY PREDICTED BY IDOCK:   25.61 KCAL/MOL
REMARK 924 INTRA-LIGAND FREE ENERGY PREDICTED BY IDOCK:   -0.38 KCAL/MOL
REMARK 927      BINDING AFFINITY PREDICTED BY RF-SCORE:    0.00 PKD
ROOT
HETATM    1  C   UNL     1     -10.387  12.912  71.955  1.00  0.00    11.577 C  
HETATM    2  C   UNL     1     -10.319  12.535  70.470  1.00  0.00     3.776 C  
HETATM    3  C   UNL     1     -10.420  11.024  70.216  1.00  0.00     0.725 C  
HETATM    4  C   UNL     1      -8.994  13.006  69.886  1.00  0.00     2.936 C  
HETATM    5  O   UNL     1      -7.950  12.944  70.534  1.00  0.00     3.287 OA 
HETATM    6  C   UNL     1      -6.944  15.057  68.392  1.00  0.00    -0.109 C  
HETATM    7  N   UNL     1      -8.974  13.530  68.612  1.00  0.00    -0.071 N  
HETATM    8  C   UNL     1     -10.097  13.698  67.699  1.00  0.00    -0.242 C  
HETATM    9  C   UNL     1      -7.697  13.803  67.923  1.00  0.00    -0.161 C  
HETATM   10  C   UNL     1      -9.502  13.479  66.308  1.00  0.00    -0.184 C  
HETATM   11  C   UNL     1      -8.069  13.993  66.443  1.00  0.00     0.982 C  
HETATM   12  O   UNL     1      -7.530  15.734  69.404  1.00  0.00    -0.210 OA 
HETATM   13  O   UNL     1      -5.907  15.453  67.870  1.00  0.00    -0.130 OA 
ENDROOT
BRANCH   3  14
HETATM   14  S   UNL     1     -11.982  10.362  70.856  1.00  0.00    -0.390 SA 
BRANCH  14  15
HETATM   15  C   UNL     1     -11.638   8.635  70.872  1.00  0.00    -0.269 C  
HETATM   16  O   UNL     1     -12.450   7.814  70.465  1.00  0.00     0.077 OA 
BRANCH  15  17
HETATM   17  C   UNL     1     -10.290   8.231  71.370  1.00  0.00    -0.270 A  
HETATM   18  C   UNL     1      -9.549   9.026  72.258  1.00  0.00     0.123 A  
HETATM   19  C   UNL     1      -8.286   8.615  72.690  1.00  0.00    -0.053 A  
HETATM   20  C   UNL     1      -7.759   7.405  72.247  1.00  0.00    -0.098 A  
HETATM   21  C   UNL     1      -9.757   7.008  70.941  1.00  0.00    -0.176 A  
HETATM   22  C   UNL     1      -8.493   6.601  71.375  1.00  0.00    -0.124 A  
ENDBRANCH  15  17
ENDBRANCH  14  15
ENDBRANCH   3  14
BRANCH  10  23
HETATM   23  S   UNL     1     -10.510  14.355  65.057  1.00  0.00    -0.416 SA 
BRANCH  23  24
HETATM   24  C   UNL     1     -11.471  13.045  64.315  1.00  0.00    -0.381 A  
HETATM   25  C   UNL     1     -12.498  13.276  63.396  1.00  0.00    -0.281 A  
HETATM   26  C   UNL     1     -12.866  10.895  63.167  1.00  0.00     2.677 A  
HETATM   27  C   UNL     1     -13.199  12.206  62.831  1.00  0.00     0.874 A  
HETATM   28  C   UNL     1     -11.830  10.652  64.066  1.00  0.00     2.506 A  
HETATM   29  C   UNL     1     -11.134  11.722  64.633  1.00  0.00    -0.363 A  
ENDBRANCH  23  24
ENDBRANCH  10  23
TORSDOF 5
ENDMDL
MODEL      277
REMARK 921   NORMALIZED FREE ENERGY PREDICTED BY IDOCK:   21.58 KCAL/MOL
REMARK 922        TOTAL FREE ENERGY PREDICTED BY IDOCK:   26.72 KCAL/MOL
REMARK 923 INTER-LIGAND FREE ENERGY PREDICTED BY IDOCK:   22.21 KCAL/MOL
REMARK 924 INTRA-LIGAND FREE ENERGY PREDICTED BY IDOCK:    4.52 KCAL/MOL
REMARK 927      BINDING AFFINITY PREDICTED BY RF-SCORE:    0.00 PKD
ROOT
HETATM    1  C   UNL     1      -7.946  18.976  69.929  1.00  0.00     0.814 C  
HETATM    2  C   UNL     1      -8.483  17.566  69.656  1.00  0.00     0.985 C  
HETATM    3  C   UNL     1     -10.016  17.494  69.605  1.00  0.00     0.272 C  
HETATM    4  C   UNL     1      -8.020  16.621  70.757  1.00  0.00     4.245 C  
HETATM    5  O   UNL     1      -7.960  16.987  71.930  1.00  0.00     9.658 OA 
HETATM    6  C   UNL     1      -6.057  14.465  72.218  1.00  0.00     0.483 C  
HETATM    7  N   UNL     1      -7.642  15.340  70.422  1.00  0.00     0.461 N  
HETATM    8  C   UNL     1      -7.630  14.730  69.100  1.00  0.00    -0.151 C  
HETATM    9  C   UNL     1      -7.389  14.326  71.466  1.00  0.00     3.175 C  
HETATM   10  C   UNL     1      -7.975  13.262  69.346  1.00  0.00     0.747 C  
HETATM   11  C   UNL     1      -7.384  12.978  70.726  1.00  0.00     3.633 C  
HETATM   12  O   UNL     1      -5.298  15.522  71.852  1.00  0.00     0.017 OA 
HETATM   13  O   UNL     1      -5.674  13.661  73.061  1.00  0.00    -0.435 OA 
ENDROOT
BRANCH   3  14
HETATM   14  S   UNL     1     -10.674  18.570  68.304  1.00  0.00     0.089 SA 
BRANCH  14  15
HETATM   15  C   UNL     1      -9.456  19.841  68.265  1.00  0.00    -0.346 C  
HETATM   16  O   UNL     1      -9.603  20.891  68.876  1.00  0.00     0.749 OA 
BRANCH  15  17
HETATM   17  C   UNL     1      -8.219  19.551  67.480  1.00  0.00    -0.328 A  
HETATM   18  C   UNL     1      -7.211  20.509  67.289  1.00  0.00    -0.367 A  
HETATM   19  C   UNL     1      -6.076  20.200  66.537  1.00  0.00    -0.193 A  
HETATM   20  C   UNL     1      -5.934  18.932  65.980  1.00  0.00    -0.197 A  
HETATM   21  C   UNL     1      -8.062  18.273  66.926  1.00  0.00    -0.259 A  
HETATM   22  C   UNL     1      -6.924  17.969  66.174  1.00  0.00    -0.324 A  
ENDBRANCH  15  17
ENDBRANCH  14  15
ENDBRANCH   3  14
BRANCH  10  23
HETATM   23  S   UNL     1      -7.293  12.229  67.999  1.00  0.00    -0.118 SA 
BRANCH  23  24
HETATM   24  C   UNL     1      -7.055  10.641  68.781  1.00  0.00    -0.076 A  
HETATM   25  C   UNL     1      -8.109   9.860  69.264  1.00  0.00    -0.128 A  
HETATM   26  C   UNL     1      -6.555   8.129  69.933  1.00  0.00    -0.039 A  
HETATM   27  C   UNL     1      -7.859   8.613  69.846  1.00  0.00    -0.093 A  
HETATM   28  C   UNL     1      -5.500   8.889  69.436  1.00  0.00    -0.035 A  
HETATM   29  C   UNL     1      -5.749  10.136  68.860  1.00  0.00    -0.034 A  
ENDBRANCH  23  24
ENDBRANCH  10  23
TORSDOF 5
ENDMDL
MODEL      278
REMARK 921   NORMALIZED FREE ENERGY PREDICTED BY IDOCK:   24.19 KCAL/MOL
REMARK 922        TOTAL FREE ENERGY PREDICTED BY IDOCK:   30.09 KCAL/MOL
REMARK 923 INTER-LIGAND FREE ENERGY PREDICTED BY IDOCK:   29.26 KCAL/MOL
REMARK 924 INTRA-LIGAND FREE ENERGY PREDICTED BY IDOCK:    0.83 KCAL/MOL
REMARK 927      BINDING AFFINITY PREDICTED BY RF-SCORE:    0.00 PKD
ROOT
HETATM    1  C   UNL     1      -7.946  18.976  69.929  1.00  0.00     0.814 C  
HETATM    2  C   UNL     1      -8.483  17.566  69.656  1.00  0.00     0.985 C  
HETATM    3  C   UNL     1     -10.016  17.494  69.605  1.00  0.00     0.272 C  
HETATM    4  C   UNL     1      -8.020  16.621  70.757  1.00  0.00     4.245 C  
HETATM    5  O   UNL     1      -7.960  16.987  71.930  1.00  0.00     9.658 OA 
HETATM    6  C   UNL     1      -6.057  14.465  72.218  1.00  0.00     0.483 C  
HETATM    7  N   UNL     1      -7.642  15.340  70.422  1.00  0.00     0.461 N  
HETATM    8  C   UNL     1      -7.630  14.730  69.100  1.00  0.00    -0.151 C  
HETATM    9  C   UNL     1      -7.389  14.326  71.466  1.00  0.00     3.175 C  
HETATM   10  C   UNL     1      -7.975  13.262  69.346  1.00  0.00     0.747 C  
HETATM   11  C   UNL     1      -7.384  12.978  70.726  1.00  0.00     3.633 C  
HETATM   12  O   UNL     1      -5.298  15.522  71.852  1.00  0.00     0.017 OA 
HETATM   13  O   UNL     1      -5.674  13.661  73.061  1.00  0.00    -0.435 OA 
ENDROOT
BRANCH   3  14
HETATM   14  S   UNL     1     -10.674  18.570  68.304  1.00  0.00     0.089 SA 
BRANCH  14  15
HETATM   15  C   UNL     1      -9.510  18.293  67.012  1.00  0.00    -0.274 C  
HETATM   16  O   UNL     1      -8.564  19.047  66.826  1.00  0.00    -0.282 OA 
BRANCH  15  17
HETATM   17  C   UNL     1      -9.716  17.068  66.184  1.00  0.00    -0.283 A  
HETATM   18  C   UNL     1      -9.718  17.103  64.780  1.00  0.00     2.786 A  
HETATM   19  C   UNL     1      -9.927  15.936  64.044  1.00  0.00     4.294 A  
HETATM   20  C   UNL     1     -10.126  14.725  64.701  1.00  0.00     0.182 A  
HETATM   21  C   UNL     1      -9.905  15.842  66.836  1.00  0.00    -0.251 A  
HETATM   22  C   UNL     1     -10.115  14.676  66.095  1.00  0.00    -0.316 A  
ENDBRANCH  15  17
ENDBRANCH  14  15
ENDBRANCH   3  14
BRANCH  10  23
HETATM   23  S   UNL     1      -7.293  12.229  67.999  1.00  0.00    -0.118 SA 
BRANCH  23  24
HETATM   24  C   UNL     1      -7.055  10.641  68.781  1.00  0.00    -0.076 A  
HETATM   25  C   UNL     1      -7.348   9.427  68.154  1.00  0.00    -0.078 A  
HETATM   26  C   UNL     1      -6.573   8.206  70.094  1.00  0.00    -0.036 A  
HETATM   27  C   UNL     1      -7.116   8.214  68.811  1.00  0.00    -0.071 A  
HETATM   28  C   UNL     1      -6.257   9.408  70.721  1.00  0.00    -0.072 A  
HETATM   29  C   UNL     1      -6.493  10.619  70.065  1.00  0.00    -0.138 A  
ENDBRANCH  23  24
ENDBRANCH  10  23
TORSDOF 5
ENDMDL
MODEL      279
REMARK 921   NORMALIZED FREE ENERGY PREDICTED BY IDOCK:   33.02 KCAL/MOL
REMARK 922        TOTAL FREE ENERGY PREDICTED BY IDOCK:   41.50 KCAL/MOL
REMARK 923 INTER-LIGAND FREE ENERGY PREDICTED BY IDOCK:   41.77 KCAL/MOL
REMARK 924 INTRA-LIGAND FREE ENERGY PREDICTED BY IDOCK:   -0.27 KCAL/MOL
REMARK 927      BINDING AFFINITY PREDICTED BY RF-SCORE:    0.00 PKD
ROOT
HETATM    1  C   UNL     1     -10.402  12.817  72.126  1.00  0.00    12.697 C  
HETATM    2  C   UNL     1     -10.504  12.926  70.600  1.00  0.00     3.791 C  
HETATM    3  C   UNL     1     -10.873  11.603  69.914  1.00  0.00     0.318 C  
HETATM    4  C   UNL     1      -9.164  13.374  70.031  1.00  0.00     2.980 C  
HETATM    5  O   UNL     1      -8.102  12.968  70.500  1.00  0.00     3.505 OA 
HETATM    6  C   UNL     1      -6.914  15.495  68.994  1.00  0.00    -0.141 C  
HETATM    7  N   UNL     1      -9.149  14.268  68.983  1.00  0.00    -0.021 N  
HETATM    8  C   UNL     1     -10.290  14.869  68.306  1.00  0.00    -0.232 C  
HETATM    9  C   UNL     1      -7.897  14.570  68.262  1.00  0.00    -0.131 C  
HETATM   10  C   UNL     1      -9.842  15.025  66.854  1.00  0.00    -0.238 C  
HETATM   11  C   UNL     1      -8.337  15.270  66.965  1.00  0.00    -0.267 C  
HETATM   12  O   UNL     1      -7.305  15.889  70.227  1.00  0.00     0.386 OA 
HETATM   13  O   UNL     1      -5.865  15.893  68.496  1.00  0.00    -0.098 OA 
ENDROOT
BRANCH   3  14
HETATM   14  S   UNL     1     -12.474  10.990  70.506  1.00  0.00    -0.333 SA 
BRANCH  14  15
HETATM   15  C   UNL     1     -12.527   9.399  69.755  1.00  0.00     1.076 C  
HETATM   16  O   UNL     1     -13.542   8.977  69.215  1.00  0.00     4.210 OA 
BRANCH  15  17
HETATM   17  C   UNL     1     -11.260   8.611  69.777  1.00  0.00     0.008 A  
HETATM   18  C   UNL     1     -10.262   8.821  70.742  1.00  0.00    -0.262 A  
HETATM   19  C   UNL     1      -9.086   8.069  70.719  1.00  0.00    -0.151 A  
HETATM   20  C   UNL     1      -8.901   7.096  69.740  1.00  0.00    -0.142 A  
HETATM   21  C   UNL     1     -11.070   7.621  68.803  1.00  0.00     0.202 A  
HETATM   22  C   UNL     1      -9.891   6.871  68.783  1.00  0.00    -0.149 A  
ENDBRANCH  15  17
ENDBRANCH  14  15
ENDBRANCH   3  14
BRANCH  10  23
HETATM   23  S   UNL     1     -10.776  16.382  66.058  1.00  0.00    -0.124 SA 
BRANCH  23  24
HETATM   24  C   UNL     1     -12.087  15.527  65.198  1.00  0.00     0.365 A  
HETATM   25  C   UNL     1     -12.910  14.575  65.809  1.00  0.00    -0.053 A  
HETATM   26  C   UNL     1     -14.160  14.298  63.755  1.00  0.00     7.121 A  
HETATM   27  C   UNL     1     -13.936  13.957  65.088  1.00  0.00     2.805 A  
HETATM   28  C   UNL     1     -13.361  15.260  63.143  1.00  0.00     3.952 A  
HETATM   29  C   UNL     1     -12.333  15.873  63.862  1.00  0.00     0.690 A  
ENDBRANCH  23  24
ENDBRANCH  10  23
TORSDOF 5
ENDMDL
